MODEL 1
REMARK VINA RESULT:    -4.841      0.000      0.000
REMARK INTER + INTRA:         -11.500
REMARK INTER:                  -9.369
REMARK INTRA:                  -2.132
REMARK UNBOUND:                -2.132
REMARK SMILES CCCCCC=CCC=CCCCCCCCCOC(C)=O
REMARK SMILES IDX 12 1 11 2 10 3 9 4 8 5 7 6 6 7 5 8 4 9 3 10 2 11 1 12 13 13
REMARK SMILES IDX 14 14 15 15 16 16 17 17 18 18 19 19 20 20 22 21 21 22
REMARK H PARENT
REMARK Flexibility Score: inf
ROOT
ATOM      1  C   UNL     1      -7.681 -10.038   3.456  1.00  0.00     0.004 C 
ENDROOT
BRANCH   1   2
ATOM      2  C   UNL     1      -8.431  -9.247   4.539  1.00  0.00     0.027 C 
BRANCH   2   3
ATOM      3  C   UNL     1      -8.244  -7.766   4.356  1.00  0.00    -0.031 C 
ATOM      4  C   UNL     1      -9.287  -6.922   4.349  1.00  0.00    -0.027 C 
BRANCH   4   5
ATOM      5  C   UNL     1      -9.108  -5.443   4.157  1.00  0.00     0.054 C 
BRANCH   5   6
ATOM      6  C   UNL     1      -9.405  -4.701   5.435  1.00  0.00    -0.027 C 
ATOM      7  C   UNL     1      -8.515  -4.421   6.406  1.00  0.00    -0.031 C 
BRANCH   7   8
ATOM      8  C   UNL     1      -7.066  -4.848   6.429  1.00  0.00     0.027 C 
BRANCH   8   9
ATOM      9  C   UNL     1      -6.617  -5.246   7.845  1.00  0.00     0.004 C 
BRANCH   9  10
ATOM     10  C   UNL     1      -7.174  -6.603   8.310  1.00  0.00     0.000 C 
BRANCH  10  11
ATOM     11  C   UNL     1      -7.659  -6.567   9.767  1.00  0.00    -0.003 C 
ATOM     12  C   UNL     1      -8.508  -5.327  10.031  1.00  0.00     0.004 C 
ENDBRANCH  10  11
ENDBRANCH   9  10
ENDBRANCH   8   9
ENDBRANCH   7   8
ENDBRANCH   5   6
ENDBRANCH   4   5
ENDBRANCH   2   3
ENDBRANCH   1   2
BRANCH   1  13
ATOM     13  C   UNL     1      -7.749  -9.365   2.076  1.00  0.00     0.000 C 
BRANCH  13  14
ATOM     14  C   UNL     1      -8.970  -9.816   1.256  1.00  0.00     0.000 C 
BRANCH  14  15
ATOM     15  C   UNL     1      -9.952  -8.665   0.978  1.00  0.00     0.000 C 
BRANCH  15  16
ATOM     16  C   UNL     1      -9.235  -7.342   0.660  1.00  0.00     0.003 C 
BRANCH  16  17
ATOM     17  C   UNL     1     -10.209  -6.159   0.535  1.00  0.00     0.042 C 
BRANCH  17  18
ATOM     18  C   UNL     1     -10.965  -6.149  -0.800  1.00  0.00     0.233 C 
BRANCH  18  19
ATOM     19  O   UNL     1     -10.069  -6.395  -1.882  1.00  0.00    -0.466 OA
BRANCH  19  20
ATOM     20  C   UNL     1     -10.118  -5.704  -3.097  1.00  0.00     0.302 C 
ATOM     21  O   UNL     1     -10.306  -4.457  -3.125  1.00  0.00    -0.253 OA
ATOM     22  C   UNL     1      -9.922  -6.445  -4.375  1.00  0.00     0.139 C 
ENDBRANCH  19  20
ENDBRANCH  18  19
ENDBRANCH  17  18
ENDBRANCH  16  17
ENDBRANCH  15  16
ENDBRANCH  14  15
ENDBRANCH  13  14
ENDBRANCH   1  13
TORSDOF 16
ENDMDL
MODEL 2
REMARK VINA RESULT:    -4.596      3.785      6.200
REMARK INTER + INTRA:         -11.026
REMARK INTER:                  -9.350
REMARK INTRA:                  -1.677
REMARK UNBOUND:                -2.132
REMARK SMILES CCCCCC=CCC=CCCCCCCCCOC(C)=O
REMARK SMILES IDX 12 1 11 2 10 3 9 4 8 5 7 6 6 7 5 8 4 9 3 10 2 11 1 12 13 13
REMARK SMILES IDX 14 14 15 15 16 16 17 17 18 18 19 19 20 20 22 21 21 22
REMARK H PARENT
REMARK Flexibility Score: inf
ROOT
ATOM      1  C   UNL     1     -10.229  -6.680   0.726  1.00  0.00     0.004 C 
ENDROOT
BRANCH   1   2
ATOM      2  C   UNL     1      -9.854  -8.102   0.283  1.00  0.00     0.027 C 
BRANCH   2   3
ATOM      3  C   UNL     1      -9.232  -8.876   1.413  1.00  0.00    -0.031 C 
ATOM      4  C   UNL     1      -8.139  -8.430   2.051  1.00  0.00    -0.027 C 
BRANCH   4   5
ATOM      5  C   UNL     1      -7.507  -9.203   3.174  1.00  0.00     0.054 C 
BRANCH   5   6
ATOM      6  C   UNL     1      -8.225  -8.936   4.473  1.00  0.00    -0.027 C 
ATOM      7  C   UNL     1      -8.017  -7.882   5.284  1.00  0.00    -0.031 C 
BRANCH   7   8
ATOM      8  C   UNL     1      -6.982  -6.799   5.082  1.00  0.00     0.027 C 
BRANCH   8   9
ATOM      9  C   UNL     1      -7.051  -5.737   6.191  1.00  0.00     0.004 C 
BRANCH   9  10
ATOM     10  C   UNL     1      -7.042  -6.328   7.612  1.00  0.00     0.000 C 
BRANCH  10  11
ATOM     11  C   UNL     1      -7.599  -5.348   8.655  1.00  0.00    -0.003 C 
ATOM     12  C   UNL     1      -7.830  -6.045   9.993  1.00  0.00     0.004 C 
ENDBRANCH  10  11
ENDBRANCH   9  10
ENDBRANCH   8   9
ENDBRANCH   7   8
ENDBRANCH   5   6
ENDBRANCH   4   5
ENDBRANCH   2   3
ENDBRANCH   1   2
BRANCH   1  13
ATOM     13  C   UNL     1     -11.232  -6.666   1.890  1.00  0.00     0.000 C 
BRANCH  13  14
ATOM     14  C   UNL     1     -10.591  -6.229   3.219  1.00  0.00     0.000 C 
BRANCH  14  15
ATOM     15  C   UNL     1      -9.998  -4.812   3.150  1.00  0.00     0.000 C 
BRANCH  15  16
ATOM     16  C   UNL     1      -9.744  -4.210   4.543  1.00  0.00     0.003 C 
BRANCH  16  17
ATOM     17  C   UNL     1     -10.295  -2.782   4.678  1.00  0.00     0.042 C 
BRANCH  17  18
ATOM     18  C   UNL     1     -10.118  -2.206   6.090  1.00  0.00     0.233 C 
BRANCH  18  19
ATOM     19  O   UNL     1     -10.937  -1.052   6.263  1.00  0.00    -0.466 OA
BRANCH  19  20
ATOM     20  C   UNL     1     -10.440   0.195   6.657  1.00  0.00     0.302 C 
ATOM     21  O   UNL     1      -9.201   0.433   6.640  1.00  0.00    -0.253 OA
ATOM     22  C   UNL     1     -11.387   1.265   7.080  1.00  0.00     0.139 C 
ENDBRANCH  19  20
ENDBRANCH  18  19
ENDBRANCH  17  18
ENDBRANCH  16  17
ENDBRANCH  15  16
ENDBRANCH  14  15
ENDBRANCH  13  14
ENDBRANCH   1  13
TORSDOF 16
ENDMDL
MODEL 3
REMARK VINA RESULT:    -4.448      4.002      8.199
REMARK INTER + INTRA:         -10.740
REMARK INTER:                  -8.627
REMARK INTRA:                  -2.113
REMARK UNBOUND:                -2.132
REMARK SMILES CCCCCC=CCC=CCCCCCCCCOC(C)=O
REMARK SMILES IDX 12 1 11 2 10 3 9 4 8 5 7 6 6 7 5 8 4 9 3 10 2 11 1 12 13 13
REMARK SMILES IDX 14 14 15 15 16 16 17 17 18 18 19 19 20 20 22 21 21 22
REMARK H PARENT
REMARK Flexibility Score: inf
ROOT
ATOM      1  C   UNL     1      -8.436  -5.377   5.720  1.00  0.00     0.004 C 
ENDROOT
BRANCH   1   2
ATOM      2  C   UNL     1      -7.387  -6.428   5.328  1.00  0.00     0.027 C 
BRANCH   2   3
ATOM      3  C   UNL     1      -8.028  -7.764   5.071  1.00  0.00    -0.031 C 
ATOM      4  C   UNL     1      -7.551  -8.603   4.137  1.00  0.00    -0.027 C 
BRANCH   4   5
ATOM      5  C   UNL     1      -8.192  -9.934   3.868  1.00  0.00     0.054 C 
BRANCH   5   6
ATOM      6  C   UNL     1      -9.672  -9.773   3.629  1.00  0.00    -0.027 C 
ATOM      7  C   UNL     1     -10.250  -9.470   2.451  1.00  0.00    -0.031 C 
BRANCH   7   8
ATOM      8  C   UNL     1      -9.524  -9.173   1.160  1.00  0.00     0.027 C 
BRANCH   8   9
ATOM      9  C   UNL     1      -9.690  -7.702   0.744  1.00  0.00     0.004 C 
BRANCH   9  10
ATOM     10  C   UNL     1      -8.748  -6.740   1.489  1.00  0.00     0.000 C 
BRANCH  10  11
ATOM     11  C   UNL     1      -9.503  -5.573   2.143  1.00  0.00    -0.003 C 
ATOM     12  C   UNL     1     -10.663  -6.080   2.996  1.00  0.00     0.004 C 
ENDBRANCH  10  11
ENDBRANCH   9  10
ENDBRANCH   8   9
ENDBRANCH   7   8
ENDBRANCH   5   6
ENDBRANCH   4   5
ENDBRANCH   2   3
ENDBRANCH   1   2
BRANCH   1  13
ATOM     13  C   UNL     1      -7.992  -4.509   6.908  1.00  0.00     0.000 C 
BRANCH  13  14
ATOM     14  C   UNL     1      -7.390  -5.340   8.055  1.00  0.00     0.000 C 
BRANCH  14  15
ATOM     15  C   UNL     1      -7.998  -4.986   9.423  1.00  0.00     0.000 C 
BRANCH  15  16
ATOM     16  C   UNL     1      -9.445  -4.474   9.311  1.00  0.00     0.003 C 
BRANCH  16  17
ATOM     17  C   UNL     1      -9.679  -3.186  10.117  1.00  0.00     0.042 C 
BRANCH  17  18
ATOM     18  C   UNL     1     -10.692  -2.245   9.454  1.00  0.00     0.233 C 
BRANCH  18  19
ATOM     19  O   UNL     1     -10.127  -1.645   8.290  1.00  0.00    -0.466 OA
BRANCH  19  20
ATOM     20  C   UNL     1     -10.819  -0.746   7.472  1.00  0.00     0.302 C 
ATOM     21  O   UNL     1     -11.300   0.320   7.944  1.00  0.00    -0.253 OA
ATOM     22  C   UNL     1     -10.968  -1.038   6.018  1.00  0.00     0.139 C 
ENDBRANCH  19  20
ENDBRANCH  18  19
ENDBRANCH  17  18
ENDBRANCH  16  17
ENDBRANCH  15  16
ENDBRANCH  14  15
ENDBRANCH  13  14
ENDBRANCH   1  13
TORSDOF 16
ENDMDL
MODEL 4
REMARK VINA RESULT:    -4.336      1.426      2.896
REMARK INTER + INTRA:         -10.523
REMARK INTER:                  -9.047
REMARK INTRA:                  -1.476
REMARK UNBOUND:                -2.132
REMARK SMILES CCCCCC=CCC=CCCCCCCCCOC(C)=O
REMARK SMILES IDX 12 1 11 2 10 3 9 4 8 5 7 6 6 7 5 8 4 9 3 10 2 11 1 12 13 13
REMARK SMILES IDX 14 14 15 15 16 16 17 17 18 18 19 19 20 20 22 21 21 22
REMARK H PARENT
REMARK Flexibility Score: inf
ROOT
ATOM      1  C   UNL     1      -9.731  -7.625   0.267  1.00  0.00     0.004 C 
ENDROOT
BRANCH   1   2
ATOM      2  C   UNL     1      -9.111  -8.703   1.170  1.00  0.00     0.027 C 
BRANCH   2   3
ATOM      3  C   UNL     1      -8.886  -8.180   2.562  1.00  0.00    -0.031 C 
ATOM      4  C   UNL     1      -9.223  -6.927   2.904  1.00  0.00    -0.027 C 
BRANCH   4   5
ATOM      5  C   UNL     1      -8.992  -6.396   4.290  1.00  0.00     0.054 C 
BRANCH   5   6
ATOM      6  C   UNL     1      -7.896  -7.168   4.979  1.00  0.00    -0.027 C 
ATOM      7  C   UNL     1      -7.016  -6.663   5.865  1.00  0.00    -0.031 C 
BRANCH   7   8
ATOM      8  C   UNL     1      -6.919  -5.217   6.290  1.00  0.00     0.027 C 
BRANCH   8   9
ATOM      9  C   UNL     1      -6.723  -5.086   7.810  1.00  0.00     0.004 C 
BRANCH   9  10
ATOM     10  C   UNL     1      -8.038  -4.907   8.589  1.00  0.00     0.000 C 
BRANCH  10  11
ATOM     11  C   UNL     1      -8.208  -5.956   9.697  1.00  0.00    -0.003 C 
ATOM     12  C   UNL     1      -7.122  -7.025   9.612  1.00  0.00     0.004 C 
ENDBRANCH  10  11
ENDBRANCH   9  10
ENDBRANCH   8   9
ENDBRANCH   7   8
ENDBRANCH   5   6
ENDBRANCH   4   5
ENDBRANCH   2   3
ENDBRANCH   1   2
BRANCH   1  13
ATOM     13  C   UNL     1     -11.225  -7.864  -0.002  1.00  0.00     0.000 C 
BRANCH  13  14
ATOM     14  C   UNL     1     -11.956  -6.588  -0.456  1.00  0.00     0.000 C 
BRANCH  14  15
ATOM     15  C   UNL     1     -11.052  -5.344  -0.415  1.00  0.00     0.000 C 
BRANCH  15  16
ATOM     16  C   UNL     1     -11.607  -4.184  -1.260  1.00  0.00     0.003 C 
BRANCH  16  17
ATOM     17  C   UNL     1     -10.928  -4.079  -2.635  1.00  0.00     0.042 C 
BRANCH  17  18
ATOM     18  C   UNL     1     -11.829  -4.556  -3.782  1.00  0.00     0.233 C 
BRANCH  18  19
ATOM     19  O   UNL     1     -11.154  -5.533  -4.571  1.00  0.00    -0.466 OA
BRANCH  19  20
ATOM     20  C   UNL     1     -10.225  -6.440  -4.049  1.00  0.00     0.302 C 
ATOM     21  O   UNL     1      -9.035  -6.088  -3.825  1.00  0.00    -0.253 OA
ATOM     22  C   UNL     1     -10.653  -7.831  -3.730  1.00  0.00     0.139 C 
ENDBRANCH  19  20
ENDBRANCH  18  19
ENDBRANCH  17  18
ENDBRANCH  16  17
ENDBRANCH  15  16
ENDBRANCH  14  15
ENDBRANCH  13  14
ENDBRANCH   1  13
TORSDOF 16
ENDMDL
MODEL 5
REMARK VINA RESULT:    -4.333      3.218      8.440
REMARK INTER + INTRA:         -10.517
REMARK INTER:                  -8.242
REMARK INTRA:                  -2.276
REMARK UNBOUND:                -2.132
REMARK SMILES CCCCCC=CCC=CCCCCCCCCOC(C)=O
REMARK SMILES IDX 12 1 11 2 10 3 9 4 8 5 7 6 6 7 5 8 4 9 3 10 2 11 1 12 13 13
REMARK SMILES IDX 14 14 15 15 16 16 17 17 18 18 19 19 20 20 22 21 21 22
REMARK H PARENT
REMARK Flexibility Score: inf
ROOT
ATOM      1  C   UNL     1      -9.948  -6.231   2.271  1.00  0.00     0.004 C 
ENDROOT
BRANCH   1   2
ATOM      2  C   UNL     1      -9.070  -6.962   1.245  1.00  0.00     0.027 C 
BRANCH   2   3
ATOM      3  C   UNL     1      -9.868  -7.359   0.034  1.00  0.00    -0.031 C 
ATOM      4  C   UNL     1     -10.818  -8.306   0.098  1.00  0.00    -0.027 C 
BRANCH   4   5
ATOM      5  C   UNL     1     -11.612  -8.714  -1.110  1.00  0.00     0.054 C 
BRANCH   5   6
ATOM      6  C   UNL     1     -10.710  -9.306  -2.163  1.00  0.00    -0.027 C 
ATOM      7  C   UNL     1     -10.453  -8.768  -3.371  1.00  0.00    -0.031 C 
BRANCH   7   8
ATOM      8  C   UNL     1     -11.065  -7.503  -3.925  1.00  0.00     0.027 C 
BRANCH   8   9
ATOM      9  C   UNL     1     -10.000  -6.422  -4.173  1.00  0.00     0.004 C 
BRANCH   9  10
ATOM     10  C   UNL     1     -10.036  -5.273  -3.150  1.00  0.00     0.000 C 
BRANCH  10  11
ATOM     11  C   UNL     1     -11.457  -4.991  -2.639  1.00  0.00    -0.003 C 
ATOM     12  C   UNL     1     -11.426  -4.382  -1.240  1.00  0.00     0.004 C 
ENDBRANCH  10  11
ENDBRANCH   9  10
ENDBRANCH   8   9
ENDBRANCH   7   8
ENDBRANCH   5   6
ENDBRANCH   4   5
ENDBRANCH   2   3
ENDBRANCH   1   2
BRANCH   1  13
ATOM     13  C   UNL     1      -9.995  -6.948   3.630  1.00  0.00     0.000 C 
BRANCH  13  14
ATOM     14  C   UNL     1      -9.143  -8.230   3.652  1.00  0.00     0.000 C 
BRANCH  14  15
ATOM     15  C   UNL     1      -7.791  -8.028   4.356  1.00  0.00     0.000 C 
BRANCH  15  16
ATOM     16  C   UNL     1      -7.917  -7.212   5.653  1.00  0.00     0.003 C 
BRANCH  16  17
ATOM     17  C   UNL     1      -6.865  -6.095   5.753  1.00  0.00     0.042 C 
BRANCH  17  18
ATOM     18  C   UNL     1      -7.439  -4.785   6.307  1.00  0.00     0.233 C 
BRANCH  18  19
ATOM     19  O   UNL     1      -8.830  -4.685   6.008  1.00  0.00    -0.466 OA
BRANCH  19  20
ATOM     20  C   UNL     1      -9.481  -3.472   5.759  1.00  0.00     0.302 C 
ATOM     21  O   UNL     1      -9.411  -2.519   6.583  1.00  0.00    -0.253 OA
ATOM     22  C   UNL     1     -10.247  -3.292   4.493  1.00  0.00     0.139 C 
ENDBRANCH  19  20
ENDBRANCH  18  19
ENDBRANCH  17  18
ENDBRANCH  16  17
ENDBRANCH  15  16
ENDBRANCH  14  15
ENDBRANCH  13  14
ENDBRANCH   1  13
TORSDOF 16
ENDMDL
MODEL 6
REMARK VINA RESULT:    -4.321      2.870      8.228
REMARK INTER + INTRA:         -10.494
REMARK INTER:                  -8.316
REMARK INTRA:                  -2.178
REMARK UNBOUND:                -2.132
REMARK SMILES CCCCCC=CCC=CCCCCCCCCOC(C)=O
REMARK SMILES IDX 12 1 11 2 10 3 9 4 8 5 7 6 6 7 5 8 4 9 3 10 2 11 1 12 13 13
REMARK SMILES IDX 14 14 15 15 16 16 17 17 18 18 19 19 20 20 22 21 21 22
REMARK H PARENT
REMARK Flexibility Score: inf
ROOT
ATOM      1  C   UNL     1      -7.636  -9.095   2.283  1.00  0.00     0.004 C 
ENDROOT
BRANCH   1   2
ATOM      2  C   UNL     1      -8.501 -10.090   1.494  1.00  0.00     0.027 C 
BRANCH   2   3
ATOM      3  C   UNL     1      -9.690  -9.406   0.878  1.00  0.00    -0.031 C 
ATOM      4  C   UNL     1      -9.621  -8.140   0.439  1.00  0.00    -0.027 C 
BRANCH   4   5
ATOM      5  C   UNL     1     -10.808  -7.447  -0.169  1.00  0.00     0.054 C 
BRANCH   5   6
ATOM      6  C   UNL     1     -10.821  -5.987   0.206  1.00  0.00    -0.027 C 
ATOM      7  C   UNL     1     -11.190  -4.972  -0.598  1.00  0.00    -0.031 C 
BRANCH   7   8
ATOM      8  C   UNL     1     -11.603  -5.095  -2.046  1.00  0.00     0.027 C 
BRANCH   8   9
ATOM      9  C   UNL     1     -10.438  -4.771  -2.995  1.00  0.00     0.004 C 
BRANCH   9  10
ATOM     10  C   UNL     1      -9.898  -6.000  -3.750  1.00  0.00     0.000 C 
BRANCH  10  11
ATOM     11  C   UNL     1     -10.987  -7.050  -4.010  1.00  0.00    -0.003 C 
ATOM     12  C   UNL     1     -10.472  -8.457  -3.719  1.00  0.00     0.004 C 
ENDBRANCH  10  11
ENDBRANCH   9  10
ENDBRANCH   8   9
ENDBRANCH   7   8
ENDBRANCH   5   6
ENDBRANCH   4   5
ENDBRANCH   2   3
ENDBRANCH   1   2
BRANCH   1  13
ATOM     13  C   UNL     1      -7.789  -9.253   3.804  1.00  0.00     0.000 C 
BRANCH  13  14
ATOM     14  C   UNL     1      -8.178  -7.936   4.500  1.00  0.00     0.000 C 
BRANCH  14  15
ATOM     15  C   UNL     1      -8.688  -6.874   3.510  1.00  0.00     0.000 C 
BRANCH  15  16
ATOM     16  C   UNL     1      -9.926  -6.126   4.034  1.00  0.00     0.003 C 
BRANCH  16  17
ATOM     17  C   UNL     1      -9.800  -4.602   3.885  1.00  0.00     0.042 C 
BRANCH  17  18
ATOM     18  C   UNL     1      -9.567  -3.890   5.224  1.00  0.00     0.233 C 
BRANCH  18  19
ATOM     19  O   UNL     1      -9.204  -4.832   6.231  1.00  0.00    -0.466 OA
BRANCH  19  20
ATOM     20  C   UNL     1      -8.038  -4.731   6.999  1.00  0.00     0.302 C 
ATOM     21  O   UNL     1      -6.977  -4.262   6.505  1.00  0.00    -0.253 OA
ATOM     22  C   UNL     1      -8.057  -5.158   8.427  1.00  0.00     0.139 C 
ENDBRANCH  19  20
ENDBRANCH  18  19
ENDBRANCH  17  18
ENDBRANCH  16  17
ENDBRANCH  15  16
ENDBRANCH  14  15
ENDBRANCH  13  14
ENDBRANCH   1  13
TORSDOF 16
ENDMDL
MODEL 7
REMARK VINA RESULT:    -4.290      3.504      9.115
REMARK INTER + INTRA:         -10.435
REMARK INTER:                  -8.799
REMARK INTRA:                  -1.636
REMARK UNBOUND:                -2.132
REMARK SMILES CCCCCC=CCC=CCCCCCCCCOC(C)=O
REMARK SMILES IDX 12 1 11 2 10 3 9 4 8 5 7 6 6 7 5 8 4 9 3 10 2 11 1 12 13 13
REMARK SMILES IDX 14 14 15 15 16 16 17 17 18 18 19 19 20 20 22 21 21 22
REMARK H PARENT
REMARK Flexibility Score: inf
ROOT
ATOM      1  C   UNL     1      -8.750  -7.834   1.435  1.00  0.00     0.004 C 
ENDROOT
BRANCH   1   2
ATOM      2  C   UNL     1      -8.964  -6.390   1.915  1.00  0.00     0.027 C 
BRANCH   2   3
ATOM      3  C   UNL     1     -10.108  -5.741   1.185  1.00  0.00    -0.031 C 
ATOM      4  C   UNL     1     -10.740  -6.361   0.176  1.00  0.00    -0.027 C 
BRANCH   4   5
ATOM      5  C   UNL     1     -11.876  -5.715  -0.563  1.00  0.00     0.054 C 
BRANCH   5   6
ATOM      6  C   UNL     1     -11.458  -4.375  -1.114  1.00  0.00    -0.027 C 
ATOM      7  C   UNL     1     -11.267  -4.084  -2.415  1.00  0.00    -0.031 C 
BRANCH   7   8
ATOM      8  C   UNL     1     -11.376  -5.058  -3.565  1.00  0.00     0.027 C 
BRANCH   8   9
ATOM      9  C   UNL     1     -10.102  -5.907  -3.708  1.00  0.00     0.004 C 
BRANCH   9  10
ATOM     10  C   UNL     1     -10.178  -6.947  -4.841  1.00  0.00     0.000 C 
BRANCH  10  11
ATOM     11  C   UNL     1     -10.829  -8.261  -4.384  1.00  0.00    -0.003 C 
ATOM     12  C   UNL     1     -10.550  -8.528  -2.908  1.00  0.00     0.004 C 
ENDBRANCH  10  11
ENDBRANCH   9  10
ENDBRANCH   8   9
ENDBRANCH   7   8
ENDBRANCH   5   6
ENDBRANCH   4   5
ENDBRANCH   2   3
ENDBRANCH   1   2
BRANCH   1  13
ATOM     13  C   UNL     1      -9.031  -8.871   2.534  1.00  0.00     0.000 C 
BRANCH  13  14
ATOM     14  C   UNL     1      -7.887  -8.973   3.558  1.00  0.00     0.000 C 
BRANCH  14  15
ATOM     15  C   UNL     1      -8.222  -8.277   4.888  1.00  0.00     0.000 C 
BRANCH  15  16
ATOM     16  C   UNL     1      -7.255  -7.126   5.212  1.00  0.00     0.003 C 
BRANCH  16  17
ATOM     17  C   UNL     1      -7.979  -5.882   5.752  1.00  0.00     0.042 C 
BRANCH  17  18
ATOM     18  C   UNL     1      -7.022  -4.866   6.388  1.00  0.00     0.233 C 
BRANCH  18  19
ATOM     19  O   UNL     1      -6.616  -5.307   7.682  1.00  0.00    -0.466 OA
BRANCH  19  20
ATOM     20  C   UNL     1      -7.478  -5.367   8.782  1.00  0.00     0.302 C 
ATOM     21  O   UNL     1      -8.212  -4.387   9.084  1.00  0.00    -0.253 OA
ATOM     22  C   UNL     1      -7.549  -6.615   9.595  1.00  0.00     0.139 C 
ENDBRANCH  19  20
ENDBRANCH  18  19
ENDBRANCH  17  18
ENDBRANCH  16  17
ENDBRANCH  15  16
ENDBRANCH  14  15
ENDBRANCH  13  14
ENDBRANCH   1  13
TORSDOF 16
ENDMDL
MODEL 8
REMARK VINA RESULT:    -4.255      3.421      8.945
REMARK INTER + INTRA:         -10.367
REMARK INTER:                  -8.647
REMARK INTRA:                  -1.720
REMARK UNBOUND:                -2.132
REMARK SMILES CCCCCC=CCC=CCCCCCCCCOC(C)=O
REMARK SMILES IDX 12 1 11 2 10 3 9 4 8 5 7 6 6 7 5 8 4 9 3 10 2 11 1 12 13 13
REMARK SMILES IDX 14 14 15 15 16 16 17 17 18 18 19 19 20 20 22 21 21 22
REMARK H PARENT
REMARK Flexibility Score: inf
ROOT
ATOM      1  C   UNL     1      -8.893  -8.942   2.271  1.00  0.00     0.004 C 
ENDROOT
BRANCH   1   2
ATOM      2  C   UNL     1      -9.428  -9.942   1.235  1.00  0.00     0.027 C 
BRANCH   2   3
ATOM      3  C   UNL     1     -10.362  -9.272   0.266  1.00  0.00    -0.031 C 
ATOM      4  C   UNL     1     -10.228  -9.430  -1.061  1.00  0.00    -0.027 C 
BRANCH   4   5
ATOM      5  C   UNL     1     -11.152  -8.756  -2.035  1.00  0.00     0.054 C 
BRANCH   5   6
ATOM      6  C   UNL     1     -10.583  -8.809  -3.430  1.00  0.00    -0.027 C 
ATOM      7  C   UNL     1     -10.536  -7.781  -4.300  1.00  0.00    -0.031 C 
BRANCH   7   8
ATOM      8  C   UNL     1     -11.098  -6.398  -4.067  1.00  0.00     0.027 C 
BRANCH   8   9
ATOM      9  C   UNL     1     -10.088  -5.490  -3.347  1.00  0.00     0.004 C 
BRANCH   9  10
ATOM     10  C   UNL     1     -10.738  -4.309  -2.606  1.00  0.00     0.000 C 
BRANCH  10  11
ATOM     11  C   UNL     1     -11.761  -4.769  -1.558  1.00  0.00    -0.003 C 
ATOM     12  C   UNL     1     -11.074  -5.481  -0.396  1.00  0.00     0.004 C 
ENDBRANCH  10  11
ENDBRANCH   9  10
ENDBRANCH   8   9
ENDBRANCH   7   8
ENDBRANCH   5   6
ENDBRANCH   4   5
ENDBRANCH   2   3
ENDBRANCH   1   2
BRANCH   1  13
ATOM     13  C   UNL     1      -9.802  -7.713   2.432  1.00  0.00     0.000 C 
BRANCH  13  14
ATOM     14  C   UNL     1      -9.008  -6.416   2.666  1.00  0.00     0.000 C 
BRANCH  14  15
ATOM     15  C   UNL     1      -9.643  -5.521   3.744  1.00  0.00     0.000 C 
BRANCH  15  16
ATOM     16  C   UNL     1      -8.954  -5.665   5.112  1.00  0.00     0.003 C 
BRANCH  16  17
ATOM     17  C   UNL     1      -7.703  -6.555   5.051  1.00  0.00     0.042 C 
BRANCH  17  18
ATOM     18  C   UNL     1      -6.616  -6.122   6.043  1.00  0.00     0.233 C 
BRANCH  18  19
ATOM     19  O   UNL     1      -6.866  -6.680   7.331  1.00  0.00    -0.466 OA
BRANCH  19  20
ATOM     20  C   UNL     1      -7.221  -5.915   8.448  1.00  0.00     0.302 C 
ATOM     21  O   UNL     1      -7.292  -4.658   8.375  1.00  0.00    -0.253 OA
ATOM     22  C   UNL     1      -7.544  -6.595   9.734  1.00  0.00     0.139 C 
ENDBRANCH  19  20
ENDBRANCH  18  19
ENDBRANCH  17  18
ENDBRANCH  16  17
ENDBRANCH  15  16
ENDBRANCH  14  15
ENDBRANCH  13  14
ENDBRANCH   1  13
TORSDOF 16
ENDMDL
MODEL 9
REMARK VINA RESULT:    -4.230      3.536      9.031
REMARK INTER + INTRA:         -10.318
REMARK INTER:                  -8.787
REMARK INTRA:                  -1.531
REMARK UNBOUND:                -2.132
REMARK SMILES CCCCCC=CCC=CCCCCCCCCOC(C)=O
REMARK SMILES IDX 12 1 11 2 10 3 9 4 8 5 7 6 6 7 5 8 4 9 3 10 2 11 1 12 13 13
REMARK SMILES IDX 14 14 15 15 16 16 17 17 18 18 19 19 20 20 22 21 21 22
REMARK H PARENT
REMARK Flexibility Score: inf
ROOT
ATOM      1  C   UNL     1      -7.996  -9.713   4.007  1.00  0.00     0.004 C 
ENDROOT
BRANCH   1   2
ATOM      2  C   UNL     1      -8.056 -10.031   2.506  1.00  0.00     0.027 C 
BRANCH   2   3
ATOM      3  C   UNL     1      -9.245  -9.375   1.859  1.00  0.00    -0.031 C 
ATOM      4  C   UNL     1      -9.122  -8.647   0.738  1.00  0.00    -0.027 C 
BRANCH   4   5
ATOM      5  C   UNL     1     -10.304  -7.982   0.093  1.00  0.00     0.054 C 
BRANCH   5   6
ATOM      6  C   UNL     1     -10.397  -6.538   0.515  1.00  0.00    -0.027 C 
ATOM      7  C   UNL     1     -10.920  -5.536  -0.218  1.00  0.00    -0.031 C 
BRANCH   7   8
ATOM      8  C   UNL     1     -11.458  -5.656  -1.625  1.00  0.00     0.027 C 
BRANCH   8   9
ATOM      9  C   UNL     1     -10.358  -5.416  -2.672  1.00  0.00     0.004 C 
BRANCH   9  10
ATOM     10  C   UNL     1     -10.337  -6.466  -3.797  1.00  0.00     0.000 C 
BRANCH  10  11
ATOM     11  C   UNL     1     -11.068  -7.758  -3.404  1.00  0.00    -0.003 C 
ATOM     12  C   UNL     1     -10.270  -8.989  -3.821  1.00  0.00     0.004 C 
ENDBRANCH  10  11
ENDBRANCH   9  10
ENDBRANCH   8   9
ENDBRANCH   7   8
ENDBRANCH   5   6
ENDBRANCH   4   5
ENDBRANCH   2   3
ENDBRANCH   1   2
BRANCH   1  13
ATOM     13  C   UNL     1      -8.837  -8.483   4.387  1.00  0.00     0.000 C 
BRANCH  13  14
ATOM     14  C   UNL     1      -7.979  -7.323   4.923  1.00  0.00     0.000 C 
BRANCH  14  15
ATOM     15  C   UNL     1      -8.710  -5.971   4.859  1.00  0.00     0.000 C 
BRANCH  15  16
ATOM     16  C   UNL     1      -8.284  -5.017   5.989  1.00  0.00     0.003 C 
BRANCH  16  17
ATOM     17  C   UNL     1      -6.799  -5.165   6.357  1.00  0.00     0.042 C 
BRANCH  17  18
ATOM     18  C   UNL     1      -6.575  -5.350   7.864  1.00  0.00     0.233 C 
BRANCH  18  19
ATOM     19  O   UNL     1      -6.921  -6.676   8.259  1.00  0.00    -0.466 OA
BRANCH  19  20
ATOM     20  C   UNL     1      -7.762  -6.965   9.339  1.00  0.00     0.302 C 
ATOM     21  O   UNL     1      -8.002  -8.157   9.671  1.00  0.00    -0.253 OA
ATOM     22  C   UNL     1      -8.361  -5.849  10.125  1.00  0.00     0.139 C 
ENDBRANCH  19  20
ENDBRANCH  18  19
ENDBRANCH  17  18
ENDBRANCH  16  17
ENDBRANCH  15  16
ENDBRANCH  14  15
ENDBRANCH  13  14
ENDBRANCH   1  13
TORSDOF 16
ENDMDL
