MODEL 1
REMARK VINA RESULT:    -3.354      0.000      0.000
REMARK INTER + INTRA:          -9.769
REMARK INTER:                  -7.668
REMARK INTRA:                  -2.100
REMARK UNBOUND:                -2.100
REMARK SMILES CCCCCCCCCCCCCCCCCCCCCCCC(=O)[O-]
REMARK SMILES IDX 13 1 14 2 15 3 16 4 17 5 18 6 19 7 20 8 21 9 22 10 23 11
REMARK SMILES IDX 24 12 25 13 26 14 12 15 11 16 10 17 9 18 8 19 7 20 6 21 5 22
REMARK SMILES IDX 4 23 3 24 2 25 1 26
REMARK H PARENT
REMARK Flexibility Score: inf
ROOT
ATOM      1  C   UNL     1     -28.233  66.989  83.533  1.00  0.00     0.000 C 
ENDROOT
BRANCH   1   2
ATOM      2  C   UNL     1     -27.280  66.364  84.563  1.00  0.00     0.000 C 
BRANCH   2   3
ATOM      3  C   UNL     1     -26.323  67.422  85.132  1.00  0.00     0.000 C 
BRANCH   3   4
ATOM      4  C   UNL     1     -27.059  68.568  85.844  1.00  0.00     0.000 C 
BRANCH   4   5
ATOM      5  C   UNL     1     -28.135  68.062  86.823  1.00  0.00     0.000 C 
BRANCH   5   6
ATOM      6  C   UNL     1     -28.873  69.211  87.529  1.00  0.00     0.000 C 
BRANCH   6   7
ATOM      7  C   UNL     1     -30.058  69.744  86.703  1.00  0.00     0.000 C 
BRANCH   7   8
ATOM      8  C   UNL     1     -30.802  68.635  85.939  1.00  0.00     0.000 C 
BRANCH   8   9
ATOM      9  C   UNL     1     -31.849  67.865  86.764  1.00  0.00     0.000 C 
BRANCH   9  10
ATOM     10  C   UNL     1     -32.290  66.552  86.100  1.00  0.00     0.006 C 
BRANCH  10  11
ATOM     11  C   UNL     1     -31.139  65.921  85.310  1.00  0.00     0.053 C 
BRANCH  11  12
ATOM     12  C   UNL     1     -30.462  64.864  86.122  1.00  0.00     0.041 C 
ATOM     13  O   UNL     1     -29.503  65.164  86.882  1.00  0.00    -0.550 OA
ATOM     14  O   UNL     1     -30.854  63.536  86.001  1.00  0.00    -0.550 OA
ENDBRANCH  11  12
ENDBRANCH  10  11
ENDBRANCH   9  10
ENDBRANCH   8   9
ENDBRANCH   7   8
ENDBRANCH   6   7
ENDBRANCH   5   6
ENDBRANCH   4   5
ENDBRANCH   3   4
ENDBRANCH   2   3
ENDBRANCH   1   2
BRANCH   1  15
ATOM     15  C   UNL     1     -27.918  66.563  82.088  1.00  0.00     0.000 C 
BRANCH  15  16
ATOM     16  C   UNL     1     -28.399  65.150  81.699  1.00  0.00     0.000 C 
BRANCH  16  17
ATOM     17  C   UNL     1     -29.392  64.498  82.678  1.00  0.00     0.000 C 
BRANCH  17  18
ATOM     18  C   UNL     1     -29.140  62.994  82.874  1.00  0.00    -0.000 C 
BRANCH  18  19
ATOM     19  C   UNL     1     -28.317  62.690  84.138  1.00  0.00    -0.000 C 
BRANCH  19  20
ATOM     20  C   UNL     1     -27.431  61.430  84.053  1.00  0.00    -0.000 C 
BRANCH  20  21
ATOM     21  C   UNL     1     -27.899  60.364  83.042  1.00  0.00    -0.000 C 
BRANCH  21  22
ATOM     22  C   UNL     1     -26.962  59.151  82.897  1.00  0.00    -0.000 C 
BRANCH  22  23
ATOM     23  C   UNL     1     -27.610  57.983  82.139  1.00  0.00    -0.000 C 
BRANCH  23  24
ATOM     24  C   UNL     1     -27.105  56.634  82.673  1.00  0.00    -0.000 C 
BRANCH  24  25
ATOM     25  C   UNL     1     -26.237  56.786  83.933  1.00  0.00    -0.003 C 
ATOM     26  C   UNL     1     -24.942  55.977  83.858  1.00  0.00     0.004 C 
ENDBRANCH  24  25
ENDBRANCH  23  24
ENDBRANCH  22  23
ENDBRANCH  21  22
ENDBRANCH  20  21
ENDBRANCH  19  20
ENDBRANCH  18  19
ENDBRANCH  17  18
ENDBRANCH  16  17
ENDBRANCH  15  16
ENDBRANCH   1  15
TORSDOF 22
ENDMDL
MODEL 2
REMARK VINA RESULT:    -3.287      1.744      2.754
REMARK INTER + INTRA:          -9.614
REMARK INTER:                  -6.708
REMARK INTRA:                  -2.906
REMARK UNBOUND:                -2.100
REMARK SMILES CCCCCCCCCCCCCCCCCCCCCCCC(=O)[O-]
REMARK SMILES IDX 13 1 14 2 15 3 16 4 17 5 18 6 19 7 20 8 21 9 22 10 23 11
REMARK SMILES IDX 24 12 25 13 26 14 12 15 11 16 10 17 9 18 8 19 7 20 6 21 5 22
REMARK SMILES IDX 4 23 3 24 2 25 1 26
REMARK H PARENT
REMARK Flexibility Score: inf
ROOT
ATOM      1  C   UNL     1     -28.772  67.218  83.390  1.00  0.00     0.000 C 
ENDROOT
BRANCH   1   2
ATOM      2  C   UNL     1     -27.909  67.772  84.533  1.00  0.00     0.000 C 
BRANCH   2   3
ATOM      3  C   UNL     1     -26.867  66.737  84.980  1.00  0.00     0.000 C 
BRANCH   3   4
ATOM      4  C   UNL     1     -27.489  65.563  85.753  1.00  0.00     0.000 C 
BRANCH   4   5
ATOM      5  C   UNL     1     -28.751  65.971  86.535  1.00  0.00     0.000 C 
BRANCH   5   6
ATOM      6  C   UNL     1     -29.693  64.783  86.792  1.00  0.00     0.000 C 
BRANCH   6   7
ATOM      7  C   UNL     1     -30.798  64.667  85.728  1.00  0.00     0.000 C 
BRANCH   7   8
ATOM      8  C   UNL     1     -31.404  66.028  85.343  1.00  0.00     0.000 C 
BRANCH   8   9
ATOM      9  C   UNL     1     -32.375  66.625  86.377  1.00  0.00     0.000 C 
BRANCH   9  10
ATOM     10  C   UNL     1     -31.966  68.031  86.842  1.00  0.00     0.006 C 
BRANCH  10  11
ATOM     11  C   UNL     1     -31.007  68.685  85.843  1.00  0.00     0.053 C 
BRANCH  11  12
ATOM     12  C   UNL     1     -30.274  69.820  86.484  1.00  0.00     0.041 C 
ATOM     13  O   UNL     1     -29.286  69.595  87.232  1.00  0.00    -0.550 OA
ATOM     14  O   UNL     1     -30.714  71.125  86.298  1.00  0.00    -0.550 OA
ENDBRANCH  11  12
ENDBRANCH  10  11
ENDBRANCH   9  10
ENDBRANCH   8   9
ENDBRANCH   7   8
ENDBRANCH   6   7
ENDBRANCH   5   6
ENDBRANCH   4   5
ENDBRANCH   3   4
ENDBRANCH   2   3
ENDBRANCH   1   2
BRANCH   1  15
ATOM     15  C   UNL     1     -27.937  66.681  82.214  1.00  0.00     0.000 C 
BRANCH  15  16
ATOM     16  C   UNL     1     -28.377  65.308  81.668  1.00  0.00     0.000 C 
BRANCH  16  17
ATOM     17  C   UNL     1     -29.580  64.666  82.384  1.00  0.00     0.000 C 
BRANCH  17  18
ATOM     18  C   UNL     1     -29.326  63.206  82.791  1.00  0.00    -0.000 C 
BRANCH  18  19
ATOM     19  C   UNL     1     -28.228  63.070  83.860  1.00  0.00    -0.000 C 
BRANCH  19  20
ATOM     20  C   UNL     1     -28.189  61.711  84.588  1.00  0.00    -0.000 C 
BRANCH  20  21
ATOM     21  C   UNL     1     -27.227  60.669  83.983  1.00  0.00    -0.000 C 
BRANCH  21  22
ATOM     22  C   UNL     1     -27.764  59.933  82.742  1.00  0.00    -0.000 C 
BRANCH  22  23
ATOM     23  C   UNL     1     -27.097  58.568  82.522  1.00  0.00    -0.000 C 
BRANCH  23  24
ATOM     24  C   UNL     1     -26.357  58.108  83.788  1.00  0.00    -0.000 C 
BRANCH  24  25
ATOM     25  C   UNL     1     -26.288  56.578  83.908  1.00  0.00    -0.003 C 
ATOM     26  C   UNL     1     -24.854  56.049  83.896  1.00  0.00     0.004 C 
ENDBRANCH  24  25
ENDBRANCH  23  24
ENDBRANCH  22  23
ENDBRANCH  21  22
ENDBRANCH  20  21
ENDBRANCH  19  20
ENDBRANCH  18  19
ENDBRANCH  17  18
ENDBRANCH  16  17
ENDBRANCH  15  16
ENDBRANCH   1  15
TORSDOF 22
ENDMDL
MODEL 3
REMARK VINA RESULT:    -3.209      2.479      6.765
REMARK INTER + INTRA:          -9.436
REMARK INTER:                  -5.884
REMARK INTRA:                  -3.552
REMARK UNBOUND:                -2.100
REMARK SMILES CCCCCCCCCCCCCCCCCCCCCCCC(=O)[O-]
REMARK SMILES IDX 13 1 14 2 15 3 16 4 17 5 18 6 19 7 20 8 21 9 22 10 23 11
REMARK SMILES IDX 24 12 25 13 26 14 12 15 11 16 10 17 9 18 8 19 7 20 6 21 5 22
REMARK SMILES IDX 4 23 3 24 2 25 1 26
REMARK H PARENT
REMARK Flexibility Score: inf
ROOT
ATOM      1  C   UNL     1     -26.737  68.659  85.596  1.00  0.00     0.000 C 
ENDROOT
BRANCH   1   2
ATOM      2  C   UNL     1     -26.367  67.182  85.402  1.00  0.00     0.000 C 
BRANCH   2   3
ATOM      3  C   UNL     1     -27.261  66.531  84.337  1.00  0.00     0.000 C 
BRANCH   3   4
ATOM      4  C   UNL     1     -28.399  67.453  83.872  1.00  0.00     0.000 C 
BRANCH   4   5
ATOM      5  C   UNL     1     -28.890  67.116  82.451  1.00  0.00     0.000 C 
BRANCH   5   6
ATOM      6  C   UNL     1     -27.815  66.409  81.610  1.00  0.00     0.000 C 
BRANCH   6   7
ATOM      7  C   UNL     1     -28.230  64.983  81.204  1.00  0.00     0.000 C 
BRANCH   7   8
ATOM      8  C   UNL     1     -29.657  64.623  81.658  1.00  0.00     0.000 C 
BRANCH   8   9
ATOM      9  C   UNL     1     -29.754  63.409  82.599  1.00  0.00     0.000 C 
BRANCH   9  10
ATOM     10  C   UNL     1     -28.518  63.246  83.497  1.00  0.00     0.006 C 
BRANCH  10  11
ATOM     11  C   UNL     1     -28.602  61.958  84.321  1.00  0.00     0.053 C 
BRANCH  11  12
ATOM     12  C   UNL     1     -27.427  61.077  84.041  1.00  0.00     0.041 C 
ATOM     13  O   UNL     1     -26.366  61.204  84.708  1.00  0.00    -0.550 OA
ATOM     14  O   UNL     1     -27.483  60.150  83.007  1.00  0.00    -0.550 OA
ENDBRANCH  11  12
ENDBRANCH  10  11
ENDBRANCH   9  10
ENDBRANCH   8   9
ENDBRANCH   7   8
ENDBRANCH   6   7
ENDBRANCH   5   6
ENDBRANCH   4   5
ENDBRANCH   3   4
ENDBRANCH   2   3
ENDBRANCH   1   2
BRANCH   1  15
ATOM     15  C   UNL     1     -26.534  69.144  87.043  1.00  0.00     0.000 C 
BRANCH  15  16
ATOM     16  C   UNL     1     -27.736  68.924  87.984  1.00  0.00     0.000 C 
BRANCH  16  17
ATOM     17  C   UNL     1     -29.056  68.538  87.292  1.00  0.00     0.000 C 
BRANCH  17  18
ATOM     18  C   UNL     1     -29.866  69.757  86.821  1.00  0.00    -0.000 C 
BRANCH  18  19
ATOM     19  C   UNL     1     -31.212  69.366  86.187  1.00  0.00    -0.000 C 
BRANCH  19  20
ATOM     20  C   UNL     1     -32.106  68.460  87.058  1.00  0.00    -0.000 C 
BRANCH  20  21
ATOM     21  C   UNL     1     -32.348  67.044  86.499  1.00  0.00    -0.000 C 
BRANCH  21  22
ATOM     22  C   UNL     1     -31.701  66.766  85.130  1.00  0.00    -0.000 C 
BRANCH  22  23
ATOM     23  C   UNL     1     -30.857  65.484  85.117  1.00  0.00    -0.000 C 
BRANCH  23  24
ATOM     24  C   UNL     1     -29.966  65.400  86.366  1.00  0.00    -0.000 C 
BRANCH  24  25
ATOM     25  C   UNL     1     -29.942  63.992  86.980  1.00  0.00    -0.003 C 
ATOM     26  C   UNL     1     -30.879  63.020  86.263  1.00  0.00     0.004 C 
ENDBRANCH  24  25
ENDBRANCH  23  24
ENDBRANCH  22  23
ENDBRANCH  21  22
ENDBRANCH  20  21
ENDBRANCH  19  20
ENDBRANCH  18  19
ENDBRANCH  17  18
ENDBRANCH  16  17
ENDBRANCH  15  16
ENDBRANCH   1  15
TORSDOF 22
ENDMDL
MODEL 4
REMARK VINA RESULT:    -3.190      1.608      3.651
REMARK INTER + INTRA:          -9.393
REMARK INTER:                  -6.830
REMARK INTRA:                  -2.563
REMARK UNBOUND:                -2.100
REMARK SMILES CCCCCCCCCCCCCCCCCCCCCCCC(=O)[O-]
REMARK SMILES IDX 13 1 14 2 15 3 16 4 17 5 18 6 19 7 20 8 21 9 22 10 23 11
REMARK SMILES IDX 24 12 25 13 26 14 12 15 11 16 10 17 9 18 8 19 7 20 6 21 5 22
REMARK SMILES IDX 4 23 3 24 2 25 1 26
REMARK H PARENT
REMARK Flexibility Score: inf
ROOT
ATOM      1  C   UNL     1     -32.461  67.080  86.140  1.00  0.00     0.000 C 
ENDROOT
BRANCH   1   2
ATOM      2  C   UNL     1     -31.768  68.093  87.064  1.00  0.00     0.000 C 
BRANCH   2   3
ATOM      3  C   UNL     1     -31.229  69.284  86.259  1.00  0.00     0.000 C 
BRANCH   3   4
ATOM      4  C   UNL     1     -29.693  69.328  86.219  1.00  0.00     0.000 C 
BRANCH   4   5
ATOM      5  C   UNL     1     -29.050  68.734  87.486  1.00  0.00     0.000 C 
BRANCH   5   6
ATOM      6  C   UNL     1     -27.630  68.202  87.230  1.00  0.00     0.000 C 
BRANCH   6   7
ATOM      7  C   UNL     1     -27.192  68.377  85.765  1.00  0.00     0.000 C 
BRANCH   7   8
ATOM      8  C   UNL     1     -26.633  67.082  85.148  1.00  0.00     0.000 C 
BRANCH   8   9
ATOM      9  C   UNL     1     -27.673  66.198  84.436  1.00  0.00     0.000 C 
BRANCH   9  10
ATOM     10  C   UNL     1     -28.598  66.994  83.503  1.00  0.00     0.006 C 
BRANCH  10  11
ATOM     11  C   UNL     1     -29.726  66.111  82.961  1.00  0.00     0.053 C 
BRANCH  11  12
ATOM     12  C   UNL     1     -29.185  65.098  82.003  1.00  0.00     0.041 C 
ATOM     13  O   UNL     1     -29.873  64.090  81.691  1.00  0.00    -0.550 OA
ATOM     14  O   UNL     1     -27.900  65.238  81.494  1.00  0.00    -0.550 OA
ENDBRANCH  11  12
ENDBRANCH  10  11
ENDBRANCH   9  10
ENDBRANCH   8   9
ENDBRANCH   7   8
ENDBRANCH   6   7
ENDBRANCH   5   6
ENDBRANCH   4   5
ENDBRANCH   3   4
ENDBRANCH   2   3
ENDBRANCH   1   2
BRANCH   1  15
ATOM     15  C   UNL     1     -31.502  66.001  85.606  1.00  0.00     0.000 C 
BRANCH  15  16
ATOM     16  C   UNL     1     -30.311  65.665  86.527  1.00  0.00     0.000 C 
BRANCH  16  17
ATOM     17  C   UNL     1     -29.981  64.168  86.660  1.00  0.00     0.000 C 
BRANCH  17  18
ATOM     18  C   UNL     1     -30.147  63.397  85.340  1.00  0.00    -0.000 C 
BRANCH  18  19
ATOM     19  C   UNL     1     -29.236  62.160  85.257  1.00  0.00    -0.000 C 
BRANCH  19  20
ATOM     20  C   UNL     1     -28.212  62.179  84.104  1.00  0.00    -0.000 C 
BRANCH  20  21
ATOM     21  C   UNL     1     -27.346  60.911  83.972  1.00  0.00    -0.000 C 
BRANCH  21  22
ATOM     22  C   UNL     1     -27.816  59.912  82.899  1.00  0.00    -0.000 C 
BRANCH  22  23
ATOM     23  C   UNL     1     -26.797  58.793  82.638  1.00  0.00    -0.000 C 
BRANCH  23  24
ATOM     24  C   UNL     1     -27.506  57.462  82.347  1.00  0.00    -0.000 C 
BRANCH  24  25
ATOM     25  C   UNL     1     -26.938  56.298  83.174  1.00  0.00    -0.003 C 
ATOM     26  C   UNL     1     -25.771  56.722  84.066  1.00  0.00     0.004 C 
ENDBRANCH  24  25
ENDBRANCH  23  24
ENDBRANCH  22  23
ENDBRANCH  21  22
ENDBRANCH  20  21
ENDBRANCH  19  20
ENDBRANCH  18  19
ENDBRANCH  17  18
ENDBRANCH  16  17
ENDBRANCH  15  16
ENDBRANCH   1  15
TORSDOF 22
ENDMDL
MODEL 5
REMARK VINA RESULT:    -3.141      2.775      7.759
REMARK INTER + INTRA:          -9.282
REMARK INTER:                  -6.570
REMARK INTRA:                  -2.712
REMARK UNBOUND:                -2.100
REMARK SMILES CCCCCCCCCCCCCCCCCCCCCCCC(=O)[O-]
REMARK SMILES IDX 13 1 14 2 15 3 16 4 17 5 18 6 19 7 20 8 21 9 22 10 23 11
REMARK SMILES IDX 24 12 25 13 26 14 12 15 11 16 10 17 9 18 8 19 7 20 6 21 5 22
REMARK SMILES IDX 4 23 3 24 2 25 1 26
REMARK H PARENT
REMARK Flexibility Score: inf
ROOT
ATOM      1  C   UNL     1     -31.976  66.881  85.734  1.00  0.00     0.000 C 
ENDROOT
BRANCH   1   2
ATOM      2  C   UNL     1     -30.962  65.803  85.322  1.00  0.00     0.000 C 
BRANCH   2   3
ATOM      3  C   UNL     1     -30.143  65.333  86.533  1.00  0.00     0.000 C 
BRANCH   3   4
ATOM      4  C   UNL     1     -29.804  63.835  86.476  1.00  0.00     0.000 C 
BRANCH   4   5
ATOM      5  C   UNL     1     -29.833  63.275  85.041  1.00  0.00     0.000 C 
BRANCH   5   6
ATOM      6  C   UNL     1     -29.142  61.906  84.931  1.00  0.00     0.000 C 
BRANCH   6   7
ATOM      7  C   UNL     1     -27.695  62.017  84.420  1.00  0.00     0.000 C 
BRANCH   7   8
ATOM      8  C   UNL     1     -27.103  60.661  83.997  1.00  0.00     0.000 C 
BRANCH   8   9
ATOM      9  C   UNL     1     -27.823  59.974  82.823  1.00  0.00     0.000 C 
BRANCH   9  10
ATOM     10  C   UNL     1     -27.319  58.546  82.563  1.00  0.00     0.006 C 
BRANCH  10  11
ATOM     11  C   UNL     1     -26.317  58.111  83.637  1.00  0.00     0.053 C 
BRANCH  11  12
ATOM     12  C   UNL     1     -26.132  56.628  83.613  1.00  0.00     0.041 C 
ATOM     13  O   UNL     1     -27.087  55.875  83.284  1.00  0.00    -0.550 OA
ATOM     14  O   UNL     1     -24.920  56.071  84.004  1.00  0.00    -0.550 OA
ENDBRANCH  11  12
ENDBRANCH  10  11
ENDBRANCH   9  10
ENDBRANCH   8   9
ENDBRANCH   7   8
ENDBRANCH   6   7
ENDBRANCH   5   6
ENDBRANCH   4   5
ENDBRANCH   3   4
ENDBRANCH   2   3
ENDBRANCH   1   2
BRANCH   1  15
ATOM     15  C   UNL     1     -31.393  67.905  86.725  1.00  0.00     0.000 C 
BRANCH  15  16
ATOM     16  C   UNL     1     -30.082  68.582  86.274  1.00  0.00     0.000 C 
BRANCH  16  17
ATOM     17  C   UNL     1     -29.111  68.962  87.407  1.00  0.00     0.000 C 
BRANCH  17  18
ATOM     18  C   UNL     1     -27.716  68.340  87.235  1.00  0.00    -0.000 C 
BRANCH  18  19
ATOM     19  C   UNL     1     -27.109  68.620  85.849  1.00  0.00    -0.000 C 
BRANCH  19  20
ATOM     20  C   UNL     1     -26.435  67.408  85.174  1.00  0.00    -0.000 C 
BRANCH  20  21
ATOM     21  C   UNL     1     -27.401  66.395  84.526  1.00  0.00    -0.000 C 
BRANCH  21  22
ATOM     22  C   UNL     1     -28.436  67.008  83.566  1.00  0.00    -0.000 C 
BRANCH  22  23
ATOM     23  C   UNL     1     -28.170  66.653  82.096  1.00  0.00    -0.000 C 
BRANCH  23  24
ATOM     24  C   UNL     1     -28.444  65.165  81.832  1.00  0.00    -0.000 C 
BRANCH  24  25
ATOM     25  C   UNL     1     -29.945  64.837  81.805  1.00  0.00    -0.003 C 
ATOM     26  C   UNL     1     -30.221  63.351  81.573  1.00  0.00     0.004 C 
ENDBRANCH  24  25
ENDBRANCH  23  24
ENDBRANCH  22  23
ENDBRANCH  21  22
ENDBRANCH  20  21
ENDBRANCH  19  20
ENDBRANCH  18  19
ENDBRANCH  17  18
ENDBRANCH  16  17
ENDBRANCH  15  16
ENDBRANCH   1  15
TORSDOF 22
ENDMDL
MODEL 6
REMARK VINA RESULT:    -3.128      1.805      4.381
REMARK INTER + INTRA:          -9.251
REMARK INTER:                  -6.187
REMARK INTRA:                  -3.064
REMARK UNBOUND:                -2.100
REMARK SMILES CCCCCCCCCCCCCCCCCCCCCCCC(=O)[O-]
REMARK SMILES IDX 13 1 14 2 15 3 16 4 17 5 18 6 19 7 20 8 21 9 22 10 23 11
REMARK SMILES IDX 24 12 25 13 26 14 12 15 11 16 10 17 9 18 8 19 7 20 6 21 5 22
REMARK SMILES IDX 4 23 3 24 2 25 1 26
REMARK H PARENT
REMARK Flexibility Score: inf
ROOT
ATOM      1  C   UNL     1     -31.455  69.243  86.494  1.00  0.00     0.000 C 
ENDROOT
BRANCH   1   2
ATOM      2  C   UNL     1     -29.957  69.260  86.157  1.00  0.00     0.000 C 
BRANCH   2   3
ATOM      3  C   UNL     1     -29.113  68.998  87.413  1.00  0.00     0.000 C 
BRANCH   3   4
ATOM      4  C   UNL     1     -27.862  68.153  87.123  1.00  0.00     0.000 C 
BRANCH   4   5
ATOM      5  C   UNL     1     -27.049  68.689  85.930  1.00  0.00     0.000 C 
BRANCH   5   6
ATOM      6  C   UNL     1     -26.440  67.562  85.080  1.00  0.00     0.000 C 
BRANCH   6   7
ATOM      7  C   UNL     1     -27.504  66.585  84.549  1.00  0.00     0.000 C 
BRANCH   7   8
ATOM      8  C   UNL     1     -28.388  67.202  83.451  1.00  0.00     0.000 C 
BRANCH   8   9
ATOM      9  C   UNL     1     -28.039  66.772  82.015  1.00  0.00     0.000 C 
BRANCH   9  10
ATOM     10  C   UNL     1     -28.400  65.308  81.723  1.00  0.00     0.006 C 
BRANCH  10  11
ATOM     11  C   UNL     1     -29.743  64.934  82.359  1.00  0.00     0.053 C 
BRANCH  11  12
ATOM     12  C   UNL     1     -30.413  63.853  81.574  1.00  0.00     0.041 C 
ATOM     13  O   UNL     1     -30.182  62.643  81.837  1.00  0.00    -0.550 OA
ATOM     14  O   UNL     1     -31.253  64.179  80.516  1.00  0.00    -0.550 OA
ENDBRANCH  11  12
ENDBRANCH  10  11
ENDBRANCH   9  10
ENDBRANCH   8   9
ENDBRANCH   7   8
ENDBRANCH   6   7
ENDBRANCH   5   6
ENDBRANCH   4   5
ENDBRANCH   3   4
ENDBRANCH   2   3
ENDBRANCH   1   2
BRANCH   1  15
ATOM     15  C   UNL     1     -31.935  67.882  87.028  1.00  0.00     0.000 C 
BRANCH  15  16
ATOM     16  C   UNL     1     -32.358  66.864  85.949  1.00  0.00     0.000 C 
BRANCH  16  17
ATOM     17  C   UNL     1     -31.252  65.902  85.477  1.00  0.00     0.000 C 
BRANCH  17  18
ATOM     18  C   UNL     1     -30.151  65.693  86.530  1.00  0.00    -0.000 C 
BRANCH  18  19
ATOM     19  C   UNL     1     -29.436  64.338  86.378  1.00  0.00    -0.000 C 
BRANCH  19  20
ATOM     20  C   UNL     1     -30.289  63.216  85.752  1.00  0.00    -0.000 C 
BRANCH  20  21
ATOM     21  C   UNL     1     -29.491  62.088  85.068  1.00  0.00    -0.000 C 
BRANCH  21  22
ATOM     22  C   UNL     1     -28.146  62.522  84.457  1.00  0.00    -0.000 C 
BRANCH  22  23
ATOM     23  C   UNL     1     -27.218  61.337  84.152  1.00  0.00    -0.000 C 
BRANCH  23  24
ATOM     24  C   UNL     1     -27.792  60.467  83.023  1.00  0.00    -0.000 C 
BRANCH  24  25
ATOM     25  C   UNL     1     -27.213  59.044  83.022  1.00  0.00    -0.003 C 
ATOM     26  C   UNL     1     -27.654  58.228  81.807  1.00  0.00     0.004 C 
ENDBRANCH  24  25
ENDBRANCH  23  24
ENDBRANCH  22  23
ENDBRANCH  21  22
ENDBRANCH  20  21
ENDBRANCH  19  20
ENDBRANCH  18  19
ENDBRANCH  17  18
ENDBRANCH  16  17
ENDBRANCH  15  16
ENDBRANCH   1  15
TORSDOF 22
ENDMDL
MODEL 7
REMARK VINA RESULT:    -3.115      2.556      7.671
REMARK INTER + INTRA:          -9.222
REMARK INTER:                  -6.420
REMARK INTRA:                  -2.802
REMARK UNBOUND:                -2.100
REMARK SMILES CCCCCCCCCCCCCCCCCCCCCCCC(=O)[O-]
REMARK SMILES IDX 13 1 14 2 15 3 16 4 17 5 18 6 19 7 20 8 21 9 22 10 23 11
REMARK SMILES IDX 24 12 25 13 26 14 12 15 11 16 10 17 9 18 8 19 7 20 6 21 5 22
REMARK SMILES IDX 4 23 3 24 2 25 1 26
REMARK H PARENT
REMARK Flexibility Score: inf
ROOT
ATOM      1  C   UNL     1     -27.575  65.621  85.456  1.00  0.00     0.000 C 
ENDROOT
BRANCH   1   2
ATOM      2  C   UNL     1     -26.998  66.953  84.953  1.00  0.00     0.000 C 
BRANCH   2   3
ATOM      3  C   UNL     1     -28.114  67.863  84.418  1.00  0.00     0.000 C 
BRANCH   3   4
ATOM      4  C   UNL     1     -28.897  67.225  83.259  1.00  0.00     0.000 C 
BRANCH   4   5
ATOM      5  C   UNL     1     -28.039  67.045  81.993  1.00  0.00     0.000 C 
BRANCH   5   6
ATOM      6  C   UNL     1     -27.748  65.567  81.685  1.00  0.00     0.000 C 
BRANCH   6   7
ATOM      7  C   UNL     1     -28.669  65.003  80.589  1.00  0.00     0.000 C 
BRANCH   7   8
ATOM      8  C   UNL     1     -29.922  64.311  81.156  1.00  0.00     0.000 C 
BRANCH   8   9
ATOM      9  C   UNL     1     -29.847  63.953  82.652  1.00  0.00     0.000 C 
BRANCH   9  10
ATOM     10  C   UNL     1     -29.386  62.510  82.901  1.00  0.00     0.006 C 
BRANCH  10  11
ATOM     11  C   UNL     1     -28.416  62.438  84.084  1.00  0.00     0.053 C 
BRANCH  11  12
ATOM     12  C   UNL     1     -27.537  61.233  83.970  1.00  0.00     0.041 C 
ATOM     13  O   UNL     1     -27.795  60.338  83.123  1.00  0.00    -0.550 OA
ATOM     14  O   UNL     1     -26.461  61.073  84.836  1.00  0.00    -0.550 OA
ENDBRANCH  11  12
ENDBRANCH  10  11
ENDBRANCH   9  10
ENDBRANCH   8   9
ENDBRANCH   7   8
ENDBRANCH   6   7
ENDBRANCH   5   6
ENDBRANCH   4   5
ENDBRANCH   3   4
ENDBRANCH   2   3
ENDBRANCH   1   2
BRANCH   1  15
ATOM     15  C   UNL     1     -28.661  65.806  86.531  1.00  0.00     0.000 C 
BRANCH  15  16
ATOM     16  C   UNL     1     -29.651  64.631  86.674  1.00  0.00     0.000 C 
BRANCH  16  17
ATOM     17  C   UNL     1     -30.882  64.689  85.751  1.00  0.00     0.000 C 
BRANCH  17  18
ATOM     18  C   UNL     1     -31.205  66.113  85.271  1.00  0.00    -0.000 C 
BRANCH  18  19
ATOM     19  C   UNL     1     -32.399  66.733  86.017  1.00  0.00    -0.000 C 
BRANCH  19  20
ATOM     20  C   UNL     1     -32.026  67.690  87.167  1.00  0.00    -0.000 C 
BRANCH  20  21
ATOM     21  C   UNL     1     -32.211  69.190  86.861  1.00  0.00    -0.000 C 
BRANCH  21  22
ATOM     22  C   UNL     1     -30.993  69.877  86.218  1.00  0.00    -0.000 C 
BRANCH  22  23
ATOM     23  C   UNL     1     -29.678  69.128  86.479  1.00  0.00    -0.000 C 
BRANCH  23  24
ATOM     24  C   UNL     1     -29.092  69.509  87.847  1.00  0.00    -0.000 C 
BRANCH  24  25
ATOM     25  C   UNL     1     -27.706  68.890  88.089  1.00  0.00    -0.003 C 
ATOM     26  C   UNL     1     -27.474  68.517  89.553  1.00  0.00     0.004 C 
ENDBRANCH  24  25
ENDBRANCH  23  24
ENDBRANCH  22  23
ENDBRANCH  21  22
ENDBRANCH  20  21
ENDBRANCH  19  20
ENDBRANCH  18  19
ENDBRANCH  17  18
ENDBRANCH  16  17
ENDBRANCH  15  16
ENDBRANCH   1  15
TORSDOF 22
ENDMDL
MODEL 8
REMARK VINA RESULT:    -3.037      1.849      3.171
REMARK INTER + INTRA:          -9.043
REMARK INTER:                  -6.330
REMARK INTRA:                  -2.713
REMARK UNBOUND:                -2.100
REMARK SMILES CCCCCCCCCCCCCCCCCCCCCCCC(=O)[O-]
REMARK SMILES IDX 13 1 14 2 15 3 16 4 17 5 18 6 19 7 20 8 21 9 22 10 23 11
REMARK SMILES IDX 24 12 25 13 26 14 12 15 11 16 10 17 9 18 8 19 7 20 6 21 5 22
REMARK SMILES IDX 4 23 3 24 2 25 1 26
REMARK H PARENT
REMARK Flexibility Score: inf
ROOT
ATOM      1  C   UNL     1     -27.481  67.048  84.576  1.00  0.00     0.000 C 
ENDROOT
BRANCH   1   2
ATOM      2  C   UNL     1     -27.554  65.791  85.455  1.00  0.00     0.000 C 
BRANCH   2   3
ATOM      3  C   UNL     1     -28.705  65.899  86.466  1.00  0.00     0.000 C 
BRANCH   3   4
ATOM      4  C   UNL     1     -29.590  64.643  86.497  1.00  0.00     0.000 C 
BRANCH   4   5
ATOM      5  C   UNL     1     -30.927  64.842  85.759  1.00  0.00     0.000 C 
BRANCH   5   6
ATOM      6  C   UNL     1     -31.191  66.317  85.411  1.00  0.00     0.000 C 
BRANCH   6   7
ATOM      7  C   UNL     1     -32.241  66.959  86.334  1.00  0.00     0.000 C 
BRANCH   7   8
ATOM      8  C   UNL     1     -31.740  68.252  87.002  1.00  0.00     0.000 C 
BRANCH   8   9
ATOM      9  C   UNL     1     -30.916  69.179  86.091  1.00  0.00     0.000 C 
BRANCH   9  10
ATOM     10  C   UNL     1     -29.440  69.271  86.506  1.00  0.00     0.006 C 
BRANCH  10  11
ATOM     11  C   UNL     1     -29.271  68.997  88.003  1.00  0.00     0.053 C 
BRANCH  11  12
ATOM     12  C   UNL     1     -27.821  68.906  88.360  1.00  0.00     0.041 C 
ATOM     13  O   UNL     1     -26.942  68.969  87.461  1.00  0.00    -0.550 OA
ATOM     14  O   UNL     1     -27.442  68.697  89.681  1.00  0.00    -0.550 OA
ENDBRANCH  11  12
ENDBRANCH  10  11
ENDBRANCH   9  10
ENDBRANCH   8   9
ENDBRANCH   7   8
ENDBRANCH   6   7
ENDBRANCH   5   6
ENDBRANCH   4   5
ENDBRANCH   3   4
ENDBRANCH   2   3
ENDBRANCH   1   2
BRANCH   1  15
ATOM     15  C   UNL     1     -28.626  67.131  83.551  1.00  0.00     0.000 C 
BRANCH  15  16
ATOM     16  C   UNL     1     -28.244  66.751  82.105  1.00  0.00     0.000 C 
BRANCH  16  17
ATOM     17  C   UNL     1     -28.241  65.243  81.797  1.00  0.00     0.000 C 
BRANCH  17  18
ATOM     18  C   UNL     1     -29.441  64.503  82.412  1.00  0.00    -0.000 C 
BRANCH  18  19
ATOM     19  C   UNL     1     -29.105  63.056  82.811  1.00  0.00    -0.000 C 
BRANCH  19  20
ATOM     20  C   UNL     1     -28.419  62.899  84.183  1.00  0.00    -0.000 C 
BRANCH  20  21
ATOM     21  C   UNL     1     -27.942  61.472  84.520  1.00  0.00    -0.000 C 
BRANCH  21  22
ATOM     22  C   UNL     1     -27.158  60.768  83.397  1.00  0.00    -0.000 C 
BRANCH  22  23
ATOM     23  C   UNL     1     -27.863  59.506  82.879  1.00  0.00    -0.000 C 
BRANCH  23  24
ATOM     24  C   UNL     1     -26.840  58.437  82.463  1.00  0.00    -0.000 C 
BRANCH  24  25
ATOM     25  C   UNL     1     -26.543  57.435  83.589  1.00  0.00    -0.003 C 
ATOM     26  C   UNL     1     -26.773  55.985  83.164  1.00  0.00     0.004 C 
ENDBRANCH  24  25
ENDBRANCH  23  24
ENDBRANCH  22  23
ENDBRANCH  21  22
ENDBRANCH  20  21
ENDBRANCH  19  20
ENDBRANCH  18  19
ENDBRANCH  17  18
ENDBRANCH  16  17
ENDBRANCH  15  16
ENDBRANCH   1  15
TORSDOF 22
ENDMDL
MODEL 9
REMARK VINA RESULT:    -2.994      2.530      7.624
REMARK INTER + INTRA:          -8.944
REMARK INTER:                  -6.572
REMARK INTRA:                  -2.372
REMARK UNBOUND:                -2.100
REMARK SMILES CCCCCCCCCCCCCCCCCCCCCCCC(=O)[O-]
REMARK SMILES IDX 13 1 14 2 15 3 16 4 17 5 18 6 19 7 20 8 21 9 22 10 23 11
REMARK SMILES IDX 24 12 25 13 26 14 12 15 11 16 10 17 9 18 8 19 7 20 6 21 5 22
REMARK SMILES IDX 4 23 3 24 2 25 1 26
REMARK H PARENT
REMARK Flexibility Score: inf
ROOT
ATOM      1  C   UNL     1     -27.683  66.373  84.428  1.00  0.00     0.000 C 
ENDROOT
BRANCH   1   2
ATOM      2  C   UNL     1     -28.607  67.147  83.477  1.00  0.00     0.000 C 
BRANCH   2   3
ATOM      3  C   UNL     1     -28.187  66.935  82.015  1.00  0.00     0.000 C 
BRANCH   3   4
ATOM      4  C   UNL     1     -28.046  65.450  81.646  1.00  0.00     0.000 C 
BRANCH   4   5
ATOM      5  C   UNL     1     -29.399  64.715  81.624  1.00  0.00     0.000 C 
BRANCH   5   6
ATOM      6  C   UNL     1     -29.672  63.947  82.928  1.00  0.00     0.000 C 
BRANCH   6   7
ATOM      7  C   UNL     1     -29.002  62.562  82.946  1.00  0.00     0.000 C 
BRANCH   7   8
ATOM      8  C   UNL     1     -28.043  62.376  84.135  1.00  0.00     0.000 C 
BRANCH   8   9
ATOM      9  C   UNL     1     -27.209  61.082  84.103  1.00  0.00     0.000 C 
BRANCH   9  10
ATOM     10  C   UNL     1     -27.734  60.055  83.089  1.00  0.00     0.006 C 
BRANCH  10  11
ATOM     11  C   UNL     1     -26.769  58.874  82.951  1.00  0.00     0.053 C 
BRANCH  11  12
ATOM     12  C   UNL     1     -27.455  57.705  82.320  1.00  0.00     0.041 C 
ATOM     13  O   UNL     1     -28.266  57.882  81.373  1.00  0.00    -0.550 OA
ATOM     14  O   UNL     1     -27.240  56.423  82.812  1.00  0.00    -0.550 OA
ENDBRANCH  11  12
ENDBRANCH  10  11
ENDBRANCH   9  10
ENDBRANCH   8   9
ENDBRANCH   7   8
ENDBRANCH   6   7
ENDBRANCH   5   6
ENDBRANCH   4   5
ENDBRANCH   3   4
ENDBRANCH   2   3
ENDBRANCH   1   2
BRANCH   1  15
ATOM     15  C   UNL     1     -26.536  67.235  84.985  1.00  0.00     0.000 C 
BRANCH  15  16
ATOM     16  C   UNL     1     -26.965  68.346  85.965  1.00  0.00     0.000 C 
BRANCH  16  17
ATOM     17  C   UNL     1     -28.109  67.974  86.926  1.00  0.00     0.000 C 
BRANCH  17  18
ATOM     18  C   UNL     1     -28.743  69.198  87.607  1.00  0.00    -0.000 C 
BRANCH  18  19
ATOM     19  C   UNL     1     -29.887  69.810  86.779  1.00  0.00    -0.000 C 
BRANCH  19  20
ATOM     20  C   UNL     1     -30.715  68.799  85.961  1.00  0.00    -0.000 C 
BRANCH  20  21
ATOM     21  C   UNL     1     -31.779  68.021  86.760  1.00  0.00    -0.000 C 
BRANCH  21  22
ATOM     22  C   UNL     1     -32.327  66.765  86.059  1.00  0.00    -0.000 C 
BRANCH  22  23
ATOM     23  C   UNL     1     -31.218  65.856  85.510  1.00  0.00    -0.000 C 
BRANCH  23  24
ATOM     24  C   UNL     1     -30.136  65.608  86.571  1.00  0.00    -0.000 C 
BRANCH  24  25
ATOM     25  C   UNL     1     -29.712  64.133  86.648  1.00  0.00    -0.003 C 
ATOM     26  C   UNL     1     -30.816  63.177  86.197  1.00  0.00     0.004 C 
ENDBRANCH  24  25
ENDBRANCH  23  24
ENDBRANCH  22  23
ENDBRANCH  21  22
ENDBRANCH  20  21
ENDBRANCH  19  20
ENDBRANCH  18  19
ENDBRANCH  17  18
ENDBRANCH  16  17
ENDBRANCH  15  16
ENDBRANCH   1  15
TORSDOF 22
ENDMDL
