MODEL 1
REMARK VINA RESULT:    -0.705      0.000      0.000
REMARK INTER + INTRA:          -0.740
REMARK INTER:                  -0.953
REMARK INTRA:                   0.213
REMARK UNBOUND:                 0.213
REMARK SMILES C=CC(C)=CCC=C(C)CCC=C(C)C
REMARK SMILES IDX 8 1 7 2 9 3 10 4 11 5 12 6 14 7 13 8 15 9 6 10 5 11 3 12
REMARK SMILES IDX 4 13 2 14 1 15
REMARK H PARENT
REMARK Flexibility Score: inf
ROOT
ATOM      1  C   UNL     1       7.917   7.720  13.193  1.00  0.00    -0.077 C 
ATOM      2  C   UNL     1       8.819   8.292  14.020  1.00  0.00    -0.024 C 
ATOM      3  C   UNL     1       8.350   6.956  11.964  1.00  0.00     0.039 C 
ENDROOT
BRANCH   1   4
ATOM      4  C   UNL     1       6.440   7.848  13.504  1.00  0.00     0.034 C 
BRANCH   4   5
ATOM      5  C   UNL     1       5.595   7.967  12.228  1.00  0.00     0.032 C 
BRANCH   5   6
ATOM      6  C   UNL     1       4.426   7.011  12.238  1.00  0.00    -0.028 C 
ATOM      7  C   UNL     1       3.250   4.875  12.536  1.00  0.00     0.039 C 
ATOM      8  C   UNL     1       4.517   5.691  12.513  1.00  0.00    -0.080 C 
ATOM      9  C   UNL     1       5.842   5.015  12.775  1.00  0.00     0.039 C 
ENDBRANCH   5   6
ENDBRANCH   4   5
ENDBRANCH   1   4
BRANCH   2  10
ATOM     10  C   UNL     1      10.311   8.213  13.795  1.00  0.00     0.055 C 
BRANCH  10  11
ATOM     11  C   UNL     1      11.078   8.656  15.014  1.00  0.00    -0.020 C 
ATOM     12  C   UNL     1      12.366   8.346  15.271  1.00  0.00    -0.055 C 
ATOM     13  C   UNL     1      13.196   7.509  14.321  1.00  0.00     0.044 C 
BRANCH  12  14
ATOM     14  C   UNL     1      12.984   8.913  16.498  1.00  0.00    -0.005 C 
ATOM     15  C   UNL     1      14.102   9.639  16.494  1.00  0.00     0.009 C 
ENDBRANCH  12  14
ENDBRANCH  10  11
ENDBRANCH   2  10
TORSDOF 6
ENDMDL
MODEL 2
REMARK VINA RESULT:     0.721      1.134      2.301
REMARK INTER + INTRA:           1.187
REMARK INTER:                   1.603
REMARK INTRA:                  -0.417
REMARK UNBOUND:                 0.213
REMARK SMILES C=CC(C)=CCC=C(C)CCC=C(C)C
REMARK SMILES IDX 8 1 7 2 9 3 10 4 11 5 12 6 14 7 13 8 15 9 6 10 5 11 3 12
REMARK SMILES IDX 4 13 2 14 1 15
REMARK H PARENT
REMARK Flexibility Score: inf
ROOT
ATOM      1  C   UNL     1       7.293   6.178  13.275  1.00  0.00    -0.077 C 
ATOM      2  C   UNL     1       7.393   7.260  14.078  1.00  0.00    -0.024 C 
ATOM      3  C   UNL     1       8.067   6.084  11.980  1.00  0.00     0.039 C 
ENDROOT
BRANCH   1   4
ATOM      4  C   UNL     1       6.385   5.036  13.679  1.00  0.00     0.034 C 
BRANCH   4   5
ATOM      5  C   UNL     1       5.024   5.107  12.971  1.00  0.00     0.032 C 
BRANCH   5   6
ATOM      6  C   UNL     1       4.959   6.259  11.997  1.00  0.00    -0.028 C 
ATOM      7  C   UNL     1       4.528   8.551  11.224  1.00  0.00     0.039 C 
ATOM      8  C   UNL     1       4.478   7.487  12.291  1.00  0.00    -0.080 C 
ATOM      9  C   UNL     1       3.879   7.813  13.639  1.00  0.00     0.039 C 
ENDBRANCH   5   6
ENDBRANCH   4   5
ENDBRANCH   1   4
BRANCH   2  10
ATOM     10  C   UNL     1       8.277   8.443  13.760  1.00  0.00     0.055 C 
BRANCH  10  11
ATOM     11  C   UNL     1       9.364   8.614  14.790  1.00  0.00    -0.020 C 
ATOM     12  C   UNL     1      10.680   8.416  14.564  1.00  0.00    -0.055 C 
ATOM     13  C   UNL     1      11.209   8.007  13.206  1.00  0.00     0.044 C 
BRANCH  12  14
ATOM     14  C   UNL     1      11.623   8.681  15.681  1.00  0.00    -0.005 C 
ATOM     15  C   UNL     1      12.926   8.407  15.629  1.00  0.00     0.009 C 
ENDBRANCH  12  14
ENDBRANCH  10  11
ENDBRANCH   2  10
TORSDOF 6
ENDMDL
MODEL 3
REMARK VINA RESULT:     0.745      1.074      7.396
REMARK INTER + INTRA:           1.219
REMARK INTER:                   0.357
REMARK INTRA:                   0.862
REMARK UNBOUND:                 0.213
REMARK SMILES C=CC(C)=CCC=C(C)CCC=C(C)C
REMARK SMILES IDX 8 1 7 2 9 3 10 4 11 5 12 6 14 7 13 8 15 9 6 10 5 11 3 12
REMARK SMILES IDX 4 13 2 14 1 15
REMARK H PARENT
REMARK Flexibility Score: inf
ROOT
ATOM      1  C   UNL     1       8.082   7.771  13.788  1.00  0.00    -0.077 C 
ATOM      2  C   UNL     1       8.134   7.246  12.545  1.00  0.00    -0.024 C 
ATOM      3  C   UNL     1       7.013   7.359  14.773  1.00  0.00     0.039 C 
ENDROOT
BRANCH   1   4
ATOM      4  C   UNL     1       9.118   8.795  14.205  1.00  0.00     0.034 C 
BRANCH   4   5
ATOM      5  C   UNL     1      10.541   8.220  14.164  1.00  0.00     0.032 C 
BRANCH   5   6
ATOM      6  C   UNL     1      11.388   8.739  15.301  1.00  0.00    -0.028 C 
ATOM      7  C   UNL     1      13.408   9.041  16.666  1.00  0.00     0.039 C 
ATOM      8  C   UNL     1      12.677   8.397  15.516  1.00  0.00    -0.080 C 
ATOM      9  C   UNL     1      13.393   7.383  14.655  1.00  0.00     0.039 C 
ENDBRANCH   5   6
ENDBRANCH   4   5
ENDBRANCH   1   4
BRANCH   2  10
ATOM     10  C   UNL     1       7.150   6.216  12.043  1.00  0.00     0.055 C 
BRANCH  10  11
ATOM     11  C   UNL     1       5.794   6.392  12.676  1.00  0.00    -0.020 C 
ATOM     12  C   UNL     1       4.927   7.385  12.383  1.00  0.00    -0.055 C 
ATOM     13  C   UNL     1       5.238   8.442  11.345  1.00  0.00     0.044 C 
BRANCH  12  14
ATOM     14  C   UNL     1       3.608   7.377  13.067  1.00  0.00    -0.005 C 
ATOM     15  C   UNL     1       3.215   8.317  13.926  1.00  0.00     0.009 C 
ENDBRANCH  12  14
ENDBRANCH  10  11
ENDBRANCH   2  10
TORSDOF 6
ENDMDL
MODEL 4
REMARK VINA RESULT:     1.347      2.234      6.768
REMARK INTER + INTRA:           2.033
REMARK INTER:                   2.172
REMARK INTRA:                  -0.139
REMARK UNBOUND:                 0.213
REMARK SMILES C=CC(C)=CCC=C(C)CCC=C(C)C
REMARK SMILES IDX 8 1 7 2 9 3 10 4 11 5 12 6 14 7 13 8 15 9 6 10 5 11 3 12
REMARK SMILES IDX 4 13 2 14 1 15
REMARK H PARENT
REMARK Flexibility Score: inf
ROOT
ATOM      1  C   UNL     1       6.567   4.898  12.865  1.00  0.00    -0.077 C 
ATOM      2  C   UNL     1       5.514   4.934  12.020  1.00  0.00    -0.024 C 
ATOM      3  C   UNL     1       6.374   4.876  14.363  1.00  0.00     0.039 C 
ENDROOT
BRANCH   1   4
ATOM      4  C   UNL     1       7.972   4.880  12.298  1.00  0.00     0.034 C 
BRANCH   4   5
ATOM      5  C   UNL     1       8.480   6.294  11.982  1.00  0.00     0.032 C 
BRANCH   5   6
ATOM      6  C   UNL     1       7.807   7.337  12.842  1.00  0.00    -0.028 C 
ATOM      7  C   UNL     1       7.646   9.266  14.355  1.00  0.00     0.039 C 
ATOM      8  C   UNL     1       8.460   8.254  13.589  1.00  0.00    -0.080 C 
ATOM      9  C   UNL     1       9.966   8.280  13.691  1.00  0.00     0.039 C 
ENDBRANCH   5   6
ENDBRANCH   4   5
ENDBRANCH   1   4
BRANCH   2  10
ATOM     10  C   UNL     1       4.079   4.948  12.491  1.00  0.00     0.055 C 
BRANCH  10  11
ATOM     11  C   UNL     1       3.776   6.180  13.304  1.00  0.00    -0.020 C 
ATOM     12  C   UNL     1       4.039   7.445  12.917  1.00  0.00    -0.055 C 
ATOM     13  C   UNL     1       4.671   7.761  11.577  1.00  0.00     0.044 C 
BRANCH  12  14
ATOM     14  C   UNL     1       3.625   8.548  13.822  1.00  0.00    -0.005 C 
ATOM     15  C   UNL     1       2.379   8.711  14.267  1.00  0.00     0.009 C 
ENDBRANCH  12  14
ENDBRANCH  10  11
ENDBRANCH   2  10
TORSDOF 6
ENDMDL
MODEL 5
REMARK VINA RESULT:     2.129      2.824      4.277
REMARK INTER + INTRA:           3.089
REMARK INTER:                   1.953
REMARK INTRA:                   1.135
REMARK UNBOUND:                 0.213
REMARK SMILES C=CC(C)=CCC=C(C)CCC=C(C)C
REMARK SMILES IDX 8 1 7 2 9 3 10 4 11 5 12 6 14 7 13 8 15 9 6 10 5 11 3 12
REMARK SMILES IDX 4 13 2 14 1 15
REMARK H PARENT
REMARK Flexibility Score: inf
ROOT
ATOM      1  C   UNL     1       5.854   5.037  13.505  1.00  0.00    -0.077 C 
ATOM      2  C   UNL     1       6.492   4.875  12.325  1.00  0.00    -0.024 C 
ATOM      3  C   UNL     1       6.609   5.377  14.768  1.00  0.00     0.039 C 
ENDROOT
BRANCH   1   4
ATOM      4  C   UNL     1       4.349   4.875  13.562  1.00  0.00     0.034 C 
BRANCH   4   5
ATOM      5  C   UNL     1       3.668   5.391  12.286  1.00  0.00     0.032 C 
BRANCH   5   6
ATOM      6  C   UNL     1       4.340   6.636  11.756  1.00  0.00    -0.028 C 
ATOM      7  C   UNL     1       5.108   8.969  11.755  1.00  0.00     0.039 C 
ATOM      8  C   UNL     1       4.348   7.831  12.386  1.00  0.00    -0.080 C 
ATOM      9  C   UNL     1       3.606   8.060  13.682  1.00  0.00     0.039 C 
ENDBRANCH   5   6
ENDBRANCH   4   5
ENDBRANCH   1   4
BRANCH   2  10
ATOM     10  C   UNL     1       7.987   5.023  12.170  1.00  0.00     0.055 C 
BRANCH  10  11
ATOM     11  C   UNL     1       8.502   6.235  12.902  1.00  0.00    -0.020 C 
ATOM     12  C   UNL     1       8.346   7.511  12.491  1.00  0.00    -0.055 C 
ATOM     13  C   UNL     1       7.600   7.859  11.221  1.00  0.00     0.044 C 
BRANCH  12  14
ATOM     14  C   UNL     1       8.874   8.590  13.364  1.00  0.00    -0.005 C 
ATOM     15  C   UNL     1       8.351   8.904  14.549  1.00  0.00     0.009 C 
ENDBRANCH  12  14
ENDBRANCH  10  11
ENDBRANCH   2  10
TORSDOF 6
ENDMDL
