MODEL 1
REMARK VINA RESULT:    -3.168      0.000      0.000
REMARK INTER + INTRA:          -4.156
REMARK INTER:                  -3.909
REMARK INTRA:                  -0.248
REMARK UNBOUND:                -0.248
REMARK SMILES CCCCCC(=O)[O-]
REMARK SMILES IDX 4 1 5 2 6 3 7 4 8 5 3 6 2 7 1 8
REMARK H PARENT
REMARK Flexibility Score: inf
ROOT
ATOM      1  C   UNL     1       6.413   2.392  47.441  1.00  0.00     0.006 C 
ENDROOT
BRANCH   1   2
ATOM      2  C   UNL     1       5.696   3.493  48.233  1.00  0.00     0.053 C 
BRANCH   2   3
ATOM      3  C   UNL     1       6.691   4.428  48.843  1.00  0.00     0.041 C 
ATOM      4  O   UNL     1       7.218   5.336  48.147  1.00  0.00    -0.550 OA
ATOM      5  O   UNL     1       7.075   4.269  50.169  1.00  0.00    -0.550 OA
ENDBRANCH   2   3
ENDBRANCH   1   2
BRANCH   1   6
ATOM      6  C   UNL     1       6.950   1.269  48.342  1.00  0.00     0.000 C 
BRANCH   6   7
ATOM      7  C   UNL     1       5.895   0.748  49.330  1.00  0.00    -0.003 C 
ATOM      8  C   UNL     1       6.423   0.776  50.762  1.00  0.00     0.004 C 
ENDBRANCH   6   7
ENDBRANCH   1   6
TORSDOF 4
ENDMDL
MODEL 2
REMARK VINA RESULT:    -3.025      1.496      2.202
REMARK INTER + INTRA:          -3.980
REMARK INTER:                  -3.793
REMARK INTRA:                  -0.187
REMARK UNBOUND:                -0.248
REMARK SMILES CCCCCC(=O)[O-]
REMARK SMILES IDX 4 1 5 2 6 3 7 4 8 5 3 6 2 7 1 8
REMARK H PARENT
REMARK Flexibility Score: inf
ROOT
ATOM      1  C   UNL     1       6.646   4.352  48.391  1.00  0.00     0.006 C 
ENDROOT
BRANCH   1   2
ATOM      2  C   UNL     1       6.126   4.888  49.731  1.00  0.00     0.053 C 
BRANCH   2   3
ATOM      3  C   UNL     1       7.208   4.845  50.763  1.00  0.00     0.041 C 
ATOM      4  O   UNL     1       7.684   5.915  51.227  1.00  0.00    -0.550 OA
ATOM      5  O   UNL     1       7.725   3.625  51.180  1.00  0.00    -0.550 OA
ENDBRANCH   2   3
ENDBRANCH   1   2
BRANCH   1   6
ATOM      6  C   UNL     1       5.833   3.152  47.878  1.00  0.00     0.000 C 
BRANCH   6   7
ATOM      7  C   UNL     1       6.703   1.910  47.634  1.00  0.00    -0.003 C 
ATOM      8  C   UNL     1       6.796   1.050  48.891  1.00  0.00     0.004 C 
ENDBRANCH   6   7
ENDBRANCH   1   6
TORSDOF 4
ENDMDL
MODEL 3
REMARK VINA RESULT:    -3.007      1.499      2.518
REMARK INTER + INTRA:          -3.958
REMARK INTER:                  -3.879
REMARK INTRA:                  -0.079
REMARK UNBOUND:                -0.248
REMARK SMILES CCCCCC(=O)[O-]
REMARK SMILES IDX 4 1 5 2 6 3 7 4 8 5 3 6 2 7 1 8
REMARK H PARENT
REMARK Flexibility Score: inf
ROOT
ATOM      1  C   UNL     1       6.429   4.147  48.952  1.00  0.00     0.006 C 
ENDROOT
BRANCH   1   2
ATOM      2  C   UNL     1       7.122   5.366  48.330  1.00  0.00     0.053 C 
BRANCH   2   3
ATOM      3  C   UNL     1       7.247   6.465  49.337  1.00  0.00     0.041 C 
ATOM      4  O   UNL     1       7.780   6.241  50.456  1.00  0.00    -0.550 OA
ATOM      5  O   UNL     1       6.732   7.725  49.060  1.00  0.00    -0.550 OA
ENDBRANCH   2   3
ENDBRANCH   1   2
BRANCH   1   6
ATOM      6  C   UNL     1       5.743   3.256  47.904  1.00  0.00     0.000 C 
BRANCH   6   7
ATOM      7  C   UNL     1       6.587   2.029  47.528  1.00  0.00    -0.003 C 
ATOM      8  C   UNL     1       6.801   1.119  48.735  1.00  0.00     0.004 C 
ENDBRANCH   6   7
ENDBRANCH   1   6
TORSDOF 4
ENDMDL
MODEL 4
REMARK VINA RESULT:    -2.979      2.227      3.582
REMARK INTER + INTRA:          -3.923
REMARK INTER:                  -3.676
REMARK INTRA:                  -0.247
REMARK UNBOUND:                -0.248
REMARK SMILES CCCCCC(=O)[O-]
REMARK SMILES IDX 4 1 5 2 6 3 7 4 8 5 3 6 2 7 1 8
REMARK H PARENT
REMARK Flexibility Score: inf
ROOT
ATOM      1  C   UNL     1       5.806   3.110  47.929  1.00  0.00     0.006 C 
ENDROOT
BRANCH   1   2
ATOM      2  C   UNL     1       6.652   1.838  47.785  1.00  0.00     0.053 C 
BRANCH   2   3
ATOM      3  C   UNL     1       6.501   0.972  48.995  1.00  0.00     0.041 C 
ATOM      4  O   UNL     1       6.998   1.327  50.095  1.00  0.00    -0.550 OA
ATOM      5  O   UNL     1       5.852  -0.253  48.897  1.00  0.00    -0.550 OA
ENDBRANCH   2   3
ENDBRANCH   1   2
BRANCH   1   6
ATOM      6  C   UNL     1       6.647   4.341  48.306  1.00  0.00     0.000 C 
BRANCH   6   7
ATOM      7  C   UNL     1       6.314   4.877  49.706  1.00  0.00    -0.003 C 
ATOM      8  C   UNL     1       4.961   4.358  50.186  1.00  0.00     0.004 C 
ENDBRANCH   6   7
ENDBRANCH   1   6
TORSDOF 4
ENDMDL
MODEL 5
REMARK VINA RESULT:    -2.953      2.603      4.057
REMARK INTER + INTRA:          -3.891
REMARK INTER:                  -3.723
REMARK INTRA:                  -0.168
REMARK UNBOUND:                -0.248
REMARK SMILES CCCCCC(=O)[O-]
REMARK SMILES IDX 4 1 5 2 6 3 7 4 8 5 3 6 2 7 1 8
REMARK H PARENT
REMARK Flexibility Score: inf
ROOT
ATOM      1  C   UNL     1       6.811   1.652  47.805  1.00  0.00     0.006 C 
ENDROOT
BRANCH   1   2
ATOM      2  C   UNL     1       6.826   1.038  49.211  1.00  0.00     0.053 C 
BRANCH   2   3
ATOM      3  C   UNL     1       5.560   0.281  49.462  1.00  0.00     0.041 C 
ATOM      4  O   UNL     1       4.635   0.800  50.140  1.00  0.00    -0.550 OA
ATOM      5  O   UNL     1       5.421  -1.018  48.987  1.00  0.00    -0.550 OA
ENDBRANCH   2   3
ENDBRANCH   1   2
BRANCH   1   6
ATOM      6  C   UNL     1       6.187   3.056  47.778  1.00  0.00     0.000 C 
BRANCH   6   7
ATOM      7  C   UNL     1       6.596   3.907  48.990  1.00  0.00    -0.003 C 
ATOM      8  C   UNL     1       7.022   5.308  48.559  1.00  0.00     0.004 C 
ENDBRANCH   6   7
ENDBRANCH   1   6
TORSDOF 4
ENDMDL
MODEL 6
REMARK VINA RESULT:    -2.872      2.235      2.953
REMARK INTER + INTRA:          -3.791
REMARK INTER:                  -3.571
REMARK INTRA:                  -0.220
REMARK UNBOUND:                -0.248
REMARK SMILES CCCCCC(=O)[O-]
REMARK SMILES IDX 4 1 5 2 6 3 7 4 8 5 3 6 2 7 1 8
REMARK H PARENT
REMARK Flexibility Score: inf
ROOT
ATOM      1  C   UNL     1       6.392   4.242  48.664  1.00  0.00     0.006 C 
ENDROOT
BRANCH   1   2
ATOM      2  C   UNL     1       5.659   3.124  47.911  1.00  0.00     0.053 C 
BRANCH   2   3
ATOM      3  C   UNL     1       6.602   2.008  47.590  1.00  0.00     0.041 C 
ATOM      4  O   UNL     1       7.117   1.922  46.445  1.00  0.00    -0.550 OA
ATOM      5  O   UNL     1       6.875   1.033  48.542  1.00  0.00    -0.550 OA
ENDBRANCH   2   3
ENDBRANCH   1   2
BRANCH   1   6
ATOM      6  C   UNL     1       6.172   4.176  50.183  1.00  0.00     0.000 C 
BRANCH   6   7
ATOM      7  C   UNL     1       7.388   3.610  50.932  1.00  0.00    -0.003 C 
ATOM      8  C   UNL     1       6.999   2.398  51.775  1.00  0.00     0.004 C 
ENDBRANCH   6   7
ENDBRANCH   1   6
TORSDOF 4
ENDMDL
MODEL 7
REMARK VINA RESULT:    -2.872      2.321      4.292
REMARK INTER + INTRA:          -3.791
REMARK INTER:                  -3.705
REMARK INTRA:                  -0.086
REMARK UNBOUND:                -0.248
REMARK SMILES CCCCCC(=O)[O-]
REMARK SMILES IDX 4 1 5 2 6 3 7 4 8 5 3 6 2 7 1 8
REMARK H PARENT
REMARK Flexibility Score: inf
ROOT
ATOM      1  C   UNL     1       6.272   4.424  49.185  1.00  0.00     0.006 C 
ENDROOT
BRANCH   1   2
ATOM      2  C   UNL     1       5.536   3.306  48.435  1.00  0.00     0.053 C 
BRANCH   2   3
ATOM      3  C   UNL     1       6.484   2.202  48.086  1.00  0.00     0.041 C 
ATOM      4  O   UNL     1       6.854   2.037  46.893  1.00  0.00    -0.550 OA
ATOM      5  O   UNL     1       6.922   1.324  49.069  1.00  0.00    -0.550 OA
ENDBRANCH   2   3
ENDBRANCH   1   2
BRANCH   1   6
ATOM      6  C   UNL     1       7.145   5.284  48.259  1.00  0.00     0.000 C 
BRANCH   6   7
ATOM      7  C   UNL     1       7.491   6.649  48.873  1.00  0.00    -0.003 C 
ATOM      8  C   UNL     1       7.870   7.657  47.791  1.00  0.00     0.004 C 
ENDBRANCH   6   7
ENDBRANCH   1   6
TORSDOF 4
ENDMDL
MODEL 8
REMARK VINA RESULT:    -2.748      1.404      2.320
REMARK INTER + INTRA:          -3.639
REMARK INTER:                  -3.466
REMARK INTRA:                  -0.172
REMARK UNBOUND:                -0.248
REMARK SMILES CCCCCC(=O)[O-]
REMARK SMILES IDX 4 1 5 2 6 3 7 4 8 5 3 6 2 7 1 8
REMARK H PARENT
REMARK Flexibility Score: inf
ROOT
ATOM      1  C   UNL     1       6.242   3.500  50.728  1.00  0.00     0.006 C 
ENDROOT
BRANCH   1   2
ATOM      2  C   UNL     1       7.029   4.704  50.194  1.00  0.00     0.053 C 
BRANCH   2   3
ATOM      3  C   UNL     1       6.826   4.846  48.719  1.00  0.00     0.041 C 
ATOM      4  O   UNL     1       6.072   4.048  48.103  1.00  0.00    -0.550 OA
ATOM      5  O   UNL     1       7.506   5.832  48.015  1.00  0.00    -0.550 OA
ENDBRANCH   2   3
ENDBRANCH   1   2
BRANCH   1   6
ATOM      6  C   UNL     1       7.142   2.294  51.038  1.00  0.00     0.000 C 
BRANCH   6   7
ATOM      7  C   UNL     1       6.558   0.972  50.519  1.00  0.00    -0.003 C 
ATOM      8  C   UNL     1       6.739   0.847  49.008  1.00  0.00     0.004 C 
ENDBRANCH   6   7
ENDBRANCH   1   6
TORSDOF 4
ENDMDL
MODEL 9
REMARK VINA RESULT:    -2.671      2.545      3.397
REMARK INTER + INTRA:          -3.543
REMARK INTER:                  -3.306
REMARK INTRA:                  -0.237
REMARK UNBOUND:                -0.248
REMARK SMILES CCCCCC(=O)[O-]
REMARK SMILES IDX 4 1 5 2 6 3 7 4 8 5 3 6 2 7 1 8
REMARK H PARENT
REMARK Flexibility Score: inf
ROOT
ATOM      1  C   UNL     1       5.668   3.861  49.193  1.00  0.00     0.006 C 
ENDROOT
BRANCH   1   2
ATOM      2  C   UNL     1       4.349   3.996  49.966  1.00  0.00     0.053 C 
BRANCH   2   3
ATOM      3  C   UNL     1       3.888   2.657  50.447  1.00  0.00     0.041 C 
ATOM      4  O   UNL     1       4.494   2.078  51.387  1.00  0.00    -0.550 OA
ATOM      5  O   UNL     1       2.818   2.024  49.826  1.00  0.00    -0.550 OA
ENDBRANCH   2   3
ENDBRANCH   1   2
BRANCH   1   6
ATOM      6  C   UNL     1       5.493   3.148  47.843  1.00  0.00     0.000 C 
BRANCH   6   7
ATOM      7  C   UNL     1       6.623   2.149  47.553  1.00  0.00    -0.003 C 
ATOM      8  C   UNL     1       6.779   1.148  48.695  1.00  0.00     0.004 C 
ENDBRANCH   6   7
ENDBRANCH   1   6
TORSDOF 4
ENDMDL
