MODEL 1
REMARK VINA RESULT:    -4.284      0.000      0.000
REMARK INTER + INTRA:          -9.260
REMARK INTER:                  -7.539
REMARK INTRA:                  -1.720
REMARK UNBOUND:                -1.720
REMARK SMILES CCCCCCC=CCCCCCCCC(=O)[O-]
REMARK SMILES IDX 10 1 11 2 12 3 13 4 14 5 15 6 16 7 17 8 18 9 9 10 8 11 7 12
REMARK SMILES IDX 6 13 5 14 4 15 3 16 2 17 1 18
REMARK H PARENT
REMARK Flexibility Score: inf
ROOT
ATOM      1  C   UNL     1      47.314   7.447 115.693  1.00  0.00     0.004 C 
ENDROOT
BRANCH   1   2
ATOM      2  C   UNL     1      46.328   7.723 114.547  1.00  0.00     0.000 C 
BRANCH   2   3
ATOM      3  C   UNL     1      45.014   6.933 114.695  1.00  0.00     0.000 C 
BRANCH   3   4
ATOM      4  C   UNL     1      43.797   7.850 114.905  1.00  0.00     0.000 C 
BRANCH   4   5
ATOM      5  C   UNL     1      44.147   9.339 114.742  1.00  0.00     0.006 C 
BRANCH   5   6
ATOM      6  C   UNL     1      43.701  10.175 115.949  1.00  0.00     0.053 C 
BRANCH   6   7
ATOM      7  C   UNL     1      44.140   9.563 117.246  1.00  0.00     0.041 C 
ATOM      8  O   UNL     1      43.314   8.937 117.963  1.00  0.00    -0.550 OA
ATOM      9  O   UNL     1      45.468   9.656 117.646  1.00  0.00    -0.550 OA
ENDBRANCH   6   7
ENDBRANCH   5   6
ENDBRANCH   4   5
ENDBRANCH   3   4
ENDBRANCH   2   3
ENDBRANCH   1   2
BRANCH   1  10
ATOM     10  C   UNL     1      48.578   8.320 115.616  1.00  0.00     0.027 C 
BRANCH  10  11
ATOM     11  C   UNL     1      49.744   7.539 115.079  1.00  0.00    -0.031 C 
ATOM     12  C   UNL     1      49.867   6.222 115.300  1.00  0.00    -0.031 C 
BRANCH  12  13
ATOM     13  C   UNL     1      51.023   5.432 114.748  1.00  0.00     0.027 C 
BRANCH  13  14
ATOM     14  C   UNL     1      50.551   4.333 113.784  1.00  0.00     0.004 C 
BRANCH  14  15
ATOM     15  C   UNL     1      50.762   4.665 112.295  1.00  0.00     0.000 C 
BRANCH  15  16
ATOM     16  C   UNL     1      49.477   4.571 111.446  1.00  0.00    -0.000 C 
BRANCH  16  17
ATOM     17  C   UNL     1      48.311   5.351 112.068  1.00  0.00    -0.003 C 
ATOM     18  C   UNL     1      48.350   6.823 111.668  1.00  0.00     0.004 C 
ENDBRANCH  16  17
ENDBRANCH  15  16
ENDBRANCH  14  15
ENDBRANCH  13  14
ENDBRANCH  12  13
ENDBRANCH  10  11
ENDBRANCH   1  10
TORSDOF 13
ENDMDL
MODEL 2
REMARK VINA RESULT:    -4.252      1.763      3.214
REMARK INTER + INTRA:          -9.204
REMARK INTER:                  -7.715
REMARK INTRA:                  -1.489
REMARK UNBOUND:                -1.720
REMARK SMILES CCCCCCC=CCCCCCCCC(=O)[O-]
REMARK SMILES IDX 10 1 11 2 12 3 13 4 14 5 15 6 16 7 17 8 18 9 9 10 8 11 7 12
REMARK SMILES IDX 6 13 5 14 4 15 3 16 2 17 1 18
REMARK H PARENT
REMARK Flexibility Score: inf
ROOT
ATOM      1  C   UNL     1      44.182   7.375 113.991  1.00  0.00     0.004 C 
ENDROOT
BRANCH   1   2
ATOM      2  C   UNL     1      44.254   8.850 113.567  1.00  0.00     0.000 C 
BRANCH   2   3
ATOM      3  C   UNL     1      43.372   9.760 114.442  1.00  0.00     0.000 C 
BRANCH   3   4
ATOM      4  C   UNL     1      43.481   9.423 115.939  1.00  0.00     0.000 C 
BRANCH   4   5
ATOM      5  C   UNL     1      44.662  10.139 116.618  1.00  0.00     0.006 C 
BRANCH   5   6
ATOM      6  C   UNL     1      45.637   9.151 117.274  1.00  0.00     0.053 C 
BRANCH   6   7
ATOM      7  C   UNL     1      47.056   9.632 117.196  1.00  0.00     0.041 C 
ATOM      8  O   UNL     1      47.612  10.131 118.211  1.00  0.00    -0.550 OA
ATOM      9  O   UNL     1      47.773   9.497 116.013  1.00  0.00    -0.550 OA
ENDBRANCH   6   7
ENDBRANCH   5   6
ENDBRANCH   4   5
ENDBRANCH   3   4
ENDBRANCH   2   3
ENDBRANCH   1   2
BRANCH   1  10
ATOM     10  C   UNL     1      45.565   6.773 114.292  1.00  0.00     0.027 C 
BRANCH  10  11
ATOM     11  C   UNL     1      46.634   7.433 113.467  1.00  0.00    -0.031 C 
ATOM     12  C   UNL     1      47.251   6.784 112.469  1.00  0.00    -0.031 C 
BRANCH  12  13
ATOM     13  C   UNL     1      48.308   7.448 111.628  1.00  0.00     0.027 C 
BRANCH  13  14
ATOM     14  C   UNL     1      48.991   6.450 110.680  1.00  0.00     0.004 C 
BRANCH  14  15
ATOM     15  C   UNL     1      49.350   5.102 111.334  1.00  0.00     0.000 C 
BRANCH  15  16
ATOM     16  C   UNL     1      50.849   4.952 111.671  1.00  0.00    -0.000 C 
BRANCH  16  17
ATOM     17  C   UNL     1      51.077   4.491 113.116  1.00  0.00    -0.003 C 
ATOM     18  C   UNL     1      50.221   5.289 114.096  1.00  0.00     0.004 C 
ENDBRANCH  16  17
ENDBRANCH  15  16
ENDBRANCH  14  15
ENDBRANCH  13  14
ENDBRANCH  12  13
ENDBRANCH  10  11
ENDBRANCH   1  10
TORSDOF 13
ENDMDL
MODEL 3
REMARK VINA RESULT:    -4.218      4.190      8.901
REMARK INTER + INTRA:          -9.144
REMARK INTER:                  -8.284
REMARK INTRA:                  -0.860
REMARK UNBOUND:                -1.720
REMARK SMILES CCCCCCC=CCCCCCCCC(=O)[O-]
REMARK SMILES IDX 10 1 11 2 12 3 13 4 14 5 15 6 16 7 17 8 18 9 9 10 8 11 7 12
REMARK SMILES IDX 6 13 5 14 4 15 3 16 2 17 1 18
REMARK H PARENT
REMARK Flexibility Score: inf
ROOT
ATOM      1  C   UNL     1      44.088   9.019 113.722  1.00  0.00     0.004 C 
ENDROOT
BRANCH   1   2
ATOM      2  C   UNL     1      43.726   7.781 114.557  1.00  0.00     0.000 C 
BRANCH   2   3
ATOM      3  C   UNL     1      44.929   7.224 115.341  1.00  0.00     0.000 C 
BRANCH   3   4
ATOM      4  C   UNL     1      44.919   7.655 116.818  1.00  0.00     0.000 C 
BRANCH   4   5
ATOM      5  C   UNL     1      43.590   8.313 117.229  1.00  0.00     0.006 C 
BRANCH   5   6
ATOM      6  C   UNL     1      43.784   9.756 117.715  1.00  0.00     0.053 C 
BRANCH   6   7
ATOM      7  C   UNL     1      43.464   9.902 119.173  1.00  0.00     0.041 C 
ATOM      8  O   UNL     1      44.256  10.518 119.936  1.00  0.00    -0.550 OA
ATOM      9  O   UNL     1      42.278   9.388 119.682  1.00  0.00    -0.550 OA
ENDBRANCH   6   7
ENDBRANCH   5   6
ENDBRANCH   4   5
ENDBRANCH   3   4
ENDBRANCH   2   3
ENDBRANCH   1   2
BRANCH   1  10
ATOM     10  C   UNL     1      42.860   9.686 113.080  1.00  0.00     0.027 C 
BRANCH  10  11
ATOM     11  C   UNL     1      42.374  10.839 113.912  1.00  0.00    -0.031 C 
ATOM     12  C   UNL     1      41.927  11.971 113.347  1.00  0.00    -0.031 C 
BRANCH  12  13
ATOM     13  C   UNL     1      41.420  13.121 114.177  1.00  0.00     0.027 C 
BRANCH  13  14
ATOM     14  C   UNL     1      42.183  14.419 113.873  1.00  0.00     0.004 C 
BRANCH  14  15
ATOM     15  C   UNL     1      41.327  15.515 113.209  1.00  0.00     0.000 C 
BRANCH  15  16
ATOM     16  C   UNL     1      40.198  16.057 114.112  1.00  0.00    -0.000 C 
BRANCH  16  17
ATOM     17  C   UNL     1      40.489  17.477 114.616  1.00  0.00    -0.003 C 
ATOM     18  C   UNL     1      41.236  17.453 115.946  1.00  0.00     0.004 C 
ENDBRANCH  16  17
ENDBRANCH  15  16
ENDBRANCH  14  15
ENDBRANCH  13  14
ENDBRANCH  12  13
ENDBRANCH  10  11
ENDBRANCH   1  10
TORSDOF 13
ENDMDL
MODEL 4
REMARK VINA RESULT:    -4.133      1.239      2.782
REMARK INTER + INTRA:          -8.994
REMARK INTER:                  -7.735
REMARK INTRA:                  -1.260
REMARK UNBOUND:                -1.720
REMARK SMILES CCCCCCC=CCCCCCCCC(=O)[O-]
REMARK SMILES IDX 10 1 11 2 12 3 13 4 14 5 15 6 16 7 17 8 18 9 9 10 8 11 7 12
REMARK SMILES IDX 6 13 5 14 4 15 3 16 2 17 1 18
REMARK H PARENT
REMARK Flexibility Score: inf
ROOT
ATOM      1  C   UNL     1      45.487   6.947 114.419  1.00  0.00     0.004 C 
ENDROOT
BRANCH   1   2
ATOM      2  C   UNL     1      43.969   7.065 114.208  1.00  0.00     0.000 C 
BRANCH   2   3
ATOM      3  C   UNL     1      43.299   7.989 115.242  1.00  0.00     0.000 C 
BRANCH   3   4
ATOM      4  C   UNL     1      43.451   9.478 114.886  1.00  0.00     0.000 C 
BRANCH   4   5
ATOM      5  C   UNL     1      43.703  10.356 116.125  1.00  0.00     0.006 C 
BRANCH   5   6
ATOM      6  C   UNL     1      44.221   9.540 117.316  1.00  0.00     0.053 C 
BRANCH   6   7
ATOM      7  C   UNL     1      43.396   9.764 118.549  1.00  0.00     0.041 C 
ATOM      8  O   UNL     1      43.117  10.935 118.920  1.00  0.00    -0.550 OA
ATOM      9  O   UNL     1      42.909   8.679 119.267  1.00  0.00    -0.550 OA
ENDBRANCH   6   7
ENDBRANCH   5   6
ENDBRANCH   4   5
ENDBRANCH   3   4
ENDBRANCH   2   3
ENDBRANCH   1   2
BRANCH   1  10
ATOM     10  C   UNL     1      46.299   7.629 113.305  1.00  0.00     0.027 C 
BRANCH  10  11
ATOM     11  C   UNL     1      47.655   6.998 113.160  1.00  0.00    -0.031 C 
ATOM     12  C   UNL     1      48.098   6.554 111.974  1.00  0.00    -0.031 C 
BRANCH  12  13
ATOM     13  C   UNL     1      49.464   5.939 111.821  1.00  0.00     0.027 C 
BRANCH  13  14
ATOM     14  C   UNL     1      49.499   4.495 112.344  1.00  0.00     0.004 C 
BRANCH  14  15
ATOM     15  C   UNL     1      50.356   4.303 113.610  1.00  0.00     0.000 C 
BRANCH  15  16
ATOM     16  C   UNL     1      50.930   5.617 114.181  1.00  0.00    -0.000 C 
BRANCH  16  17
ATOM     17  C   UNL     1      50.308   5.983 115.534  1.00  0.00    -0.003 C 
ATOM     18  C   UNL     1      50.254   7.495 115.731  1.00  0.00     0.004 C 
ENDBRANCH  16  17
ENDBRANCH  15  16
ENDBRANCH  14  15
ENDBRANCH  13  14
ENDBRANCH  12  13
ENDBRANCH  10  11
ENDBRANCH   1  10
TORSDOF 13
ENDMDL
MODEL 5
REMARK VINA RESULT:    -4.127      2.116      3.706
REMARK INTER + INTRA:          -8.984
REMARK INTER:                  -8.225
REMARK INTRA:                  -0.759
REMARK UNBOUND:                -1.720
REMARK SMILES CCCCCCC=CCCCCCCCC(=O)[O-]
REMARK SMILES IDX 10 1 11 2 12 3 13 4 14 5 15 6 16 7 17 8 18 9 9 10 8 11 7 12
REMARK SMILES IDX 6 13 5 14 4 15 3 16 2 17 1 18
REMARK H PARENT
REMARK Flexibility Score: inf
ROOT
ATOM      1  C   UNL     1      44.761   9.098 114.511  1.00  0.00     0.004 C 
ENDROOT
BRANCH   1   2
ATOM      2  C   UNL     1      45.042   9.279 116.011  1.00  0.00     0.000 C 
BRANCH   2   3
ATOM      3  C   UNL     1      43.859   8.838 116.892  1.00  0.00     0.000 C 
BRANCH   3   4
ATOM      4  C   UNL     1      43.394   9.947 117.853  1.00  0.00     0.000 C 
BRANCH   4   5
ATOM      5  C   UNL     1      43.228   9.442 119.297  1.00  0.00     0.006 C 
BRANCH   5   6
ATOM      6  C   UNL     1      42.489  10.454 120.182  1.00  0.00     0.053 C 
BRANCH   6   7
ATOM      7  C   UNL     1      43.205  11.771 120.244  1.00  0.00     0.041 C 
ATOM      8  O   UNL     1      42.637  12.819 119.836  1.00  0.00    -0.550 OA
ATOM      9  O   UNL     1      44.484  11.844 120.781  1.00  0.00    -0.550 OA
ENDBRANCH   6   7
ENDBRANCH   5   6
ENDBRANCH   4   5
ENDBRANCH   3   4
ENDBRANCH   2   3
ENDBRANCH   1   2
BRANCH   1  10
ATOM     10  C   UNL     1      44.535   7.628 114.120  1.00  0.00     0.027 C 
BRANCH  10  11
ATOM     11  C   UNL     1      45.830   6.961 113.749  1.00  0.00    -0.031 C 
ATOM     12  C   UNL     1      46.757   7.592 113.012  1.00  0.00    -0.031 C 
BRANCH  12  13
ATOM     13  C   UNL     1      48.063   6.935 112.654  1.00  0.00     0.027 C 
BRANCH  13  14
ATOM     14  C   UNL     1      48.425   7.156 111.178  1.00  0.00     0.004 C 
BRANCH  14  15
ATOM     15  C   UNL     1      49.324   6.058 110.576  1.00  0.00     0.000 C 
BRANCH  15  16
ATOM     16  C   UNL     1      49.418   4.784 111.443  1.00  0.00    -0.000 C 
BRANCH  16  17
ATOM     17  C   UNL     1      50.783   4.648 112.129  1.00  0.00    -0.003 C 
ATOM     18  C   UNL     1      50.631   4.300 113.607  1.00  0.00     0.004 C 
ENDBRANCH  16  17
ENDBRANCH  15  16
ENDBRANCH  14  15
ENDBRANCH  13  14
ENDBRANCH  12  13
ENDBRANCH  10  11
ENDBRANCH   1  10
TORSDOF 13
ENDMDL
MODEL 6
REMARK VINA RESULT:    -4.107      4.778      8.053
REMARK INTER + INTRA:          -8.949
REMARK INTER:                  -7.756
REMARK INTRA:                  -1.193
REMARK UNBOUND:                -1.720
REMARK SMILES CCCCCCC=CCCCCCCCC(=O)[O-]
REMARK SMILES IDX 10 1 11 2 12 3 13 4 14 5 15 6 16 7 17 8 18 9 9 10 8 11 7 12
REMARK SMILES IDX 6 13 5 14 4 15 3 16 2 17 1 18
REMARK H PARENT
REMARK Flexibility Score: inf
ROOT
ATOM      1  C   UNL     1      45.564   9.122 115.169  1.00  0.00     0.004 C 
ENDROOT
BRANCH   1   2
ATOM      2  C   UNL     1      44.613   8.330 114.259  1.00  0.00     0.000 C 
BRANCH   2   3
ATOM      3  C   UNL     1      43.522   9.215 113.629  1.00  0.00     0.000 C 
BRANCH   3   4
ATOM      4  C   UNL     1      43.023  10.307 114.591  1.00  0.00     0.000 C 
BRANCH   4   5
ATOM      5  C   UNL     1      42.217  11.402 113.870  1.00  0.00     0.006 C 
BRANCH   5   6
ATOM      6  C   UNL     1      41.984  12.631 114.760  1.00  0.00     0.053 C 
BRANCH   6   7
ATOM      7  C   UNL     1      41.440  13.791 113.980  1.00  0.00     0.041 C 
ATOM      8  O   UNL     1      40.202  13.884 113.766  1.00  0.00    -0.550 OA
ATOM      9  O   UNL     1      42.296  14.784 113.520  1.00  0.00    -0.550 OA
ENDBRANCH   6   7
ENDBRANCH   5   6
ENDBRANCH   4   5
ENDBRANCH   3   4
ENDBRANCH   2   3
ENDBRANCH   1   2
BRANCH   1  10
ATOM     10  C   UNL     1      45.756   8.467 116.547  1.00  0.00     0.027 C 
BRANCH  10  11
ATOM     11  C   UNL     1      44.913   9.145 117.591  1.00  0.00    -0.031 C 
ATOM     12  C   UNL     1      43.780   8.590 118.046  1.00  0.00    -0.031 C 
BRANCH  12  13
ATOM     13  C   UNL     1      42.944   9.256 119.106  1.00  0.00     0.027 C 
BRANCH  13  14
ATOM     14  C   UNL     1      43.812   9.845 120.228  1.00  0.00     0.004 C 
BRANCH  14  15
ATOM     15  C   UNL     1      43.010  10.409 121.417  1.00  0.00     0.000 C 
BRANCH  15  16
ATOM     16  C   UNL     1      41.857  11.348 121.003  1.00  0.00    -0.000 C 
BRANCH  16  17
ATOM     17  C   UNL     1      42.322  12.801 120.836  1.00  0.00    -0.003 C 
ATOM     18  C   UNL     1      42.413  13.190 119.363  1.00  0.00     0.004 C 
ENDBRANCH  16  17
ENDBRANCH  15  16
ENDBRANCH  14  15
ENDBRANCH  13  14
ENDBRANCH  12  13
ENDBRANCH  10  11
ENDBRANCH   1  10
TORSDOF 13
ENDMDL
MODEL 7
REMARK VINA RESULT:    -4.102      3.889      8.705
REMARK INTER + INTRA:          -8.940
REMARK INTER:                  -7.711
REMARK INTRA:                  -1.228
REMARK UNBOUND:                -1.720
REMARK SMILES CCCCCCC=CCCCCCCCC(=O)[O-]
REMARK SMILES IDX 10 1 11 2 12 3 13 4 14 5 15 6 16 7 17 8 18 9 9 10 8 11 7 12
REMARK SMILES IDX 6 13 5 14 4 15 3 16 2 17 1 18
REMARK H PARENT
REMARK Flexibility Score: inf
ROOT
ATOM      1  C   UNL     1      43.716   8.523 117.024  1.00  0.00     0.004 C 
ENDROOT
BRANCH   1   2
ATOM      2  C   UNL     1      44.272   9.757 116.296  1.00  0.00     0.000 C 
BRANCH   2   3
ATOM      3  C   UNL     1      45.726   9.560 115.826  1.00  0.00     0.000 C 
BRANCH   3   4
ATOM      4  C   UNL     1      46.003   8.121 115.358  1.00  0.00     0.000 C 
BRANCH   4   5
ATOM      5  C   UNL     1      45.658   7.909 113.873  1.00  0.00     0.006 C 
BRANCH   5   6
ATOM      6  C   UNL     1      46.489   6.784 113.241  1.00  0.00     0.053 C 
BRANCH   6   7
ATOM      7  C   UNL     1      47.686   7.316 112.510  1.00  0.00     0.041 C 
ATOM      8  O   UNL     1      47.535   8.043 111.492  1.00  0.00    -0.550 OA
ATOM      9  O   UNL     1      48.966   7.035 112.973  1.00  0.00    -0.550 OA
ENDBRANCH   6   7
ENDBRANCH   5   6
ENDBRANCH   4   5
ENDBRANCH   3   4
ENDBRANCH   2   3
ENDBRANCH   1   2
BRANCH   1  10
ATOM     10  C   UNL     1      43.441   8.783 118.515  1.00  0.00     0.027 C 
BRANCH  10  11
ATOM     11  C   UNL     1      43.477  10.254 118.823  1.00  0.00    -0.031 C 
ATOM     12  C   UNL     1      42.657  10.799 119.734  1.00  0.00    -0.031 C 
BRANCH  12  13
ATOM     13  C   UNL     1      42.704  12.268 120.061  1.00  0.00     0.027 C 
BRANCH  13  14
ATOM     14  C   UNL     1      42.653  12.515 121.576  1.00  0.00     0.004 C 
BRANCH  14  15
ATOM     15  C   UNL     1      43.957  12.162 122.318  1.00  0.00     0.000 C 
BRANCH  15  16
ATOM     16  C   UNL     1      45.223  12.765 121.674  1.00  0.00    -0.000 C 
BRANCH  16  17
ATOM     17  C   UNL     1      46.404  11.786 121.688  1.00  0.00    -0.003 C 
ATOM     18  C   UNL     1      46.699  11.251 120.289  1.00  0.00     0.004 C 
ENDBRANCH  16  17
ENDBRANCH  15  16
ENDBRANCH  14  15
ENDBRANCH  13  14
ENDBRANCH  12  13
ENDBRANCH  10  11
ENDBRANCH   1  10
TORSDOF 13
ENDMDL
MODEL 8
REMARK VINA RESULT:    -4.087      2.655      3.755
REMARK INTER + INTRA:          -8.913
REMARK INTER:                  -7.609
REMARK INTRA:                  -1.304
REMARK UNBOUND:                -1.720
REMARK SMILES CCCCCCC=CCCCCCCCC(=O)[O-]
REMARK SMILES IDX 10 1 11 2 12 3 13 4 14 5 15 6 16 7 17 8 18 9 9 10 8 11 7 12
REMARK SMILES IDX 6 13 5 14 4 15 3 16 2 17 1 18
REMARK H PARENT
REMARK Flexibility Score: inf
ROOT
ATOM      1  C   UNL     1      45.582   7.047 113.757  1.00  0.00     0.004 C 
ENDROOT
BRANCH   1   2
ATOM      2  C   UNL     1      44.804   6.887 115.072  1.00  0.00     0.000 C 
BRANCH   2   3
ATOM      3  C   UNL     1      43.533   7.754 115.118  1.00  0.00     0.000 C 
BRANCH   3   4
ATOM      4  C   UNL     1      43.848   9.250 115.294  1.00  0.00     0.000 C 
BRANCH   4   5
ATOM      5  C   UNL     1      43.027  10.139 114.343  1.00  0.00     0.006 C 
BRANCH   5   6
ATOM      6  C   UNL     1      43.273   9.791 112.869  1.00  0.00     0.053 C 
BRANCH   6   7
ATOM      7  C   UNL     1      42.287  10.466 111.962  1.00  0.00     0.041 C 
ATOM      8  O   UNL     1      41.063  10.175 112.031  1.00  0.00    -0.550 OA
ATOM      9  O   UNL     1      42.715  11.438 111.067  1.00  0.00    -0.550 OA
ENDBRANCH   6   7
ENDBRANCH   5   6
ENDBRANCH   4   5
ENDBRANCH   3   4
ENDBRANCH   2   3
ENDBRANCH   1   2
BRANCH   1  10
ATOM     10  C   UNL     1      46.967   7.685 113.957  1.00  0.00     0.027 C 
BRANCH  10  11
ATOM     11  C   UNL     1      47.990   7.049 113.058  1.00  0.00    -0.031 C 
ATOM     12  C   UNL     1      48.014   7.294 111.739  1.00  0.00    -0.031 C 
BRANCH  12  13
ATOM     13  C   UNL     1      49.049   6.676 110.839  1.00  0.00     0.027 C 
BRANCH  13  14
ATOM     14  C   UNL     1      49.105   5.149 111.002  1.00  0.00     0.004 C 
BRANCH  14  15
ATOM     15  C   UNL     1      50.397   4.632 111.664  1.00  0.00     0.000 C 
BRANCH  15  16
ATOM     16  C   UNL     1      51.422   5.741 111.984  1.00  0.00    -0.000 C 
BRANCH  16  17
ATOM     17  C   UNL     1      51.775   5.792 113.477  1.00  0.00    -0.003 C 
ATOM     18  C   UNL     1      50.842   4.909 114.300  1.00  0.00     0.004 C 
ENDBRANCH  16  17
ENDBRANCH  15  16
ENDBRANCH  14  15
ENDBRANCH  13  14
ENDBRANCH  12  13
ENDBRANCH  10  11
ENDBRANCH   1  10
TORSDOF 13
ENDMDL
MODEL 9
REMARK VINA RESULT:    -4.016      3.815      8.135
REMARK INTER + INTRA:          -8.789
REMARK INTER:                  -7.198
REMARK INTRA:                  -1.591
REMARK UNBOUND:                -1.720
REMARK SMILES CCCCCCC=CCCCCCCCC(=O)[O-]
REMARK SMILES IDX 10 1 11 2 12 3 13 4 14 5 15 6 16 7 17 8 18 9 9 10 8 11 7 12
REMARK SMILES IDX 6 13 5 14 4 15 3 16 2 17 1 18
REMARK H PARENT
REMARK Flexibility Score: inf
ROOT
ATOM      1  C   UNL     1      43.639   9.143 113.784  1.00  0.00     0.004 C 
ENDROOT
BRANCH   1   2
ATOM      2  C   UNL     1      43.394   7.718 114.305  1.00  0.00     0.000 C 
BRANCH   2   3
ATOM      3  C   UNL     1      43.361   7.648 115.843  1.00  0.00     0.000 C 
BRANCH   3   4
ATOM      4  C   UNL     1      44.090   8.833 116.502  1.00  0.00     0.000 C 
BRANCH   4   5
ATOM      5  C   UNL     1      45.512   8.467 116.960  1.00  0.00     0.006 C 
BRANCH   5   6
ATOM      6  C   UNL     1      46.587   9.041 116.026  1.00  0.00     0.053 C 
BRANCH   6   7
ATOM      7  C   UNL     1      47.275   7.965 115.239  1.00  0.00     0.041 C 
ATOM      8  O   UNL     1      48.207   7.297 115.761  1.00  0.00    -0.550 OA
ATOM      9  O   UNL     1      46.866   7.681 113.942  1.00  0.00    -0.550 OA
ENDBRANCH   6   7
ENDBRANCH   5   6
ENDBRANCH   4   5
ENDBRANCH   3   4
ENDBRANCH   2   3
ENDBRANCH   1   2
BRANCH   1  10
ATOM     10  C   UNL     1      42.481   9.670 112.920  1.00  0.00     0.027 C 
BRANCH  10  11
ATOM     11  C   UNL     1      42.194  11.114 113.222  1.00  0.00    -0.031 C 
ATOM     12  C   UNL     1      42.290  11.603 114.467  1.00  0.00    -0.031 C 
BRANCH  12  13
ATOM     13  C   UNL     1      42.023  13.053 114.770  1.00  0.00     0.027 C 
BRANCH  13  14
ATOM     14  C   UNL     1      41.117  13.697 113.710  1.00  0.00     0.004 C 
BRANCH  14  15
ATOM     15  C   UNL     1      41.569  15.100 113.261  1.00  0.00     0.000 C 
BRANCH  15  16
ATOM     16  C   UNL     1      41.907  15.196 111.758  1.00  0.00    -0.000 C 
BRANCH  16  17
ATOM     17  C   UNL     1      43.284  14.604 111.433  1.00  0.00    -0.003 C 
ATOM     18  C   UNL     1      43.166  13.395 110.510  1.00  0.00     0.004 C 
ENDBRANCH  16  17
ENDBRANCH  15  16
ENDBRANCH  14  15
ENDBRANCH  13  14
ENDBRANCH  12  13
ENDBRANCH  10  11
ENDBRANCH   1  10
TORSDOF 13
ENDMDL
