MODEL 1
REMARK VINA RESULT:    -3.560      0.000      0.000
REMARK INTER + INTRA:          -8.644
REMARK INTER:                  -6.683
REMARK INTRA:                  -1.961
REMARK UNBOUND:                -1.961
REMARK SMILES O=C([O-])CCCCCCCCCCCCCCC(=O)[O-]
REMARK SMILES IDX 10 1 9 2 8 3 7 4 6 5 5 6 4 7 2 8 1 9 3 10 11 11 12 12 13 13
REMARK SMILES IDX 14 14 15 15 16 16 17 17 18 18 19 19 20 20
REMARK H PARENT
REMARK Flexibility Score: inf
ROOT
ATOM      1  C   UNL     1      17.504  14.889  15.494  1.00  0.00     0.000 C 
ENDROOT
BRANCH   1   2
ATOM      2  C   UNL     1      17.020  16.009  16.430  1.00  0.00     0.000 C 
BRANCH   2   3
ATOM      3  C   UNL     1      18.078  17.102  16.648  1.00  0.00     0.000 C 
BRANCH   3   4
ATOM      4  C   UNL     1      17.768  18.012  17.851  1.00  0.00     0.000 C 
BRANCH   4   5
ATOM      5  C   UNL     1      18.351  17.546  19.199  1.00  0.00     0.000 C 
BRANCH   5   6
ATOM      6  C   UNL     1      17.422  16.582  19.956  1.00  0.00     0.006 C 
BRANCH   6   7
ATOM      7  C   UNL     1      18.121  15.928  21.156  1.00  0.00     0.053 C 
BRANCH   7   8
ATOM      8  C   UNL     1      17.667  16.520  22.456  1.00  0.00     0.041 C 
ATOM      9  O   UNL     1      18.284  16.257  23.521  1.00  0.00    -0.550 OA
ATOM     10  O   UNL     1      16.578  17.382  22.486  1.00  0.00    -0.550 OA
ENDBRANCH   7   8
ENDBRANCH   6   7
ENDBRANCH   5   6
ENDBRANCH   4   5
ENDBRANCH   3   4
ENDBRANCH   2   3
ENDBRANCH   1   2
BRANCH   1  11
ATOM     11  C   UNL     1      18.891  15.158  14.871  1.00  0.00     0.000 C 
BRANCH  11  12
ATOM     12  C   UNL     1      19.937  14.122  15.319  1.00  0.00     0.000 C 
BRANCH  12  13
ATOM     13  C   UNL     1      19.363  13.080  16.293  1.00  0.00     0.000 C 
BRANCH  13  14
ATOM     14  C   UNL     1      20.022  13.146  17.682  1.00  0.00     0.000 C 
BRANCH  14  15
ATOM     15  C   UNL     1      20.342  14.586  18.126  1.00  0.00     0.000 C 
BRANCH  15  16
ATOM     16  C   UNL     1      21.076  14.708  19.472  1.00  0.00     0.006 C 
BRANCH  16  17
ATOM     17  C   UNL     1      21.345  13.351  20.133  1.00  0.00     0.053 C 
BRANCH  17  18
ATOM     18  C   UNL     1      21.110  13.433  21.609  1.00  0.00     0.041 C 
ATOM     19  O   UNL     1      21.199  14.540  22.204  1.00  0.00    -0.550 OA
ATOM     20  O   UNL     1      20.849  12.279  22.335  1.00  0.00    -0.550 OA
ENDBRANCH  17  18
ENDBRANCH  16  17
ENDBRANCH  15  16
ENDBRANCH  14  15
ENDBRANCH  13  14
ENDBRANCH  12  13
ENDBRANCH  11  12
ENDBRANCH   1  11
TORSDOF 15
ENDMDL
MODEL 2
REMARK VINA RESULT:    -3.547      1.577      2.233
REMARK INTER + INTRA:          -8.619
REMARK INTER:                  -6.429
REMARK INTRA:                  -2.190
REMARK UNBOUND:                -1.961
REMARK SMILES O=C([O-])CCCCCCCCCCCCCCC(=O)[O-]
REMARK SMILES IDX 10 1 9 2 8 3 7 4 6 5 5 6 4 7 2 8 1 9 3 10 11 11 12 12 13 13
REMARK SMILES IDX 14 14 15 15 16 16 17 17 18 18 19 19 20 20
REMARK H PARENT
REMARK Flexibility Score: inf
ROOT
ATOM      1  C   UNL     1      16.990  16.399  16.566  1.00  0.00     0.000 C 
ENDROOT
BRANCH   1   2
ATOM      2  C   UNL     1      18.075  17.484  16.675  1.00  0.00     0.000 C 
BRANCH   2   3
ATOM      3  C   UNL     1      18.162  18.100  18.081  1.00  0.00     0.000 C 
BRANCH   3   4
ATOM      4  C   UNL     1      19.494  17.799  18.792  1.00  0.00     0.000 C 
BRANCH   4   5
ATOM      5  C   UNL     1      19.812  16.304  18.991  1.00  0.00     0.000 C 
BRANCH   5   6
ATOM      6  C   UNL     1      18.665  15.528  19.659  1.00  0.00     0.006 C 
BRANCH   6   7
ATOM      7  C   UNL     1      18.834  15.441  21.182  1.00  0.00     0.053 C 
BRANCH   7   8
ATOM      8  C   UNL     1      17.824  16.281  21.903  1.00  0.00     0.041 C 
ATOM      9  O   UNL     1      17.028  17.011  21.254  1.00  0.00    -0.550 OA
ATOM     10  O   UNL     1      17.745  16.240  23.289  1.00  0.00    -0.550 OA
ENDBRANCH   7   8
ENDBRANCH   6   7
ENDBRANCH   5   6
ENDBRANCH   4   5
ENDBRANCH   3   4
ENDBRANCH   2   3
ENDBRANCH   1   2
BRANCH   1  11
ATOM     11  C   UNL     1      17.227  15.401  15.412  1.00  0.00     0.000 C 
BRANCH  11  12
ATOM     12  C   UNL     1      18.136  14.233  15.835  1.00  0.00     0.000 C 
BRANCH  12  13
ATOM     13  C   UNL     1      19.582  14.395  15.338  1.00  0.00     0.000 C 
BRANCH  13  14
ATOM     14  C   UNL     1      20.611  13.813  16.321  1.00  0.00     0.000 C 
BRANCH  14  15
ATOM     15  C   UNL     1      19.978  12.879  17.370  1.00  0.00     0.000 C 
BRANCH  15  16
ATOM     16  C   UNL     1      20.977  12.114  18.254  1.00  0.00     0.006 C 
BRANCH  16  17
ATOM     17  C   UNL     1      21.338  12.867  19.541  1.00  0.00     0.053 C 
BRANCH  17  18
ATOM     18  C   UNL     1      22.768  13.306  19.505  1.00  0.00     0.041 C 
ATOM     19  O   UNL     1      23.631  12.716  20.208  1.00  0.00    -0.550 OA
ATOM     20  O   UNL     1      23.139  14.403  18.738  1.00  0.00    -0.550 OA
ENDBRANCH  17  18
ENDBRANCH  16  17
ENDBRANCH  15  16
ENDBRANCH  14  15
ENDBRANCH  13  14
ENDBRANCH  12  13
ENDBRANCH  11  12
ENDBRANCH   1  11
TORSDOF 15
ENDMDL
MODEL 3
REMARK VINA RESULT:    -3.516      2.957      4.862
REMARK INTER + INTRA:          -8.560
REMARK INTER:                  -6.874
REMARK INTRA:                  -1.685
REMARK UNBOUND:                -1.961
REMARK SMILES O=C([O-])CCCCCCCCCCCCCCC(=O)[O-]
REMARK SMILES IDX 10 1 9 2 8 3 7 4 6 5 5 6 4 7 2 8 1 9 3 10 11 11 12 12 13 13
REMARK SMILES IDX 14 14 15 15 16 16 17 17 18 18 19 19 20 20
REMARK H PARENT
REMARK Flexibility Score: inf
ROOT
ATOM      1  C   UNL     1      20.251  12.865  17.613  1.00  0.00     0.000 C 
ENDROOT
BRANCH   1   2
ATOM      2  C   UNL     1      20.345  14.141  18.467  1.00  0.00     0.000 C 
BRANCH   2   3
ATOM      3  C   UNL     1      20.764  13.857  19.918  1.00  0.00     0.000 C 
BRANCH   3   4
ATOM      4  C   UNL     1      19.862  14.553  20.955  1.00  0.00     0.000 C 
BRANCH   4   5
ATOM      5  C   UNL     1      18.848  15.559  20.379  1.00  0.00     0.000 C 
BRANCH   5   6
ATOM      6  C   UNL     1      17.951  16.195  21.454  1.00  0.00     0.006 C 
BRANCH   6   7
ATOM      7  C   UNL     1      17.018  17.265  20.871  1.00  0.00     0.053 C 
BRANCH   7   8
ATOM      8  C   UNL     1      16.860  18.431  21.799  1.00  0.00     0.041 C 
ATOM      9  O   UNL     1      17.556  19.467  21.637  1.00  0.00    -0.550 OA
ATOM     10  O   UNL     1      15.926  18.383  22.826  1.00  0.00    -0.550 OA
ENDBRANCH   7   8
ENDBRANCH   6   7
ENDBRANCH   5   6
ENDBRANCH   4   5
ENDBRANCH   3   4
ENDBRANCH   2   3
ENDBRANCH   1   2
BRANCH   1  11
ATOM     11  C   UNL     1      19.409  13.038  16.331  1.00  0.00     0.000 C 
BRANCH  11  12
ATOM     12  C   UNL     1      19.024  14.508  16.086  1.00  0.00     0.000 C 
BRANCH  12  13
ATOM     13  C   UNL     1      17.614  14.662  15.492  1.00  0.00     0.000 C 
BRANCH  13  14
ATOM     14  C   UNL     1      16.759  15.684  16.261  1.00  0.00     0.000 C 
BRANCH  14  15
ATOM     15  C   UNL     1      17.547  16.416  17.364  1.00  0.00     0.000 C 
BRANCH  15  16
ATOM     16  C   UNL     1      17.855  17.895  17.077  1.00  0.00     0.006 C 
BRANCH  16  17
ATOM     17  C   UNL     1      19.335  18.151  16.770  1.00  0.00     0.053 C 
BRANCH  17  18
ATOM     18  C   UNL     1      19.532  18.389  15.306  1.00  0.00     0.041 C 
ATOM     19  O   UNL     1      20.558  18.991  14.894  1.00  0.00    -0.550 OA
ATOM     20  O   UNL     1      18.554  17.995  14.401  1.00  0.00    -0.550 OA
ENDBRANCH  17  18
ENDBRANCH  16  17
ENDBRANCH  15  16
ENDBRANCH  14  15
ENDBRANCH  13  14
ENDBRANCH  12  13
ENDBRANCH  11  12
ENDBRANCH   1  11
TORSDOF 15
ENDMDL
MODEL 4
REMARK VINA RESULT:    -3.508      1.974      3.243
REMARK INTER + INTRA:          -8.546
REMARK INTER:                  -6.591
REMARK INTRA:                  -1.955
REMARK UNBOUND:                -1.961
REMARK SMILES O=C([O-])CCCCCCCCCCCCCCC(=O)[O-]
REMARK SMILES IDX 10 1 9 2 8 3 7 4 6 5 5 6 4 7 2 8 1 9 3 10 11 11 12 12 13 13
REMARK SMILES IDX 14 14 15 15 16 16 17 17 18 18 19 19 20 20
REMARK H PARENT
REMARK Flexibility Score: inf
ROOT
ATOM      1  C   UNL     1      17.793  17.190  16.479  1.00  0.00     0.000 C 
ENDROOT
BRANCH   1   2
ATOM      2  C   UNL     1      18.085  17.547  17.947  1.00  0.00     0.000 C 
BRANCH   2   3
ATOM      3  C   UNL     1      17.753  16.401  18.916  1.00  0.00     0.000 C 
BRANCH   3   4
ATOM      4  C   UNL     1      17.528  16.879  20.363  1.00  0.00     0.000 C 
BRANCH   4   5
ATOM      5  C   UNL     1      18.128  15.977  21.457  1.00  0.00     0.000 C 
BRANCH   5   6
ATOM      6  C   UNL     1      19.067  14.895  20.898  1.00  0.00     0.006 C 
BRANCH   6   7
ATOM      7  C   UNL     1      20.252  14.617  21.833  1.00  0.00     0.053 C 
BRANCH   7   8
ATOM      8  C   UNL     1      21.381  15.574  21.601  1.00  0.00     0.041 C 
ATOM      9  O   UNL     1      21.584  16.046  20.451  1.00  0.00    -0.550 OA
ATOM     10  O   UNL     1      22.193  15.965  22.658  1.00  0.00    -0.550 OA
ENDBRANCH   7   8
ENDBRANCH   6   7
ENDBRANCH   5   6
ENDBRANCH   4   5
ENDBRANCH   3   4
ENDBRANCH   2   3
ENDBRANCH   1   2
BRANCH   1  11
ATOM     11  C   UNL     1      16.857  15.974  16.312  1.00  0.00     0.000 C 
BRANCH  11  12
ATOM     12  C   UNL     1      17.491  14.871  15.446  1.00  0.00     0.000 C 
BRANCH  12  13
ATOM     13  C   UNL     1      18.864  15.272  14.883  1.00  0.00     0.000 C 
BRANCH  13  14
ATOM     14  C   UNL     1      19.983  14.309  15.315  1.00  0.00     0.000 C 
BRANCH  14  15
ATOM     15  C   UNL     1      19.504  13.249  16.325  1.00  0.00     0.000 C 
BRANCH  15  16
ATOM     16  C   UNL     1      19.940  13.487  17.781  1.00  0.00     0.006 C 
BRANCH  16  17
ATOM     17  C   UNL     1      20.906  12.415  18.300  1.00  0.00     0.053 C 
BRANCH  17  18
ATOM     18  C   UNL     1      22.256  13.008  18.553  1.00  0.00     0.041 C 
ATOM     19  O   UNL     1      22.784  12.920  19.694  1.00  0.00    -0.550 OA
ATOM     20  O   UNL     1      22.908  13.706  17.545  1.00  0.00    -0.550 OA
ENDBRANCH  17  18
ENDBRANCH  16  17
ENDBRANCH  15  16
ENDBRANCH  14  15
ENDBRANCH  13  14
ENDBRANCH  12  13
ENDBRANCH  11  12
ENDBRANCH   1  11
TORSDOF 15
ENDMDL
MODEL 5
REMARK VINA RESULT:    -3.500     12.461     14.650
REMARK INTER + INTRA:          -8.531
REMARK INTER:                  -6.462
REMARK INTRA:                  -2.069
REMARK UNBOUND:                -1.961
REMARK SMILES O=C([O-])CCCCCCCCCCCCCCC(=O)[O-]
REMARK SMILES IDX 10 1 9 2 8 3 7 4 6 5 5 6 4 7 2 8 1 9 3 10 11 11 12 12 13 13
REMARK SMILES IDX 14 14 15 15 16 16 17 17 18 18 19 19 20 20
REMARK H PARENT
REMARK Flexibility Score: inf
ROOT
ATOM      1  C   UNL     1      24.749   7.204  26.808  1.00  0.00     0.000 C 
ENDROOT
BRANCH   1   2
ATOM      2  C   UNL     1      24.466   8.689  27.095  1.00  0.00     0.000 C 
BRANCH   2   3
ATOM      3  C   UNL     1      25.550   9.345  27.965  1.00  0.00     0.000 C 
BRANCH   3   4
ATOM      4  C   UNL     1      26.971   9.160  27.400  1.00  0.00     0.000 C 
BRANCH   4   5
ATOM      5  C   UNL     1      27.955   8.413  28.321  1.00  0.00     0.000 C 
BRANCH   5   6
ATOM      6  C   UNL     1      29.345   8.224  27.691  1.00  0.00     0.006 C 
BRANCH   6   7
ATOM      7  C   UNL     1      29.492   8.994  26.372  1.00  0.00     0.053 C 
BRANCH   7   8
ATOM      8  C   UNL     1      30.550  10.053  26.460  1.00  0.00     0.041 C 
ATOM      9  O   UNL     1      31.565   9.996  25.717  1.00  0.00    -0.550 OA
ATOM     10  O   UNL     1      30.402  11.113  27.344  1.00  0.00    -0.550 OA
ENDBRANCH   7   8
ENDBRANCH   6   7
ENDBRANCH   5   6
ENDBRANCH   4   5
ENDBRANCH   3   4
ENDBRANCH   2   3
ENDBRANCH   1   2
BRANCH   1  11
ATOM     11  C   UNL     1      24.201   6.249  27.889  1.00  0.00     0.000 C 
BRANCH  11  12
ATOM     12  C   UNL     1      25.281   5.850  28.909  1.00  0.00     0.000 C 
BRANCH  12  13
ATOM     13  C   UNL     1      26.015   4.555  28.523  1.00  0.00     0.000 C 
BRANCH  13  14
ATOM     14  C   UNL     1      27.400   4.822  27.911  1.00  0.00     0.000 C 
BRANCH  14  15
ATOM     15  C   UNL     1      27.835   3.733  26.911  1.00  0.00     0.000 C 
BRANCH  15  16
ATOM     16  C   UNL     1      27.900   4.182  25.441  1.00  0.00     0.006 C 
BRANCH  16  17
ATOM     17  C   UNL     1      27.696   5.692  25.266  1.00  0.00     0.053 C 
BRANCH  17  18
ATOM     18  C   UNL     1      27.118   5.987  23.918  1.00  0.00     0.041 C 
ATOM     19  O   UNL     1      27.868   6.336  22.968  1.00  0.00    -0.550 OA
ATOM     20  O   UNL     1      25.743   5.932  23.725  1.00  0.00    -0.550 OA
ENDBRANCH  17  18
ENDBRANCH  16  17
ENDBRANCH  15  16
ENDBRANCH  14  15
ENDBRANCH  13  14
ENDBRANCH  12  13
ENDBRANCH  11  12
ENDBRANCH   1  11
TORSDOF 15
ENDMDL
MODEL 6
REMARK VINA RESULT:    -3.481      1.926      3.936
REMARK INTER + INTRA:          -8.495
REMARK INTER:                  -6.292
REMARK INTRA:                  -2.203
REMARK UNBOUND:                -1.961
REMARK SMILES O=C([O-])CCCCCCCCCCCCCCC(=O)[O-]
REMARK SMILES IDX 10 1 9 2 8 3 7 4 6 5 5 6 4 7 2 8 1 9 3 10 11 11 12 12 13 13
REMARK SMILES IDX 14 14 15 15 16 16 17 17 18 18 19 19 20 20
REMARK H PARENT
REMARK Flexibility Score: inf
ROOT
ATOM      1  C   UNL     1      18.271  17.449  17.909  1.00  0.00     0.000 C 
ENDROOT
BRANCH   1   2
ATOM      2  C   UNL     1      17.817  16.304  18.830  1.00  0.00     0.000 C 
BRANCH   2   3
ATOM      3  C   UNL     1      17.404  16.791  20.228  1.00  0.00     0.000 C 
BRANCH   3   4
ATOM      4  C   UNL     1      18.115  16.035  21.366  1.00  0.00     0.000 C 
BRANCH   4   5
ATOM      5  C   UNL     1      19.171  15.007  20.917  1.00  0.00     0.000 C 
BRANCH   5   6
ATOM      6  C   UNL     1      20.614  15.492  21.133  1.00  0.00     0.006 C 
BRANCH   6   7
ATOM      7  C   UNL     1      21.614  14.328  21.183  1.00  0.00     0.053 C 
BRANCH   7   8
ATOM      8  C   UNL     1      21.405  13.465  22.390  1.00  0.00     0.041 C 
ATOM      9  O   UNL     1      21.624  13.924  23.542  1.00  0.00    -0.550 OA
ATOM     10  O   UNL     1      20.944  12.163  22.244  1.00  0.00    -0.550 OA
ENDBRANCH   7   8
ENDBRANCH   6   7
ENDBRANCH   5   6
ENDBRANCH   4   5
ENDBRANCH   3   4
ENDBRANCH   2   3
ENDBRANCH   1   2
BRANCH   1  11
ATOM     11  C   UNL     1      17.755  17.321  16.460  1.00  0.00     0.000 C 
BRANCH  11  12
ATOM     12  C   UNL     1      16.939  16.033  16.248  1.00  0.00     0.000 C 
BRANCH  12  13
ATOM     13  C   UNL     1      17.517  15.138  15.140  1.00  0.00     0.000 C 
BRANCH  13  14
ATOM     14  C   UNL     1      18.956  14.683  15.440  1.00  0.00     0.000 C 
BRANCH  14  15
ATOM     15  C   UNL     1      19.013  13.389  16.274  1.00  0.00     0.000 C 
BRANCH  15  16
ATOM     16  C   UNL     1      19.910  13.454  17.522  1.00  0.00     0.006 C 
BRANCH  16  17
ATOM     17  C   UNL     1      20.901  14.624  17.488  1.00  0.00     0.053 C 
BRANCH  17  18
ATOM     18  C   UNL     1      22.308  14.116  17.471  1.00  0.00     0.041 C 
ATOM     19  O   UNL     1      23.222  14.759  18.053  1.00  0.00    -0.550 OA
ATOM     20  O   UNL     1      22.621  12.962  16.765  1.00  0.00    -0.550 OA
ENDBRANCH  17  18
ENDBRANCH  16  17
ENDBRANCH  15  16
ENDBRANCH  14  15
ENDBRANCH  13  14
ENDBRANCH  12  13
ENDBRANCH  11  12
ENDBRANCH   1  11
TORSDOF 15
ENDMDL
MODEL 7
REMARK VINA RESULT:    -3.478     11.817     13.959
REMARK INTER + INTRA:          -8.490
REMARK INTER:                  -5.897
REMARK INTRA:                  -2.593
REMARK UNBOUND:                -1.961
REMARK SMILES O=C([O-])CCCCCCCCCCCCCCC(=O)[O-]
REMARK SMILES IDX 10 1 9 2 8 3 7 4 6 5 5 6 4 7 2 8 1 9 3 10 11 11 12 12 13 13
REMARK SMILES IDX 14 14 15 15 16 16 17 17 18 18 19 19 20 20
REMARK H PARENT
REMARK Flexibility Score: inf
ROOT
ATOM      1  C   UNL     1      29.023  13.178  24.255  1.00  0.00     0.000 C 
ENDROOT
BRANCH   1   2
ATOM      2  C   UNL     1      28.346  11.801  24.145  1.00  0.00     0.000 C 
BRANCH   2   3
ATOM      3  C   UNL     1      27.491  11.457  25.375  1.00  0.00     0.000 C 
BRANCH   3   4
ATOM      4  C   UNL     1      28.288  11.483  26.692  1.00  0.00     0.000 C 
BRANCH   4   5
ATOM      5  C   UNL     1      28.037  10.293  27.638  1.00  0.00     0.000 C 
BRANCH   5   6
ATOM      6  C   UNL     1      29.261   9.941  28.501  1.00  0.00     0.006 C 
BRANCH   6   7
ATOM      7  C   UNL     1      30.152  11.162  28.767  1.00  0.00     0.053 C 
BRANCH   7   8
ATOM      8  C   UNL     1      30.377  11.379  30.232  1.00  0.00     0.041 C 
ATOM      9  O   UNL     1      29.919  12.407  30.798  1.00  0.00    -0.550 OA
ATOM     10  O   UNL     1      31.070  10.434  30.979  1.00  0.00    -0.550 OA
ENDBRANCH   7   8
ENDBRANCH   6   7
ENDBRANCH   5   6
ENDBRANCH   4   5
ENDBRANCH   3   4
ENDBRANCH   2   3
ENDBRANCH   1   2
BRANCH   1  11
ATOM     11  C   UNL     1      30.505  13.176  23.825  1.00  0.00     0.000 C 
BRANCH  11  12
ATOM     12  C   UNL     1      31.138  11.778  23.936  1.00  0.00     0.000 C 
BRANCH  12  13
ATOM     13  C   UNL     1      31.703  11.490  25.337  1.00  0.00     0.000 C 
BRANCH  13  14
ATOM     14  C   UNL     1      31.622  10.000  25.711  1.00  0.00     0.000 C 
BRANCH  14  15
ATOM     15  C   UNL     1      30.940   9.146  24.625  1.00  0.00     0.000 C 
BRANCH  15  16
ATOM     16  C   UNL     1      29.755   8.294  25.111  1.00  0.00     0.006 C 
BRANCH  16  17
ATOM     17  C   UNL     1      28.694   8.070  24.027  1.00  0.00     0.053 C 
BRANCH  17  18
ATOM     18  C   UNL     1      27.593   7.199  24.546  1.00  0.00     0.041 C 
ATOM     19  O   UNL     1      27.339   6.098  23.988  1.00  0.00    -0.550 OA
ATOM     20  O   UNL     1      26.812   7.627  25.610  1.00  0.00    -0.550 OA
ENDBRANCH  17  18
ENDBRANCH  16  17
ENDBRANCH  15  16
ENDBRANCH  14  15
ENDBRANCH  13  14
ENDBRANCH  12  13
ENDBRANCH  11  12
ENDBRANCH   1  11
TORSDOF 15
ENDMDL
MODEL 8
REMARK VINA RESULT:    -3.474      1.949      5.120
REMARK INTER + INTRA:          -8.481
REMARK INTER:                  -6.341
REMARK INTRA:                  -2.140
REMARK UNBOUND:                -1.961
REMARK SMILES O=C([O-])CCCCCCCCCCCCCCC(=O)[O-]
REMARK SMILES IDX 10 1 9 2 8 3 7 4 6 5 5 6 4 7 2 8 1 9 3 10 11 11 12 12 13 13
REMARK SMILES IDX 14 14 15 15 16 16 17 17 18 18 19 19 20 20
REMARK H PARENT
REMARK Flexibility Score: inf
ROOT
ATOM      1  C   UNL     1      20.399  17.073  14.645  1.00  0.00     0.000 C 
ENDROOT
BRANCH   1   2
ATOM      2  C   UNL     1      21.055  16.536  15.928  1.00  0.00     0.000 C 
BRANCH   2   3
ATOM      3  C   UNL     1      21.092  15.000  15.981  1.00  0.00     0.000 C 
BRANCH   3   4
ATOM      4  C   UNL     1      20.236  14.414  17.119  1.00  0.00     0.000 C 
BRANCH   4   5
ATOM      5  C   UNL     1      19.895  12.917  16.985  1.00  0.00     0.000 C 
BRANCH   5   6
ATOM      6  C   UNL     1      20.673  12.032  17.973  1.00  0.00     0.006 C 
BRANCH   6   7
ATOM      7  C   UNL     1      21.204  12.830  19.172  1.00  0.00     0.053 C 
BRANCH   7   8
ATOM      8  C   UNL     1      22.699  12.931  19.154  1.00  0.00     0.041 C 
ATOM      9  O   UNL     1      23.344  12.966  20.236  1.00  0.00    -0.550 OA
ATOM     10  O   UNL     1      23.382  12.960  17.945  1.00  0.00    -0.550 OA
ENDBRANCH   7   8
ENDBRANCH   6   7
ENDBRANCH   5   6
ENDBRANCH   4   5
ENDBRANCH   3   4
ENDBRANCH   2   3
ENDBRANCH   1   2
BRANCH   1  11
ATOM     11  C   UNL     1      19.548  16.024  13.898  1.00  0.00     0.000 C 
BRANCH  11  12
ATOM     12  C   UNL     1      18.040  16.253  14.098  1.00  0.00     0.000 C 
BRANCH  12  13
ATOM     13  C   UNL     1      17.385  15.171  14.972  1.00  0.00     0.000 C 
BRANCH  13  14
ATOM     14  C   UNL     1      17.014  15.690  16.372  1.00  0.00     0.000 C 
BRANCH  14  15
ATOM     15  C   UNL     1      17.322  17.188  16.558  1.00  0.00     0.000 C 
BRANCH  15  16
ATOM     16  C   UNL     1      17.728  17.601  17.983  1.00  0.00     0.006 C 
BRANCH  16  17
ATOM     17  C   UNL     1      17.693  16.435  18.978  1.00  0.00     0.053 C 
BRANCH  17  18
ATOM     18  C   UNL     1      17.669  16.949  20.383  1.00  0.00     0.041 C 
ATOM     19  O   UNL     1      18.670  16.793  21.132  1.00  0.00    -0.550 OA
ATOM     20  O   UNL     1      16.522  17.550  20.883  1.00  0.00    -0.550 OA
ENDBRANCH  17  18
ENDBRANCH  16  17
ENDBRANCH  15  16
ENDBRANCH  14  15
ENDBRANCH  13  14
ENDBRANCH  12  13
ENDBRANCH  11  12
ENDBRANCH   1  11
TORSDOF 15
ENDMDL
MODEL 9
REMARK VINA RESULT:    -3.464     12.645     14.590
REMARK INTER + INTRA:          -8.463
REMARK INTER:                  -6.420
REMARK INTRA:                  -2.043
REMARK UNBOUND:                -1.961
REMARK SMILES O=C([O-])CCCCCCCCCCCCCCC(=O)[O-]
REMARK SMILES IDX 10 1 9 2 8 3 7 4 6 5 5 6 4 7 2 8 1 9 3 10 11 11 12 12 13 13
REMARK SMILES IDX 14 14 15 15 16 16 17 17 18 18 19 19 20 20
REMARK H PARENT
REMARK Flexibility Score: inf
ROOT
ATOM      1  C   UNL     1      27.838  11.828  27.975  1.00  0.00     0.000 C 
ENDROOT
BRANCH   1   2
ATOM      2  C   UNL     1      26.511  12.417  28.483  1.00  0.00     0.000 C 
BRANCH   2   3
ATOM      3  C   UNL     1      25.310  11.495  28.221  1.00  0.00     0.000 C 
BRANCH   3   4
ATOM      4  C   UNL     1      25.721  10.082  27.766  1.00  0.00     0.000 C 
BRANCH   4   5
ATOM      5  C   UNL     1      25.151   8.925  28.609  1.00  0.00     0.000 C 
BRANCH   5   6
ATOM      6  C   UNL     1      26.062   7.686  28.627  1.00  0.00     0.006 C 
BRANCH   6   7
ATOM      7  C   UNL     1      25.334   6.426  28.141  1.00  0.00     0.053 C 
BRANCH   7   8
ATOM      8  C   UNL     1      25.507   5.281  29.092  1.00  0.00     0.041 C 
ATOM      9  O   UNL     1      26.285   4.333  28.807  1.00  0.00    -0.550 OA
ATOM     10  O   UNL     1      24.828   5.274  30.304  1.00  0.00    -0.550 OA
ENDBRANCH   7   8
ENDBRANCH   6   7
ENDBRANCH   5   6
ENDBRANCH   4   5
ENDBRANCH   3   4
ENDBRANCH   2   3
ENDBRANCH   1   2
BRANCH   1  11
ATOM     11  C   UNL     1      28.970  11.857  29.023  1.00  0.00     0.000 C 
BRANCH  11  12
ATOM     12  C   UNL     1      29.937  10.670  28.864  1.00  0.00     0.000 C 
BRANCH  12  13
ATOM     13  C   UNL     1      29.213   9.315  28.827  1.00  0.00     0.000 C 
BRANCH  13  14
ATOM     14  C   UNL     1      29.683   8.427  27.662  1.00  0.00     0.000 C 
BRANCH  14  15
ATOM     15  C   UNL     1      28.878   8.658  26.369  1.00  0.00     0.000 C 
BRANCH  15  16
ATOM     16  C   UNL     1      29.630   9.404  25.254  1.00  0.00     0.006 C 
BRANCH  16  17
ATOM     17  C   UNL     1      31.116   9.614  25.570  1.00  0.00     0.053 C 
BRANCH  17  18
ATOM     18  C   UNL     1      31.441  11.074  25.609  1.00  0.00     0.041 C 
ATOM     19  O   UNL     1      32.591  11.459  25.948  1.00  0.00    -0.550 OA
ATOM     20  O   UNL     1      30.457  12.012  25.326  1.00  0.00    -0.550 OA
ENDBRANCH  17  18
ENDBRANCH  16  17
ENDBRANCH  15  16
ENDBRANCH  14  15
ENDBRANCH  13  14
ENDBRANCH  12  13
ENDBRANCH  11  12
ENDBRANCH   1  11
TORSDOF 15
ENDMDL
