MODEL 1
REMARK VINA RESULT:    -6.816      0.000      0.000
REMARK INTER + INTRA:         -11.430
REMARK INTER:                 -10.004
REMARK INTRA:                  -1.427
REMARK UNBOUND:                -1.427
REMARK SMILES O=c1c(O[C@H]2O[C@H](CO)[C@H](O)[C@H](O)[C@@H]2O)c(-c2ccc(O)c(O)c2)oc2cc(O)cc(O)c12
REMARK SMILES IDX 4 1 3 2 16 3 25 4 2 5 26 6 1 7 33 8 27 9 31 10 28 11 30 12
REMARK SMILES IDX 17 13 20 14 19 15 22 16 18 17 24 18 21 19 23 21 32 23 29 25
REMARK SMILES IDX 5 27 14 28 6 29 12 30 7 31 10 32 15 33 13 35 8 37 9 38 11 40
REMARK H PARENT 21 20 23 22 32 24 29 26 15 34 13 36 9 39 11 41
REMARK Flexibility Score: inf
ROOT
ATOM      1  O   UNL     1      -6.269   6.810  13.856  1.00  0.00    -0.454 OA
ENDROOT
BRANCH   1   2
ATOM      2  C   UNL     1      -5.197   6.081  14.392  1.00  0.00     0.214 A 
ATOM      3  C   UNL     1      -3.873   6.506  14.179  1.00  0.00     0.180 A 
ATOM      4  O   UNL     1      -2.865   5.860  14.757  1.00  0.00    -0.452 OA
ATOM      5  C   UNL     1      -5.417   4.918  15.149  1.00  0.00     0.239 A 
ATOM      6  C   UNL     1      -3.031   4.781  15.514  1.00  0.00     0.146 A 
ATOM      7  O   UNL     1      -6.589   4.471  15.273  1.00  0.00    -0.285 OA
ATOM      8  C   UNL     1      -4.324   4.252  15.740  1.00  0.00     0.111 A 
ATOM      9  C   UNL     1      -1.910   4.166  16.080  1.00  0.00     0.094 A 
ATOM     10  C   UNL     1      -4.465   3.092  16.540  1.00  0.00     0.134 A 
ATOM     11  C   UNL     1      -2.054   3.020  16.864  1.00  0.00     0.123 A 
ATOM     12  C   UNL     1      -3.328   2.485  17.091  1.00  0.00     0.093 A 
BRANCH   3  13
ATOM     13  C   UNL     1      -3.561   7.681  13.340  1.00  0.00     0.025 A 
ATOM     14  C   UNL     1      -2.990   9.903  11.715  1.00  0.00     0.157 A 
ATOM     15  C   UNL     1      -3.526   8.735  11.153  1.00  0.00     0.051 A 
ATOM     16  C   UNL     1      -2.746   9.965  13.094  1.00  0.00     0.158 A 
ATOM     17  C   UNL     1      -3.813   7.631  11.962  1.00  0.00     0.016 A 
ATOM     18  C   UNL     1      -3.044   8.860  13.906  1.00  0.00     0.062 A 
BRANCH  14  19
ATOM     19  O   UNL     1      -2.696  11.002  10.911  1.00  0.00    -0.504 OA
ATOM     20  H   UNL     1      -3.398  11.434  10.328  1.00  0.00     0.293 HD
ENDBRANCH  14  19
BRANCH  16  21
ATOM     21  O   UNL     1      -2.207  11.124  13.648  1.00  0.00    -0.504 OA
ATOM     22  H   UNL     1      -1.370  11.553  13.269  1.00  0.00     0.293 HD
ENDBRANCH  16  21
ENDBRANCH   3  13
BRANCH  10  23
ATOM     23  O   UNL     1      -5.724   2.542  16.794  1.00  0.00    -0.507 OA
ATOM     24  H   UNL     1      -5.951   1.589  16.533  1.00  0.00     0.293 HD
ENDBRANCH  10  23
BRANCH  11  25
ATOM     25  O   UNL     1      -0.925   2.416  17.412  1.00  0.00    -0.508 OA
ATOM     26  H   UNL     1       0.008   2.641  17.081  1.00  0.00     0.293 HD
ENDBRANCH  11  25
ENDBRANCH   1   2
BRANCH   1  27
ATOM     27  C   UNL     1      -7.183   7.562  14.665  1.00  0.00     0.339 C 
ATOM     28  C   UNL     1      -8.621   7.442  14.113  1.00  0.00     0.214 C 
ATOM     29  O   UNL     1      -6.765   8.917  14.779  1.00  0.00    -0.332 OA
ATOM     30  C   UNL     1      -8.768   8.234  12.800  1.00  0.00     0.180 C 
ATOM     31  C   UNL     1      -6.777   9.575  13.520  1.00  0.00     0.179 C 
ATOM     32  C   UNL     1      -8.216   9.662  12.965  1.00  0.00     0.177 C 
BRANCH  28  33
ATOM     33  O   UNL     1      -9.540   7.917  15.062  1.00  0.00    -0.384 OA
ATOM     34  H   UNL     1     -10.359   8.189  14.562  1.00  0.00     0.211 HD
ENDBRANCH  28  33
BRANCH  30  35
ATOM     35  O   UNL     1     -10.114   8.282  12.398  1.00  0.00    -0.387 OA
ATOM     36  H   UNL     1     -10.201   7.669  11.621  1.00  0.00     0.211 HD
ENDBRANCH  30  35
BRANCH  31  37
ATOM     37  C   UNL     1      -6.138  10.961  13.676  1.00  0.00     0.191 C 
BRANCH  37  38
ATOM     38  O   UNL     1      -5.656  11.125  14.984  1.00  0.00    -0.394 OA
ATOM     39  H   UNL     1      -6.139  11.907  15.364  1.00  0.00     0.210 HD
ENDBRANCH  37  38
ENDBRANCH  31  37
BRANCH  32  40
ATOM     40  O   UNL     1      -9.021  10.409  13.844  1.00  0.00    -0.387 OA
ATOM     41  H   UNL     1      -9.136  11.309  13.437  1.00  0.00     0.211 HD
ENDBRANCH  32  40
ENDBRANCH   1  27
TORSDOF 12
ENDMDL
MODEL 2
REMARK VINA RESULT:    -6.733      1.121      2.250
REMARK INTER + INTRA:         -11.308
REMARK INTER:                 -10.246
REMARK INTRA:                  -1.063
REMARK UNBOUND:                -1.427
REMARK SMILES O=c1c(O[C@H]2O[C@H](CO)[C@H](O)[C@H](O)[C@@H]2O)c(-c2ccc(O)c(O)c2)oc2cc(O)cc(O)c12
REMARK SMILES IDX 4 1 3 2 16 3 25 4 2 5 26 6 1 7 33 8 27 9 31 10 28 11 30 12
REMARK SMILES IDX 17 13 20 14 19 15 22 16 18 17 24 18 21 19 23 21 32 23 29 25
REMARK SMILES IDX 5 27 14 28 6 29 12 30 7 31 10 32 15 33 13 35 8 37 9 38 11 40
REMARK H PARENT 21 20 23 22 32 24 29 26 15 34 13 36 9 39 11 41
REMARK Flexibility Score: inf
ROOT
ATOM      1  O   UNL     1      -5.952   7.341  14.460  1.00  0.00    -0.454 OA
ENDROOT
BRANCH   1   2
ATOM      2  C   UNL     1      -4.931   6.438  14.792  1.00  0.00     0.214 A 
ATOM      3  C   UNL     1      -3.609   6.679  14.376  1.00  0.00     0.180 A 
ATOM      4  O   UNL     1      -2.631   5.865  14.761  1.00  0.00    -0.452 OA
ATOM      5  C   UNL     1      -5.201   5.281  15.540  1.00  0.00     0.239 A 
ATOM      6  C   UNL     1      -2.835   4.783  15.504  1.00  0.00     0.146 A 
ATOM      7  O   UNL     1      -6.393   5.000  15.842  1.00  0.00    -0.285 OA
ATOM      8  C   UNL     1      -4.141   4.434  15.924  1.00  0.00     0.111 A 
ATOM      9  C   UNL     1      -1.744   3.984  15.860  1.00  0.00     0.094 A 
ATOM     10  C   UNL     1      -4.326   3.265  16.703  1.00  0.00     0.134 A 
ATOM     11  C   UNL     1      -1.933   2.830  16.624  1.00  0.00     0.123 A 
ATOM     12  C   UNL     1      -3.221   2.473  17.041  1.00  0.00     0.093 A 
BRANCH   3  13
ATOM     13  C   UNL     1      -3.260   7.840  13.532  1.00  0.00     0.025 A 
ATOM     14  C   UNL     1      -2.624  10.038  11.899  1.00  0.00     0.157 A 
ATOM     15  C   UNL     1      -3.350   8.957  11.378  1.00  0.00     0.051 A 
ATOM     16  C   UNL     1      -2.221  10.026  13.241  1.00  0.00     0.158 A 
ATOM     17  C   UNL     1      -3.670   7.866  12.191  1.00  0.00     0.016 A 
ATOM     18  C   UNL     1      -2.551   8.934  14.059  1.00  0.00     0.062 A 
BRANCH  14  19
ATOM     19  O   UNL     1      -2.298  11.125  11.090  1.00  0.00    -0.504 OA
ATOM     20  H   UNL     1      -2.664  11.215  10.152  1.00  0.00     0.293 HD
ENDBRANCH  14  19
BRANCH  16  21
ATOM     21  O   UNL     1      -1.493  11.098  13.754  1.00  0.00    -0.504 OA
ATOM     22  H   UNL     1      -0.558  10.973  14.126  1.00  0.00     0.293 HD
ENDBRANCH  16  21
ENDBRANCH   3  13
BRANCH  10  23
ATOM     23  O   UNL     1      -5.597   2.889  17.143  1.00  0.00    -0.507 OA
ATOM     24  H   UNL     1      -6.430   3.392  16.859  1.00  0.00     0.293 HD
ENDBRANCH  10  23
BRANCH  11  25
ATOM     25  O   UNL     1      -0.836   2.043  16.961  1.00  0.00    -0.508 OA
ATOM     26  H   UNL     1      -0.690   1.131  16.540  1.00  0.00     0.293 HD
ENDBRANCH  11  25
ENDBRANCH   1   2
BRANCH   1  27
ATOM     27  C   UNL     1      -6.782   7.190  13.301  1.00  0.00     0.339 C 
ATOM     28  C   UNL     1      -7.147   8.572  12.713  1.00  0.00     0.214 C 
ATOM     29  O   UNL     1      -7.935   6.413  13.598  1.00  0.00    -0.332 OA
ATOM     30  C   UNL     1      -8.152   9.303  13.622  1.00  0.00     0.180 C 
ATOM     31  C   UNL     1      -8.768   7.058  14.551  1.00  0.00     0.179 C 
ATOM     32  C   UNL     1      -9.330   8.378  13.980  1.00  0.00     0.177 C 
BRANCH  28  33
ATOM     33  O   UNL     1      -7.692   8.417  11.428  1.00  0.00    -0.384 OA
ATOM     34  H   UNL     1      -7.057   8.845  10.789  1.00  0.00     0.211 HD
ENDBRANCH  28  33
BRANCH  30  35
ATOM     35  O   UNL     1      -8.627  10.470  13.000  1.00  0.00    -0.387 OA
ATOM     36  H   UNL     1      -9.337  10.838  13.588  1.00  0.00     0.211 HD
ENDBRANCH  30  35
BRANCH  31  37
ATOM     37  C   UNL     1      -9.885   6.093  14.971  1.00  0.00     0.191 C 
BRANCH  37  38
ATOM     38  O   UNL     1     -10.125   5.161  13.949  1.00  0.00    -0.394 OA
ATOM     39  H   UNL     1      -9.320   4.578  13.909  1.00  0.00     0.210 HD
ENDBRANCH  37  38
ENDBRANCH  31  37
BRANCH  32  40
ATOM     40  O   UNL     1     -10.114   8.108  12.842  1.00  0.00    -0.387 OA
ATOM     41  H   UNL     1     -10.005   8.882  12.227  1.00  0.00     0.211 HD
ENDBRANCH  32  40
ENDBRANCH   1  27
TORSDOF 12
ENDMDL
MODEL 3
REMARK VINA RESULT:    -6.612      1.289      1.979
REMARK INTER + INTRA:         -11.130
REMARK INTER:                 -10.858
REMARK INTRA:                  -0.273
REMARK UNBOUND:                -1.427
REMARK SMILES O=c1c(O[C@H]2O[C@H](CO)[C@H](O)[C@H](O)[C@@H]2O)c(-c2ccc(O)c(O)c2)oc2cc(O)cc(O)c12
REMARK SMILES IDX 4 1 3 2 16 3 25 4 2 5 26 6 1 7 33 8 27 9 31 10 28 11 30 12
REMARK SMILES IDX 17 13 20 14 19 15 22 16 18 17 24 18 21 19 23 21 32 23 29 25
REMARK SMILES IDX 5 27 14 28 6 29 12 30 7 31 10 32 15 33 13 35 8 37 9 38 11 40
REMARK H PARENT 21 20 23 22 32 24 29 26 15 34 13 36 9 39 11 41
REMARK Flexibility Score: inf
ROOT
ATOM      1  O   UNL     1      -6.444   7.033  14.731  1.00  0.00    -0.454 OA
ENDROOT
BRANCH   1   2
ATOM      2  C   UNL     1      -5.339   6.204  14.975  1.00  0.00     0.214 A 
ATOM      3  C   UNL     1      -4.100   6.476  14.365  1.00  0.00     0.180 A 
ATOM      4  O   UNL     1      -3.036   5.737  14.662  1.00  0.00    -0.452 OA
ATOM      5  C   UNL     1      -5.440   5.092  15.826  1.00  0.00     0.239 A 
ATOM      6  C   UNL     1      -3.077   4.703  15.493  1.00  0.00     0.146 A 
ATOM      7  O   UNL     1      -6.562   4.779  16.308  1.00  0.00    -0.285 OA
ATOM      8  C   UNL     1      -4.292   4.324  16.112  1.00  0.00     0.111 A 
ATOM      9  C   UNL     1      -1.905   3.982  15.745  1.00  0.00     0.094 A 
ATOM     10  C   UNL     1      -4.305   3.207  16.983  1.00  0.00     0.134 A 
ATOM     11  C   UNL     1      -1.924   2.878  16.600  1.00  0.00     0.123 A 
ATOM     12  C   UNL     1      -3.122   2.493  17.214  1.00  0.00     0.093 A 
BRANCH   3  13
ATOM     13  C   UNL     1      -3.934   7.588  13.407  1.00  0.00     0.025 A 
ATOM     14  C   UNL     1      -3.643   9.687  11.560  1.00  0.00     0.157 A 
ATOM     15  C   UNL     1      -4.174   8.455  11.152  1.00  0.00     0.051 A 
ATOM     16  C   UNL     1      -3.264   9.875  12.896  1.00  0.00     0.158 A 
ATOM     17  C   UNL     1      -4.322   7.412  12.071  1.00  0.00     0.016 A 
ATOM     18  C   UNL     1      -3.423   8.831  13.820  1.00  0.00     0.062 A 
BRANCH  14  19
ATOM     19  O   UNL     1      -3.488  10.727  10.645  1.00  0.00    -0.504 OA
ATOM     20  H   UNL     1      -2.586  10.961  10.258  1.00  0.00     0.293 HD
ENDBRANCH  14  19
BRANCH  16  21
ATOM     21  O   UNL     1      -2.730  11.098  13.297  1.00  0.00    -0.504 OA
ATOM     22  H   UNL     1      -2.078  11.609  12.712  1.00  0.00     0.293 HD
ENDBRANCH  16  21
ENDBRANCH   3  13
BRANCH  10  23
ATOM     23  O   UNL     1      -5.482   2.805  17.619  1.00  0.00    -0.507 OA
ATOM     24  H   UNL     1      -6.279   2.461  17.097  1.00  0.00     0.293 HD
ENDBRANCH  10  23
BRANCH  11  25
ATOM     25  O   UNL     1      -0.750   2.168  16.831  1.00  0.00    -0.508 OA
ATOM     26  H   UNL     1      -0.359   1.548  16.128  1.00  0.00     0.293 HD
ENDBRANCH  11  25
ENDBRANCH   1   2
BRANCH   1  27
ATOM     27  C   UNL     1      -7.778   6.531  14.578  1.00  0.00     0.339 C 
ATOM     28  C   UNL     1      -7.801   5.353  13.580  1.00  0.00     0.214 C 
ATOM     29  O   UNL     1      -8.672   7.571  14.201  1.00  0.00    -0.332 OA
ATOM     30  C   UNL     1      -7.577   5.853  12.141  1.00  0.00     0.180 C 
ATOM     31  C   UNL     1      -8.344   8.105  12.927  1.00  0.00     0.179 C 
ATOM     32  C   UNL     1      -8.512   7.035  11.826  1.00  0.00     0.177 C 
BRANCH  28  33
ATOM     33  O   UNL     1      -9.031   4.678  13.663  1.00  0.00    -0.384 OA
ATOM     34  H   UNL     1      -9.079   4.064  12.879  1.00  0.00     0.211 HD
ENDBRANCH  28  33
BRANCH  30  35
ATOM     35  O   UNL     1      -7.784   4.816  11.216  1.00  0.00    -0.387 OA
ATOM     36  H   UNL     1      -8.648   5.004  10.764  1.00  0.00     0.211 HD
ENDBRANCH  30  35
BRANCH  31  37
ATOM     37  C   UNL     1      -9.217   9.340  12.665  1.00  0.00     0.191 C 
BRANCH  37  38
ATOM     38  O   UNL     1     -10.105   9.538  13.734  1.00  0.00    -0.394 OA
ATOM     39  H   UNL     1     -10.117  10.517  13.909  1.00  0.00     0.210 HD
ENDBRANCH  37  38
ENDBRANCH  31  37
BRANCH  32  40
ATOM     40  O   UNL     1      -9.853   6.610  11.778  1.00  0.00    -0.387 OA
ATOM     41  H   UNL     1     -10.403   7.346  12.157  1.00  0.00     0.211 HD
ENDBRANCH  32  40
ENDBRANCH   1  27
TORSDOF 12
ENDMDL
MODEL 4
REMARK VINA RESULT:    -6.439      1.730      6.527
REMARK INTER + INTRA:         -10.877
REMARK INTER:                  -9.819
REMARK INTRA:                  -1.058
REMARK UNBOUND:                -1.427
REMARK SMILES O=c1c(O[C@H]2O[C@H](CO)[C@H](O)[C@H](O)[C@@H]2O)c(-c2ccc(O)c(O)c2)oc2cc(O)cc(O)c12
REMARK SMILES IDX 4 1 3 2 16 3 25 4 2 5 26 6 1 7 33 8 27 9 31 10 28 11 30 12
REMARK SMILES IDX 17 13 20 14 19 15 22 16 18 17 24 18 21 19 23 21 32 23 29 25
REMARK SMILES IDX 5 27 14 28 6 29 12 30 7 31 10 32 15 33 13 35 8 37 9 38 11 40
REMARK H PARENT 21 20 23 22 32 24 29 26 15 34 13 36 9 39 11 41
REMARK Flexibility Score: inf
ROOT
ATOM      1  O   UNL     1      -4.295   7.126  15.100  1.00  0.00    -0.454 OA
ENDROOT
BRANCH   1   2
ATOM      2  C   UNL     1      -5.253   7.968  14.514  1.00  0.00     0.214 A 
ATOM      3  C   UNL     1      -4.867   9.203  13.960  1.00  0.00     0.180 A 
ATOM      4  O   UNL     1      -5.762   9.959  13.333  1.00  0.00    -0.452 OA
ATOM      5  C   UNL     1      -6.608   7.602  14.465  1.00  0.00     0.239 A 
ATOM      6  C   UNL     1      -7.045   9.632  13.226  1.00  0.00     0.146 A 
ATOM      7  O   UNL     1      -6.986   6.544  15.036  1.00  0.00    -0.285 OA
ATOM      8  C   UNL     1      -7.532   8.433  13.799  1.00  0.00     0.111 A 
ATOM      9  C   UNL     1      -7.914  10.493  12.549  1.00  0.00     0.094 A 
ATOM     10  C   UNL     1      -8.908   8.121  13.681  1.00  0.00     0.134 A 
ATOM     11  C   UNL     1      -9.272  10.183  12.439  1.00  0.00     0.123 A 
ATOM     12  C   UNL     1      -9.765   9.001  13.005  1.00  0.00     0.093 A 
BRANCH   3  13
ATOM     13  C   UNL     1      -3.473   9.684  14.032  1.00  0.00     0.025 A 
ATOM     14  C   UNL     1      -0.825  10.615  14.206  1.00  0.00     0.157 A 
ATOM     15  C   UNL     1      -1.808  11.112  15.075  1.00  0.00     0.051 A 
ATOM     16  C   UNL     1      -1.163   9.644  13.254  1.00  0.00     0.158 A 
ATOM     17  C   UNL     1      -3.123  10.647  14.991  1.00  0.00     0.016 A 
ATOM     18  C   UNL     1      -2.482   9.170  13.177  1.00  0.00     0.062 A 
BRANCH  14  19
ATOM     19  O   UNL     1       0.486  11.081  14.283  1.00  0.00    -0.504 OA
ATOM     20  H   UNL     1       1.265  10.451  14.410  1.00  0.00     0.293 HD
ENDBRANCH  14  19
BRANCH  16  21
ATOM     21  O   UNL     1      -0.186   9.157  12.388  1.00  0.00    -0.504 OA
ATOM     22  H   UNL     1      -0.432   8.664  11.535  1.00  0.00     0.293 HD
ENDBRANCH  16  21
ENDBRANCH   3  13
BRANCH  10  23
ATOM     23  O   UNL     1      -9.428   6.944  14.225  1.00  0.00    -0.507 OA
ATOM     24  H   UNL     1      -8.934   6.425  14.942  1.00  0.00     0.293 HD
ENDBRANCH  10  23
BRANCH  11  25
ATOM     25  O   UNL     1     -10.123  11.056  11.769  1.00  0.00    -0.508 OA
ATOM     26  H   UNL     1      -9.962  11.314  10.800  1.00  0.00     0.293 HD
ENDBRANCH  11  25
ENDBRANCH   1   2
BRANCH   1  27
ATOM     27  C   UNL     1      -3.662   6.053  14.392  1.00  0.00     0.339 C 
ATOM     28  C   UNL     1      -4.539   4.782  14.437  1.00  0.00     0.214 C 
ATOM     29  O   UNL     1      -2.352   5.817  14.892  1.00  0.00    -0.332 OA
ATOM     30  C   UNL     1      -4.530   4.164  15.848  1.00  0.00     0.180 C 
ATOM     31  C   UNL     1      -2.378   5.385  16.244  1.00  0.00     0.179 C 
ATOM     32  C   UNL     1      -3.088   4.019  16.367  1.00  0.00     0.177 C 
BRANCH  28  33
ATOM     33  O   UNL     1      -4.071   3.843  13.503  1.00  0.00    -0.384 OA
ATOM     34  H   UNL     1      -4.330   2.942  13.843  1.00  0.00     0.211 HD
ENDBRANCH  28  33
BRANCH  30  35
ATOM     35  O   UNL     1      -5.170   2.913  15.846  1.00  0.00    -0.387 OA
ATOM     36  H   UNL     1      -4.513   2.257  15.494  1.00  0.00     0.211 HD
ENDBRANCH  30  35
BRANCH  31  37
ATOM     37  C   UNL     1      -0.941   5.335  16.780  1.00  0.00     0.191 C 
BRANCH  37  38
ATOM     38  O   UNL     1      -0.095   4.735  15.834  1.00  0.00    -0.394 OA
ATOM     39  H   UNL     1      -0.479   4.949  14.942  1.00  0.00     0.210 HD
ENDBRANCH  37  38
ENDBRANCH  31  37
BRANCH  32  40
ATOM     40  O   UNL     1      -2.387   3.051  15.624  1.00  0.00    -0.387 OA
ATOM     41  H   UNL     1      -1.583   3.501  15.248  1.00  0.00     0.211 HD
ENDBRANCH  32  40
ENDBRANCH   1  27
TORSDOF 12
ENDMDL
MODEL 5
REMARK VINA RESULT:    -6.351      1.557      4.543
REMARK INTER + INTRA:         -10.748
REMARK INTER:                  -9.420
REMARK INTRA:                  -1.328
REMARK UNBOUND:                -1.427
REMARK SMILES O=c1c(O[C@H]2O[C@H](CO)[C@H](O)[C@H](O)[C@@H]2O)c(-c2ccc(O)c(O)c2)oc2cc(O)cc(O)c12
REMARK SMILES IDX 4 1 3 2 16 3 25 4 2 5 26 6 1 7 33 8 27 9 31 10 28 11 30 12
REMARK SMILES IDX 17 13 20 14 19 15 22 16 18 17 24 18 21 19 23 21 32 23 29 25
REMARK SMILES IDX 5 27 14 28 6 29 12 30 7 31 10 32 15 33 13 35 8 37 9 38 11 40
REMARK H PARENT 21 20 23 22 32 24 29 26 15 34 13 36 9 39 11 41
REMARK Flexibility Score: inf
ROOT
ATOM      1  O   UNL     1      -4.020   6.167  13.858  1.00  0.00    -0.454 OA
ENDROOT
BRANCH   1   2
ATOM      2  C   UNL     1      -4.192   5.213  14.873  1.00  0.00     0.214 A 
ATOM      3  C   UNL     1      -5.485   4.841  15.285  1.00  0.00     0.180 A 
ATOM      4  O   UNL     1      -5.644   3.878  16.188  1.00  0.00    -0.452 OA
ATOM      5  C   UNL     1      -3.087   4.610  15.496  1.00  0.00     0.239 A 
ATOM      6  C   UNL     1      -4.628   3.252  16.771  1.00  0.00     0.146 A 
ATOM      7  O   UNL     1      -1.923   4.996  15.205  1.00  0.00    -0.285 OA
ATOM      8  C   UNL     1      -3.293   3.598  16.456  1.00  0.00     0.111 A 
ATOM      9  C   UNL     1      -4.893   2.251  17.712  1.00  0.00     0.094 A 
ATOM     10  C   UNL     1      -2.232   2.921  17.107  1.00  0.00     0.134 A 
ATOM     11  C   UNL     1      -3.844   1.591  18.355  1.00  0.00     0.123 A 
ATOM     12  C   UNL     1      -2.519   1.927  18.053  1.00  0.00     0.093 A 
BRANCH   3  13
ATOM     13  C   UNL     1      -6.692   5.479  14.723  1.00  0.00     0.025 A 
ATOM     14  C   UNL     1      -8.990   6.667  13.622  1.00  0.00     0.157 A 
ATOM     15  C   UNL     1      -8.158   5.866  12.826  1.00  0.00     0.051 A 
ATOM     16  C   UNL     1      -8.679   6.868  14.974  1.00  0.00     0.158 A 
ATOM     17  C   UNL     1      -7.017   5.273  13.374  1.00  0.00     0.016 A 
ATOM     18  C   UNL     1      -7.540   6.263  15.525  1.00  0.00     0.062 A 
BRANCH  14  19
ATOM     19  O   UNL     1     -10.124   7.266  13.077  1.00  0.00    -0.504 OA
ATOM     20  H   UNL     1     -10.778   7.780  13.650  1.00  0.00     0.293 HD
ENDBRANCH  14  19
BRANCH  16  21
ATOM     21  O   UNL     1      -9.504   7.670  15.760  1.00  0.00    -0.504 OA
ATOM     22  H   UNL     1     -10.226   8.251  15.349  1.00  0.00     0.293 HD
ENDBRANCH  16  21
ENDBRANCH   3  13
BRANCH  10  23
ATOM     23  O   UNL     1      -0.900   3.227  16.819  1.00  0.00    -0.507 OA
ATOM     24  H   UNL     1      -0.261   2.531  16.451  1.00  0.00     0.293 HD
ENDBRANCH  10  23
BRANCH  11  25
ATOM     25  O   UNL     1      -4.127   0.604  19.294  1.00  0.00    -0.508 OA
ATOM     26  H   UNL     1      -4.563   0.828  20.183  1.00  0.00     0.293 HD
ENDBRANCH  11  25
ENDBRANCH   1   2
BRANCH   1  27
ATOM     27  C   UNL     1      -3.586   7.508  14.115  1.00  0.00     0.339 C 
ATOM     28  C   UNL     1      -4.773   8.384  14.573  1.00  0.00     0.214 C 
ATOM     29  O   UNL     1      -2.925   8.054  12.980  1.00  0.00    -0.332 OA
ATOM     30  C   UNL     1      -5.725   8.671  13.397  1.00  0.00     0.180 C 
ATOM     31  C   UNL     1      -3.803   8.170  11.869  1.00  0.00     0.179 C 
ATOM     32  C   UNL     1      -4.937   9.173  12.173  1.00  0.00     0.177 C 
BRANCH  28  33
ATOM     33  O   UNL     1      -4.299   9.593  15.107  1.00  0.00    -0.384 OA
ATOM     34  H   UNL     1      -4.879  10.318  14.745  1.00  0.00     0.211 HD
ENDBRANCH  28  33
BRANCH  30  35
ATOM     35  O   UNL     1      -6.698   9.615  13.765  1.00  0.00    -0.387 OA
ATOM     36  H   UNL     1      -7.512   9.105  14.014  1.00  0.00     0.211 HD
ENDBRANCH  30  35
BRANCH  31  37
ATOM     37  C   UNL     1      -2.992   8.579  10.633  1.00  0.00     0.191 C 
BRANCH  37  38
ATOM     38  O   UNL     1      -2.073   9.585  10.971  1.00  0.00    -0.394 OA
ATOM     39  H   UNL     1      -1.286   9.455  10.376  1.00  0.00     0.210 HD
ENDBRANCH  37  38
ENDBRANCH  31  37
BRANCH  32  40
ATOM     40  O   UNL     1      -4.393  10.446  12.420  1.00  0.00    -0.387 OA
ATOM     41  H   UNL     1      -4.244  10.873  11.534  1.00  0.00     0.211 HD
ENDBRANCH  32  40
ENDBRANCH   1  27
TORSDOF 12
ENDMDL
MODEL 6
REMARK VINA RESULT:    -6.263      1.895      5.582
REMARK INTER + INTRA:         -10.619
REMARK INTER:                 -10.163
REMARK INTRA:                  -0.456
REMARK UNBOUND:                -1.427
REMARK SMILES O=c1c(O[C@H]2O[C@H](CO)[C@H](O)[C@H](O)[C@@H]2O)c(-c2ccc(O)c(O)c2)oc2cc(O)cc(O)c12
REMARK SMILES IDX 4 1 3 2 16 3 25 4 2 5 26 6 1 7 33 8 27 9 31 10 28 11 30 12
REMARK SMILES IDX 17 13 20 14 19 15 22 16 18 17 24 18 21 19 23 21 32 23 29 25
REMARK SMILES IDX 5 27 14 28 6 29 12 30 7 31 10 32 15 33 13 35 8 37 9 38 11 40
REMARK H PARENT 21 20 23 22 32 24 29 26 15 34 13 36 9 39 11 41
REMARK Flexibility Score: inf
ROOT
ATOM      1  O   UNL     1      -6.049   6.084  12.592  1.00  0.00    -0.454 OA
ENDROOT
BRANCH   1   2
ATOM      2  C   UNL     1      -4.911   6.871  12.820  1.00  0.00     0.214 A 
ATOM      3  C   UNL     1      -4.165   6.714  14.002  1.00  0.00     0.180 A 
ATOM      4  O   UNL     1      -3.041   7.403  14.177  1.00  0.00    -0.452 OA
ATOM      5  C   UNL     1      -4.490   7.827  11.881  1.00  0.00     0.239 A 
ATOM      6  C   UNL     1      -2.585   8.286  13.297  1.00  0.00     0.146 A 
ATOM      7  O   UNL     1      -5.196   8.046  10.859  1.00  0.00    -0.285 OA
ATOM      8  C   UNL     1      -3.298   8.547  12.103  1.00  0.00     0.111 A 
ATOM      9  C   UNL     1      -1.392   8.965  13.567  1.00  0.00     0.094 A 
ATOM     10  C   UNL     1      -2.791   9.505  11.191  1.00  0.00     0.134 A 
ATOM     11  C   UNL     1      -0.900   9.913  12.667  1.00  0.00     0.123 A 
ATOM     12  C   UNL     1      -1.599  10.182  11.485  1.00  0.00     0.093 A 
BRANCH   3  13
ATOM     13  C   UNL     1      -4.582   5.776  15.064  1.00  0.00     0.025 A 
ATOM     14  C   UNL     1      -5.352   3.963  17.070  1.00  0.00     0.157 A 
ATOM     15  C   UNL     1      -4.755   3.499  15.889  1.00  0.00     0.051 A 
ATOM     16  C   UNL     1      -5.557   5.337  17.255  1.00  0.00     0.158 A 
ATOM     17  C   UNL     1      -4.369   4.400  14.893  1.00  0.00     0.016 A 
ATOM     18  C   UNL     1      -5.160   6.242  16.259  1.00  0.00     0.062 A 
BRANCH  14  19
ATOM     19  O   UNL     1      -5.745   3.067  18.062  1.00  0.00    -0.504 OA
ATOM     20  H   UNL     1      -5.853   2.081  17.872  1.00  0.00     0.293 HD
ENDBRANCH  14  19
BRANCH  16  21
ATOM     21  O   UNL     1      -6.157   5.795  18.426  1.00  0.00    -0.504 OA
ATOM     22  H   UNL     1      -6.323   5.176  19.213  1.00  0.00     0.293 HD
ENDBRANCH  16  21
ENDBRANCH   3  13
BRANCH  10  23
ATOM     23  O   UNL     1      -3.461   9.787   9.997  1.00  0.00    -0.507 OA
ATOM     24  H   UNL     1      -4.226   9.210   9.667  1.00  0.00     0.293 HD
ENDBRANCH  10  23
BRANCH  11  25
ATOM     25  O   UNL     1       0.284  10.585  12.958  1.00  0.00    -0.508 OA
ATOM     26  H   UNL     1       0.933  10.236  13.656  1.00  0.00     0.293 HD
ENDBRANCH  11  25
ENDBRANCH   1   2
BRANCH   1  27
ATOM     27  C   UNL     1      -7.211   6.130  13.431  1.00  0.00     0.339 C 
ATOM     28  C   UNL     1      -8.456   5.638  12.660  1.00  0.00     0.214 C 
ATOM     29  O   UNL     1      -7.395   7.432  13.971  1.00  0.00    -0.332 OA
ATOM     30  C   UNL     1      -8.890   6.675  11.607  1.00  0.00     0.180 C 
ATOM     31  C   UNL     1      -7.652   8.389  12.954  1.00  0.00     0.179 C 
ATOM     32  C   UNL     1      -8.984   8.078  12.236  1.00  0.00     0.177 C 
BRANCH  28  33
ATOM     33  O   UNL     1      -9.511   5.399  13.555  1.00  0.00    -0.384 OA
ATOM     34  H   UNL     1     -10.196   6.104  13.393  1.00  0.00     0.211 HD
ENDBRANCH  28  33
BRANCH  30  35
ATOM     35  O   UNL     1     -10.124   6.318  11.038  1.00  0.00    -0.387 OA
ATOM     36  H   UNL     1      -9.929   5.649  10.331  1.00  0.00     0.211 HD
ENDBRANCH  30  35
BRANCH  31  37
ATOM     37  C   UNL     1      -7.650   9.792  13.576  1.00  0.00     0.191 C 
BRANCH  37  38
ATOM     38  O   UNL     1      -8.601  10.603  12.937  1.00  0.00    -0.394 OA
ATOM     39  H   UNL     1      -8.408  11.536  13.222  1.00  0.00     0.210 HD
ENDBRANCH  37  38
ENDBRANCH  31  37
BRANCH  32  40
ATOM     40  O   UNL     1     -10.046   8.140  13.157  1.00  0.00    -0.387 OA
ATOM     41  H   UNL     1     -10.797   7.616  12.767  1.00  0.00     0.211 HD
ENDBRANCH  32  40
ENDBRANCH   1  27
TORSDOF 12
ENDMDL
MODEL 7
REMARK VINA RESULT:    -6.237      1.869      2.535
REMARK INTER + INTRA:         -10.580
REMARK INTER:                 -10.041
REMARK INTRA:                  -0.539
REMARK UNBOUND:                -1.427
REMARK SMILES O=c1c(O[C@H]2O[C@H](CO)[C@H](O)[C@H](O)[C@@H]2O)c(-c2ccc(O)c(O)c2)oc2cc(O)cc(O)c12
REMARK SMILES IDX 4 1 3 2 16 3 25 4 2 5 26 6 1 7 33 8 27 9 31 10 28 11 30 12
REMARK SMILES IDX 17 13 20 14 19 15 22 16 18 17 24 18 21 19 23 21 32 23 29 25
REMARK SMILES IDX 5 27 14 28 6 29 12 30 7 31 10 32 15 33 13 35 8 37 9 38 11 40
REMARK H PARENT 21 20 23 22 32 24 29 26 15 34 13 36 9 39 11 41
REMARK Flexibility Score: inf
ROOT
ATOM      1  O   UNL     1      -6.431   5.507  13.432  1.00  0.00    -0.454 OA
ENDROOT
BRANCH   1   2
ATOM      2  C   UNL     1      -5.145   5.537  13.992  1.00  0.00     0.214 A 
ATOM      3  C   UNL     1      -4.283   6.619  13.733  1.00  0.00     0.180 A 
ATOM      4  O   UNL     1      -3.098   6.684  14.331  1.00  0.00    -0.452 OA
ATOM      5  C   UNL     1      -4.689   4.497  14.818  1.00  0.00     0.239 A 
ATOM      6  C   UNL     1      -2.645   5.744  15.152  1.00  0.00     0.146 A 
ATOM      7  O   UNL     1      -5.410   3.476  14.986  1.00  0.00    -0.285 OA
ATOM      8  C   UNL     1      -3.422   4.594  15.429  1.00  0.00     0.111 A 
ATOM      9  C   UNL     1      -1.383   5.897  15.735  1.00  0.00     0.094 A 
ATOM     10  C   UNL     1      -2.903   3.603  16.298  1.00  0.00     0.134 A 
ATOM     11  C   UNL     1      -0.874   4.915  16.587  1.00  0.00     0.123 A 
ATOM     12  C   UNL     1      -1.632   3.772  16.865  1.00  0.00     0.093 A 
BRANCH   3  13
ATOM     13  C   UNL     1      -4.668   7.717  12.823  1.00  0.00     0.025 A 
ATOM     14  C   UNL     1      -5.396   9.781  11.059  1.00  0.00     0.157 A 
ATOM     15  C   UNL     1      -4.742   8.637  10.577  1.00  0.00     0.051 A 
ATOM     16  C   UNL     1      -5.696   9.890  12.423  1.00  0.00     0.158 A 
ATOM     17  C   UNL     1      -4.383   7.609  11.454  1.00  0.00     0.016 A 
ATOM     18  C   UNL     1      -5.344   8.853  13.300  1.00  0.00     0.062 A 
BRANCH  14  19
ATOM     19  O   UNL     1      -5.750  10.810  10.189  1.00  0.00    -0.504 OA
ATOM     20  H   UNL     1      -6.401  11.533  10.460  1.00  0.00     0.293 HD
ENDBRANCH  14  19
BRANCH  16  21
ATOM     21  O   UNL     1      -6.339  11.031  12.900  1.00  0.00    -0.504 OA
ATOM     22  H   UNL     1      -6.481  11.845  12.310  1.00  0.00     0.293 HD
ENDBRANCH  16  21
ENDBRANCH   3  13
BRANCH  10  23
ATOM     23  O   UNL     1      -3.641   2.457  16.603  1.00  0.00    -0.507 OA
ATOM     24  H   UNL     1      -3.934   2.248  17.551  1.00  0.00     0.293 HD
ENDBRANCH  10  23
BRANCH  11  25
ATOM     25  O   UNL     1       0.388   5.081  17.150  1.00  0.00    -0.508 OA
ATOM     26  H   UNL     1       1.077   4.335  17.137  1.00  0.00     0.293 HD
ENDBRANCH  11  25
ENDBRANCH   1   2
BRANCH   1  27
ATOM     27  C   UNL     1      -7.606   5.200  14.192  1.00  0.00     0.339 C 
ATOM     28  C   UNL     1      -8.863   5.778  13.504  1.00  0.00     0.214 C 
ATOM     29  O   UNL     1      -7.475   5.651  15.534  1.00  0.00    -0.332 OA
ATOM     30  C   UNL     1      -8.898   7.313  13.634  1.00  0.00     0.180 C 
ATOM     31  C   UNL     1      -7.366   7.065  15.602  1.00  0.00     0.179 C 
ATOM     32  C   UNL     1      -8.661   7.738  15.095  1.00  0.00     0.177 C 
BRANCH  28  33
ATOM     33  O   UNL     1     -10.020   5.225  14.076  1.00  0.00    -0.384 OA
ATOM     34  H   UNL     1     -10.564   4.852  13.329  1.00  0.00     0.211 HD
ENDBRANCH  28  33
BRANCH  30  35
ATOM     35  O   UNL     1     -10.125   7.821  13.177  1.00  0.00    -0.387 OA
ATOM     36  H   UNL     1     -10.117   7.741  12.187  1.00  0.00     0.211 HD
ENDBRANCH  30  35
BRANCH  31  37
ATOM     37  C   UNL     1      -7.036   7.472  17.045  1.00  0.00     0.191 C 
BRANCH  37  38
ATOM     38  O   UNL     1      -7.986   6.932  17.926  1.00  0.00    -0.394 OA
ATOM     39  H   UNL     1      -8.577   7.685  18.194  1.00  0.00     0.210 HD
ENDBRANCH  37  38
ENDBRANCH  31  37
BRANCH  32  40
ATOM     40  O   UNL     1      -9.744   7.355  15.907  1.00  0.00    -0.387 OA
ATOM     41  H   UNL     1      -9.985   6.425  15.647  1.00  0.00     0.211 HD
ENDBRANCH  32  40
ENDBRANCH   1  27
TORSDOF 12
ENDMDL
MODEL 8
REMARK VINA RESULT:    -5.398      1.836      4.920
REMARK INTER + INTRA:          -9.350
REMARK INTER:                  -7.845
REMARK INTRA:                  -1.505
REMARK UNBOUND:                -1.427
REMARK SMILES O=c1c(O[C@H]2O[C@H](CO)[C@H](O)[C@H](O)[C@@H]2O)c(-c2ccc(O)c(O)c2)oc2cc(O)cc(O)c12
REMARK SMILES IDX 4 1 3 2 16 3 25 4 2 5 26 6 1 7 33 8 27 9 31 10 28 11 30 12
REMARK SMILES IDX 17 13 20 14 19 15 22 16 18 17 24 18 21 19 23 21 32 23 29 25
REMARK SMILES IDX 5 27 14 28 6 29 12 30 7 31 10 32 15 33 13 35 8 37 9 38 11 40
REMARK H PARENT 21 20 23 22 32 24 29 26 15 34 13 36 9 39 11 41
REMARK Flexibility Score: inf
ROOT
ATOM      1  O   UNL     1      -4.169   7.360  13.918  1.00  0.00    -0.454 OA
ENDROOT
BRANCH   1   2
ATOM      2  C   UNL     1      -3.776   6.259  14.694  1.00  0.00     0.214 A 
ATOM      3  C   UNL     1      -4.697   5.239  14.996  1.00  0.00     0.180 A 
ATOM      4  O   UNL     1      -4.299   4.159  15.661  1.00  0.00    -0.452 OA
ATOM      5  C   UNL     1      -2.463   6.147  15.182  1.00  0.00     0.239 A 
ATOM      6  C   UNL     1      -3.059   3.992  16.104  1.00  0.00     0.146 A 
ATOM      7  O   UNL     1      -1.650   7.093  14.999  1.00  0.00    -0.285 OA
ATOM      8  C   UNL     1      -2.078   4.990  15.891  1.00  0.00     0.111 A 
ATOM      9  C   UNL     1      -2.732   2.822  16.796  1.00  0.00     0.094 A 
ATOM     10  C   UNL     1      -0.768   4.789  16.389  1.00  0.00     0.134 A 
ATOM     11  C   UNL     1      -1.440   2.630  17.289  1.00  0.00     0.123 A 
ATOM     12  C   UNL     1      -0.463   3.612  17.087  1.00  0.00     0.093 A 
BRANCH   3  13
ATOM     13  C   UNL     1      -6.110   5.319  14.574  1.00  0.00     0.025 A 
ATOM     14  C   UNL     1      -8.793   5.442  13.745  1.00  0.00     0.157 A 
ATOM     15  C   UNL     1      -7.841   4.775  12.960  1.00  0.00     0.051 A 
ATOM     16  C   UNL     1      -8.407   6.041  14.951  1.00  0.00     0.158 A 
ATOM     17  C   UNL     1      -6.507   4.712  13.374  1.00  0.00     0.016 A 
ATOM     18  C   UNL     1      -7.071   5.967  15.371  1.00  0.00     0.062 A 
BRANCH  14  19
ATOM     19  O   UNL     1     -10.123   5.513  13.332  1.00  0.00    -0.504 OA
ATOM     20  H   UNL     1     -10.492   4.890  12.629  1.00  0.00     0.293 HD
ENDBRANCH  14  19
BRANCH  16  21
ATOM     21  O   UNL     1      -9.355   6.708  15.725  1.00  0.00    -0.504 OA
ATOM     22  H   UNL     1      -9.535   7.699  15.605  1.00  0.00     0.293 HD
ENDBRANCH  16  21
ENDBRANCH   3  13
BRANCH  10  23
ATOM     23  O   UNL     1       0.231   5.745  16.193  1.00  0.00    -0.507 OA
ATOM     24  H   UNL     1       0.381   6.502  16.851  1.00  0.00     0.293 HD
ENDBRANCH  10  23
BRANCH  11  25
ATOM     25  O   UNL     1      -1.136   1.462  17.983  1.00  0.00    -0.508 OA
ATOM     26  H   UNL     1      -0.279   0.948  17.805  1.00  0.00     0.293 HD
ENDBRANCH  11  25
ENDBRANCH   1   2
BRANCH   1  27
ATOM     27  C   UNL     1      -3.941   7.441  12.505  1.00  0.00     0.339 C 
ATOM     28  C   UNL     1      -3.149   8.721  12.158  1.00  0.00     0.214 C 
ATOM     29  O   UNL     1      -5.165   7.356  11.787  1.00  0.00    -0.332 OA
ATOM     30  C   UNL     1      -4.036   9.971  12.320  1.00  0.00     0.180 C 
ATOM     31  C   UNL     1      -6.016   8.456  12.074  1.00  0.00     0.179 C 
ATOM     32  C   UNL     1      -5.380   9.779  11.594  1.00  0.00     0.177 C 
BRANCH  28  33
ATOM     33  O   UNL     1      -2.670   8.646  10.840  1.00  0.00    -0.384 OA
ATOM     34  H   UNL     1      -3.086   9.398  10.335  1.00  0.00     0.211 HD
ENDBRANCH  28  33
BRANCH  30  35
ATOM     35  O   UNL     1      -3.380  11.111  11.827  1.00  0.00    -0.387 OA
ATOM     36  H   UNL     1      -3.384  11.782  12.559  1.00  0.00     0.211 HD
ENDBRANCH  30  35
BRANCH  31  37
ATOM     37  C   UNL     1      -7.385   8.209  11.424  1.00  0.00     0.191 C 
BRANCH  37  38
ATOM     38  O   UNL     1      -8.408   8.426  12.360  1.00  0.00    -0.394 OA
ATOM     39  H   UNL     1      -8.446   7.609  12.927  1.00  0.00     0.210 HD
ENDBRANCH  37  38
ENDBRANCH  31  37
BRANCH  32  40
ATOM     40  O   UNL     1      -5.192   9.738  10.201  1.00  0.00    -0.387 OA
ATOM     41  H   UNL     1      -4.256   9.440  10.044  1.00  0.00     0.211 HD
ENDBRANCH  32  40
ENDBRANCH   1  27
TORSDOF 12
ENDMDL
MODEL 9
REMARK VINA RESULT:    -5.298     11.989     16.134
REMARK INTER + INTRA:          -9.202
REMARK INTER:                  -8.024
REMARK INTRA:                  -1.178
REMARK UNBOUND:                -1.427
REMARK SMILES O=c1c(O[C@H]2O[C@H](CO)[C@H](O)[C@H](O)[C@@H]2O)c(-c2ccc(O)c(O)c2)oc2cc(O)cc(O)c12
REMARK SMILES IDX 4 1 3 2 16 3 25 4 2 5 26 6 1 7 33 8 27 9 31 10 28 11 30 12
REMARK SMILES IDX 17 13 20 14 19 15 22 16 18 17 24 18 21 19 23 21 32 23 29 25
REMARK SMILES IDX 5 27 14 28 6 29 12 30 7 31 10 32 15 33 13 35 8 37 9 38 11 40
REMARK H PARENT 21 20 23 22 32 24 29 26 15 34 13 36 9 39 11 41
REMARK Flexibility Score: inf
ROOT
ATOM      1  O   UNL     1      -7.740  -5.105  22.523  1.00  0.00    -0.454 OA
ENDROOT
BRANCH   1   2
ATOM      2  C   UNL     1      -7.385  -5.895  23.626  1.00  0.00     0.214 A 
ATOM      3  C   UNL     1      -6.074  -6.392  23.750  1.00  0.00     0.180 A 
ATOM      4  O   UNL     1      -5.720  -7.071  24.836  1.00  0.00    -0.452 OA
ATOM      5  C   UNL     1      -8.320  -6.206  24.627  1.00  0.00     0.239 A 
ATOM      6  C   UNL     1      -6.560  -7.351  25.826  1.00  0.00     0.146 A 
ATOM      7  O   UNL     1      -9.520  -5.847  24.488  1.00  0.00    -0.285 OA
ATOM      8  C   UNL     1      -7.911  -6.936  25.762  1.00  0.00     0.111 A 
ATOM      9  C   UNL     1      -6.096  -8.073  26.930  1.00  0.00     0.094 A 
ATOM     10  C   UNL     1      -8.785  -7.264  26.828  1.00  0.00     0.134 A 
ATOM     11  C   UNL     1      -6.963  -8.398  27.976  1.00  0.00     0.123 A 
ATOM     12  C   UNL     1      -8.303  -7.995  27.922  1.00  0.00     0.093 A 
BRANCH   3  13
ATOM     13  C   UNL     1      -5.055  -6.162  22.706  1.00  0.00     0.025 A 
ATOM     14  C   UNL     1      -3.111  -5.687  20.732  1.00  0.00     0.157 A 
ATOM     15  C   UNL     1      -3.729  -4.613  21.388  1.00  0.00     0.051 A 
ATOM     16  C   UNL     1      -3.458  -7.002  21.068  1.00  0.00     0.158 A 
ATOM     17  C   UNL     1      -4.693  -4.849  22.372  1.00  0.00     0.016 A 
ATOM     18  C   UNL     1      -4.418  -7.239  22.063  1.00  0.00     0.062 A 
BRANCH  14  19
ATOM     19  O   UNL     1      -2.154  -5.455  19.746  1.00  0.00    -0.504 OA
ATOM     20  H   UNL     1      -2.258  -4.711  19.072  1.00  0.00     0.293 HD
ENDBRANCH  14  19
BRANCH  16  21
ATOM     21  O   UNL     1      -2.847  -8.068  20.409  1.00  0.00    -0.504 OA
ATOM     22  H   UNL     1      -1.963  -7.954  19.923  1.00  0.00     0.293 HD
ENDBRANCH  16  21
ENDBRANCH   3  13
BRANCH  10  23
ATOM     23  O   UNL     1     -10.124  -6.866  26.808  1.00  0.00    -0.507 OA
ATOM     24  H   UNL     1     -10.662  -6.763  27.661  1.00  0.00     0.293 HD
ENDBRANCH  10  23
BRANCH  11  25
ATOM     25  O   UNL     1      -6.486  -9.125  29.063  1.00  0.00    -0.508 OA
ATOM     26  H   UNL     1      -7.118  -9.567  29.723  1.00  0.00     0.293 HD
ENDBRANCH  11  25
ENDBRANCH   1   2
BRANCH   1  27
ATOM     27  C   UNL     1      -8.617  -5.563  21.485  1.00  0.00     0.339 C 
ATOM     28  C   UNL     1      -7.828  -6.360  20.423  1.00  0.00     0.214 C 
ATOM     29  O   UNL     1      -9.339  -4.478  20.915  1.00  0.00    -0.332 OA
ATOM     30  C   UNL     1      -6.945  -5.420  19.581  1.00  0.00     0.180 C 
ATOM     31  C   UNL     1      -8.473  -3.557  20.269  1.00  0.00     0.179 C 
ATOM     32  C   UNL     1      -7.765  -4.222  19.068  1.00  0.00     0.177 C 
BRANCH  28  33
ATOM     33  O   UNL     1      -8.718  -7.054  19.586  1.00  0.00    -0.384 OA
ATOM     34  H   UNL     1      -8.301  -7.938  19.389  1.00  0.00     0.211 HD
ENDBRANCH  28  33
BRANCH  30  35
ATOM     35  O   UNL     1      -6.375  -6.112  18.499  1.00  0.00    -0.387 OA
ATOM     36  H   UNL     1      -5.996  -6.953  18.866  1.00  0.00     0.211 HD
ENDBRANCH  30  35
BRANCH  31  37
ATOM     37  C   UNL     1      -9.283  -2.324  19.846  1.00  0.00     0.191 C 
BRANCH  37  38
ATOM     38  O   UNL     1      -8.515  -1.510  18.999  1.00  0.00    -0.394 OA
ATOM     39  H   UNL     1      -7.907  -0.988  19.589  1.00  0.00     0.210 HD
ENDBRANCH  37  38
ENDBRANCH  31  37
BRANCH  32  40
ATOM     40  O   UNL     1      -8.722  -4.640  18.125  1.00  0.00    -0.387 OA
ATOM     41  H   UNL     1      -9.578  -4.761  18.616  1.00  0.00     0.211 HD
ENDBRANCH  32  40
ENDBRANCH   1  27
TORSDOF 12
ENDMDL
