MODEL 1
REMARK VINA RESULT:    -3.830      0.000      0.000
REMARK INTER + INTRA:          -5.696
REMARK INTER:                  -5.846
REMARK INTRA:                   0.150
REMARK UNBOUND:                 0.150
REMARK SMILES CC1=CCC[C@@H](C)C(=O)C[C@H](C(C)C)C(=O)C1
REMARK SMILES IDX 8 1 9 2 6 3 7 4 5 5 4 6 3 7 2 8 1 9 10 11 11 12 15 13 16 14
REMARK SMILES IDX 17 15 12 17 13 18 14 19
REMARK H PARENT
REMARK Flexibility Score: 70.00
ROOT
ATOM      1  C   UNL     1     212.079 204.882 216.851  1.00  0.00     0.136 C 
ATOM      2  O   UNL     1     211.537 204.474 217.868  1.00  0.00    -0.299 OA
ENDROOT
BRANCH   1   3
ATOM      3  C   UNL     1     213.311 205.759 216.951  1.00  0.00     0.053 C 
ATOM      4  C   UNL     1     213.153 206.965 216.019  1.00  0.00     0.016 C 
BRANCH   3   5
ATOM      5  C   UNL     1     214.602 204.981 216.606  1.00  0.00     0.015 C 
BRANCH   5   6
ATOM      6  C   UNL     1     214.833 203.757 217.505  1.00  0.00     0.028 C 
BRANCH   6   7
ATOM      7  C   UNL     1     215.382 202.593 216.716  1.00  0.00    -0.028 C 
ATOM      8  C   UNL     1     214.648 201.677 216.044  1.00  0.00    -0.070 CG0
ATOM      9  C   UNL     1     215.383 200.578 215.318  1.00  0.00     0.039 C 
ATOM     10  G   UNL     1     213.132 201.677 216.019  1.00  0.00     0.000 G0
ENDBRANCH   6   7
ENDBRANCH   5   6
ENDBRANCH   3   5
ENDBRANCH   1   3
BRANCH   1  11
ATOM     11  C   UNL     1     211.529 204.465 215.512  1.00  0.00     0.087 C 
BRANCH  11  12
ATOM     12  C   UNL     1     212.629 203.861 214.600  1.00  0.00     0.066 C 
BRANCH  12  13
ATOM     13  C   UNL     1     212.626 202.348 214.750  1.00  0.00     0.140 C 
ATOM     14  O   UNL     1     212.281 201.650 213.806  1.00  0.00    -0.299 OA
BRANCH  13  15
ATOM     15  C   UNL     1     213.127 201.679 216.005  1.00  0.00     0.106 CG0
ATOM     16  G   UNL     1     214.643 201.661 216.047  1.00  0.00     0.000 G0
ENDBRANCH  13  15
ENDBRANCH  12  13
BRANCH  12  17
ATOM     17  C   UNL     1     212.440 204.259 213.099  1.00  0.00    -0.006 C 
ATOM     18  C   UNL     1     213.785 204.621 212.438  1.00  0.00     0.008 C 
ATOM     19  C   UNL     1     211.477 205.450 212.928  1.00  0.00     0.008 C 
ENDBRANCH  12  17
ENDBRANCH  11  12
ENDBRANCH   1  11
TORSDOF 1
ENDMDL
MODEL 2
REMARK VINA RESULT:    -3.814      1.683      2.152
REMARK INTER + INTRA:          -5.670
REMARK INTER:                  -5.397
REMARK INTRA:                  -0.273
REMARK UNBOUND:                 0.150
REMARK SMILES CC1=CCC[C@@H](C)C(=O)C[C@H](C(C)C)C(=O)C1
REMARK SMILES IDX 8 1 9 2 6 3 7 4 5 5 4 6 3 7 2 8 1 9 10 11 11 12 15 13 16 14
REMARK SMILES IDX 17 15 12 17 13 18 14 19
REMARK H PARENT
REMARK Flexibility Score: 70.00
ROOT
ATOM      1  C   UNL     1     212.641 205.651 216.535  1.00  0.00     0.136 C 
ATOM      2  O   UNL     1     212.720 206.745 217.077  1.00  0.00    -0.299 OA
ENDROOT
BRANCH   1   3
ATOM      3  C   UNL     1     212.828 204.389 217.350  1.00  0.00     0.053 C 
ATOM      4  C   UNL     1     212.000 204.486 218.636  1.00  0.00     0.016 C 
BRANCH   3   5
ATOM      5  C   UNL     1     214.316 204.136 217.690  1.00  0.00     0.015 C 
BRANCH   5   6
ATOM      6  C   UNL     1     214.950 203.018 216.849  1.00  0.00     0.028 C 
BRANCH   6   7
ATOM      7  C   UNL     1     213.914 202.015 216.400  1.00  0.00    -0.028 C 
ATOM      8  C   UNL     1     213.527 201.795 215.123  1.00  0.00    -0.070 CG0
ATOM      9  C   UNL     1     212.468 200.750 214.876  1.00  0.00     0.039 C 
ATOM     10  G   UNL     1     214.072 202.572 213.940  1.00  0.00     0.000 G0
ENDBRANCH   6   7
ENDBRANCH   5   6
ENDBRANCH   3   5
ENDBRANCH   1   3
BRANCH   1  11
ATOM     11  C   UNL     1     212.314 205.587 215.066  1.00  0.00     0.087 C 
BRANCH  11  12
ATOM     12  C   UNL     1     213.535 205.134 214.223  1.00  0.00     0.066 C 
BRANCH  12  13
ATOM     13  C   UNL     1     213.238 203.779 213.602  1.00  0.00     0.140 C 
ATOM     14  O   UNL     1     212.348 203.682 212.768  1.00  0.00    -0.299 OA
BRANCH  13  15
ATOM     15  C   UNL     1     214.075 202.566 213.919  1.00  0.00     0.106 CG0
ATOM     16  G   UNL     1     213.525 201.821 215.120  1.00  0.00     0.000 G0
ENDBRANCH  13  15
ENDBRANCH  12  13
BRANCH  12  17
ATOM     17  C   UNL     1     213.908 206.171 213.113  1.00  0.00    -0.006 C 
ATOM     18  C   UNL     1     215.216 206.914 213.450  1.00  0.00     0.008 C 
ATOM     19  C   UNL     1     212.796 207.217 212.896  1.00  0.00     0.008 C 
ENDBRANCH  12  17
ENDBRANCH  11  12
ENDBRANCH   1  11
TORSDOF 1
ENDMDL
MODEL 3
REMARK VINA RESULT:    -3.752      2.272      4.101
REMARK INTER + INTRA:          -5.576
REMARK INTER:                  -5.489
REMARK INTRA:                  -0.088
REMARK UNBOUND:                 0.150
REMARK SMILES CC1=CCC[C@@H](C)C(=O)C[C@H](C(C)C)C(=O)C1
REMARK SMILES IDX 8 1 9 2 6 3 7 4 5 5 4 6 3 7 2 8 1 9 10 11 11 12 15 13 16 14
REMARK SMILES IDX 17 15 12 17 13 18 14 19
REMARK H PARENT
REMARK Flexibility Score: 70.00
ROOT
ATOM      1  C   UNL     1     214.585 203.310 216.408  1.00  0.00     0.136 C 
ATOM      2  O   UNL     1     215.286 202.361 216.731  1.00  0.00    -0.299 OA
ENDROOT
BRANCH   1   3
ATOM      3  C   UNL     1     214.145 204.314 217.452  1.00  0.00     0.053 C 
ATOM      4  C   UNL     1     212.698 204.020 217.862  1.00  0.00     0.016 C 
BRANCH   3   5
ATOM      5  C   UNL     1     214.271 205.769 216.944  1.00  0.00     0.015 C 
BRANCH   5   6
ATOM      6  C   UNL     1     212.932 206.373 216.493  1.00  0.00     0.028 C 
BRANCH   6   7
ATOM      7  C   UNL     1     213.007 206.868 215.069  1.00  0.00    -0.028 C 
ATOM      8  C   UNL     1     212.328 206.356 214.017  1.00  0.00    -0.070 CG0
ATOM      9  C   UNL     1     212.541 206.987 212.663  1.00  0.00     0.039 C 
ATOM     10  G   UNL     1     211.400 205.162 214.124  1.00  0.00     0.000 G0
ENDBRANCH   6   7
ENDBRANCH   5   6
ENDBRANCH   3   5
ENDBRANCH   1   3
BRANCH   1  11
ATOM     11  C   UNL     1     214.210 203.480 214.959  1.00  0.00     0.087 C 
BRANCH  11  12
ATOM     12  C   UNL     1     212.773 202.969 214.672  1.00  0.00     0.066 C 
BRANCH  12  13
ATOM     13  C   UNL     1     212.107 203.893 213.665  1.00  0.00     0.140 C 
ATOM     14  O   UNL     1     212.072 203.571 212.485  1.00  0.00    -0.299 OA
BRANCH  13  15
ATOM     15  C   UNL     1     211.405 205.155 214.097  1.00  0.00     0.106 CG0
ATOM     16  G   UNL     1     212.337 206.349 214.034  1.00  0.00     0.000 G0
ENDBRANCH  13  15
ENDBRANCH  12  13
BRANCH  12  17
ATOM     17  C   UNL     1     212.760 201.495 214.150  1.00  0.00    -0.006 C 
ATOM     18  C   UNL     1     212.499 200.494 215.293  1.00  0.00     0.008 C 
ATOM     19  C   UNL     1     214.082 201.110 213.457  1.00  0.00     0.008 C 
ENDBRANCH  12  17
ENDBRANCH  11  12
ENDBRANCH   1  11
TORSDOF 1
ENDMDL
MODEL 4
REMARK VINA RESULT:    -3.744     14.294     15.714
REMARK INTER + INTRA:          -5.565
REMARK INTER:                  -5.403
REMARK INTRA:                  -0.161
REMARK UNBOUND:                 0.150
REMARK SMILES CC1=CCC[C@@H](C)C(=O)C[C@H](C(C)C)C(=O)C1
REMARK SMILES IDX 8 1 9 2 6 3 7 4 5 5 4 6 3 7 2 8 1 9 10 11 11 12 15 13 16 14
REMARK SMILES IDX 17 15 12 17 13 18 14 19
REMARK H PARENT
REMARK Flexibility Score: 70.00
ROOT
ATOM      1  C   UNL     1     199.641 206.676 216.490  1.00  0.00     0.136 C 
ATOM      2  O   UNL     1     199.624 205.592 217.055  1.00  0.00    -0.299 OA
ENDROOT
BRANCH   1   3
ATOM      3  C   UNL     1     199.474 207.950 217.292  1.00  0.00     0.053 C 
ATOM      4  C   UNL     1     200.342 207.874 218.552  1.00  0.00     0.016 C 
BRANCH   3   5
ATOM      5  C   UNL     1     197.998 208.202 217.675  1.00  0.00     0.015 C 
BRANCH   5   6
ATOM      6  C   UNL     1     197.338 209.317 216.849  1.00  0.00     0.028 C 
BRANCH   6   7
ATOM      7  C   UNL     1     198.350 210.349 216.413  1.00  0.00    -0.028 C 
ATOM      8  C   UNL     1     198.726 210.599 215.138  1.00  0.00    -0.070 CG0
ATOM      9  C   UNL     1     199.762 211.670 214.904  1.00  0.00     0.039 C 
ATOM     10  G   UNL     1     198.189 209.833 213.944  1.00  0.00     0.000 G0
ENDBRANCH   6   7
ENDBRANCH   5   6
ENDBRANCH   3   5
ENDBRANCH   1   3
BRANCH   1  11
ATOM     11  C   UNL     1     199.871 206.719 215.001  1.00  0.00     0.087 C 
BRANCH  11  12
ATOM     12  C   UNL     1     198.639 207.279 214.243  1.00  0.00     0.066 C 
BRANCH  12  13
ATOM     13  C   UNL     1     198.998 208.624 213.632  1.00  0.00     0.140 C 
ATOM     14  O   UNL     1     199.918 208.694 212.829  1.00  0.00    -0.299 OA
BRANCH  13  15
ATOM     15  C   UNL     1     198.187 209.862 213.921  1.00  0.00     0.106 CG0
ATOM     16  G   UNL     1     198.715 210.589 215.143  1.00  0.00     0.000 G0
ENDBRANCH  13  15
ENDBRANCH  12  13
BRANCH  12  17
ATOM     17  C   UNL     1     198.127 206.299 213.137  1.00  0.00    -0.006 C 
ATOM     18  C   UNL     1     196.956 205.435 213.647  1.00  0.00     0.008 C 
ATOM     19  C   UNL     1     199.239 205.360 212.629  1.00  0.00     0.008 C 
ENDBRANCH  12  17
ENDBRANCH  11  12
ENDBRANCH   1  11
TORSDOF 1
ENDMDL
MODEL 5
REMARK VINA RESULT:    -3.658      1.766      3.092
REMARK INTER + INTRA:          -5.433
REMARK INTER:                  -5.687
REMARK INTRA:                   0.254
REMARK UNBOUND:                 0.150
REMARK SMILES CC1=CCC[C@@H](C)C(=O)C[C@H](C(C)C)C(=O)C1
REMARK SMILES IDX 8 1 9 2 6 3 7 4 5 5 4 6 3 7 2 8 1 9 10 11 11 12 15 13 16 14
REMARK SMILES IDX 17 15 12 17 13 18 14 19
REMARK H PARENT
REMARK Flexibility Score: 70.00
ROOT
ATOM      1  C   UNL     1     212.005 204.139 217.530  1.00  0.00     0.136 C 
ATOM      2  O   UNL     1     211.486 204.703 218.483  1.00  0.00    -0.299 OA
ENDROOT
BRANCH   1   3
ATOM      3  C   UNL     1     213.049 203.067 217.762  1.00  0.00     0.053 C 
ATOM      4  C   UNL     1     214.446 203.671 217.581  1.00  0.00     0.016 C 
BRANCH   3   5
ATOM      5  C   UNL     1     212.861 201.862 216.811  1.00  0.00     0.015 C 
BRANCH   5   6
ATOM      6  C   UNL     1     213.922 201.792 215.702  1.00  0.00     0.028 C 
BRANCH   6   7
ATOM      7  C   UNL     1     213.304 201.427 214.374  1.00  0.00    -0.028 C 
ATOM      8  C   UNL     1     213.199 202.242 213.300  1.00  0.00    -0.070 CG0
ATOM      9  C   UNL     1     212.539 201.695 212.059  1.00  0.00     0.039 C 
ATOM     10  G   UNL     1     213.673 203.683 213.296  1.00  0.00     0.000 G0
ENDBRANCH   6   7
ENDBRANCH   5   6
ENDBRANCH   3   5
ENDBRANCH   1   3
BRANCH   1  11
ATOM     11  C   UNL     1     211.556 204.499 216.137  1.00  0.00     0.087 C 
BRANCH  11  12
ATOM     12  C   UNL     1     212.706 205.124 215.304  1.00  0.00     0.066 C 
BRANCH  12  13
ATOM     13  C   UNL     1     212.617 204.620 213.873  1.00  0.00     0.140 C 
ATOM     14  O   UNL     1     211.719 205.026 213.147  1.00  0.00    -0.299 OA
BRANCH  13  15
ATOM     15  C   UNL     1     213.663 203.702 213.293  1.00  0.00     0.106 CG0
ATOM     16  G   UNL     1     213.197 202.260 213.314  1.00  0.00     0.000 G0
ENDBRANCH  13  15
ENDBRANCH  12  13
BRANCH  12  17
ATOM     17  C   UNL     1     212.678 206.688 215.333  1.00  0.00    -0.006 C 
ATOM     18  C   UNL     1     213.583 207.289 214.239  1.00  0.00     0.008 C 
ATOM     19  C   UNL     1     213.122 207.253 216.697  1.00  0.00     0.008 C 
ENDBRANCH  12  17
ENDBRANCH  11  12
ENDBRANCH   1  11
TORSDOF 1
ENDMDL
MODEL 6
REMARK VINA RESULT:    -3.640     14.164     15.699
REMARK INTER + INTRA:          -5.405
REMARK INTER:                  -5.537
REMARK INTRA:                   0.132
REMARK UNBOUND:                 0.150
REMARK SMILES CC1=CCC[C@@H](C)C(=O)C[C@H](C(C)C)C(=O)C1
REMARK SMILES IDX 8 1 9 2 6 3 7 4 5 5 4 6 3 7 2 8 1 9 10 11 11 12 15 13 16 14
REMARK SMILES IDX 17 15 12 17 13 18 14 19
REMARK H PARENT
REMARK Flexibility Score: 70.00
ROOT
ATOM      1  C   UNL     1     199.231 209.530 217.227  1.00  0.00     0.136 C 
ATOM      2  O   UNL     1     200.014 210.393 217.598  1.00  0.00    -0.299 OA
ENDROOT
BRANCH   1   3
ATOM      3  C   UNL     1     199.246 208.165 217.884  1.00  0.00     0.053 C 
ATOM      4  C   UNL     1     200.658 207.860 218.393  1.00  0.00     0.016 C 
BRANCH   3   5
ATOM      5  C   UNL     1     198.776 207.054 216.916  1.00  0.00     0.015 C 
BRANCH   5   6
ATOM      6  C   UNL     1     199.787 206.754 215.798  1.00  0.00     0.028 C 
BRANCH   6   7
ATOM      7  C   UNL     1     199.092 206.524 214.478  1.00  0.00    -0.028 C 
ATOM      8  C   UNL     1     199.088 207.374 213.426  1.00  0.00    -0.070 CG0
ATOM      9  C   UNL     1     198.327 206.967 212.190  1.00  0.00     0.039 C 
ATOM     10  G   UNL     1     199.773 208.727 213.445  1.00  0.00     0.000 G0
ENDBRANCH   6   7
ENDBRANCH   5   6
ENDBRANCH   3   5
ENDBRANCH   1   3
BRANCH   1  11
ATOM     11  C   UNL     1     198.236 209.863 216.146  1.00  0.00     0.087 C 
BRANCH  11  12
ATOM     12  C   UNL     1     198.886 210.672 214.994  1.00  0.00     0.066 C 
BRANCH  12  13
ATOM     13  C   UNL     1     198.814 209.859 213.711  1.00  0.00     0.140 C 
ATOM     14  O   UNL     1     198.010 210.173 212.844  1.00  0.00    -0.299 OA
BRANCH  13  15
ATOM     15  C   UNL     1     199.775 208.729 213.439  1.00  0.00     0.106 CG0
ATOM     16  G   UNL     1     199.057 207.394 213.415  1.00  0.00     0.000 G0
ENDBRANCH  13  15
ENDBRANCH  12  13
BRANCH  12  17
ATOM     17  C   UNL     1     198.208 212.067 214.792  1.00  0.00    -0.006 C 
ATOM     18  C   UNL     1     198.820 213.132 215.724  1.00  0.00     0.008 C 
ATOM     19  C   UNL     1     196.687 212.017 215.041  1.00  0.00     0.008 C 
ENDBRANCH  12  17
ENDBRANCH  11  12
ENDBRANCH   1  11
TORSDOF 1
ENDMDL
MODEL 7
REMARK VINA RESULT:    -3.525      1.728      3.835
REMARK INTER + INTRA:          -5.230
REMARK INTER:                  -5.574
REMARK INTRA:                   0.343
REMARK UNBOUND:                 0.150
REMARK SMILES CC1=CCC[C@@H](C)C(=O)C[C@H](C(C)C)C(=O)C1
REMARK SMILES IDX 8 1 9 2 6 3 7 4 5 5 4 6 3 7 2 8 1 9 10 11 11 12 15 13 16 14
REMARK SMILES IDX 17 15 12 17 13 18 14 19
REMARK H PARENT
REMARK Flexibility Score: 70.00
ROOT
ATOM      1  C   UNL     1     213.091 202.654 217.235  1.00  0.00     0.136 C 
ATOM      2  O   UNL     1     212.158 201.933 217.560  1.00  0.00    -0.299 OA
ENDROOT
BRANCH   1   3
ATOM      3  C   UNL     1     213.256 204.014 217.881  1.00  0.00     0.053 C 
ATOM      4  C   UNL     1     211.904 204.484 218.428  1.00  0.00     0.016 C 
BRANCH   3   5
ATOM      5  C   UNL     1     213.825 205.057 216.892  1.00  0.00     0.015 C 
BRANCH   5   6
ATOM      6  C   UNL     1     212.786 205.563 215.879  1.00  0.00     0.028 C 
BRANCH   6   7
ATOM      7  C   UNL     1     213.331 205.526 214.471  1.00  0.00    -0.028 C 
ATOM      8  C   UNL     1     213.133 204.535 213.572  1.00  0.00    -0.070 CG0
ATOM      9  C   UNL     1     213.768 204.678 212.212  1.00  0.00     0.039 C 
ATOM     10  G   UNL     1     212.344 203.277 213.878  1.00  0.00     0.000 G0
ENDBRANCH   6   7
ENDBRANCH   5   6
ENDBRANCH   3   5
ENDBRANCH   1   3
BRANCH   1  11
ATOM     11  C   UNL     1     214.086 202.148 216.223  1.00  0.00     0.087 C 
BRANCH  11  12
ATOM     12  C   UNL     1     213.415 201.240 215.159  1.00  0.00     0.066 C 
BRANCH  12  13
ATOM     13  C   UNL     1     213.192 202.042 213.887  1.00  0.00     0.140 C 
ATOM     14  O   UNL     1     213.664 201.640 212.832  1.00  0.00    -0.299 OA
BRANCH  13  15
ATOM     15  C   UNL     1     212.324 203.275 213.874  1.00  0.00     0.106 CG0
ATOM     16  G   UNL     1     213.143 204.517 213.580  1.00  0.00     0.000 G0
ENDBRANCH  13  15
ENDBRANCH  12  13
BRANCH  12  17
ATOM     17  C   UNL     1     214.259 199.959 214.854  1.00  0.00    -0.006 C 
ATOM     18  C   UNL     1     214.097 198.899 215.962  1.00  0.00     0.008 C 
ATOM     19  C   UNL     1     215.760 200.274 214.696  1.00  0.00     0.008 C 
ENDBRANCH  12  17
ENDBRANCH  11  12
ENDBRANCH   1  11
TORSDOF 1
ENDMDL
MODEL 8
REMARK VINA RESULT:    -3.389     13.282     15.284
REMARK INTER + INTRA:          -5.022
REMARK INTER:                  -4.910
REMARK INTRA:                  -0.112
REMARK UNBOUND:                 0.150
REMARK SMILES CC1=CCC[C@@H](C)C(=O)C[C@H](C(C)C)C(=O)C1
REMARK SMILES IDX 8 1 9 2 6 3 7 4 5 5 4 6 3 7 2 8 1 9 10 11 11 12 15 13 16 14
REMARK SMILES IDX 17 15 12 17 13 18 14 19
REMARK H PARENT
REMARK Flexibility Score: 70.00
ROOT
ATOM      1  C   UNL     1     199.624 207.332 213.538  1.00  0.00     0.136 C 
ATOM      2  O   UNL     1     198.958 207.080 212.543  1.00  0.00    -0.299 OA
ENDROOT
BRANCH   1   3
ATOM      3  C   UNL     1     200.217 206.205 214.356  1.00  0.00     0.053 C 
ATOM      4  C   UNL     1     201.248 205.450 213.510  1.00  0.00     0.016 C 
BRANCH   3   5
ATOM      5  C   UNL     1     199.132 205.231 214.870  1.00  0.00     0.015 C 
BRANCH   5   6
ATOM      6  C   UNL     1     198.528 205.652 216.220  1.00  0.00     0.028 C 
BRANCH   6   7
ATOM      7  C   UNL     1     199.582 206.224 217.137  1.00  0.00    -0.028 C 
ATOM      8  C   UNL     1     199.614 207.489 217.614  1.00  0.00    -0.070 CG0
ATOM      9  C   UNL     1     200.758 207.875 218.517  1.00  0.00     0.039 C 
ATOM     10  G   UNL     1     198.584 208.543 217.254  1.00  0.00     0.000 G0
ENDBRANCH   6   7
ENDBRANCH   5   6
ENDBRANCH   3   5
ENDBRANCH   1   3
BRANCH   1  11
ATOM     11  C   UNL     1     199.874 208.773 213.902  1.00  0.00     0.087 C 
BRANCH  11  12
ATOM     12  C   UNL     1     198.707 209.368 214.733  1.00  0.00     0.066 C 
BRANCH  12  13
ATOM     13  C   UNL     1     199.137 209.484 216.186  1.00  0.00     0.140 C 
ATOM     14  O   UNL     1     199.884 210.393 216.522  1.00  0.00    -0.299 OA
BRANCH  13  15
ATOM     15  C   UNL     1     198.591 208.561 217.246  1.00  0.00     0.106 CG0
ATOM     16  G   UNL     1     199.601 207.491 217.612  1.00  0.00     0.000 G0
ENDBRANCH  13  15
ENDBRANCH  12  13
BRANCH  12  17
ATOM     17  C   UNL     1     198.242 210.760 214.190  1.00  0.00    -0.006 C 
ATOM     18  C   UNL     1     197.114 211.355 215.057  1.00  0.00     0.008 C 
ATOM     19  C   UNL     1     197.746 210.681 212.733  1.00  0.00     0.008 C 
ENDBRANCH  12  17
ENDBRANCH  11  12
ENDBRANCH   1  11
TORSDOF 1
ENDMDL
MODEL 9
REMARK VINA RESULT:    -3.380     14.283     15.322
REMARK INTER + INTRA:          -5.009
REMARK INTER:                  -5.028
REMARK INTRA:                   0.020
REMARK UNBOUND:                 0.150
REMARK SMILES CC1=CCC[C@@H](C)C(=O)C[C@H](C(C)C)C(=O)C1
REMARK SMILES IDX 8 1 9 2 6 3 7 4 5 5 4 6 3 7 2 8 1 9 10 11 11 12 15 13 16 14
REMARK SMILES IDX 17 15 12 17 13 18 14 19
REMARK H PARENT
REMARK Flexibility Score: 70.00
ROOT
ATOM      1  C   UNL     1     198.827 209.610 216.372  1.00  0.00     0.136 C 
ATOM      2  O   UNL     1     199.436 210.667 216.464  1.00  0.00    -0.299 OA
ENDROOT
BRANCH   1   3
ATOM      3  C   UNL     1     198.916 208.587 217.485  1.00  0.00     0.053 C 
ATOM      4  C   UNL     1     200.387 208.354 217.845  1.00  0.00     0.016 C 
BRANCH   3   5
ATOM      5  C   UNL     1     198.243 207.250 217.096  1.00  0.00     0.015 C 
BRANCH   5   6
ATOM      6  C   UNL     1     199.246 206.164 216.676  1.00  0.00     0.028 C 
BRANCH   6   7
ATOM      7  C   UNL     1     198.717 205.345 215.524  1.00  0.00    -0.028 C 
ATOM      8  C   UNL     1     198.905 205.611 214.211  1.00  0.00    -0.070 CG0
ATOM      9  C   UNL     1     198.288 204.673 213.204  1.00  0.00     0.039 C 
ATOM     10  G   UNL     1     199.667 206.821 213.706  1.00  0.00     0.000 G0
ENDBRANCH   6   7
ENDBRANCH   5   6
ENDBRANCH   3   5
ENDBRANCH   1   3
BRANCH   1  11
ATOM     11  C   UNL     1     197.964 209.368 215.160  1.00  0.00     0.087 C 
BRANCH  11  12
ATOM     12  C   UNL     1     198.801 209.327 213.855  1.00  0.00     0.066 C 
BRANCH  12  13
ATOM     13  C   UNL     1     198.732 207.928 213.262  1.00  0.00     0.140 C 
ATOM     14  O   UNL     1     197.948 207.700 212.350  1.00  0.00    -0.299 OA
BRANCH  13  15
ATOM     15  C   UNL     1     199.671 206.836 213.707  1.00  0.00     0.106 CG0
ATOM     16  G   UNL     1     198.906 205.630 214.216  1.00  0.00     0.000 G0
ENDBRANCH  13  15
ENDBRANCH  12  13
BRANCH  12  17
ATOM     17  C   UNL     1     198.321 210.385 212.808  1.00  0.00    -0.006 C 
ATOM     18  C   UNL     1     199.482 210.856 211.910  1.00  0.00     0.008 C 
ATOM     19  C   UNL     1     197.691 211.622 213.478  1.00  0.00     0.008 C 
ENDBRANCH  12  17
ENDBRANCH  11  12
ENDBRANCH   1  11
TORSDOF 1
ENDMDL
