MODEL 1
REMARK VINA RESULT:    -3.568      0.000      0.000
REMARK INTER + INTRA:          -4.429
REMARK INTER:                  -4.193
REMARK INTRA:                  -0.236
REMARK UNBOUND:                -0.236
REMARK SMILES [NH3+][C@@H](CO)C(=O)[O-]
REMARK SMILES IDX 3 1 2 2 1 3 5 7 6 8 7 9 4 10
REMARK H PARENT 1 4 1 5 1 6 4 11
REMARK Flexibility Score: inf
ROOT
ATOM      1  C   UNL     1      -0.365  54.901   4.669  1.00  0.00     0.227 C 
ENDROOT
BRANCH   1   2
ATOM      2  C   UNL     1      -0.243  53.395   4.387  1.00  0.00     0.253 C 
BRANCH   2   3
ATOM      3  N   UNL     1      -0.154  53.143   2.944  1.00  0.00    -0.348 N 
ATOM      4  H   UNL     1       0.677  52.540   2.739  1.00  0.00     0.345 HD
ATOM      5  H   UNL     1      -1.019  52.666   2.597  1.00  0.00     0.345 HD
ATOM      6  H   UNL     1      -0.036  54.048   2.433  1.00  0.00     0.345 HD
ENDBRANCH   2   3
BRANCH   2   7
ATOM      7  C   UNL     1      -1.406  52.645   4.981  1.00  0.00     0.102 C 
ATOM      8  O   UNL     1      -1.923  53.024   6.066  1.00  0.00    -0.544 OA
ATOM      9  O   UNL     1      -1.907  51.519   4.339  1.00  0.00    -0.544 OA
ENDBRANCH   2   7
ENDBRANCH   1   2
BRANCH   1  10
ATOM     10  O   UNL     1      -1.606  55.373   4.224  1.00  0.00    -0.390 OA
ATOM     11  H   UNL     1      -1.972  54.668   3.629  1.00  0.00     0.210 HD
ENDBRANCH   1  10
TORSDOF 4
ENDMDL
MODEL 2
REMARK VINA RESULT:    -3.500      2.120      2.396
REMARK INTER + INTRA:          -4.350
REMARK INTER:                  -4.122
REMARK INTRA:                  -0.228
REMARK UNBOUND:                -0.236
REMARK SMILES [NH3+][C@@H](CO)C(=O)[O-]
REMARK SMILES IDX 3 1 2 2 1 3 5 7 6 8 7 9 4 10
REMARK H PARENT 1 4 1 5 1 6 4 11
REMARK Flexibility Score: inf
ROOT
ATOM      1  C   UNL     1      -1.400  54.965   5.387  1.00  0.00     0.227 C 
ENDROOT
BRANCH   1   2
ATOM      2  C   UNL     1       0.079  54.607   5.172  1.00  0.00     0.253 C 
BRANCH   2   3
ATOM      3  N   UNL     1       0.841  55.785   4.739  1.00  0.00    -0.348 N 
ATOM      4  H   UNL     1       1.768  55.806   5.224  1.00  0.00     0.345 HD
ATOM      5  H   UNL     1       0.995  55.767   3.704  1.00  0.00     0.345 HD
ATOM      6  H   UNL     1       0.320  56.656   4.991  1.00  0.00     0.345 HD
ENDBRANCH   2   3
BRANCH   2   7
ATOM      7  C   UNL     1       0.218  53.493   4.168  1.00  0.00     0.102 C 
ATOM      8  O   UNL     1      -0.788  52.821   3.816  1.00  0.00    -0.544 OA
ATOM      9  O   UNL     1       1.465  53.192   3.633  1.00  0.00    -0.544 OA
ENDBRANCH   2   7
ENDBRANCH   1   2
BRANCH   1  10
ATOM     10  O   UNL     1      -1.931  55.531   4.220  1.00  0.00    -0.390 OA
ATOM     11  H   UNL     1      -2.916  55.430   4.289  1.00  0.00     0.210 HD
ENDBRANCH   1  10
TORSDOF 4
ENDMDL
MODEL 3
REMARK VINA RESULT:    -3.471      1.776      2.511
REMARK INTER + INTRA:          -4.316
REMARK INTER:                  -4.102
REMARK INTRA:                  -0.214
REMARK UNBOUND:                -0.236
REMARK SMILES [NH3+][C@@H](CO)C(=O)[O-]
REMARK SMILES IDX 3 1 2 2 1 3 5 7 6 8 7 9 4 10
REMARK H PARENT 1 4 1 5 1 6 4 11
REMARK Flexibility Score: inf
ROOT
ATOM      1  C   UNL     1       1.185  53.230   3.729  1.00  0.00     0.227 C 
ENDROOT
BRANCH   1   2
ATOM      2  C   UNL     1      -0.330  53.485   3.786  1.00  0.00     0.253 C 
BRANCH   2   3
ATOM      3  N   UNL     1      -0.608  54.888   4.113  1.00  0.00    -0.348 N 
ATOM      4  H   UNL     1      -0.926  54.965   5.108  1.00  0.00     0.345 HD
ATOM      5  H   UNL     1       0.248  55.477   3.980  1.00  0.00     0.345 HD
ATOM      6  H   UNL     1      -1.371  55.252   3.497  1.00  0.00     0.345 HD
ENDBRANCH   2   3
BRANCH   2   7
ATOM      7  C   UNL     1      -0.987  52.572   4.787  1.00  0.00     0.102 C 
ATOM      8  O   UNL     1      -1.066  51.334   4.567  1.00  0.00    -0.544 OA
ATOM      9  O   UNL     1      -1.523  53.095   5.958  1.00  0.00    -0.544 OA
ENDBRANCH   2   7
ENDBRANCH   1   2
BRANCH   1  10
ATOM     10  O   UNL     1       1.448  52.071   2.986  1.00  0.00    -0.390 OA
ATOM     11  H   UNL     1       0.964  52.180   2.126  1.00  0.00     0.210 HD
ENDBRANCH   1  10
TORSDOF 4
ENDMDL
MODEL 4
REMARK VINA RESULT:    -3.379      2.016      2.206
REMARK INTER + INTRA:          -4.208
REMARK INTER:                  -4.001
REMARK INTRA:                  -0.206
REMARK UNBOUND:                -0.236
REMARK SMILES [NH3+][C@@H](CO)C(=O)[O-]
REMARK SMILES IDX 3 1 2 2 1 3 5 7 6 8 7 9 4 10
REMARK H PARENT 1 4 1 5 1 6 4 11
REMARK Flexibility Score: inf
ROOT
ATOM      1  C   UNL     1       0.548  54.569   4.452  1.00  0.00     0.227 C 
ENDROOT
BRANCH   1   2
ATOM      2  C   UNL     1      -0.925  54.266   4.771  1.00  0.00     0.253 C 
BRANCH   2   3
ATOM      3  N   UNL     1      -1.779  55.402   4.405  1.00  0.00    -0.348 N 
ATOM      4  H   UNL     1      -1.376  56.288   4.790  1.00  0.00     0.345 HD
ATOM      5  H   UNL     1      -1.861  55.485   3.365  1.00  0.00     0.345 HD
ATOM      6  H   UNL     1      -2.733  55.274   4.813  1.00  0.00     0.345 HD
ENDBRANCH   2   3
BRANCH   2   7
ATOM      7  C   UNL     1      -1.096  53.927   6.228  1.00  0.00     0.102 C 
ATOM      8  O   UNL     1      -0.761  54.751   7.121  1.00  0.00    -0.544 OA
ATOM      9  O   UNL     1      -1.617  52.692   6.597  1.00  0.00    -0.544 OA
ENDBRANCH   2   7
ENDBRANCH   1   2
BRANCH   1  10
ATOM     10  O   UNL     1       0.836  55.909   4.742  1.00  0.00    -0.390 OA
ATOM     11  H   UNL     1       1.588  56.164   4.147  1.00  0.00     0.210 HD
ENDBRANCH   1  10
TORSDOF 4
ENDMDL
MODEL 5
REMARK VINA RESULT:    -3.372      2.139      2.605
REMARK INTER + INTRA:          -4.199
REMARK INTER:                  -4.011
REMARK INTRA:                  -0.188
REMARK UNBOUND:                -0.236
REMARK SMILES [NH3+][C@@H](CO)C(=O)[O-]
REMARK SMILES IDX 3 1 2 2 1 3 5 7 6 8 7 9 4 10
REMARK H PARENT 1 4 1 5 1 6 4 11
REMARK Flexibility Score: inf
ROOT
ATOM      1  C   UNL     1       0.481  54.581   4.524  1.00  0.00     0.227 C 
ENDROOT
BRANCH   1   2
ATOM      2  C   UNL     1      -0.994  54.335   4.879  1.00  0.00     0.253 C 
BRANCH   2   3
ATOM      3  N   UNL     1      -1.840  55.418   4.363  1.00  0.00    -0.348 N 
ATOM      4  H   UNL     1      -2.185  56.008   5.156  1.00  0.00     0.345 HD
ATOM      5  H   UNL     1      -1.305  56.020   3.694  1.00  0.00     0.345 HD
ATOM      6  H   UNL     1      -2.670  55.016   3.869  1.00  0.00     0.345 HD
ENDBRANCH   2   3
BRANCH   2   7
ATOM      7  C   UNL     1      -1.169  54.196   6.368  1.00  0.00     0.102 C 
ATOM      8  O   UNL     1      -1.386  53.067   6.884  1.00  0.00    -0.544 OA
ATOM      9  O   UNL     1      -1.103  55.320   7.183  1.00  0.00    -0.544 OA
ENDBRANCH   2   7
ENDBRANCH   1   2
BRANCH   1  10
ATOM     10  O   UNL     1       0.810  55.924   4.746  1.00  0.00    -0.390 OA
ATOM     11  H   UNL     1      -0.032  56.373   5.020  1.00  0.00     0.210 HD
ENDBRANCH   1  10
TORSDOF 4
ENDMDL
MODEL 6
REMARK VINA RESULT:    -3.335      2.373      3.232
REMARK INTER + INTRA:          -4.156
REMARK INTER:                  -3.933
REMARK INTRA:                  -0.223
REMARK UNBOUND:                -0.236
REMARK SMILES [NH3+][C@@H](CO)C(=O)[O-]
REMARK SMILES IDX 3 1 2 2 1 3 5 7 6 8 7 9 4 10
REMARK H PARENT 1 4 1 5 1 6 4 11
REMARK Flexibility Score: inf
ROOT
ATOM      1  C   UNL     1      -0.652  53.042   4.357  1.00  0.00     0.227 C 
ENDROOT
BRANCH   1   2
ATOM      2  C   UNL     1      -0.964  54.340   5.118  1.00  0.00     0.253 C 
BRANCH   2   3
ATOM      3  N   UNL     1      -1.636  55.307   4.242  1.00  0.00    -0.348 N 
ATOM      4  H   UNL     1      -2.671  55.150   4.268  1.00  0.00     0.345 HD
ATOM      5  H   UNL     1      -1.429  56.287   4.543  1.00  0.00     0.345 HD
ATOM      6  H   UNL     1      -1.311  55.178   3.256  1.00  0.00     0.345 HD
ENDBRANCH   2   3
BRANCH   2   7
ATOM      7  C   UNL     1       0.293  54.937   5.693  1.00  0.00     0.102 C 
ATOM      8  O   UNL     1       1.356  54.964   5.015  1.00  0.00    -0.544 OA
ATOM      9  O   UNL     1       0.291  55.451   6.984  1.00  0.00    -0.544 OA
ENDBRANCH   2   7
ENDBRANCH   1   2
BRANCH   1  10
ATOM     10  O   UNL     1      -0.228  53.339   3.055  1.00  0.00    -0.390 OA
ATOM     11  H   UNL     1      -0.024  52.467   2.627  1.00  0.00     0.210 HD
ENDBRANCH   1  10
TORSDOF 4
ENDMDL
MODEL 7
REMARK VINA RESULT:    -3.273      2.138      3.540
REMARK INTER + INTRA:          -4.083
REMARK INTER:                  -4.065
REMARK INTRA:                  -0.018
REMARK UNBOUND:                -0.236
REMARK SMILES [NH3+][C@@H](CO)C(=O)[O-]
REMARK SMILES IDX 3 1 2 2 1 3 5 7 6 8 7 9 4 10
REMARK H PARENT 1 4 1 5 1 6 4 11
REMARK Flexibility Score: inf
ROOT
ATOM      1  C   UNL     1      -2.125  51.129   4.144  1.00  0.00     0.227 C 
ENDROOT
BRANCH   1   2
ATOM      2  C   UNL     1      -0.999  51.808   4.941  1.00  0.00     0.253 C 
BRANCH   2   3
ATOM      3  N   UNL     1      -1.390  51.982   6.344  1.00  0.00    -0.348 N 
ATOM      4  H   UNL     1      -0.745  51.436   6.963  1.00  0.00     0.345 HD
ATOM      5  H   UNL     1      -1.353  52.993   6.617  1.00  0.00     0.345 HD
ATOM      6  H   UNL     1      -2.362  51.626   6.489  1.00  0.00     0.345 HD
ENDBRANCH   2   3
BRANCH   2   7
ATOM      7  C   UNL     1      -0.636  53.134   4.327  1.00  0.00     0.102 C 
ATOM      8  O   UNL     1       0.183  53.192   3.371  1.00  0.00    -0.544 OA
ATOM      9  O   UNL     1      -1.195  54.305   4.822  1.00  0.00    -0.544 OA
ENDBRANCH   2   7
ENDBRANCH   1   2
BRANCH   1  10
ATOM     10  O   UNL     1      -1.725  49.847   3.746  1.00  0.00    -0.390 OA
ATOM     11  H   UNL     1      -2.080  49.223   4.431  1.00  0.00     0.210 HD
ENDBRANCH   1  10
TORSDOF 4
ENDMDL
MODEL 8
REMARK VINA RESULT:    -3.273      2.148      2.705
REMARK INTER + INTRA:          -4.082
REMARK INTER:                  -3.852
REMARK INTRA:                  -0.230
REMARK UNBOUND:                -0.236
REMARK SMILES [NH3+][C@@H](CO)C(=O)[O-]
REMARK SMILES IDX 3 1 2 2 1 3 5 7 6 8 7 9 4 10
REMARK H PARENT 1 4 1 5 1 6 4 11
REMARK Flexibility Score: inf
ROOT
ATOM      1  C   UNL     1      -1.655  54.337   5.063  1.00  0.00     0.227 C 
ENDROOT
BRANCH   1   2
ATOM      2  C   UNL     1      -0.925  53.239   4.274  1.00  0.00     0.253 C 
BRANCH   2   3
ATOM      3  N   UNL     1      -1.030  51.948   4.963  1.00  0.00    -0.348 N 
ATOM      4  H   UNL     1      -1.741  52.011   5.729  1.00  0.00     0.345 HD
ATOM      5  H   UNL     1      -1.312  51.193   4.294  1.00  0.00     0.345 HD
ATOM      6  H   UNL     1      -0.110  51.698   5.391  1.00  0.00     0.345 HD
ENDBRANCH   2   3
BRANCH   2   7
ATOM      7  C   UNL     1       0.521  53.606   4.063  1.00  0.00     0.102 C 
ATOM      8  O   UNL     1       1.261  52.894   3.333  1.00  0.00    -0.544 OA
ATOM      9  O   UNL     1       1.050  54.730   4.685  1.00  0.00    -0.544 OA
ENDBRANCH   2   7
ENDBRANCH   1   2
BRANCH   1  10
ATOM     10  O   UNL     1      -1.732  55.508   4.296  1.00  0.00    -0.390 OA
ATOM     11  H   UNL     1      -1.257  56.208   4.815  1.00  0.00     0.210 HD
ENDBRANCH   1  10
TORSDOF 4
ENDMDL
MODEL 9
REMARK VINA RESULT:    -3.265      1.405      3.077
REMARK INTER + INTRA:          -4.074
REMARK INTER:                  -4.069
REMARK INTRA:                  -0.005
REMARK UNBOUND:                -0.236
REMARK SMILES [NH3+][C@@H](CO)C(=O)[O-]
REMARK SMILES IDX 3 1 2 2 1 3 5 7 6 8 7 9 4 10
REMARK H PARENT 1 4 1 5 1 6 4 11
REMARK Flexibility Score: inf
ROOT
ATOM      1  C   UNL     1      -1.009  52.063   4.715  1.00  0.00     0.227 C 
ENDROOT
BRANCH   1   2
ATOM      2  C   UNL     1      -0.256  52.981   3.739  1.00  0.00     0.253 C 
BRANCH   2   3
ATOM      3  N   UNL     1       1.014  52.372   3.327  1.00  0.00    -0.348 N 
ATOM      4  H   UNL     1       1.732  52.506   4.077  1.00  0.00     0.345 HD
ATOM      5  H   UNL     1       0.893  51.348   3.147  1.00  0.00     0.345 HD
ATOM      6  H   UNL     1       1.362  52.833   2.455  1.00  0.00     0.345 HD
ENDBRANCH   2   3
BRANCH   2   7
ATOM      7  C   UNL     1      -0.015  54.333   4.357  1.00  0.00     0.102 C 
ATOM      8  O   UNL     1       1.150  54.689   4.682  1.00  0.00    -0.544 OA
ATOM      9  O   UNL     1      -1.082  55.193   4.584  1.00  0.00    -0.544 OA
ENDBRANCH   2   7
ENDBRANCH   1   2
BRANCH   1  10
ATOM     10  O   UNL     1      -1.065  50.761   4.201  1.00  0.00    -0.390 OA
ATOM     11  H   UNL     1      -1.038  50.853   3.213  1.00  0.00     0.210 HD
ENDBRANCH   1  10
TORSDOF 4
ENDMDL
