MODEL 1
REMARK VINA RESULT:    -6.730      0.000      0.000
REMARK INTER + INTRA:          -8.351
REMARK INTER:                  -7.714
REMARK INTRA:                  -0.637
REMARK UNBOUND:                -0.637
REMARK SMILES C=C(C)[C@@H]1CC[C@@]2(C(=O)[O-])CC[C@@]3(C)[C@H](CC[C@@H]4[C@@]5(C)CC[C@H](O)C(C)(C)[C@H]5CC[C@@]43C)[C@@H]12
REMARK SMILES IDX 7 1 6 2 33 3 11 4 5 5 15 6 4 7 12 8 16 9 13 10 17 11 31 12
REMARK SMILES IDX 14 13 18 14 30 15 32 16 19 17 29 18 21 19 20 20 28 21 22 22
REMARK SMILES IDX 25 23 23 24 26 25 27 26 8 27 9 28 10 29 2 30 3 31 1 32 24 33
REMARK H PARENT 24 34
REMARK Flexibility Score: inf
ROOT
ATOM      1  C   UNL     1      98.838  84.286  83.467  1.00  0.00     0.014 C 
ATOM      2  C   UNL     1      98.422  82.848  83.832  1.00  0.00     0.014 C 
ATOM      3  C   UNL     1      98.675  84.327  81.925  1.00  0.00     0.012 C 
ATOM      4  C   UNL     1     100.310  84.512  83.914  1.00  0.00     0.014 C 
ATOM      5  C   UNL     1      98.817  81.970  82.646  1.00  0.00     0.009 C 
ATOM      6  C   UNL     1      99.520  85.422  81.172  1.00  0.00     0.000 C 
ATOM      7  C   UNL     1      98.828  82.875  81.405  1.00  0.00     0.018 C 
ATOM      8  C   UNL     1     101.016  85.682  83.205  1.00  0.00     0.008 C 
ATOM      9  C   UNL     1      98.755  86.747  81.292  1.00  0.00     0.005 C 
ATOM     10  C   UNL     1     101.022  85.589  81.636  1.00  0.00    -0.024 C 
ATOM     11  C   UNL     1      99.401  87.847  80.496  1.00  0.00     0.005 C 
ATOM     12  C   UNL     1     101.745  86.902  80.970  1.00  0.00    -0.024 C 
ATOM     13  C   UNL     1     101.820  84.309  81.205  1.00  0.00     0.012 C 
ATOM     14  C   UNL     1     100.830  88.209  81.015  1.00  0.00     0.002 C 
ATOM     15  C   UNL     1     102.071  86.648  79.465  1.00  0.00     0.008 C 
ATOM     16  C   UNL     1     103.096  87.140  81.736  1.00  0.00     0.012 C 
ATOM     17  C   UNL     1     101.372  89.519  80.242  1.00  0.00    -0.026 C 
ATOM     18  C   UNL     1     102.624  87.862  78.701  1.00  0.00     0.005 C 
ATOM     19  C   UNL     1     102.601  90.184  80.948  1.00  0.00     0.010 C 
ATOM     20  C   UNL     1     100.227  90.592  80.298  1.00  0.00     0.012 C 
ATOM     21  C   UNL     1     101.754  89.155  78.749  1.00  0.00     0.003 C 
ATOM     22  C   UNL     1     103.219  91.364  80.175  1.00  0.00     0.033 C 
ATOM     23  C   UNL     1     102.438  90.344  77.927  1.00  0.00    -0.006 C 
ATOM     24  C   UNL     1     103.614  90.977  78.743  1.00  0.00     0.120 C 
ATOM     25  C   UNL     1     103.017  89.818  76.580  1.00  0.00     0.014 C 
ATOM     26  C   UNL     1     101.397  91.431  77.523  1.00  0.00     0.014 C 
ENDROOT
BRANCH   1  27
ATOM     27  C   UNL     1      97.894  85.272  84.155  1.00  0.00     0.048 C 
ATOM     28  O   UNL     1      98.264  85.951  85.150  1.00  0.00    -0.550 OA
ATOM     29  O   UNL     1      96.594  85.432  83.686  1.00  0.00    -0.550 OA
ENDBRANCH   1  27
BRANCH   7  30
ATOM     30  C   UNL     1      97.738  82.501  80.399  1.00  0.00    -0.077 C 
ATOM     31  C   UNL     1      96.284  82.802  80.665  1.00  0.00     0.039 C 
ATOM     32  C   UNL     1      98.071  81.951  79.219  1.00  0.00     0.008 C 
ENDBRANCH   7  30
BRANCH  24  33
ATOM     33  O   UNL     1     104.108  92.125  78.095  1.00  0.00    -0.393 OA
ATOM     34  H   UNL     1     104.317  91.870  77.159  1.00  0.00     0.210 HD
ENDBRANCH  24  33
TORSDOF 3
ENDMDL
MODEL 2
REMARK VINA RESULT:    -6.541      1.985      3.947
REMARK INTER + INTRA:          -8.135
REMARK INTER:                  -7.552
REMARK INTRA:                  -0.583
REMARK UNBOUND:                -0.637
REMARK SMILES C=C(C)[C@@H]1CC[C@@]2(C(=O)[O-])CC[C@@]3(C)[C@H](CC[C@@H]4[C@@]5(C)CC[C@H](O)C(C)(C)[C@H]5CC[C@@]43C)[C@@H]12
REMARK SMILES IDX 7 1 6 2 33 3 11 4 5 5 15 6 4 7 12 8 16 9 13 10 17 11 31 12
REMARK SMILES IDX 14 13 18 14 30 15 32 16 19 17 29 18 21 19 20 20 28 21 22 22
REMARK SMILES IDX 25 23 23 24 26 25 27 26 8 27 9 28 10 29 2 30 3 31 1 32 24 33
REMARK H PARENT 24 34
REMARK Flexibility Score: inf
ROOT
ATOM      1  C   UNL     1      97.174  83.506  80.486  1.00  0.00     0.014 C 
ATOM      2  C   UNL     1      95.882  82.787  80.919  1.00  0.00     0.014 C 
ATOM      3  C   UNL     1      97.513  84.402  81.707  1.00  0.00     0.012 C 
ATOM      4  C   UNL     1      96.882  84.335  79.204  1.00  0.00     0.014 C 
ATOM      5  C   UNL     1      95.134  83.755  81.832  1.00  0.00     0.009 C 
ATOM      6  C   UNL     1      98.419  85.655  81.411  1.00  0.00     0.000 C 
ATOM      7  C   UNL     1      96.186  84.685  82.455  1.00  0.00     0.018 C 
ATOM      8  C   UNL     1      97.892  85.466  78.936  1.00  0.00     0.008 C 
ATOM      9  C   UNL     1      99.872  85.162  81.363  1.00  0.00     0.005 C 
ATOM     10  C   UNL     1      98.060  86.489  80.116  1.00  0.00    -0.024 C 
ATOM     11  C   UNL     1     100.849  86.296  81.217  1.00  0.00     0.005 C 
ATOM     12  C   UNL     1      99.193  87.620  79.761  1.00  0.00    -0.024 C 
ATOM     13  C   UNL     1      96.691  87.215  80.359  1.00  0.00     0.012 C 
ATOM     14  C   UNL     1     100.685  87.063  79.865  1.00  0.00     0.002 C 
ATOM     15  C   UNL     1      99.105  88.820  80.754  1.00  0.00     0.008 C 
ATOM     16  C   UNL     1      98.896  88.152  78.313  1.00  0.00     0.012 C 
ATOM     17  C   UNL     1     101.887  88.130  79.697  1.00  0.00    -0.026 C 
ATOM     18  C   UNL     1     100.211  89.878  80.603  1.00  0.00     0.005 C 
ATOM     19  C   UNL     1     102.037  88.660  78.232  1.00  0.00     0.010 C 
ATOM     20  C   UNL     1     103.224  87.366  80.004  1.00  0.00     0.012 C 
ATOM     21  C   UNL     1     101.676  89.351  80.682  1.00  0.00     0.003 C 
ATOM     22  C   UNL     1     103.093  89.767  78.060  1.00  0.00     0.033 C 
ATOM     23  C   UNL     1     102.729  90.541  80.504  1.00  0.00    -0.006 C 
ATOM     24  C   UNL     1     102.847  90.956  78.999  1.00  0.00     0.120 C 
ATOM     25  C   UNL     1     102.284  91.794  81.315  1.00  0.00     0.014 C 
ATOM     26  C   UNL     1     104.125  90.158  81.083  1.00  0.00     0.014 C 
ENDROOT
BRANCH   1  27
ATOM     27  C   UNL     1      98.267  82.467  80.235  1.00  0.00     0.048 C 
ATOM     28  O   UNL     1      98.977  82.021  81.176  1.00  0.00    -0.550 OA
ATOM     29  O   UNL     1      98.499  81.998  78.946  1.00  0.00    -0.550 OA
ENDBRANCH   1  27
BRANCH   7  30
ATOM     30  C   UNL     1      96.317  84.490  83.966  1.00  0.00    -0.077 C 
ATOM     31  C   UNL     1      95.490  85.294  84.938  1.00  0.00     0.039 C 
ATOM     32  C   UNL     1      97.133  83.541  84.454  1.00  0.00     0.008 C 
ENDBRANCH   7  30
BRANCH  24  33
ATOM     33  O   UNL     1     103.889  91.885  78.820  1.00  0.00    -0.393 OA
ATOM     34  H   UNL     1     103.488  92.792  78.855  1.00  0.00     0.210 HD
ENDBRANCH  24  33
TORSDOF 3
ENDMDL
MODEL 3
REMARK VINA RESULT:    -6.524      4.179      8.535
REMARK INTER + INTRA:          -8.114
REMARK INTER:                  -7.454
REMARK INTRA:                  -0.661
REMARK UNBOUND:                -0.637
REMARK SMILES C=C(C)[C@@H]1CC[C@@]2(C(=O)[O-])CC[C@@]3(C)[C@H](CC[C@@H]4[C@@]5(C)CC[C@H](O)C(C)(C)[C@H]5CC[C@@]43C)[C@@H]12
REMARK SMILES IDX 7 1 6 2 33 3 11 4 5 5 15 6 4 7 12 8 16 9 13 10 17 11 31 12
REMARK SMILES IDX 14 13 18 14 30 15 32 16 19 17 29 18 21 19 20 20 28 21 22 22
REMARK SMILES IDX 25 23 23 24 26 25 27 26 8 27 9 28 10 29 2 30 3 31 1 32 24 33
REMARK H PARENT 24 34
REMARK Flexibility Score: inf
ROOT
ATOM      1  C   UNL     1      98.891  86.350  81.919  1.00  0.00     0.014 C 
ATOM      2  C   UNL     1     100.408  86.227  81.674  1.00  0.00     0.014 C 
ATOM      3  C   UNL     1      98.355  84.937  81.565  1.00  0.00     0.012 C 
ATOM      4  C   UNL     1      98.319  87.453  80.985  1.00  0.00     0.014 C 
ATOM      5  C   UNL     1     100.582  85.222  80.539  1.00  0.00     0.009 C 
ATOM      6  C   UNL     1      96.833  84.859  81.168  1.00  0.00     0.000 C 
ATOM      7  C   UNL     1      99.352  84.302  80.564  1.00  0.00     0.018 C 
ATOM      8  C   UNL     1      96.801  87.361  80.750  1.00  0.00     0.008 C 
ATOM      9  C   UNL     1      96.025  84.844  82.472  1.00  0.00     0.005 C 
ATOM     10  C   UNL     1      96.306  85.980  80.186  1.00  0.00    -0.024 C 
ATOM     11  C   UNL     1      94.556  84.637  82.225  1.00  0.00     0.005 C 
ATOM     12  C   UNL     1      94.675  85.959  80.022  1.00  0.00    -0.024 C 
ATOM     13  C   UNL     1      96.952  85.747  78.775  1.00  0.00     0.012 C 
ATOM     14  C   UNL     1      93.910  85.807  81.415  1.00  0.00     0.002 C 
ATOM     15  C   UNL     1      94.225  84.752  79.142  1.00  0.00     0.008 C 
ATOM     16  C   UNL     1      94.253  87.287  79.296  1.00  0.00     0.012 C 
ATOM     17  C   UNL     1      92.307  85.609  81.360  1.00  0.00    -0.026 C 
ATOM     18  C   UNL     1      92.704  84.551  79.035  1.00  0.00     0.005 C 
ATOM     19  C   UNL     1      91.544  86.903  80.922  1.00  0.00     0.010 C 
ATOM     20  C   UNL     1      91.831  85.321  82.829  1.00  0.00     0.012 C 
ATOM     21  C   UNL     1      91.935  84.419  80.384  1.00  0.00     0.003 C 
ATOM     22  C   UNL     1      90.025  86.718  80.743  1.00  0.00     0.033 C 
ATOM     23  C   UNL     1      90.367  84.222  80.140  1.00  0.00    -0.006 C 
ATOM     24  C   UNL     1      89.690  85.583  79.765  1.00  0.00     0.120 C 
ATOM     25  C   UNL     1      90.114  83.222  78.974  1.00  0.00     0.014 C 
ATOM     26  C   UNL     1      89.673  83.583  81.381  1.00  0.00     0.014 C 
ENDROOT
BRANCH   1  27
ATOM     27  C   UNL     1      98.645  86.688  83.389  1.00  0.00     0.048 C 
ATOM     28  O   UNL     1      98.268  87.837  83.744  1.00  0.00    -0.550 OA
ATOM     29  O   UNL     1      98.841  85.719  84.368  1.00  0.00    -0.550 OA
ENDBRANCH   1  27
BRANCH   7  30
ATOM     30  C   UNL     1      99.707  82.860  80.933  1.00  0.00    -0.077 C 
ATOM     31  C   UNL     1      99.594  82.362  82.353  1.00  0.00     0.039 C 
ATOM     32  C   UNL     1     100.065  81.989  79.977  1.00  0.00     0.008 C 
ENDBRANCH   7  30
BRANCH  24  33
ATOM     33  O   UNL     1      88.290  85.444  79.712  1.00  0.00    -0.393 OA
ATOM     34  H   UNL     1      88.095  84.567  79.290  1.00  0.00     0.210 HD
ENDBRANCH  24  33
TORSDOF 3
ENDMDL
MODEL 4
REMARK VINA RESULT:    -6.297      5.126      8.795
REMARK INTER + INTRA:          -7.854
REMARK INTER:                  -7.236
REMARK INTRA:                  -0.618
REMARK UNBOUND:                -0.637
REMARK SMILES C=C(C)[C@@H]1CC[C@@]2(C(=O)[O-])CC[C@@]3(C)[C@H](CC[C@@H]4[C@@]5(C)CC[C@H](O)C(C)(C)[C@H]5CC[C@@]43C)[C@@H]12
REMARK SMILES IDX 7 1 6 2 33 3 11 4 5 5 15 6 4 7 12 8 16 9 13 10 17 11 31 12
REMARK SMILES IDX 14 13 18 14 30 15 32 16 19 17 29 18 21 19 20 20 28 21 22 22
REMARK SMILES IDX 25 23 23 24 26 25 27 26 8 27 9 28 10 29 2 30 3 31 1 32 24 33
REMARK H PARENT 24 34
REMARK Flexibility Score: inf
ROOT
ATOM      1  C   UNL     1      97.701  85.200  84.911  1.00  0.00     0.014 C 
ATOM      2  C   UNL     1      99.229  85.231  85.108  1.00  0.00     0.014 C 
ATOM      3  C   UNL     1      97.510  84.193  83.745  1.00  0.00     0.012 C 
ATOM      4  C   UNL     1      97.213  86.630  84.545  1.00  0.00     0.014 C 
ATOM      5  C   UNL     1      99.847  84.987  83.734  1.00  0.00     0.009 C 
ATOM      6  C   UNL     1      96.173  84.335  82.926  1.00  0.00     0.000 C 
ATOM      7  C   UNL     1      98.818  84.192  82.915  1.00  0.00     0.018 C 
ATOM      8  C   UNL     1      95.840  86.674  83.850  1.00  0.00     0.008 C 
ATOM      9  C   UNL     1      95.073  83.624  83.726  1.00  0.00     0.005 C 
ATOM     10  C   UNL     1      95.737  85.806  82.544  1.00  0.00    -0.024 C 
ATOM     11  C   UNL     1      93.769  83.578  82.978  1.00  0.00     0.005 C 
ATOM     12  C   UNL     1      94.227  85.871  81.909  1.00  0.00    -0.024 C 
ATOM     13  C   UNL     1      96.749  86.364  81.482  1.00  0.00     0.012 C 
ATOM     14  C   UNL     1      93.168  84.998  82.724  1.00  0.00     0.002 C 
ATOM     15  C   UNL     1      94.218  85.320  80.450  1.00  0.00     0.008 C 
ATOM     16  C   UNL     1      93.792  87.381  81.871  1.00  0.00     0.012 C 
ATOM     17  C   UNL     1      91.686  84.855  82.096  1.00  0.00    -0.026 C 
ATOM     18  C   UNL     1      92.828  85.202  79.802  1.00  0.00     0.005 C 
ATOM     19  C   UNL     1      90.859  86.182  82.169  1.00  0.00     0.010 C 
ATOM     20  C   UNL     1      90.907  83.827  82.990  1.00  0.00     0.012 C 
ATOM     21  C   UNL     1      91.774  84.369  80.592  1.00  0.00     0.003 C 
ATOM     22  C   UNL     1      89.487  86.117  81.473  1.00  0.00     0.033 C 
ATOM     23  C   UNL     1      90.373  84.329  79.822  1.00  0.00    -0.006 C 
ATOM     24  C   UNL     1      89.601  85.678  80.006  1.00  0.00     0.120 C 
ATOM     25  C   UNL     1      90.591  84.105  78.296  1.00  0.00     0.014 C 
ATOM     26  C   UNL     1      89.500  83.125  80.288  1.00  0.00     0.014 C 
ENDROOT
BRANCH   1  27
ATOM     27  C   UNL     1      97.038  84.701  86.194  1.00  0.00     0.048 C 
ATOM     28  O   UNL     1      97.001  83.475  86.479  1.00  0.00    -0.550 OA
ATOM     29  O   UNL     1      96.455  85.608  87.074  1.00  0.00    -0.550 OA
ENDBRANCH   1  27
BRANCH   7  30
ATOM     30  C   UNL     1      99.298  82.777  82.588  1.00  0.00    -0.077 C 
ATOM     31  C   UNL     1      99.520  81.751  83.672  1.00  0.00     0.039 C 
ATOM     32  C   UNL     1      99.467  82.402  81.310  1.00  0.00     0.008 C 
ENDBRANCH   7  30
BRANCH  24  33
ATOM     33  O   UNL     1      88.302  85.585  79.470  1.00  0.00    -0.393 OA
ATOM     34  H   UNL     1      88.008  84.643  79.567  1.00  0.00     0.210 HD
ENDBRANCH  24  33
TORSDOF 3
ENDMDL
MODEL 5
REMARK VINA RESULT:    -6.250      4.578      8.751
REMARK INTER + INTRA:          -7.801
REMARK INTER:                  -7.206
REMARK INTRA:                  -0.595
REMARK UNBOUND:                -0.637
REMARK SMILES C=C(C)[C@@H]1CC[C@@]2(C(=O)[O-])CC[C@@]3(C)[C@H](CC[C@@H]4[C@@]5(C)CC[C@H](O)C(C)(C)[C@H]5CC[C@@]43C)[C@@H]12
REMARK SMILES IDX 7 1 6 2 33 3 11 4 5 5 15 6 4 7 12 8 16 9 13 10 17 11 31 12
REMARK SMILES IDX 14 13 18 14 30 15 32 16 19 17 29 18 21 19 20 20 28 21 22 22
REMARK SMILES IDX 25 23 23 24 26 25 27 26 8 27 9 28 10 29 2 30 3 31 1 32 24 33
REMARK H PARENT 24 34
REMARK Flexibility Score: inf
ROOT
ATOM      1  C   UNL     1      98.900  84.442  83.399  1.00  0.00     0.014 C 
ATOM      2  C   UNL     1     100.357  84.380  82.901  1.00  0.00     0.014 C 
ATOM      3  C   UNL     1      98.103  83.746  82.263  1.00  0.00     0.012 C 
ATOM      4  C   UNL     1      98.494  85.932  83.581  1.00  0.00     0.014 C 
ATOM      5  C   UNL     1     100.297  84.451  81.378  1.00  0.00     0.009 C 
ATOM      6  C   UNL     1      96.575  84.118  82.167  1.00  0.00     0.000 C 
ATOM      7  C   UNL     1      98.923  83.904  80.958  1.00  0.00     0.018 C 
ATOM      8  C   UNL     1      96.975  86.179  83.591  1.00  0.00     0.008 C 
ATOM      9  C   UNL     1      95.836  83.270  83.211  1.00  0.00     0.005 C 
ATOM     10  C   UNL     1      96.215  85.649  82.321  1.00  0.00    -0.024 C 
ATOM     11  C   UNL     1      94.345  83.440  83.125  1.00  0.00     0.005 C 
ATOM     12  C   UNL     1      94.601  85.908  82.447  1.00  0.00    -0.024 C 
ATOM     13  C   UNL     1      96.745  86.413  81.057  1.00  0.00     0.012 C 
ATOM     14  C   UNL     1      93.884  84.897  83.453  1.00  0.00     0.002 C 
ATOM     15  C   UNL     1      93.902  85.719  81.065  1.00  0.00     0.008 C 
ATOM     16  C   UNL     1      94.393  87.396  82.908  1.00  0.00     0.012 C 
ATOM     17  C   UNL     1      92.271  84.952  83.532  1.00  0.00    -0.026 C 
ATOM     18  C   UNL     1      92.367  85.800  81.091  1.00  0.00     0.005 C 
ATOM     19  C   UNL     1      91.734  86.247  84.227  1.00  0.00     0.010 C 
ATOM     20  C   UNL     1      91.817  83.764  84.453  1.00  0.00     0.012 C 
ATOM     21  C   UNL     1      91.648  84.834  82.081  1.00  0.00     0.003 C 
ATOM     22  C   UNL     1      90.201  86.389  84.213  1.00  0.00     0.033 C 
ATOM     23  C   UNL     1      90.061  85.019  82.020  1.00  0.00    -0.006 C 
ATOM     24  C   UNL     1      89.623  86.308  82.793  1.00  0.00     0.120 C 
ATOM     25  C   UNL     1      89.580  85.156  80.545  1.00  0.00     0.014 C 
ATOM     26  C   UNL     1      89.319  83.765  82.573  1.00  0.00     0.014 C 
ENDROOT
BRANCH   1  27
ATOM     27  C   UNL     1      98.784  83.673  84.714  1.00  0.00     0.048 C 
ATOM     28  O   UNL     1      98.885  82.417  84.751  1.00  0.00    -0.550 OA
ATOM     29  O   UNL     1      98.558  84.358  85.904  1.00  0.00    -0.550 OA
ENDBRANCH   1  27
BRANCH   7  30
ATOM     30  C   UNL     1      99.030  82.594  80.177  1.00  0.00    -0.077 C 
ATOM     31  C   UNL     1      97.824  81.973  79.514  1.00  0.00     0.039 C 
ATOM     32  C   UNL     1     100.224  82.004  80.010  1.00  0.00     0.008 C 
ENDBRANCH   7  30
BRANCH  24  33
ATOM     33  O   UNL     1      88.220  86.383  82.880  1.00  0.00    -0.393 OA
ATOM     34  H   UNL     1      87.991  86.569  83.828  1.00  0.00     0.210 HD
ENDBRANCH  24  33
TORSDOF 3
ENDMDL
MODEL 6
REMARK VINA RESULT:    -6.197      2.646      4.769
REMARK INTER + INTRA:          -7.740
REMARK INTER:                  -7.167
REMARK INTRA:                  -0.573
REMARK UNBOUND:                -0.637
REMARK SMILES C=C(C)[C@@H]1CC[C@@]2(C(=O)[O-])CC[C@@]3(C)[C@H](CC[C@@H]4[C@@]5(C)CC[C@H](O)C(C)(C)[C@H]5CC[C@@]43C)[C@@H]12
REMARK SMILES IDX 7 1 6 2 33 3 11 4 5 5 15 6 4 7 12 8 16 9 13 10 17 11 31 12
REMARK SMILES IDX 14 13 18 14 30 15 32 16 19 17 29 18 21 19 20 20 28 21 22 22
REMARK SMILES IDX 25 23 23 24 26 25 27 26 8 27 9 28 10 29 2 30 3 31 1 32 24 33
REMARK H PARENT 24 34
REMARK Flexibility Score: inf
ROOT
ATOM      1  C   UNL     1      94.907  84.837  79.658  1.00  0.00     0.014 C 
ATOM      2  C   UNL     1      93.517  84.363  80.124  1.00  0.00     0.014 C 
ATOM      3  C   UNL     1      95.765  84.754  80.949  1.00  0.00     0.012 C 
ATOM      4  C   UNL     1      94.788  86.290  79.118  1.00  0.00     0.014 C 
ATOM      5  C   UNL     1      93.380  84.793  81.582  1.00  0.00     0.009 C 
ATOM      6  C   UNL     1      97.048  85.667  80.982  1.00  0.00     0.000 C 
ATOM      7  C   UNL     1      94.802  84.892  82.155  1.00  0.00     0.018 C 
ATOM      8  C   UNL     1      96.118  87.064  79.080  1.00  0.00     0.008 C 
ATOM      9  C   UNL     1      98.146  84.934  80.199  1.00  0.00     0.005 C 
ATOM     10  C   UNL     1      96.869  87.147  80.458  1.00  0.00    -0.024 C 
ATOM     11  C   UNL     1      99.467  85.650  80.273  1.00  0.00     0.005 C 
ATOM     12  C   UNL     1      98.296  87.940  80.306  1.00  0.00    -0.024 C 
ATOM     13  C   UNL     1      95.971  87.930  81.479  1.00  0.00     0.012 C 
ATOM     14  C   UNL     1      99.426  87.061  79.601  1.00  0.00     0.002 C 
ATOM     15  C   UNL     1      98.860  88.335  81.706  1.00  0.00     0.008 C 
ATOM     16  C   UNL     1      98.025  89.256  79.492  1.00  0.00     0.012 C 
ATOM     17  C   UNL     1     100.918  87.678  79.546  1.00  0.00    -0.026 C 
ATOM     18  C   UNL     1     100.264  88.960  81.695  1.00  0.00     0.005 C 
ATOM     19  C   UNL     1     101.046  88.887  78.561  1.00  0.00     0.010 C 
ATOM     20  C   UNL     1     101.855  86.562  78.962  1.00  0.00     0.012 C 
ATOM     21  C   UNL     1     101.379  88.125  80.993  1.00  0.00     0.003 C 
ATOM     22  C   UNL     1     102.423  89.577  78.572  1.00  0.00     0.033 C 
ATOM     23  C   UNL     1     102.786  88.883  81.041  1.00  0.00    -0.006 C 
ATOM     24  C   UNL     1     102.831  90.034  79.980  1.00  0.00     0.120 C 
ATOM     25  C   UNL     1     103.023  89.515  82.444  1.00  0.00     0.014 C 
ATOM     26  C   UNL     1     103.973  87.895  80.835  1.00  0.00     0.014 C 
ENDROOT
BRANCH   1  27
ATOM     27  C   UNL     1      95.427  83.888  78.580  1.00  0.00     0.048 C 
ATOM     28  O   UNL     1      95.519  84.248  77.376  1.00  0.00    -0.550 OA
ATOM     29  O   UNL     1      95.808  82.593  78.918  1.00  0.00    -0.550 OA
ENDBRANCH   1  27
BRANCH   7  30
ATOM     30  C   UNL     1      95.072  83.845  83.237  1.00  0.00    -0.077 C 
ATOM     31  C   UNL     1      96.454  83.640  83.806  1.00  0.00     0.039 C 
ATOM     32  C   UNL     1      94.057  83.131  83.750  1.00  0.00     0.008 C 
ENDBRANCH   7  30
BRANCH  24  33
ATOM     33  O   UNL     1     104.122  90.592  79.907  1.00  0.00    -0.393 OA
ATOM     34  H   UNL     1     104.705  89.934  79.447  1.00  0.00     0.210 HD
ENDBRANCH  24  33
TORSDOF 3
ENDMDL
MODEL 7
REMARK VINA RESULT:    -6.175      4.361      8.140
REMARK INTER + INTRA:          -7.715
REMARK INTER:                  -7.140
REMARK INTRA:                  -0.575
REMARK UNBOUND:                -0.637
REMARK SMILES C=C(C)[C@@H]1CC[C@@]2(C(=O)[O-])CC[C@@]3(C)[C@H](CC[C@@H]4[C@@]5(C)CC[C@H](O)C(C)(C)[C@H]5CC[C@@]43C)[C@@H]12
REMARK SMILES IDX 7 1 6 2 33 3 11 4 5 5 15 6 4 7 12 8 16 9 13 10 17 11 31 12
REMARK SMILES IDX 14 13 18 14 30 15 32 16 19 17 29 18 21 19 20 20 28 21 22 22
REMARK SMILES IDX 25 23 23 24 26 25 27 26 8 27 9 28 10 29 2 30 3 31 1 32 24 33
REMARK H PARENT 24 34
REMARK Flexibility Score: inf
ROOT
ATOM      1  C   UNL     1      94.105  90.644  81.335  1.00  0.00     0.014 C 
ATOM      2  C   UNL     1      93.177  91.636  80.608  1.00  0.00     0.014 C 
ATOM      3  C   UNL     1      95.003  90.091  80.196  1.00  0.00     0.012 C 
ATOM      4  C   UNL     1      93.236  89.536  81.996  1.00  0.00     0.014 C 
ATOM      5  C   UNL     1      92.976  91.087  79.198  1.00  0.00     0.009 C 
ATOM      6  C   UNL     1      95.665  88.687  80.461  1.00  0.00     0.000 C 
ATOM      7  C   UNL     1      94.208  90.228  78.873  1.00  0.00     0.018 C 
ATOM      8  C   UNL     1      94.002  88.241  82.325  1.00  0.00     0.008 C 
ATOM      9  C   UNL     1      96.907  88.929  81.330  1.00  0.00     0.005 C 
ATOM     10  C   UNL     1      94.732  87.582  81.100  1.00  0.00    -0.024 C 
ATOM     11  C   UNL     1      97.702  87.671  81.542  1.00  0.00     0.005 C 
ATOM     12  C   UNL     1      95.563  86.244  81.557  1.00  0.00    -0.024 C 
ATOM     13  C   UNL     1      93.660  87.162  80.034  1.00  0.00     0.012 C 
ATOM     14  C   UNL     1      96.912  86.584  82.340  1.00  0.00     0.002 C 
ATOM     15  C   UNL     1      95.980  85.401  80.313  1.00  0.00     0.008 C 
ATOM     16  C   UNL     1      94.606  85.372  82.448  1.00  0.00     0.012 C 
ATOM     17  C   UNL     1      97.892  85.350  82.695  1.00  0.00    -0.026 C 
ATOM     18  C   UNL     1      96.885  84.195  80.612  1.00  0.00     0.005 C 
ATOM     19  C   UNL     1      97.318  84.411  83.807  1.00  0.00     0.010 C 
ATOM     20  C   UNL     1      99.202  85.966  83.303  1.00  0.00     0.012 C 
ATOM     21  C   UNL     1      98.199  84.503  81.393  1.00  0.00     0.003 C 
ATOM     22  C   UNL     1      98.170  83.158  84.085  1.00  0.00     0.033 C 
ATOM     23  C   UNL     1      99.046  83.171  81.649  1.00  0.00    -0.006 C 
ATOM     24  C   UNL     1      98.423  82.334  82.815  1.00  0.00     0.120 C 
ATOM     25  C   UNL     1      99.064  82.278  80.373  1.00  0.00     0.014 C 
ATOM     26  C   UNL     1     100.543  83.494  81.938  1.00  0.00     0.014 C 
ENDROOT
BRANCH   1  27
ATOM     27  C   UNL     1      94.928  91.397  82.379  1.00  0.00     0.048 C 
ATOM     28  O   UNL     1      94.614  91.380  83.599  1.00  0.00    -0.550 OA
ATOM     29  O   UNL     1      96.048  92.125  81.990  1.00  0.00    -0.550 OA
ENDBRANCH   1  27
BRANCH   7  30
ATOM     30  C   UNL     1      95.055  90.823  77.746  1.00  0.00    -0.077 C 
ATOM     31  C   UNL     1      96.299  90.130  77.247  1.00  0.00     0.039 C 
ATOM     32  C   UNL     1      94.661  91.950  77.131  1.00  0.00     0.008 C 
ENDBRANCH   7  30
BRANCH  24  33
ATOM     33  O   UNL     1      99.257  81.250  83.150  1.00  0.00    -0.393 OA
ATOM     34  H   UNL     1     100.050  81.619  83.620  1.00  0.00     0.210 HD
ENDBRANCH  24  33
TORSDOF 3
ENDMDL
MODEL 8
REMARK VINA RESULT:    -6.089      3.727      5.793
REMARK INTER + INTRA:          -7.616
REMARK INTER:                  -6.993
REMARK INTRA:                  -0.623
REMARK UNBOUND:                -0.637
REMARK SMILES C=C(C)[C@@H]1CC[C@@]2(C(=O)[O-])CC[C@@]3(C)[C@H](CC[C@@H]4[C@@]5(C)CC[C@H](O)C(C)(C)[C@H]5CC[C@@]43C)[C@@H]12
REMARK SMILES IDX 7 1 6 2 33 3 11 4 5 5 15 6 4 7 12 8 16 9 13 10 17 11 31 12
REMARK SMILES IDX 14 13 18 14 30 15 32 16 19 17 29 18 21 19 20 20 28 21 22 22
REMARK SMILES IDX 25 23 23 24 26 25 27 26 8 27 9 28 10 29 2 30 3 31 1 32 24 33
REMARK H PARENT 24 34
REMARK Flexibility Score: inf
ROOT
ATOM      1  C   UNL     1      99.852  83.866  82.532  1.00  0.00     0.014 C 
ATOM      2  C   UNL     1     100.156  82.548  83.269  1.00  0.00     0.014 C 
ATOM      3  C   UNL     1      98.663  84.460  83.334  1.00  0.00     0.012 C 
ATOM      4  C   UNL     1      99.470  83.543  81.059  1.00  0.00     0.014 C 
ATOM      5  C   UNL     1      98.826  82.046  83.824  1.00  0.00     0.009 C 
ATOM      6  C   UNL     1      97.754  85.486  82.559  1.00  0.00     0.000 C 
ATOM      7  C   UNL     1      97.927  83.278  84.013  1.00  0.00     0.018 C 
ATOM      8  C   UNL     1      98.682  84.657  80.348  1.00  0.00     0.008 C 
ATOM      9  C   UNL     1      98.466  86.844  82.601  1.00  0.00     0.005 C 
ATOM     10  C   UNL     1      97.361  85.095  81.079  1.00  0.00    -0.024 C 
ATOM     11  C   UNL     1      97.628  87.941  82.004  1.00  0.00     0.005 C 
ATOM     12  C   UNL     1      96.623  86.321  80.278  1.00  0.00    -0.024 C 
ATOM     13  C   UNL     1      96.380  83.872  81.132  1.00  0.00     0.012 C 
ATOM     14  C   UNL     1      97.350  87.727  80.481  1.00  0.00     0.002 C 
ATOM     15  C   UNL     1      95.159  86.509  80.786  1.00  0.00     0.008 C 
ATOM     16  C   UNL     1      96.573  85.933  78.756  1.00  0.00     0.012 C 
ATOM     17  C   UNL     1      96.618  89.033  79.874  1.00  0.00    -0.026 C 
ATOM     18  C   UNL     1      94.414  87.721  80.204  1.00  0.00     0.005 C 
ATOM     19  C   UNL     1      96.650  89.083  78.310  1.00  0.00     0.010 C 
ATOM     20  C   UNL     1      97.443  90.283  80.349  1.00  0.00     0.012 C 
ATOM     21  C   UNL     1      95.118  89.102  80.374  1.00  0.00     0.003 C 
ATOM     22  C   UNL     1      95.858  90.251  77.693  1.00  0.00     0.033 C 
ATOM     23  C   UNL     1      94.251  90.278  79.724  1.00  0.00    -0.006 C 
ATOM     24  C   UNL     1      94.398  90.276  78.165  1.00  0.00     0.120 C 
ATOM     25  C   UNL     1      92.742  90.101  80.064  1.00  0.00     0.014 C 
ATOM     26  C   UNL     1      94.640  91.667  80.314  1.00  0.00     0.014 C 
ENDROOT
BRANCH   1  27
ATOM     27  C   UNL     1     101.079  84.775  82.598  1.00  0.00     0.048 C 
ATOM     28  O   UNL     1     101.806  84.971  81.587  1.00  0.00    -0.550 OA
ATOM     29  O   UNL     1     101.416  85.403  83.793  1.00  0.00    -0.550 OA
ENDBRANCH   1  27
BRANCH   7  30
ATOM     30  C   UNL     1      97.616  83.555  85.485  1.00  0.00    -0.077 C 
ATOM     31  C   UNL     1      98.707  83.580  86.528  1.00  0.00     0.039 C 
ATOM     32  C   UNL     1      96.363  83.849  85.865  1.00  0.00     0.008 C 
ENDBRANCH   7  30
BRANCH  24  33
ATOM     33  O   UNL     1      93.771  91.406  77.605  1.00  0.00    -0.393 OA
ATOM     34  H   UNL     1      94.367  91.753  76.892  1.00  0.00     0.210 HD
ENDBRANCH  24  33
TORSDOF 3
ENDMDL
MODEL 9
REMARK VINA RESULT:    -6.079      1.744      2.556
REMARK INTER + INTRA:          -7.605
REMARK INTER:                  -6.952
REMARK INTRA:                  -0.653
REMARK UNBOUND:                -0.637
REMARK SMILES C=C(C)[C@@H]1CC[C@@]2(C(=O)[O-])CC[C@@]3(C)[C@H](CC[C@@H]4[C@@]5(C)CC[C@H](O)C(C)(C)[C@H]5CC[C@@]43C)[C@@H]12
REMARK SMILES IDX 7 1 6 2 33 3 11 4 5 5 15 6 4 7 12 8 16 9 13 10 17 11 31 12
REMARK SMILES IDX 14 13 18 14 30 15 32 16 19 17 29 18 21 19 20 20 28 21 22 22
REMARK SMILES IDX 25 23 23 24 26 25 27 26 8 27 9 28 10 29 2 30 3 31 1 32 24 33
REMARK H PARENT 24 34
REMARK Flexibility Score: inf
ROOT
ATOM      1  C   UNL     1      98.842  84.528  84.851  1.00  0.00     0.014 C 
ATOM      2  C   UNL     1      97.845  83.503  85.425  1.00  0.00     0.014 C 
ATOM      3  C   UNL     1      97.968  85.384  83.896  1.00  0.00     0.012 C 
ATOM      4  C   UNL     1      99.970  83.765  84.100  1.00  0.00     0.014 C 
ATOM      5  C   UNL     1      96.811  83.246  84.331  1.00  0.00     0.009 C 
ATOM      6  C   UNL     1      98.738  86.139  82.749  1.00  0.00     0.000 C 
ATOM      7  C   UNL     1      96.775  84.502  83.447  1.00  0.00     0.018 C 
ATOM      8  C   UNL     1     100.744  84.621  83.081  1.00  0.00     0.008 C 
ATOM      9  C   UNL     1      99.326  87.416  83.363  1.00  0.00     0.005 C 
ATOM     10  C   UNL     1      99.849  85.311  81.989  1.00  0.00    -0.024 C 
ATOM     11  C   UNL     1      99.977  88.293  82.329  1.00  0.00     0.005 C 
ATOM     12  C   UNL     1     100.754  86.242  80.986  1.00  0.00    -0.024 C 
ATOM     13  C   UNL     1      99.143  84.200  81.134  1.00  0.00     0.012 C 
ATOM     14  C   UNL     1     101.214  87.615  81.656  1.00  0.00     0.002 C 
ATOM     15  C   UNL     1      99.942  86.628  79.711  1.00  0.00     0.008 C 
ATOM     16  C   UNL     1     101.999  85.392  80.543  1.00  0.00     0.012 C 
ATOM     17  C   UNL     1     101.970  88.684  80.709  1.00  0.00    -0.026 C 
ATOM     18  C   UNL     1     100.642  87.617  78.764  1.00  0.00     0.005 C 
ATOM     19  C   UNL     1     103.413  88.233  80.306  1.00  0.00     0.010 C 
ATOM     20  C   UNL     1     102.162  89.992  81.556  1.00  0.00     0.012 C 
ATOM     21  C   UNL     1     101.118  88.957  79.403  1.00  0.00     0.003 C 
ATOM     22  C   UNL     1     104.118  89.170  79.307  1.00  0.00     0.033 C 
ATOM     23  C   UNL     1     101.834  89.892  78.322  1.00  0.00    -0.006 C 
ATOM     24  C   UNL     1     103.289  89.390  78.034  1.00  0.00     0.120 C 
ATOM     25  C   UNL     1     101.047  89.881  76.978  1.00  0.00     0.014 C 
ATOM     26  C   UNL     1     101.843  91.383  78.775  1.00  0.00     0.014 C 
ENDROOT
BRANCH   1  27
ATOM     27  C   UNL     1      99.410  85.370  85.993  1.00  0.00     0.048 C 
ATOM     28  O   UNL     1     100.605  85.242  86.371  1.00  0.00    -0.550 OA
ATOM     29  O   UNL     1      98.602  86.299  86.641  1.00  0.00    -0.550 OA
ENDBRANCH   1  27
BRANCH   7  30
ATOM     30  C   UNL     1      95.439  85.242  83.538  1.00  0.00    -0.077 C 
ATOM     31  C   UNL     1      95.319  86.563  84.259  1.00  0.00     0.039 C 
ATOM     32  C   UNL     1      94.355  84.755  82.912  1.00  0.00     0.008 C 
ENDBRANCH   7  30
BRANCH  24  33
ATOM     33  O   UNL     1     103.976  90.303  77.211  1.00  0.00    -0.393 OA
ATOM     34  H   UNL     1     103.645  90.175  76.284  1.00  0.00     0.210 HD
ENDBRANCH  24  33
TORSDOF 3
ENDMDL
