MODEL 1
REMARK VINA RESULT:    -5.196      0.000      0.000
REMARK INTER + INTRA:          -6.663
REMARK INTER:                  -6.412
REMARK INTRA:                  -0.252
REMARK UNBOUND:                -0.252
REMARK SMILES C=CC(=C)CCC=C(C)C
REMARK SMILES IDX 5 1 6 2 7 3 9 4 8 5 10 6 3 7 4 8 2 9 1 10
REMARK H PARENT
REMARK Flexibility Score: inf
ROOT
ATOM      1  C   UNL     1       5.587   7.853  12.371  1.00  0.00     0.039 C 
ENDROOT
BRANCH   1   2
ATOM      2  C   UNL     1       4.380   8.264  11.519  1.00  0.00     0.032 C 
BRANCH   2   3
ATOM      3  C   UNL     1       4.532   9.681  11.026  1.00  0.00    -0.028 C 
ATOM      4  C   UNL     1       2.566  10.516  12.334  1.00  0.00     0.039 C 
ATOM      5  C   UNL     1       3.743  10.710  11.410  1.00  0.00    -0.080 C 
ATOM      6  C   UNL     1       4.003  12.094  10.875  1.00  0.00     0.039 C 
ENDBRANCH   2   3
ENDBRANCH   1   2
BRANCH   1   7
ATOM      7  C   UNL     1       5.569   6.365  12.645  1.00  0.00    -0.055 C 
ATOM      8  C   UNL     1       4.459   5.668  12.379  1.00  0.00     0.012 C 
BRANCH   7   9
ATOM      9  C   UNL     1       6.760   5.638  13.156  1.00  0.00    -0.005 C 
ATOM     10  C   UNL     1       7.733   5.161  12.379  1.00  0.00     0.009 C 
ENDBRANCH   7   9
ENDBRANCH   1   7
TORSDOF 4
ENDMDL
MODEL 2
REMARK VINA RESULT:    -5.019      0.777      5.463
REMARK INTER + INTRA:          -6.445
REMARK INTER:                  -6.186
REMARK INTRA:                  -0.258
REMARK UNBOUND:                -0.252
REMARK SMILES C=CC(=C)CCC=C(C)C
REMARK SMILES IDX 5 1 6 2 7 3 9 4 8 5 10 6 3 7 4 8 2 9 1 10
REMARK H PARENT
REMARK Flexibility Score: inf
ROOT
ATOM      1  C   UNL     1       4.469   9.461  10.931  1.00  0.00     0.039 C 
ENDROOT
BRANCH   1   2
ATOM      2  C   UNL     1       4.616   8.340  11.967  1.00  0.00     0.032 C 
BRANCH   2   3
ATOM      3  C   UNL     1       6.063   7.948  12.129  1.00  0.00    -0.028 C 
ATOM      4  C   UNL     1       5.520   5.578  12.734  1.00  0.00     0.039 C 
ATOM      5  C   UNL     1       6.485   6.702  12.441  1.00  0.00    -0.080 C 
ATOM      6  C   UNL     1       7.960   6.414  12.549  1.00  0.00     0.039 C 
ENDBRANCH   2   3
ENDBRANCH   1   2
BRANCH   1   7
ATOM      7  C   UNL     1       3.673  10.616  11.499  1.00  0.00    -0.055 C 
ATOM      8  C   UNL     1       3.986  11.863  11.133  1.00  0.00     0.012 C 
BRANCH   7   9
ATOM      9  C   UNL     1       2.520  10.411  12.414  1.00  0.00    -0.005 C 
ATOM     10  C   UNL     1       1.954  11.382  13.130  1.00  0.00     0.009 C 
ENDBRANCH   7   9
ENDBRANCH   1   7
TORSDOF 4
ENDMDL
MODEL 3
REMARK VINA RESULT:    -4.932      0.992      5.420
REMARK INTER + INTRA:          -6.337
REMARK INTER:                  -6.099
REMARK INTRA:                  -0.238
REMARK UNBOUND:                -0.252
REMARK SMILES C=CC(=C)CCC=C(C)C
REMARK SMILES IDX 5 1 6 2 7 3 9 4 8 5 10 6 3 7 4 8 2 9 1 10
REMARK H PARENT
REMARK Flexibility Score: inf
ROOT
ATOM      1  C   UNL     1       4.378   9.816  10.953  1.00  0.00     0.039 C 
ENDROOT
BRANCH   1   2
ATOM      2  C   UNL     1       4.470   8.509  11.750  1.00  0.00     0.032 C 
BRANCH   2   3
ATOM      3  C   UNL     1       5.908   8.171  12.058  1.00  0.00    -0.028 C 
ATOM      4  C   UNL     1       5.382   5.809  12.704  1.00  0.00     0.039 C 
ATOM      5  C   UNL     1       6.336   6.952  12.456  1.00  0.00    -0.080 C 
ATOM      6  C   UNL     1       7.803   6.718  12.709  1.00  0.00     0.039 C 
ENDBRANCH   2   3
ENDBRANCH   1   2
BRANCH   1   7
ATOM      7  C   UNL     1       3.543  10.838  11.694  1.00  0.00    -0.055 C 
ATOM      8  C   UNL     1       2.474  10.427  12.384  1.00  0.00     0.012 C 
BRANCH   7   9
ATOM      9  C   UNL     1       3.897  12.281  11.721  1.00  0.00    -0.005 C 
ATOM     10  C   UNL     1       3.952  13.015  12.833  1.00  0.00     0.009 C 
ENDBRANCH   7   9
ENDBRANCH   1   7
TORSDOF 4
ENDMDL
MODEL 4
REMARK VINA RESULT:    -4.887      1.554      2.346
REMARK INTER + INTRA:          -6.282
REMARK INTER:                  -5.961
REMARK INTRA:                  -0.320
REMARK UNBOUND:                -0.252
REMARK SMILES C=CC(=C)CCC=C(C)C
REMARK SMILES IDX 5 1 6 2 7 3 9 4 8 5 10 6 3 7 4 8 2 9 1 10
REMARK H PARENT
REMARK Flexibility Score: inf
ROOT
ATOM      1  C   UNL     1       4.662   8.943  10.948  1.00  0.00     0.039 C 
ENDROOT
BRANCH   1   2
ATOM      2  C   UNL     1       3.563   9.801  11.585  1.00  0.00     0.032 C 
BRANCH   2   3
ATOM      3  C   UNL     1       4.026  11.227  11.752  1.00  0.00    -0.028 C 
ATOM      4  C   UNL     1       2.175  11.813  13.334  1.00  0.00     0.039 C 
ATOM      5  C   UNL     1       3.431  12.132  12.560  1.00  0.00    -0.080 C 
ATOM      6  C   UNL     1       3.997  13.524  12.672  1.00  0.00     0.039 C 
ENDBRANCH   2   3
ENDBRANCH   1   2
BRANCH   1   7
ATOM      7  C   UNL     1       5.340   8.079  11.989  1.00  0.00    -0.055 C 
ATOM      8  C   UNL     1       6.641   8.261  12.239  1.00  0.00     0.012 C 
BRANCH   7   9
ATOM      9  C   UNL     1       4.598   7.064  12.781  1.00  0.00    -0.005 C 
ATOM     10  C   UNL     1       4.415   5.802  12.392  1.00  0.00     0.009 C 
ENDBRANCH   7   9
ENDBRANCH   1   7
TORSDOF 4
ENDMDL
MODEL 5
REMARK VINA RESULT:    -4.714      1.373      1.696
REMARK INTER + INTRA:          -6.068
REMARK INTER:                  -5.804
REMARK INTRA:                  -0.265
REMARK UNBOUND:                -0.252
REMARK SMILES C=CC(=C)CCC=C(C)C
REMARK SMILES IDX 5 1 6 2 7 3 9 4 8 5 10 6 3 7 4 8 2 9 1 10
REMARK H PARENT
REMARK Flexibility Score: inf
ROOT
ATOM      1  C   UNL     1       4.768   7.479  12.556  1.00  0.00     0.039 C 
ENDROOT
BRANCH   1   2
ATOM      2  C   UNL     1       4.953   8.807  11.812  1.00  0.00     0.032 C 
BRANCH   2   3
ATOM      3  C   UNL     1       3.630   9.324  11.305  1.00  0.00    -0.028 C 
ATOM      4  C   UNL     1       3.996  11.626  12.222  1.00  0.00     0.039 C 
ATOM      5  C   UNL     1       3.202  10.598  11.454  1.00  0.00    -0.080 C 
ATOM      6  C   UNL     1       1.872  11.014  10.880  1.00  0.00     0.039 C 
ENDBRANCH   2   3
ENDBRANCH   1   2
BRANCH   1   7
ATOM      7  C   UNL     1       6.091   6.759  12.708  1.00  0.00    -0.055 C 
ATOM      8  C   UNL     1       6.100   5.424  12.774  1.00  0.00     0.012 C 
BRANCH   7   9
ATOM      9  C   UNL     1       7.388   7.483  12.737  1.00  0.00    -0.005 C 
ATOM     10  C   UNL     1       8.002   7.868  13.856  1.00  0.00     0.009 C 
ENDBRANCH   7   9
ENDBRANCH   1   7
TORSDOF 4
ENDMDL
MODEL 6
REMARK VINA RESULT:    -4.637      1.456      2.322
REMARK INTER + INTRA:          -5.974
REMARK INTER:                  -5.681
REMARK INTRA:                  -0.292
REMARK UNBOUND:                -0.252
REMARK SMILES C=CC(=C)CCC=C(C)C
REMARK SMILES IDX 5 1 6 2 7 3 9 4 8 5 10 6 3 7 4 8 2 9 1 10
REMARK H PARENT
REMARK Flexibility Score: inf
ROOT
ATOM      1  C   UNL     1       4.428   8.651  11.072  1.00  0.00     0.039 C 
ENDROOT
BRANCH   1   2
ATOM      2  C   UNL     1       4.269  10.107  11.523  1.00  0.00     0.032 C 
BRANCH   2   3
ATOM      3  C   UNL     1       2.892  10.344  12.090  1.00  0.00    -0.028 C 
ATOM      4  C   UNL     1       3.460  12.630  12.943  1.00  0.00     0.039 C 
ATOM      5  C   UNL     1       2.505  11.486  12.702  1.00  0.00    -0.080 C 
ATOM      6  C   UNL     1       1.092  11.625  13.207  1.00  0.00     0.039 C 
ENDBRANCH   2   3
ENDBRANCH   1   2
BRANCH   1   7
ATOM      7  C   UNL     1       5.247   7.865  12.073  1.00  0.00    -0.055 C 
ATOM      8  C   UNL     1       4.690   6.816  12.687  1.00  0.00     0.012 C 
BRANCH   7   9
ATOM      9  C   UNL     1       6.668   8.188  12.363  1.00  0.00    -0.005 C 
ATOM     10  C   UNL     1       7.343   7.712  13.410  1.00  0.00     0.009 C 
ENDBRANCH   7   9
ENDBRANCH   1   7
TORSDOF 4
ENDMDL
MODEL 7
REMARK VINA RESULT:    -4.586      1.545      2.874
REMARK INTER + INTRA:          -5.910
REMARK INTER:                  -5.419
REMARK INTRA:                  -0.490
REMARK UNBOUND:                -0.252
REMARK SMILES C=CC(=C)CCC=C(C)C
REMARK SMILES IDX 5 1 6 2 7 3 9 4 8 5 10 6 3 7 4 8 2 9 1 10
REMARK H PARENT
REMARK Flexibility Score: inf
ROOT
ATOM      1  C   UNL     1       6.094   4.875  12.866  1.00  0.00     0.039 C 
ENDROOT
BRANCH   1   2
ATOM      2  C   UNL     1       4.726   5.557  12.751  1.00  0.00     0.032 C 
BRANCH   2   3
ATOM      3  C   UNL     1       4.817   6.797  11.897  1.00  0.00    -0.028 C 
ATOM      4  C   UNL     1       3.533   8.206  13.522  1.00  0.00     0.039 C 
ATOM      5  C   UNL     1       4.313   8.002  12.246  1.00  0.00    -0.080 C 
ATOM      6  C   UNL     1       4.487   9.183  11.326  1.00  0.00     0.039 C 
ENDBRANCH   2   3
ENDBRANCH   1   2
BRANCH   1   7
ATOM      7  C   UNL     1       7.200   5.903  12.959  1.00  0.00    -0.055 C 
ATOM      8  C   UNL     1       8.011   6.083  11.911  1.00  0.00     0.012 C 
BRANCH   7   9
ATOM      9  C   UNL     1       7.389   6.758  14.160  1.00  0.00    -0.005 C 
ATOM     10  C   UNL     1       7.568   8.079  14.115  1.00  0.00     0.009 C 
ENDBRANCH   7   9
ENDBRANCH   1   7
TORSDOF 4
ENDMDL
