MODEL 1
REMARK VINA RESULT:    -5.823      0.000      0.000
REMARK INTER + INTRA:          -8.094
REMARK INTER:                  -7.866
REMARK INTRA:                  -0.228
REMARK UNBOUND:                -0.228
REMARK SMILES C[C@H](O)[C@@H](O)[C@@H](O)[C@@H](O)C=O
REMARK SMILES IDX 4 1 2 2 1 3 3 4 6 6 8 7 10 8 11 9 9 10 7 12 5 14
REMARK H PARENT 3 5 9 11 7 13 5 15
REMARK Flexibility Score: inf
ROOT
ATOM      1  C   UNL     1     -27.990   1.442  32.826  1.00  0.00     0.174 C 
ENDROOT
BRANCH   1   2
ATOM      2  C   UNL     1     -26.933   2.555  33.066  1.00  0.00     0.142 C 
ATOM      3  C   UNL     1     -27.597   3.923  33.290  1.00  0.00     0.041 C 
BRANCH   2   4
ATOM      4  O   UNL     1     -26.000   2.627  32.016  1.00  0.00    -0.391 OA
ATOM      5  H   UNL     1     -25.595   3.534  32.020  1.00  0.00     0.211 HD
ENDBRANCH   2   4
ENDBRANCH   1   2
BRANCH   1   6
ATOM      6  C   UNL     1     -28.792   1.560  31.497  1.00  0.00     0.181 C 
BRANCH   6   7
ATOM      7  C   UNL     1     -30.222   2.166  31.635  1.00  0.00     0.209 C 
BRANCH   7   8
ATOM      8  C   UNL     1     -31.267   1.100  31.866  1.00  0.00     0.258 C 
ATOM      9  O   UNL     1     -31.618   0.810  32.999  1.00  0.00    -0.300 OA
ENDBRANCH   7   8
BRANCH   7  10
ATOM     10  O   UNL     1     -30.573   2.911  30.495  1.00  0.00    -0.383 OA
ATOM     11  H   UNL     1     -31.380   2.494  30.094  1.00  0.00     0.211 HD
ENDBRANCH   7  10
ENDBRANCH   6   7
BRANCH   6  12
ATOM     12  O   UNL     1     -28.867   0.273  30.930  1.00  0.00    -0.387 OA
ATOM     13  H   UNL     1     -28.683   0.364  29.958  1.00  0.00     0.211 HD
ENDBRANCH   6  12
ENDBRANCH   1   6
BRANCH   1  14
ATOM     14  O   UNL     1     -28.832   1.270  33.942  1.00  0.00    -0.388 OA
ATOM     15  H   UNL     1     -28.286   1.367  34.762  1.00  0.00     0.211 HD
ENDBRANCH   1  14
TORSDOF 8
ENDMDL
MODEL 2
REMARK VINA RESULT:    -5.640      1.449      2.104
REMARK INTER + INTRA:          -7.847
REMARK INTER:                  -7.475
REMARK INTRA:                  -0.372
REMARK UNBOUND:                -0.228
REMARK SMILES C[C@H](O)[C@@H](O)[C@@H](O)[C@@H](O)C=O
REMARK SMILES IDX 4 1 2 2 1 3 3 4 6 6 8 7 10 8 11 9 9 10 7 12 5 14
REMARK H PARENT 3 5 9 11 7 13 5 15
REMARK Flexibility Score: inf
ROOT
ATOM      1  C   UNL     1     -28.786   1.502  31.331  1.00  0.00     0.174 C 
ENDROOT
BRANCH   1   2
ATOM      2  C   UNL     1     -27.946   1.487  32.638  1.00  0.00     0.142 C 
ATOM      3  C   UNL     1     -27.051   2.732  32.747  1.00  0.00     0.041 C 
BRANCH   2   4
ATOM      4  O   UNL     1     -27.174   0.315  32.752  1.00  0.00    -0.391 OA
ATOM      5  H   UNL     1     -27.750  -0.460  32.523  1.00  0.00     0.211 HD
ENDBRANCH   2   4
ENDBRANCH   1   2
BRANCH   1   6
ATOM      6  C   UNL     1     -30.223   2.085  31.470  1.00  0.00     0.181 C 
BRANCH   6   7
ATOM      7  C   UNL     1     -30.698   2.342  32.933  1.00  0.00     0.209 C 
BRANCH   7   8
ATOM      8  C   UNL     1     -31.747   1.346  33.369  1.00  0.00     0.258 C 
ATOM      9  O   UNL     1     -32.926   1.540  33.120  1.00  0.00    -0.300 OA
ENDBRANCH   7   8
BRANCH   7  10
ATOM     10  O   UNL     1     -31.212   3.642  33.081  1.00  0.00    -0.383 OA
ATOM     11  H   UNL     1     -32.076   3.687  32.592  1.00  0.00     0.211 HD
ENDBRANCH   7  10
ENDBRANCH   6   7
BRANCH   6  12
ATOM     12  O   UNL     1     -31.106   1.197  30.826  1.00  0.00    -0.387 OA
ATOM     13  H   UNL     1     -30.830   0.274  31.066  1.00  0.00     0.211 HD
ENDBRANCH   6  12
ENDBRANCH   1   6
BRANCH   1  14
ATOM     14  O   UNL     1     -28.780   0.247  30.692  1.00  0.00    -0.388 OA
ATOM     15  H   UNL     1     -27.844  -0.067  30.630  1.00  0.00     0.211 HD
ENDBRANCH   1  14
TORSDOF 8
ENDMDL
MODEL 3
REMARK VINA RESULT:    -5.604      1.444      4.325
REMARK INTER + INTRA:          -7.798
REMARK INTER:                  -7.398
REMARK INTRA:                  -0.400
REMARK UNBOUND:                -0.228
REMARK SMILES C[C@H](O)[C@@H](O)[C@@H](O)[C@@H](O)C=O
REMARK SMILES IDX 4 1 2 2 1 3 3 4 6 6 8 7 10 8 11 9 9 10 7 12 5 14
REMARK H PARENT 3 5 9 11 7 13 5 15
REMARK Flexibility Score: inf
ROOT
ATOM      1  C   UNL     1     -31.098   1.859  31.402  1.00  0.00     0.174 C 
ENDROOT
BRANCH   1   2
ATOM      2  C   UNL     1     -32.297   1.822  32.390  1.00  0.00     0.142 C 
ATOM      3  C   UNL     1     -31.977   0.979  33.634  1.00  0.00     0.041 C 
BRANCH   2   4
ATOM      4  O   UNL     1     -33.472   1.357  31.770  1.00  0.00    -0.391 OA
ATOM      5  H   UNL     1     -34.240   1.874  32.131  1.00  0.00     0.211 HD
ENDBRANCH   2   4
ENDBRANCH   1   2
BRANCH   1   6
ATOM      6  C   UNL     1     -29.725   1.445  32.007  1.00  0.00     0.181 C 
BRANCH   6   7
ATOM      7  C   UNL     1     -28.753   2.624  32.318  1.00  0.00     0.209 C 
BRANCH   7   8
ATOM      8  C   UNL     1     -27.480   2.148  32.977  1.00  0.00     0.258 C 
ATOM      9  O   UNL     1     -26.518   2.893  33.078  1.00  0.00    -0.300 OA
ENDBRANCH   7   8
BRANCH   7  10
ATOM     10  O   UNL     1     -29.364   3.584  33.144  1.00  0.00    -0.383 OA
ATOM     11  H   UNL     1     -30.107   3.139  33.631  1.00  0.00     0.211 HD
ENDBRANCH   7  10
ENDBRANCH   6   7
BRANCH   6  12
ATOM     12  O   UNL     1     -29.118   0.546  31.108  1.00  0.00    -0.387 OA
ATOM     13  H   UNL     1     -29.671   0.530  30.283  1.00  0.00     0.211 HD
ENDBRANCH   6  12
ENDBRANCH   1   6
BRANCH   1  14
ATOM     14  O   UNL     1     -31.028   3.084  30.711  1.00  0.00    -0.388 OA
ATOM     15  H   UNL     1     -30.688   3.774  31.334  1.00  0.00     0.211 HD
ENDBRANCH   1  14
TORSDOF 8
ENDMDL
MODEL 4
REMARK VINA RESULT:    -5.439      1.806      2.489
REMARK INTER + INTRA:          -7.575
REMARK INTER:                  -6.902
REMARK INTRA:                  -0.673
REMARK UNBOUND:                -0.228
REMARK SMILES C[C@H](O)[C@@H](O)[C@@H](O)[C@@H](O)C=O
REMARK SMILES IDX 4 1 2 2 1 3 3 4 6 6 8 7 10 8 11 9 9 10 7 12 5 14
REMARK H PARENT 3 5 9 11 7 13 5 15
REMARK Flexibility Score: inf
ROOT
ATOM      1  C   UNL     1     -29.282   3.012  32.004  1.00  0.00     0.174 C 
ENDROOT
BRANCH   1   2
ATOM      2  C   UNL     1     -27.780   3.205  32.351  1.00  0.00     0.142 C 
ATOM      3  C   UNL     1     -27.297   2.158  33.366  1.00  0.00     0.041 C 
BRANCH   2   4
ATOM      4  O   UNL     1     -27.514   4.505  32.821  1.00  0.00    -0.391 OA
ATOM      5  H   UNL     1     -26.549   4.563  33.048  1.00  0.00     0.211 HD
ENDBRANCH   2   4
ENDBRANCH   1   2
BRANCH   1   6
ATOM      6  C   UNL     1     -30.250   2.986  33.223  1.00  0.00     0.181 C 
BRANCH   6   7
ATOM      7  C   UNL     1     -31.768   2.968  32.866  1.00  0.00     0.209 C 
BRANCH   7   8
ATOM      8  C   UNL     1     -32.367   1.590  33.018  1.00  0.00     0.258 C 
ATOM      9  O   UNL     1     -31.649   0.603  33.061  1.00  0.00    -0.300 OA
ENDBRANCH   7   8
BRANCH   7  10
ATOM     10  O   UNL     1     -31.988   3.420  31.552  1.00  0.00    -0.383 OA
ATOM     11  H   UNL     1     -31.472   2.834  30.937  1.00  0.00     0.211 HD
ENDBRANCH   7  10
ENDBRANCH   6   7
BRANCH   6  12
ATOM     12  O   UNL     1     -29.957   4.108  34.022  1.00  0.00    -0.387 OA
ATOM     13  H   UNL     1     -30.216   4.917  33.508  1.00  0.00     0.211 HD
ENDBRANCH   6  12
ENDBRANCH   1   6
BRANCH   1  14
ATOM     14  O   UNL     1     -29.482   1.916  31.142  1.00  0.00    -0.388 OA
ATOM     15  H   UNL     1     -28.670   1.350  31.163  1.00  0.00     0.211 HD
ENDBRANCH   1  14
TORSDOF 8
ENDMDL
MODEL 5
REMARK VINA RESULT:    -5.438      8.039      9.265
REMARK INTER + INTRA:          -7.574
REMARK INTER:                  -7.191
REMARK INTRA:                  -0.383
REMARK UNBOUND:                -0.228
REMARK SMILES C[C@H](O)[C@@H](O)[C@@H](O)[C@@H](O)C=O
REMARK SMILES IDX 4 1 2 2 1 3 3 4 6 6 8 7 10 8 11 9 9 10 7 12 5 14
REMARK H PARENT 3 5 9 11 7 13 5 15
REMARK Flexibility Score: inf
ROOT
ATOM      1  C   UNL     1     -28.261   0.139  24.265  1.00  0.00     0.174 C 
ENDROOT
BRANCH   1   2
ATOM      2  C   UNL     1     -27.624  -0.077  25.666  1.00  0.00     0.142 C 
ATOM      3  C   UNL     1     -28.663  -0.563  26.688  1.00  0.00     0.041 C 
BRANCH   2   4
ATOM      4  O   UNL     1     -26.980   1.084  26.133  1.00  0.00    -0.391 OA
ATOM      5  H   UNL     1     -26.007   0.994  25.954  1.00  0.00     0.211 HD
ENDBRANCH   2   4
ENDBRANCH   1   2
BRANCH   1   6
ATOM      6  C   UNL     1     -27.256   0.191  23.077  1.00  0.00     0.181 C 
BRANCH   6   7
ATOM      7  C   UNL     1     -27.539  -0.820  21.923  1.00  0.00     0.209 C 
BRANCH   7   8
ATOM      8  C   UNL     1     -28.569  -1.852  22.316  1.00  0.00     0.258 C 
ATOM      9  O   UNL     1     -29.651  -1.895  21.750  1.00  0.00    -0.300 OA
ENDBRANCH   7   8
BRANCH   7  10
ATOM     10  O   UNL     1     -26.362  -1.478  21.522  1.00  0.00    -0.383 OA
ATOM     11  H   UNL     1     -26.195  -2.220  22.161  1.00  0.00     0.211 HD
ENDBRANCH   7  10
ENDBRANCH   6   7
BRANCH   6  12
ATOM     12  O   UNL     1     -25.967  -0.026  23.601  1.00  0.00    -0.387 OA
ATOM     13  H   UNL     1     -25.852  -1.005  23.717  1.00  0.00     0.211 HD
ENDBRANCH   6  12
ENDBRANCH   1   6
BRANCH   1  14
ATOM     14  O   UNL     1     -29.150   1.231  24.258  1.00  0.00    -0.388 OA
ATOM     15  H   UNL     1     -29.562   1.292  23.359  1.00  0.00     0.211 HD
ENDBRANCH   1  14
TORSDOF 8
ENDMDL
MODEL 6
REMARK VINA RESULT:    -5.433      8.064      9.399
REMARK INTER + INTRA:          -7.567
REMARK INTER:                  -7.184
REMARK INTRA:                  -0.383
REMARK UNBOUND:                -0.228
REMARK SMILES C[C@H](O)[C@@H](O)[C@@H](O)[C@@H](O)C=O
REMARK SMILES IDX 4 1 2 2 1 3 3 4 6 6 8 7 10 8 11 9 9 10 7 12 5 14
REMARK H PARENT 3 5 9 11 7 13 5 15
REMARK Flexibility Score: inf
ROOT
ATOM      1  C   UNL     1     -29.823  -0.958  24.581  1.00  0.00     0.174 C 
ENDROOT
BRANCH   1   2
ATOM      2  C   UNL     1     -30.635  -0.142  25.625  1.00  0.00     0.142 C 
ATOM      3  C   UNL     1     -29.727   0.791  26.440  1.00  0.00     0.041 C 
BRANCH   2   4
ATOM      4  O   UNL     1     -31.378  -0.977  26.480  1.00  0.00    -0.391 OA
ATOM      5  H   UNL     1     -32.103  -1.400  25.950  1.00  0.00     0.211 HD
ENDBRANCH   2   4
ENDBRANCH   1   2
BRANCH   1   6
ATOM      6  C   UNL     1     -30.662  -1.600  23.438  1.00  0.00     0.181 C 
BRANCH   6   7
ATOM      7  C   UNL     1     -30.180  -1.267  21.992  1.00  0.00     0.209 C 
BRANCH   7   8
ATOM      8  C   UNL     1     -29.132  -0.179  21.983  1.00  0.00     0.258 C 
ATOM      9  O   UNL     1     -27.986  -0.424  21.639  1.00  0.00    -0.300 OA
ENDBRANCH   7   8
BRANCH   7  10
ATOM     10  O   UNL     1     -31.254  -0.873  21.175  1.00  0.00    -0.383 OA
ATOM     11  H   UNL     1     -31.013  -0.009  20.749  1.00  0.00     0.211 HD
ENDBRANCH   7  10
ENDBRANCH   6   7
BRANCH   6  12
ATOM     12  O   UNL     1     -31.997  -1.187  23.607  1.00  0.00    -0.387 OA
ATOM     13  H   UNL     1     -32.431  -1.204  22.714  1.00  0.00     0.211 HD
ENDBRANCH   6  12
ENDBRANCH   1   6
BRANCH   1  14
ATOM     14  O   UNL     1     -28.965  -1.889  25.199  1.00  0.00    -0.388 OA
ATOM     15  H   UNL     1     -29.504  -2.452  25.810  1.00  0.00     0.211 HD
ENDBRANCH   1  14
TORSDOF 8
ENDMDL
MODEL 7
REMARK VINA RESULT:    -5.428      8.372      9.308
REMARK INTER + INTRA:          -7.561
REMARK INTER:                  -7.068
REMARK INTRA:                  -0.493
REMARK UNBOUND:                -0.228
REMARK SMILES C[C@H](O)[C@@H](O)[C@@H](O)[C@@H](O)C=O
REMARK SMILES IDX 4 1 2 2 1 3 3 4 6 6 8 7 10 8 11 9 9 10 7 12 5 14
REMARK H PARENT 3 5 9 11 7 13 5 15
REMARK Flexibility Score: inf
ROOT
ATOM      1  C   UNL     1     -28.474  -1.616  22.874  1.00  0.00     0.174 C 
ENDROOT
BRANCH   1   2
ATOM      2  C   UNL     1     -27.131  -1.004  23.361  1.00  0.00     0.142 C 
ATOM      3  C   UNL     1     -27.120   0.525  23.207  1.00  0.00     0.041 C 
BRANCH   2   4
ATOM      4  O   UNL     1     -26.026  -1.573  22.701  1.00  0.00    -0.391 OA
ATOM      5  H   UNL     1     -26.118  -2.561  22.736  1.00  0.00     0.211 HD
ENDBRANCH   2   4
ENDBRANCH   1   2
BRANCH   1   6
ATOM      6  C   UNL     1     -29.431  -2.102  24.001  1.00  0.00     0.181 C 
BRANCH   6   7
ATOM      7  C   UNL     1     -30.833  -1.418  24.024  1.00  0.00     0.209 C 
BRANCH   7   8
ATOM      8  C   UNL     1     -30.725   0.087  24.080  1.00  0.00     0.258 C 
ATOM      9  O   UNL     1     -30.162   0.634  25.016  1.00  0.00    -0.300 OA
ENDBRANCH   7   8
BRANCH   7  10
ATOM     10  O   UNL     1     -31.599  -1.862  25.117  1.00  0.00    -0.383 OA
ATOM     11  H   UNL     1     -32.556  -1.705  24.903  1.00  0.00     0.211 HD
ENDBRANCH   7  10
ENDBRANCH   6   7
BRANCH   6  12
ATOM     12  O   UNL     1     -28.777  -1.901  25.232  1.00  0.00    -0.387 OA
ATOM     13  H   UNL     1     -29.476  -1.737  25.918  1.00  0.00     0.211 HD
ENDBRANCH   6  12
ENDBRANCH   1   6
BRANCH   1  14
ATOM     14  O   UNL     1     -28.272  -2.598  21.886  1.00  0.00    -0.388 OA
ATOM     15  H   UNL     1     -29.125  -3.083  21.750  1.00  0.00     0.211 HD
ENDBRANCH   1  14
TORSDOF 8
ENDMDL
MODEL 8
REMARK VINA RESULT:    -5.425      7.465      9.204
REMARK INTER + INTRA:          -7.556
REMARK INTER:                  -6.998
REMARK INTRA:                  -0.558
REMARK UNBOUND:                -0.228
REMARK SMILES C[C@H](O)[C@@H](O)[C@@H](O)[C@@H](O)C=O
REMARK SMILES IDX 4 1 2 2 1 3 3 4 6 6 8 7 10 8 11 9 9 10 7 12 5 14
REMARK H PARENT 3 5 9 11 7 13 5 15
REMARK Flexibility Score: inf
ROOT
ATOM      1  C   UNL     1     -30.351  -0.551  24.920  1.00  0.00     0.174 C 
ENDROOT
BRANCH   1   2
ATOM      2  C   UNL     1     -30.693  -0.921  23.450  1.00  0.00     0.142 C 
ATOM      3  C   UNL     1     -31.607   0.131  22.803  1.00  0.00     0.041 C 
BRANCH   2   4
ATOM      4  O   UNL     1     -31.270  -2.201  23.353  1.00  0.00    -0.391 OA
ATOM      5  H   UNL     1     -31.585  -2.331  22.421  1.00  0.00     0.211 HD
ENDBRANCH   2   4
ENDBRANCH   1   2
BRANCH   1   6
ATOM      6  C   UNL     1     -28.897  -0.881  25.369  1.00  0.00     0.181 C 
BRANCH   6   7
ATOM      7  C   UNL     1     -27.784  -0.009  24.710  1.00  0.00     0.209 C 
BRANCH   7   8
ATOM      8  C   UNL     1     -26.778  -0.850  23.961  1.00  0.00     0.258 C 
ATOM      9  O   UNL     1     -27.043  -1.297  22.856  1.00  0.00    -0.300 OA
ENDBRANCH   7   8
BRANCH   7  10
ATOM     10  O   UNL     1     -27.109   0.766  25.669  1.00  0.00    -0.383 OA
ATOM     11  H   UNL     1     -26.531   0.158  26.202  1.00  0.00     0.211 HD
ENDBRANCH   7  10
ENDBRANCH   6   7
BRANCH   6  12
ATOM     12  O   UNL     1     -28.666  -2.243  25.096  1.00  0.00    -0.387 OA
ATOM     13  H   UNL     1     -29.059  -2.440  24.205  1.00  0.00     0.211 HD
ENDBRANCH   6  12
ENDBRANCH   1   6
BRANCH   1  14
ATOM     14  O   UNL     1     -31.311  -1.048  25.822  1.00  0.00    -0.388 OA
ATOM     15  H   UNL     1     -31.992  -1.550  25.307  1.00  0.00     0.211 HD
ENDBRANCH   1  14
TORSDOF 8
ENDMDL
MODEL 9
REMARK VINA RESULT:    -5.424      8.443      9.804
REMARK INTER + INTRA:          -7.554
REMARK INTER:                  -7.173
REMARK INTRA:                  -0.382
REMARK UNBOUND:                -0.228
REMARK SMILES C[C@H](O)[C@@H](O)[C@@H](O)[C@@H](O)C=O
REMARK SMILES IDX 4 1 2 2 1 3 3 4 6 6 8 7 10 8 11 9 9 10 7 12 5 14
REMARK H PARENT 3 5 9 11 7 13 5 15
REMARK Flexibility Score: inf
ROOT
ATOM      1  C   UNL     1     -27.962  -1.256  22.862  1.00  0.00     0.174 C 
ENDROOT
BRANCH   1   2
ATOM      2  C   UNL     1     -27.467  -0.781  21.468  1.00  0.00     0.142 C 
ATOM      3  C   UNL     1     -28.614  -0.741  20.446  1.00  0.00     0.041 C 
BRANCH   2   4
ATOM      4  O   UNL     1     -26.408  -1.575  20.990  1.00  0.00    -0.391 OA
ATOM      5  H   UNL     1     -26.734  -2.088  20.205  1.00  0.00     0.211 HD
ENDBRANCH   2   4
ENDBRANCH   1   2
BRANCH   1   6
ATOM      6  C   UNL     1     -27.062  -0.848  24.064  1.00  0.00     0.181 C 
BRANCH   6   7
ATOM      7  C   UNL     1     -27.777  -0.028  25.182  1.00  0.00     0.209 C 
BRANCH   7   8
ATOM      8  C   UNL     1     -29.039   0.631  24.680  1.00  0.00     0.258 C 
ATOM      9  O   UNL     1     -30.116   0.384  25.199  1.00  0.00    -0.300 OA
ENDBRANCH   7   8
BRANCH   7  10
ATOM     10  O   UNL     1     -26.926   0.958  25.713  1.00  0.00    -0.383 OA
ATOM     11  H   UNL     1     -27.481   1.581  26.254  1.00  0.00     0.211 HD
ENDBRANCH   7  10
ENDBRANCH   6   7
BRANCH   6  12
ATOM     12  O   UNL     1     -25.974  -0.115  23.551  1.00  0.00    -0.387 OA
ATOM     13  H   UNL     1     -26.318   0.452  22.812  1.00  0.00     0.211 HD
ENDBRANCH   6  12
ENDBRANCH   1   6
BRANCH   1  14
ATOM     14  O   UNL     1     -28.266  -2.631  22.868  1.00  0.00    -0.388 OA
ATOM     15  H   UNL     1     -27.686  -3.081  22.203  1.00  0.00     0.211 HD
ENDBRANCH   1  14
TORSDOF 8
ENDMDL
