MODEL 1
REMARK VINA RESULT:    -5.970      0.000      0.000
REMARK INTER + INTRA:          -6.543
REMARK INTER:                  -6.494
REMARK INTRA:                  -0.049
REMARK UNBOUND:                -0.049
REMARK SMILES COc1cc2ccc(=O)oc2cc1O
REMARK SMILES IDX 3 1 13 2 12 3 11 4 5 5 4 6 6 7 7 8 8 9 9 10 10 11 2 12 1 13
REMARK SMILES IDX 14 14
REMARK H PARENT 14 15
REMARK Flexibility Score: inf
ROOT
ATOM      1  C   UNL     1      12.479  10.762  14.318  1.00  0.00     0.161 A 
ATOM      2  C   UNL     1      11.846  11.523  15.314  1.00  0.00     0.161 A 
ATOM      3  C   UNL     1      10.462  11.419  15.512  1.00  0.00     0.098 A 
ATOM      4  C   UNL     1       9.700  10.558  14.718  1.00  0.00     0.142 A 
ATOM      5  C   UNL     1      10.328   9.790  13.715  1.00  0.00     0.022 A 
ATOM      6  C   UNL     1      11.712   9.893  13.516  1.00  0.00     0.062 A 
ATOM      7  C   UNL     1       9.538   8.936  12.937  1.00  0.00     0.019 A 
ATOM      8  C   UNL     1       8.166   8.868  13.172  1.00  0.00     0.094 A 
ATOM      9  C   UNL     1       7.613   9.659  14.185  1.00  0.00     0.336 A 
ATOM     10  O   UNL     1       6.375   9.613  14.414  1.00  0.00    -0.246 OA
ATOM     11  O   UNL     1       8.387  10.463  14.910  1.00  0.00    -0.423 OA
ENDROOT
BRANCH   1  12
ATOM     12  O   UNL     1      13.867  10.899  14.156  1.00  0.00    -0.493 OA
ATOM     13  C   UNL     1      14.744   9.838  13.793  1.00  0.00     0.278 C 
ENDBRANCH   1  12
BRANCH   2  14
ATOM     14  O   UNL     1      12.604  12.383  16.106  1.00  0.00    -0.504 OA
ATOM     15  H   UNL     1      12.556  12.352  17.118  1.00  0.00     0.293 HD
ENDBRANCH   2  14
TORSDOF 2
ENDMDL
MODEL 2
REMARK VINA RESULT:    -5.584      1.920      4.856
REMARK INTER + INTRA:          -6.122
REMARK INTER:                  -6.070
REMARK INTRA:                  -0.052
REMARK UNBOUND:                -0.049
REMARK SMILES COc1cc2ccc(=O)oc2cc1O
REMARK SMILES IDX 3 1 13 2 12 3 11 4 5 5 4 6 6 7 7 8 8 9 9 10 10 11 2 12 1 13
REMARK SMILES IDX 14 14
REMARK H PARENT 14 15
REMARK Flexibility Score: inf
ROOT
ATOM      1  C   UNL     1       9.983   9.686  14.345  1.00  0.00     0.161 A 
ATOM      2  C   UNL     1      10.971  10.205  15.198  1.00  0.00     0.161 A 
ATOM      3  C   UNL     1      12.194  10.651  14.678  1.00  0.00     0.098 A 
ATOM      4  C   UNL     1      12.441  10.584  13.304  1.00  0.00     0.142 A 
ATOM      5  C   UNL     1      11.455  10.063  12.440  1.00  0.00     0.022 A 
ATOM      6  C   UNL     1      10.232   9.617  12.958  1.00  0.00     0.062 A 
ATOM      7  C   UNL     1      11.732  10.009  11.069  1.00  0.00     0.019 A 
ATOM      8  C   UNL     1      12.964  10.465  10.601  1.00  0.00     0.094 A 
ATOM      9  C   UNL     1      13.893  10.968  11.518  1.00  0.00     0.336 A 
ATOM     10  O   UNL     1      15.011  11.385  11.116  1.00  0.00    -0.246 OA
ATOM     11  O   UNL     1      13.604  11.008  12.816  1.00  0.00    -0.423 OA
ENDROOT
BRANCH   1  12
ATOM     12  O   UNL     1       8.774   9.252  14.909  1.00  0.00    -0.493 OA
ATOM     13  C   UNL     1       7.487   9.516  14.361  1.00  0.00     0.278 C 
ENDBRANCH   1  12
BRANCH   2  14
ATOM     14  O   UNL     1      10.725  10.274  16.568  1.00  0.00    -0.504 OA
ATOM     15  H   UNL     1       9.851   9.953  16.968  1.00  0.00     0.293 HD
ENDBRANCH   2  14
TORSDOF 2
ENDMDL
MODEL 3
REMARK VINA RESULT:    -5.311      2.095      2.969
REMARK INTER + INTRA:          -5.826
REMARK INTER:                  -5.767
REMARK INTRA:                  -0.060
REMARK UNBOUND:                -0.049
REMARK SMILES COc1cc2ccc(=O)oc2cc1O
REMARK SMILES IDX 3 1 13 2 12 3 11 4 5 5 4 6 6 7 7 8 8 9 9 10 10 11 2 12 1 13
REMARK SMILES IDX 14 14
REMARK H PARENT 14 15
REMARK Flexibility Score: inf
ROOT
ATOM      1  C   UNL     1      10.998  10.382  14.617  1.00  0.00     0.161 A 
ATOM      2  C   UNL     1       9.681  10.173  15.058  1.00  0.00     0.161 A 
ATOM      3  C   UNL     1       8.739   9.568  14.214  1.00  0.00     0.098 A 
ATOM      4  C   UNL     1       9.101   9.169  12.925  1.00  0.00     0.142 A 
ATOM      5  C   UNL     1      10.422   9.376  12.474  1.00  0.00     0.022 A 
ATOM      6  C   UNL     1      11.366   9.980  13.316  1.00  0.00     0.062 A 
ATOM      7  C   UNL     1      10.755   8.965  11.178  1.00  0.00     0.019 A 
ATOM      8  C   UNL     1       9.781   8.369  10.377  1.00  0.00     0.094 A 
ATOM      9  C   UNL     1       8.493   8.196  10.893  1.00  0.00     0.336 A 
ATOM     10  O   UNL     1       7.599   7.660  10.186  1.00  0.00    -0.246 OA
ATOM     11  O   UNL     1       8.203   8.597  12.129  1.00  0.00    -0.423 OA
ENDROOT
BRANCH   1  12
ATOM     12  O   UNL     1      11.908  10.991  15.495  1.00  0.00    -0.493 OA
ATOM     13  C   UNL     1      12.221  12.379  15.497  1.00  0.00     0.278 C 
ENDBRANCH   1  12
BRANCH   2  14
ATOM     14  O   UNL     1       9.318  10.570  16.344  1.00  0.00    -0.504 OA
ATOM     15  H   UNL     1       8.525  10.157  16.822  1.00  0.00     0.293 HD
ENDBRANCH   2  14
TORSDOF 2
ENDMDL
MODEL 4
REMARK VINA RESULT:    -5.303      1.950      5.147
REMARK INTER + INTRA:          -5.817
REMARK INTER:                  -5.769
REMARK INTRA:                  -0.047
REMARK UNBOUND:                -0.049
REMARK SMILES COc1cc2ccc(=O)oc2cc1O
REMARK SMILES IDX 3 1 13 2 12 3 11 4 5 5 4 6 6 7 7 8 8 9 9 10 10 11 2 12 1 13
REMARK SMILES IDX 14 14
REMARK H PARENT 14 15
REMARK Flexibility Score: inf
ROOT
ATOM      1  C   UNL     1      10.524  10.189  13.952  1.00  0.00     0.161 A 
ATOM      2  C   UNL     1      11.515  10.441  14.915  1.00  0.00     0.161 A 
ATOM      3  C   UNL     1      12.869  10.464  14.550  1.00  0.00     0.098 A 
ATOM      4  C   UNL     1      13.244  10.238  13.223  1.00  0.00     0.142 A 
ATOM      5  C   UNL     1      12.255   9.984  12.249  1.00  0.00     0.022 A 
ATOM      6  C   UNL     1      10.902   9.961  12.613  1.00  0.00     0.062 A 
ATOM      7  C   UNL     1      12.662   9.762  10.929  1.00  0.00     0.019 A 
ATOM      8  C   UNL     1      14.021   9.796  10.616  1.00  0.00     0.094 A 
ATOM      9  C   UNL     1      14.944  10.054  11.635  1.00  0.00     0.336 A 
ATOM     10  O   UNL     1      16.175  10.089  11.373  1.00  0.00    -0.246 OA
ATOM     11  O   UNL     1      14.530  10.262  12.882  1.00  0.00    -0.423 OA
ENDROOT
BRANCH   1  12
ATOM     12  O   UNL     1       9.183  10.175  14.363  1.00  0.00    -0.493 OA
ATOM     13  C   UNL     1       8.150   9.435  13.720  1.00  0.00     0.278 C 
ENDBRANCH   1  12
BRANCH   2  14
ATOM     14  O   UNL     1      11.143  10.667  16.239  1.00  0.00    -0.504 OA
ATOM     15  H   UNL     1      11.221  11.584  16.663  1.00  0.00     0.293 HD
ENDBRANCH   2  14
TORSDOF 2
ENDMDL
MODEL 5
REMARK VINA RESULT:    -5.261      1.897      2.777
REMARK INTER + INTRA:          -5.771
REMARK INTER:                  -5.707
REMARK INTRA:                  -0.065
REMARK UNBOUND:                -0.049
REMARK SMILES COc1cc2ccc(=O)oc2cc1O
REMARK SMILES IDX 3 1 13 2 12 3 11 4 5 5 4 6 6 7 7 8 8 9 9 10 10 11 2 12 1 13
REMARK SMILES IDX 14 14
REMARK H PARENT 14 15
REMARK Flexibility Score: inf
ROOT
ATOM      1  C   UNL     1      13.039   9.744  12.769  1.00  0.00     0.161 A 
ATOM      2  C   UNL     1      12.217   9.812  11.632  1.00  0.00     0.161 A 
ATOM      3  C   UNL     1      10.822   9.786  11.764  1.00  0.00     0.098 A 
ATOM      4  C   UNL     1      10.236   9.690  13.029  1.00  0.00     0.142 A 
ATOM      5  C   UNL     1      11.054   9.620  14.176  1.00  0.00     0.022 A 
ATOM      6  C   UNL     1      12.449   9.647  14.046  1.00  0.00     0.062 A 
ATOM      7  C   UNL     1      10.438   9.526  15.429  1.00  0.00     0.019 A 
ATOM      8  C   UNL     1       9.046   9.503  15.508  1.00  0.00     0.094 A 
ATOM      9  C   UNL     1       8.300   9.576  14.327  1.00  0.00     0.336 A 
ATOM     10  O   UNL     1       7.042   9.557  14.376  1.00  0.00    -0.246 OA
ATOM     11  O   UNL     1       8.911   9.665  13.148  1.00  0.00    -0.423 OA
ENDROOT
BRANCH   1  12
ATOM     12  O   UNL     1      14.431   9.774  12.589  1.00  0.00    -0.493 OA
ATOM     13  C   UNL     1      15.272   8.625  12.612  1.00  0.00     0.278 C 
ENDBRANCH   1  12
BRANCH   2  14
ATOM     14  O   UNL     1      12.799   9.908  10.369  1.00  0.00    -0.504 OA
ATOM     15  H   UNL     1      12.252  10.138   9.548  1.00  0.00     0.293 HD
ENDBRANCH   2  14
TORSDOF 2
ENDMDL
MODEL 6
REMARK VINA RESULT:    -5.099      2.310      5.744
REMARK INTER + INTRA:          -5.595
REMARK INTER:                  -5.530
REMARK INTRA:                  -0.065
REMARK UNBOUND:                -0.049
REMARK SMILES COc1cc2ccc(=O)oc2cc1O
REMARK SMILES IDX 3 1 13 2 12 3 11 4 5 5 4 6 6 7 7 8 8 9 9 10 10 11 2 12 1 13
REMARK SMILES IDX 14 14
REMARK H PARENT 14 15
REMARK Flexibility Score: inf
ROOT
ATOM      1  C   UNL     1      10.952   9.830  12.840  1.00  0.00     0.161 A 
ATOM      2  C   UNL     1      11.654   9.495  14.009  1.00  0.00     0.161 A 
ATOM      3  C   UNL     1      13.048   9.634  14.063  1.00  0.00     0.098 A 
ATOM      4  C   UNL     1      13.752  10.108  12.953  1.00  0.00     0.142 A 
ATOM      5  C   UNL     1      13.055  10.447  11.774  1.00  0.00     0.022 A 
ATOM      6  C   UNL     1      11.661  10.308  11.719  1.00  0.00     0.062 A 
ATOM      7  C   UNL     1      13.788  10.919  10.680  1.00  0.00     0.019 A 
ATOM      8  C   UNL     1      15.173  11.039  10.783  1.00  0.00     0.094 A 
ATOM      9  C   UNL     1      15.796  10.684  11.984  1.00  0.00     0.336 A 
ATOM     10  O   UNL     1      17.046  10.786  12.098  1.00  0.00    -0.246 OA
ATOM     11  O   UNL     1      15.075  10.238  13.010  1.00  0.00    -0.423 OA
ENDROOT
BRANCH   1  12
ATOM     12  O   UNL     1       9.558   9.675  12.831  1.00  0.00    -0.493 OA
ATOM     13  C   UNL     1       8.867   8.626  12.161  1.00  0.00     0.278 C 
ENDBRANCH   1  12
BRANCH   2  14
ATOM     14  O   UNL     1      10.954   9.022  15.118  1.00  0.00    -0.504 OA
ATOM     15  H   UNL     1      10.941   8.037  15.356  1.00  0.00     0.293 HD
ENDBRANCH   2  14
TORSDOF 2
ENDMDL
MODEL 7
REMARK VINA RESULT:    -5.007      3.282      4.881
REMARK INTER + INTRA:          -5.495
REMARK INTER:                  -5.430
REMARK INTRA:                  -0.065
REMARK UNBOUND:                -0.049
REMARK SMILES COc1cc2ccc(=O)oc2cc1O
REMARK SMILES IDX 3 1 13 2 12 3 11 4 5 5 4 6 6 7 7 8 8 9 9 10 10 11 2 12 1 13
REMARK SMILES IDX 14 14
REMARK H PARENT 14 15
REMARK Flexibility Score: inf
ROOT
ATOM      1  C   UNL     1      14.670   8.475  11.616  1.00  0.00     0.161 A 
ATOM      2  C   UNL     1      15.045   8.171  12.936  1.00  0.00     0.161 A 
ATOM      3  C   UNL     1      14.546   8.927  14.006  1.00  0.00     0.098 A 
ATOM      4  C   UNL     1      13.671   9.990  13.769  1.00  0.00     0.142 A 
ATOM      5  C   UNL     1      13.289  10.302  12.447  1.00  0.00     0.022 A 
ATOM      6  C   UNL     1      13.787   9.548  11.376  1.00  0.00     0.062 A 
ATOM      7  C   UNL     1      12.411  11.372  12.243  1.00  0.00     0.019 A 
ATOM      8  C   UNL     1      11.942  12.094  13.340  1.00  0.00     0.094 A 
ATOM      9  C   UNL     1      12.364  11.726  14.622  1.00  0.00     0.336 A 
ATOM     10  O   UNL     1      11.952  12.364  15.627  1.00  0.00    -0.246 OA
ATOM     11  O   UNL     1      13.200  10.704  14.788  1.00  0.00    -0.423 OA
ENDROOT
BRANCH   1  12
ATOM     12  O   UNL     1      15.195   7.692  10.577  1.00  0.00    -0.493 OA
ATOM     13  C   UNL     1      14.466   6.690   9.876  1.00  0.00     0.278 C 
ENDBRANCH   1  12
BRANCH   2  14
ATOM     14  O   UNL     1      15.918   7.111  13.174  1.00  0.00    -0.504 OA
ATOM     15  H   UNL     1      15.955   6.646  14.073  1.00  0.00     0.293 HD
ENDBRANCH   2  14
TORSDOF 2
ENDMDL
MODEL 8
REMARK VINA RESULT:    -4.993      2.143      5.244
REMARK INTER + INTRA:          -5.480
REMARK INTER:                  -5.435
REMARK INTRA:                  -0.045
REMARK UNBOUND:                -0.049
REMARK SMILES COc1cc2ccc(=O)oc2cc1O
REMARK SMILES IDX 3 1 13 2 12 3 11 4 5 5 4 6 6 7 7 8 8 9 9 10 10 11 2 12 1 13
REMARK SMILES IDX 14 14
REMARK H PARENT 14 15
REMARK Flexibility Score: inf
ROOT
ATOM      1  C   UNL     1      10.356   9.488  14.389  1.00  0.00     0.161 A 
ATOM      2  C   UNL     1       9.767   9.466  13.114  1.00  0.00     0.161 A 
ATOM      3  C   UNL     1      10.552   9.656  11.968  1.00  0.00     0.098 A 
ATOM      4  C   UNL     1      11.928   9.870  12.084  1.00  0.00     0.142 A 
ATOM      5  C   UNL     1      12.527   9.894  13.362  1.00  0.00     0.022 A 
ATOM      6  C   UNL     1      11.744   9.704  14.508  1.00  0.00     0.062 A 
ATOM      7  C   UNL     1      13.907  10.109  13.445  1.00  0.00     0.019 A 
ATOM      8  C   UNL     1      14.644  10.293  12.276  1.00  0.00     0.094 A 
ATOM      9  C   UNL     1      13.981  10.256  11.045  1.00  0.00     0.336 A 
ATOM     10  O   UNL     1      14.628  10.419   9.977  1.00  0.00    -0.246 OA
ATOM     11  O   UNL     1      12.668  10.049  10.994  1.00  0.00    -0.423 OA
ENDROOT
BRANCH   1  12
ATOM     12  O   UNL     1       9.531   9.294  15.508  1.00  0.00    -0.493 OA
ATOM     13  C   UNL     1       9.961   9.427  16.859  1.00  0.00     0.278 C 
ENDBRANCH   1  12
BRANCH   2  14
ATOM     14  O   UNL     1       8.395   9.252  12.996  1.00  0.00    -0.504 OA
ATOM     15  H   UNL     1       7.879   9.559  12.179  1.00  0.00     0.293 HD
ENDBRANCH   2  14
TORSDOF 2
ENDMDL
MODEL 9
REMARK VINA RESULT:    -4.973      2.186      3.233
REMARK INTER + INTRA:          -5.458
REMARK INTER:                  -5.403
REMARK INTRA:                  -0.055
REMARK UNBOUND:                -0.049
REMARK SMILES COc1cc2ccc(=O)oc2cc1O
REMARK SMILES IDX 3 1 13 2 12 3 11 4 5 5 4 6 6 7 7 8 8 9 9 10 10 11 2 12 1 13
REMARK SMILES IDX 14 14
REMARK H PARENT 14 15
REMARK Flexibility Score: inf
ROOT
ATOM      1  C   UNL     1      13.917  10.016  11.611  1.00  0.00     0.161 A 
ATOM      2  C   UNL     1      14.468   9.938  12.901  1.00  0.00     0.161 A 
ATOM      3  C   UNL     1      13.636   9.786  14.019  1.00  0.00     0.098 A 
ATOM      4  C   UNL     1      12.250   9.710  13.860  1.00  0.00     0.142 A 
ATOM      5  C   UNL     1      11.688   9.788  12.568  1.00  0.00     0.022 A 
ATOM      6  C   UNL     1      12.518   9.940  11.449  1.00  0.00     0.062 A 
ATOM      7  C   UNL     1      10.296   9.708  12.441  1.00  0.00     0.019 A 
ATOM      8  C   UNL     1       9.512   9.557  13.584  1.00  0.00     0.094 A 
ATOM      9  C   UNL     1      10.140   9.487  14.832  1.00  0.00     0.336 A 
ATOM     10  O   UNL     1       9.450   9.350  15.876  1.00  0.00    -0.246 OA
ATOM     11  O   UNL     1      11.465   9.565  14.924  1.00  0.00    -0.423 OA
ENDROOT
BRANCH   1  12
ATOM     12  O   UNL     1      14.788  10.169  10.521  1.00  0.00    -0.493 OA
ATOM     13  C   UNL     1      15.140  11.419   9.939  1.00  0.00     0.278 C 
ENDBRANCH   1  12
BRANCH   2  14
ATOM     14  O   UNL     1      15.850  10.013  13.061  1.00  0.00    -0.504 OA
ATOM     15  H   UNL     1      16.270  10.591  13.781  1.00  0.00     0.293 HD
ENDBRANCH   2  14
TORSDOF 2
ENDMDL
