MODEL 1
REMARK VINA RESULT:    -5.936      0.000      0.000
REMARK INTER + INTRA:          -8.062
REMARK INTER:                  -8.018
REMARK INTRA:                  -0.044
REMARK UNBOUND:                -0.044
REMARK SMILES O=c1c(-c2ccc(O)cc2)coc2c([C@@H]3O[C@@H](CO)[C@H](O)[C@H](O)[C@H]3O)c(O)ccc12
REMARK SMILES IDX 3 1 11 2 12 3 13 4 30 5 2 6 1 7 29 8 28 9 26 10 14 11 4 12
REMARK SMILES IDX 5 13 6 14 7 15 10 16 9 17 8 18 15 20 24 21 16 22 22 23 17 24
REMARK SMILES IDX 20 25 25 26 23 28 18 30 19 31 21 33 27 35
REMARK H PARENT 8 19 25 27 23 29 19 32 21 34 27 36
REMARK Flexibility Score: inf
ROOT
ATOM      1  C   UNL     1      -8.299   5.777   2.780  1.00  0.00     0.065 A 
ATOM      2  C   UNL     1      -7.579   5.188   1.735  1.00  0.00     0.208 A 
ATOM      3  O   UNL     1      -8.026   5.239   0.486  1.00  0.00    -0.463 OA
ATOM      4  C   UNL     1      -9.164   5.835   0.137  1.00  0.00     0.147 A 
ATOM      5  C   UNL     1      -9.976   6.413   1.144  1.00  0.00     0.066 A 
ATOM      6  C   UNL     1      -9.521   6.397   2.475  1.00  0.00     0.200 A 
ATOM      7  O   UNL     1     -10.219   6.908   3.395  1.00  0.00    -0.288 OA
ATOM      8  C   UNL     1     -11.225   6.948   0.803  1.00  0.00     0.020 A 
ATOM      9  C   UNL     1     -11.710   6.810  -0.492  1.00  0.00     0.047 A 
ATOM     10  C   UNL     1     -10.934   6.203  -1.482  1.00  0.00     0.125 A 
ATOM     11  C   UNL     1      -9.575   5.872  -1.226  1.00  0.00     0.069 A 
ENDROOT
BRANCH   1  12
ATOM     12  C   UNL     1      -7.788   5.697   4.168  1.00  0.00    -0.011 A 
ATOM     13  C   UNL     1      -6.837   6.621   4.637  1.00  0.00     0.013 A 
ATOM     14  C   UNL     1      -6.368   6.543   5.953  1.00  0.00     0.047 A 
ATOM     15  C   UNL     1      -6.844   5.548   6.813  1.00  0.00     0.115 A 
ATOM     16  C   UNL     1      -8.254   4.694   5.034  1.00  0.00     0.013 A 
ATOM     17  C   UNL     1      -7.785   4.620   6.347  1.00  0.00     0.047 A 
BRANCH  15  18
ATOM     18  O   UNL     1      -6.378   5.491   8.125  1.00  0.00    -0.508 OA
ATOM     19  H   UNL     1      -5.423   5.736   8.357  1.00  0.00     0.293 HD
ENDBRANCH  15  18
ENDBRANCH   1  12
BRANCH  11  20
ATOM     20  C   UNL     1      -8.637   5.457  -2.383  1.00  0.00     0.188 C 
ATOM     21  C   UNL     1      -8.803   6.273  -3.707  1.00  0.00     0.179 C 
ATOM     22  O   UNL     1      -7.262   5.356  -2.019  1.00  0.00    -0.362 OA
ATOM     23  C   UNL     1      -8.075   7.625  -3.645  1.00  0.00     0.177 C 
ATOM     24  C   UNL     1      -6.610   6.617  -1.891  1.00  0.00     0.176 C 
ATOM     25  C   UNL     1      -6.624   7.407  -3.213  1.00  0.00     0.177 C 
BRANCH  21  26
ATOM     26  O   UNL     1      -8.282   5.510  -4.769  1.00  0.00    -0.387 OA
ATOM     27  H   UNL     1      -7.666   4.839  -4.375  1.00  0.00     0.211 HD
ENDBRANCH  21  26
BRANCH  23  28
ATOM     28  O   UNL     1      -8.723   8.488  -2.743  1.00  0.00    -0.387 OA
ATOM     29  H   UNL     1      -9.580   8.052  -2.493  1.00  0.00     0.211 HD
ENDBRANCH  23  28
BRANCH  24  30
ATOM     30  C   UNL     1      -5.173   6.373  -1.402  1.00  0.00     0.191 C 
BRANCH  30  31
ATOM     31  O   UNL     1      -5.056   5.125  -0.773  1.00  0.00    -0.394 OA
ATOM     32  H   UNL     1      -5.614   4.487  -1.291  1.00  0.00     0.210 HD
ENDBRANCH  30  31
ENDBRANCH  24  30
BRANCH  25  33
ATOM     33  O   UNL     1      -5.987   8.647  -3.038  1.00  0.00    -0.388 OA
ATOM     34  H   UNL     1      -6.178   9.183  -3.853  1.00  0.00     0.211 HD
ENDBRANCH  25  33
ENDBRANCH  11  20
BRANCH  10  35
ATOM     35  O   UNL     1     -11.572   5.889  -2.684  1.00  0.00    -0.507 OA
ATOM     36  H   UNL     1     -11.608   6.527  -3.469  1.00  0.00     0.293 HD
ENDBRANCH  10  35
TORSDOF 9
ENDMDL
MODEL 2
REMARK VINA RESULT:    -5.867      1.530      2.208
REMARK INTER + INTRA:          -7.969
REMARK INTER:                  -8.827
REMARK INTRA:                   0.858
REMARK UNBOUND:                -0.044
REMARK SMILES O=c1c(-c2ccc(O)cc2)coc2c([C@@H]3O[C@@H](CO)[C@H](O)[C@H](O)[C@H]3O)c(O)ccc12
REMARK SMILES IDX 3 1 11 2 12 3 13 4 30 5 2 6 1 7 29 8 28 9 26 10 14 11 4 12
REMARK SMILES IDX 5 13 6 14 7 15 10 16 9 17 8 18 15 20 24 21 16 22 22 23 17 24
REMARK SMILES IDX 20 25 25 26 23 28 18 30 19 31 21 33 27 35
REMARK H PARENT 8 19 25 27 23 29 19 32 21 34 27 36
REMARK Flexibility Score: inf
ROOT
ATOM      1  C   UNL     1      -7.569   6.079   2.151  1.00  0.00     0.065 A 
ATOM      2  C   UNL     1      -6.466   6.228   1.304  1.00  0.00     0.208 A 
ATOM      3  O   UNL     1      -6.625   6.329  -0.010  1.00  0.00    -0.463 OA
ATOM      4  C   UNL     1      -7.812   6.295  -0.611  1.00  0.00     0.147 A 
ATOM      5  C   UNL     1      -8.976   6.097   0.173  1.00  0.00     0.066 A 
ATOM      6  C   UNL     1      -8.846   6.009   1.571  1.00  0.00     0.200 A 
ATOM      7  O   UNL     1      -9.863   5.837   2.298  1.00  0.00    -0.288 OA
ATOM      8  C   UNL     1     -10.218   5.951  -0.458  1.00  0.00     0.020 A 
ATOM      9  C   UNL     1     -10.290   5.889  -1.845  1.00  0.00     0.047 A 
ATOM     10  C   UNL     1      -9.143   6.041  -2.625  1.00  0.00     0.125 A 
ATOM     11  C   UNL     1      -7.913   6.430  -2.025  1.00  0.00     0.069 A 
ENDROOT
BRANCH   1  12
ATOM     12  C   UNL     1      -7.368   5.955   3.614  1.00  0.00    -0.011 A 
ATOM     13  C   UNL     1      -6.455   6.787   4.286  1.00  0.00     0.013 A 
ATOM     14  C   UNL     1      -6.280   6.670   5.669  1.00  0.00     0.047 A 
ATOM     15  C   UNL     1      -7.014   5.725   6.394  1.00  0.00     0.115 A 
ATOM     16  C   UNL     1      -8.094   5.002   4.347  1.00  0.00     0.013 A 
ATOM     17  C   UNL     1      -7.918   4.887   5.727  1.00  0.00     0.047 A 
BRANCH  15  18
ATOM     18  O   UNL     1      -6.839   5.628   7.773  1.00  0.00    -0.508 OA
ATOM     19  H   UNL     1      -6.038   6.041   8.234  1.00  0.00     0.293 HD
ENDBRANCH  15  18
ENDBRANCH   1  12
BRANCH  11  20
ATOM     20  C   UNL     1      -6.716   6.864  -2.901  1.00  0.00     0.188 C 
ATOM     21  C   UNL     1      -7.026   7.039  -4.424  1.00  0.00     0.179 C 
ATOM     22  O   UNL     1      -5.995   7.987  -2.399  1.00  0.00    -0.362 OA
ATOM     23  C   UNL     1      -7.693   8.390  -4.724  1.00  0.00     0.177 C 
ATOM     24  C   UNL     1      -6.653   9.233  -2.615  1.00  0.00     0.176 C 
ATOM     25  C   UNL     1      -6.861   9.519  -4.113  1.00  0.00     0.177 C 
BRANCH  21  26
ATOM     26  O   UNL     1      -5.817   6.945  -5.138  1.00  0.00    -0.387 OA
ATOM     27  H   UNL     1      -5.600   7.855  -5.471  1.00  0.00     0.211 HD
ENDBRANCH  21  26
BRANCH  23  28
ATOM     28  O   UNL     1      -8.999   8.417  -4.203  1.00  0.00    -0.387 OA
ATOM     29  H   UNL     1      -9.601   8.089  -4.921  1.00  0.00     0.211 HD
ENDBRANCH  23  28
BRANCH  24  30
ATOM     30  C   UNL     1      -5.827  10.342  -1.943  1.00  0.00     0.191 C 
BRANCH  30  31
ATOM     31  O   UNL     1      -4.778  10.765  -2.772  1.00  0.00    -0.394 OA
ATOM     32  H   UNL     1      -4.983  10.438  -3.688  1.00  0.00     0.210 HD
ENDBRANCH  30  31
ENDBRANCH  24  30
BRANCH  25  33
ATOM     33  O   UNL     1      -7.527  10.746  -4.280  1.00  0.00    -0.388 OA
ATOM     34  H   UNL     1      -8.024  10.917  -3.437  1.00  0.00     0.211 HD
ENDBRANCH  25  33
ENDBRANCH  11  20
BRANCH  10  35
ATOM     35  O   UNL     1      -9.253   5.732  -3.982  1.00  0.00    -0.507 OA
ATOM     36  H   UNL     1      -8.513   5.281  -4.505  1.00  0.00     0.293 HD
ENDBRANCH  10  35
TORSDOF 9
ENDMDL
MODEL 3
REMARK VINA RESULT:    -5.394      3.264      8.971
REMARK INTER + INTRA:          -7.330
REMARK INTER:                  -7.477
REMARK INTRA:                   0.147
REMARK UNBOUND:                -0.044
REMARK SMILES O=c1c(-c2ccc(O)cc2)coc2c([C@@H]3O[C@@H](CO)[C@H](O)[C@H](O)[C@H]3O)c(O)ccc12
REMARK SMILES IDX 3 1 11 2 12 3 13 4 30 5 2 6 1 7 29 8 28 9 26 10 14 11 4 12
REMARK SMILES IDX 5 13 6 14 7 15 10 16 9 17 8 18 15 20 24 21 16 22 22 23 17 24
REMARK SMILES IDX 20 25 25 26 23 28 18 30 19 31 21 33 27 35
REMARK H PARENT 8 19 25 27 23 29 19 32 21 34 27 36
REMARK Flexibility Score: inf
ROOT
ATOM      1  C   UNL     1      -8.068   7.945  -5.987  1.00  0.00     0.065 A 
ATOM      2  C   UNL     1      -8.892   7.155  -5.177  1.00  0.00     0.208 A 
ATOM      3  O   UNL     1      -8.960   7.361  -3.867  1.00  0.00    -0.463 OA
ATOM      4  C   UNL     1      -8.267   8.306  -3.236  1.00  0.00     0.147 A 
ATOM      5  C   UNL     1      -7.372   9.117  -3.978  1.00  0.00     0.066 A 
ATOM      6  C   UNL     1      -7.293   8.941  -5.371  1.00  0.00     0.200 A 
ATOM      7  O   UNL     1      -6.509   9.650  -6.061  1.00  0.00    -0.288 OA
ATOM      8  C   UNL     1      -6.559  10.041  -3.309  1.00  0.00     0.020 A 
ATOM      9  C   UNL     1      -6.552  10.082  -1.919  1.00  0.00     0.047 A 
ATOM     10  C   UNL     1      -7.399   9.257  -1.178  1.00  0.00     0.125 A 
ATOM     11  C   UNL     1      -8.403   8.487  -1.830  1.00  0.00     0.069 A 
ENDROOT
BRANCH   1  12
ATOM     12  C   UNL     1      -7.998   7.689  -7.444  1.00  0.00    -0.011 A 
ATOM     13  C   UNL     1      -7.111   6.730  -7.963  1.00  0.00     0.013 A 
ATOM     14  C   UNL     1      -7.060   6.489  -9.340  1.00  0.00     0.047 A 
ATOM     15  C   UNL     1      -7.892   7.199 -10.211  1.00  0.00     0.115 A 
ATOM     16  C   UNL     1      -8.824   8.406  -8.326  1.00  0.00     0.013 A 
ATOM     17  C   UNL     1      -8.772   8.163  -9.700  1.00  0.00     0.047 A 
BRANCH  15  18
ATOM     18  O   UNL     1      -7.839   6.939 -11.579  1.00  0.00    -0.508 OA
ATOM     19  H   UNL     1      -6.963   6.744 -12.046  1.00  0.00     0.293 HD
ENDBRANCH  15  18
ENDBRANCH   1  12
BRANCH  11  20
ATOM     20  C   UNL     1      -9.513   7.790  -1.010  1.00  0.00     0.188 C 
ATOM     21  C   UNL     1     -10.144   6.523  -1.675  1.00  0.00     0.179 C 
ATOM     22  O   UNL     1      -9.166   7.529   0.348  1.00  0.00    -0.362 OA
ATOM     23  C   UNL     1      -9.266   5.277  -1.486  1.00  0.00     0.177 C 
ATOM     24  C   UNL     1      -8.292   6.415   0.512  1.00  0.00     0.176 C 
ATOM     25  C   UNL     1      -8.924   5.110  -0.005  1.00  0.00     0.177 C 
BRANCH  21  26
ATOM     26  O   UNL     1     -11.406   6.298  -1.097  1.00  0.00    -0.387 OA
ATOM     27  H   UNL     1     -11.860   7.178  -1.025  1.00  0.00     0.211 HD
ENDBRANCH  21  26
BRANCH  23  28
ATOM     28  O   UNL     1      -8.087   5.389  -2.244  1.00  0.00    -0.387 OA
ATOM     29  H   UNL     1      -7.335   5.455  -1.599  1.00  0.00     0.211 HD
ENDBRANCH  23  28
BRANCH  24  30
ATOM     30  C   UNL     1      -7.919   6.304   1.999  1.00  0.00     0.191 C 
BRANCH  30  31
ATOM     31  O   UNL     1      -6.780   7.067   2.295  1.00  0.00    -0.394 OA
ATOM     32  H   UNL     1      -6.216   7.073   1.476  1.00  0.00     0.210 HD
ENDBRANCH  30  31
ENDBRANCH  24  30
BRANCH  25  33
ATOM     33  O   UNL     1      -8.024   4.043   0.160  1.00  0.00    -0.388 OA
ATOM     34  H   UNL     1      -8.286   3.345  -0.497  1.00  0.00     0.211 HD
ENDBRANCH  25  33
ENDBRANCH  11  20
BRANCH  10  35
ATOM     35  O   UNL     1      -7.169   9.182   0.197  1.00  0.00    -0.507 OA
ATOM     36  H   UNL     1      -6.816   9.962   0.738  1.00  0.00     0.293 HD
ENDBRANCH  10  35
TORSDOF 9
ENDMDL
MODEL 4
REMARK VINA RESULT:    -5.051      2.942      8.104
REMARK INTER + INTRA:          -6.867
REMARK INTER:                  -6.755
REMARK INTRA:                  -0.112
REMARK UNBOUND:                -0.044
REMARK SMILES O=c1c(-c2ccc(O)cc2)coc2c([C@@H]3O[C@@H](CO)[C@H](O)[C@H](O)[C@H]3O)c(O)ccc12
REMARK SMILES IDX 3 1 11 2 12 3 13 4 30 5 2 6 1 7 29 8 28 9 26 10 14 11 4 12
REMARK SMILES IDX 5 13 6 14 7 15 10 16 9 17 8 18 15 20 24 21 16 22 22 23 17 24
REMARK SMILES IDX 20 25 25 26 23 28 18 30 19 31 21 33 27 35
REMARK H PARENT 8 19 25 27 23 29 19 32 21 34 27 36
REMARK Flexibility Score: inf
ROOT
ATOM      1  C   UNL     1      -7.763   7.305  -3.675  1.00  0.00     0.065 A 
ATOM      2  C   UNL     1      -9.138   7.108  -3.502  1.00  0.00     0.208 A 
ATOM      3  O   UNL     1      -9.615   6.576  -2.383  1.00  0.00    -0.463 OA
ATOM      4  C   UNL     1      -8.847   6.196  -1.366  1.00  0.00     0.147 A 
ATOM      5  C   UNL     1      -7.439   6.316  -1.482  1.00  0.00     0.066 A 
ATOM      6  C   UNL     1      -6.901   6.897  -2.644  1.00  0.00     0.200 A 
ATOM      7  O   UNL     1      -5.652   7.022  -2.776  1.00  0.00    -0.288 OA
ATOM      8  C   UNL     1      -6.617   5.820  -0.462  1.00  0.00     0.020 A 
ATOM      9  C   UNL     1      -7.173   5.116   0.599  1.00  0.00     0.047 A 
ATOM     10  C   UNL     1      -8.556   4.955   0.700  1.00  0.00     0.125 A 
ATOM     11  C   UNL     1      -9.426   5.651  -0.184  1.00  0.00     0.069 A 
ENDROOT
BRANCH   1  12
ATOM     12  C   UNL     1      -7.251   7.888  -4.937  1.00  0.00    -0.011 A 
ATOM     13  C   UNL     1      -6.854   7.060  -6.001  1.00  0.00     0.013 A 
ATOM     14  C   UNL     1      -6.381   7.621  -7.192  1.00  0.00     0.047 A 
ATOM     15  C   UNL     1      -6.302   9.009  -7.334  1.00  0.00     0.115 A 
ATOM     16  C   UNL     1      -7.159   9.282  -5.082  1.00  0.00     0.013 A 
ATOM     17  C   UNL     1      -6.688   9.839  -6.273  1.00  0.00     0.047 A 
BRANCH  15  18
ATOM     18  O   UNL     1      -5.841   9.554  -8.532  1.00  0.00    -0.508 OA
ATOM     19  H   UNL     1      -6.477   9.798  -9.280  1.00  0.00     0.293 HD
ENDBRANCH  15  18
ENDBRANCH   1  12
BRANCH  11  20
ATOM     20  C   UNL     1     -10.947   5.698   0.087  1.00  0.00     0.188 C 
ATOM     21  C   UNL     1     -11.378   5.369   1.554  1.00  0.00     0.179 C 
ATOM     22  O   UNL     1     -11.592   6.883  -0.376  1.00  0.00    -0.362 OA
ATOM     23  C   UNL     1     -11.207   6.577   2.489  1.00  0.00     0.177 C 
ATOM     24  C   UNL     1     -11.370   8.019   0.455  1.00  0.00     0.176 C 
ATOM     25  C   UNL     1     -11.903   7.797   1.883  1.00  0.00     0.177 C 
BRANCH  21  26
ATOM     26  O   UNL     1     -12.729   4.974   1.544  1.00  0.00    -0.387 OA
ATOM     27  H   UNL     1     -13.015   4.876   2.489  1.00  0.00     0.211 HD
ENDBRANCH  21  26
BRANCH  23  28
ATOM     28  O   UNL     1      -9.842   6.850   2.690  1.00  0.00    -0.387 OA
ATOM     29  H   UNL     1      -9.735   7.088   3.648  1.00  0.00     0.211 HD
ENDBRANCH  23  28
BRANCH  24  30
ATOM     30  C   UNL     1     -12.030   9.241  -0.204  1.00  0.00     0.191 C 
BRANCH  30  31
ATOM     31  O   UNL     1     -11.376  10.427   0.158  1.00  0.00    -0.394 OA
ATOM     32  H   UNL     1     -10.506  10.166   0.562  1.00  0.00     0.210 HD
ENDBRANCH  30  31
ENDBRANCH  24  30
BRANCH  25  33
ATOM     33  O   UNL     1     -11.649   8.932   2.672  1.00  0.00    -0.388 OA
ATOM     34  H   UNL     1     -12.174   8.822   3.507  1.00  0.00     0.211 HD
ENDBRANCH  25  33
ENDBRANCH  11  20
BRANCH  10  35
ATOM     35  O   UNL     1      -9.022   4.044   1.651  1.00  0.00    -0.507 OA
ATOM     36  H   UNL     1      -8.945   3.042   1.534  1.00  0.00     0.293 HD
ENDBRANCH  10  35
TORSDOF 9
ENDMDL
MODEL 5
REMARK VINA RESULT:    -4.607      4.026      8.928
REMARK INTER + INTRA:          -6.267
REMARK INTER:                  -6.444
REMARK INTRA:                   0.177
REMARK UNBOUND:                -0.044
REMARK SMILES O=c1c(-c2ccc(O)cc2)coc2c([C@@H]3O[C@@H](CO)[C@H](O)[C@H](O)[C@H]3O)c(O)ccc12
REMARK SMILES IDX 3 1 11 2 12 3 13 4 30 5 2 6 1 7 29 8 28 9 26 10 14 11 4 12
REMARK SMILES IDX 5 13 6 14 7 15 10 16 9 17 8 18 15 20 24 21 16 22 22 23 17 24
REMARK SMILES IDX 20 25 25 26 23 28 18 30 19 31 21 33 27 35
REMARK H PARENT 8 19 25 27 23 29 19 32 21 34 27 36
REMARK Flexibility Score: inf
ROOT
ATOM      1  C   UNL     1      -7.477   8.403  -5.549  1.00  0.00     0.065 A 
ATOM      2  C   UNL     1      -7.519   9.325  -4.497  1.00  0.00     0.208 A 
ATOM      3  O   UNL     1      -7.915   8.958  -3.284  1.00  0.00    -0.463 OA
ATOM      4  C   UNL     1      -8.296   7.720  -2.980  1.00  0.00     0.147 A 
ATOM      5  C   UNL     1      -8.330   6.738  -4.002  1.00  0.00     0.066 A 
ATOM      6  C   UNL     1      -7.895   7.087  -5.293  1.00  0.00     0.200 A 
ATOM      7  O   UNL     1      -7.908   6.234  -6.223  1.00  0.00    -0.288 OA
ATOM      8  C   UNL     1      -8.832   5.462  -3.717  1.00  0.00     0.020 A 
ATOM      9  C   UNL     1      -9.395   5.197  -2.474  1.00  0.00     0.047 A 
ATOM     10  C   UNL     1      -9.405   6.172  -1.475  1.00  0.00     0.125 A 
ATOM     11  C   UNL     1      -8.690   7.388  -1.652  1.00  0.00     0.069 A 
ENDROOT
BRANCH   1  12
ATOM     12  C   UNL     1      -7.044   8.837  -6.897  1.00  0.00    -0.011 A 
ATOM     13  C   UNL     1      -5.735   8.588  -7.345  1.00  0.00     0.013 A 
ATOM     14  C   UNL     1      -5.338   8.993  -8.624  1.00  0.00     0.047 A 
ATOM     15  C   UNL     1      -6.242   9.645  -9.469  1.00  0.00     0.115 A 
ATOM     16  C   UNL     1      -7.944   9.501  -7.747  1.00  0.00     0.013 A 
ATOM     17  C   UNL     1      -7.546   9.903  -9.024  1.00  0.00     0.047 A 
BRANCH  15  18
ATOM     18  O   UNL     1      -5.837  10.030 -10.745  1.00  0.00    -0.508 OA
ATOM     19  H   UNL     1      -4.986   9.673 -11.160  1.00  0.00     0.293 HD
ENDBRANCH  15  18
ENDBRANCH   1  12
BRANCH  11  20
ATOM     20  C   UNL     1      -8.468   8.348  -0.460  1.00  0.00     0.188 C 
ATOM     21  C   UNL     1      -8.300   9.857  -0.835  1.00  0.00     0.179 C 
ATOM     22  O   UNL     1      -9.404   8.191   0.604  1.00  0.00    -0.362 OA
ATOM     23  C   UNL     1      -9.653  10.540  -1.091  1.00  0.00     0.177 C 
ATOM     24  C   UNL     1     -10.681   8.763   0.333  1.00  0.00     0.176 C 
ATOM     25  C   UNL     1     -10.589  10.281   0.091  1.00  0.00     0.177 C 
BRANCH  21  26
ATOM     26  O   UNL     1      -7.640  10.508   0.223  1.00  0.00    -0.387 OA
ATOM     27  H   UNL     1      -8.335  10.801   0.868  1.00  0.00     0.211 HD
ENDBRANCH  21  26
BRANCH  23  28
ATOM     28  O   UNL     1     -10.228  10.055  -2.279  1.00  0.00    -0.387 OA
ATOM     29  H   UNL     1     -10.396  10.842  -2.860  1.00  0.00     0.211 HD
ENDBRANCH  23  28
BRANCH  24  30
ATOM     30  C   UNL     1     -11.618   8.441   1.508  1.00  0.00     0.191 C 
BRANCH  30  31
ATOM     31  O   UNL     1     -11.622   9.478   2.452  1.00  0.00    -0.394 OA
ATOM     32  H   UNL     1     -11.309   9.088   3.311  1.00  0.00     0.210 HD
ENDBRANCH  30  31
ENDBRANCH  24  30
BRANCH  25  33
ATOM     33  O   UNL     1     -11.865  10.800  -0.190  1.00  0.00    -0.388 OA
ATOM     34  H   UNL     1     -11.942  11.654   0.312  1.00  0.00     0.211 HD
ENDBRANCH  25  33
ENDBRANCH  11  20
BRANCH  10  35
ATOM     35  O   UNL     1     -10.191   5.917  -0.349  1.00  0.00    -0.507 OA
ATOM     36  H   UNL     1     -11.176   6.148  -0.303  1.00  0.00     0.293 HD
ENDBRANCH  10  35
TORSDOF 9
ENDMDL
MODEL 6
REMARK VINA RESULT:    -4.601      3.777      6.034
REMARK INTER + INTRA:          -6.259
REMARK INTER:                  -7.233
REMARK INTRA:                   0.974
REMARK UNBOUND:                -0.044
REMARK SMILES O=c1c(-c2ccc(O)cc2)coc2c([C@@H]3O[C@@H](CO)[C@H](O)[C@H](O)[C@H]3O)c(O)ccc12
REMARK SMILES IDX 3 1 11 2 12 3 13 4 30 5 2 6 1 7 29 8 28 9 26 10 14 11 4 12
REMARK SMILES IDX 5 13 6 14 7 15 10 16 9 17 8 18 15 20 24 21 16 22 22 23 17 24
REMARK SMILES IDX 20 25 25 26 23 28 18 30 19 31 21 33 27 35
REMARK H PARENT 8 19 25 27 23 29 19 32 21 34 27 36
REMARK Flexibility Score: inf
ROOT
ATOM      1  C   UNL     1      -9.607   7.056  -1.746  1.00  0.00     0.065 A 
ATOM      2  C   UNL     1      -9.546   6.442  -3.002  1.00  0.00     0.208 A 
ATOM      3  O   UNL     1      -8.742   6.908  -3.950  1.00  0.00    -0.463 OA
ATOM      4  C   UNL     1      -7.953   7.967  -3.788  1.00  0.00     0.147 A 
ATOM      5  C   UNL     1      -7.992   8.675  -2.561  1.00  0.00     0.066 A 
ATOM      6  C   UNL     1      -8.816   8.195  -1.527  1.00  0.00     0.200 A 
ATOM      7  O   UNL     1      -8.869   8.800  -0.421  1.00  0.00    -0.288 OA
ATOM      8  C   UNL     1      -7.247   9.852  -2.418  1.00  0.00     0.020 A 
ATOM      9  C   UNL     1      -6.565  10.380  -3.509  1.00  0.00     0.047 A 
ATOM     10  C   UNL     1      -6.556   9.712  -4.735  1.00  0.00     0.125 A 
ATOM     11  C   UNL     1      -7.097   8.401  -4.841  1.00  0.00     0.069 A 
ENDROOT
BRANCH   1  12
ATOM     12  C   UNL     1     -10.521   6.528  -0.707  1.00  0.00    -0.011 A 
ATOM     13  C   UNL     1     -10.059   5.618   0.260  1.00  0.00     0.013 A 
ATOM     14  C   UNL     1     -10.927   5.133   1.244  1.00  0.00     0.047 A 
ATOM     15  C   UNL     1     -12.261   5.552   1.274  1.00  0.00     0.115 A 
ATOM     16  C   UNL     1     -11.865   6.937  -0.677  1.00  0.00     0.013 A 
ATOM     17  C   UNL     1     -12.729   6.452   0.307  1.00  0.00     0.047 A 
BRANCH  15  18
ATOM     18  O   UNL     1     -13.112   5.070   2.268  1.00  0.00    -0.508 OA
ATOM     19  H   UNL     1     -14.056   4.772   2.056  1.00  0.00     0.293 HD
ENDBRANCH  15  18
ENDBRANCH   1  12
BRANCH  11  20
ATOM     20  C   UNL     1      -6.850   7.551  -6.109  1.00  0.00     0.188 C 
ATOM     21  C   UNL     1      -8.078   7.400  -7.066  1.00  0.00     0.179 C 
ATOM     22  O   UNL     1      -5.680   7.910  -6.839  1.00  0.00    -0.362 OA
ATOM     23  C   UNL     1      -8.260   8.631  -7.966  1.00  0.00     0.177 C 
ATOM     24  C   UNL     1      -5.831   9.095  -7.617  1.00  0.00     0.176 C 
ATOM     25  C   UNL     1      -6.942   8.950  -8.673  1.00  0.00     0.177 C 
BRANCH  21  26
ATOM     26  O   UNL     1      -7.881   6.260  -7.867  1.00  0.00    -0.387 OA
ATOM     27  H   UNL     1      -8.676   5.677  -7.752  1.00  0.00     0.211 HD
ENDBRANCH  21  26
BRANCH  23  28
ATOM     28  O   UNL     1      -8.679   9.737  -7.204  1.00  0.00    -0.387 OA
ATOM     29  H   UNL     1      -8.927  10.452  -7.846  1.00  0.00     0.211 HD
ENDBRANCH  23  28
BRANCH  24  30
ATOM     30  C   UNL     1      -4.479   9.424  -8.270  1.00  0.00     0.191 C 
BRANCH  30  31
ATOM     31  O   UNL     1      -3.597  10.003  -7.346  1.00  0.00    -0.394 OA
ATOM     32  H   UNL     1      -3.555  10.974  -7.556  1.00  0.00     0.210 HD
ENDBRANCH  30  31
ENDBRANCH  24  30
BRANCH  25  33
ATOM     33  O   UNL     1      -7.069  10.144  -9.404  1.00  0.00    -0.388 OA
ATOM     34  H   UNL     1      -6.333  10.149 -10.071  1.00  0.00     0.211 HD
ENDBRANCH  25  33
ENDBRANCH  11  20
BRANCH  10  35
ATOM     35  O   UNL     1      -6.057  10.412  -5.835  1.00  0.00    -0.507 OA
ATOM     36  H   UNL     1      -6.053  11.423  -5.886  1.00  0.00     0.293 HD
ENDBRANCH  10  35
TORSDOF 9
ENDMDL
MODEL 7
REMARK VINA RESULT:    -4.573      2.168      3.723
REMARK INTER + INTRA:          -6.221
REMARK INTER:                  -6.444
REMARK INTRA:                   0.223
REMARK UNBOUND:                -0.044
REMARK SMILES O=c1c(-c2ccc(O)cc2)coc2c([C@@H]3O[C@@H](CO)[C@H](O)[C@H](O)[C@H]3O)c(O)ccc12
REMARK SMILES IDX 3 1 11 2 12 3 13 4 30 5 2 6 1 7 29 8 28 9 26 10 14 11 4 12
REMARK SMILES IDX 5 13 6 14 7 15 10 16 9 17 8 18 15 20 24 21 16 22 22 23 17 24
REMARK SMILES IDX 20 25 25 26 23 28 18 30 19 31 21 33 27 35
REMARK H PARENT 8 19 25 27 23 29 19 32 21 34 27 36
REMARK Flexibility Score: inf
ROOT
ATOM      1  C   UNL     1      -7.992   6.431   0.997  1.00  0.00     0.065 A 
ATOM      2  C   UNL     1      -8.027   7.746   0.521  1.00  0.00     0.208 A 
ATOM      3  O   UNL     1      -8.239   8.000  -0.765  1.00  0.00    -0.463 OA
ATOM      4  C   UNL     1      -8.427   7.051  -1.679  1.00  0.00     0.147 A 
ATOM      5  C   UNL     1      -8.358   5.691  -1.286  1.00  0.00     0.066 A 
ATOM      6  C   UNL     1      -8.158   5.387   0.072  1.00  0.00     0.200 A 
ATOM      7  O   UNL     1      -8.095   4.186   0.455  1.00  0.00    -0.288 OA
ATOM      8  C   UNL     1      -8.447   4.686  -2.258  1.00  0.00     0.020 A 
ATOM      9  C   UNL     1      -8.491   5.023  -3.605  1.00  0.00     0.047 A 
ATOM     10  C   UNL     1      -8.516   6.360  -4.005  1.00  0.00     0.125 A 
ATOM     11  C   UNL     1      -8.671   7.394  -3.040  1.00  0.00     0.069 A 
ENDROOT
BRANCH   1  12
ATOM     12  C   UNL     1      -7.741   6.169   2.433  1.00  0.00    -0.011 A 
ATOM     13  C   UNL     1      -8.806   5.899   3.310  1.00  0.00     0.013 A 
ATOM     14  C   UNL     1      -8.558   5.643   4.663  1.00  0.00     0.047 A 
ATOM     15  C   UNL     1      -7.248   5.651   5.153  1.00  0.00     0.115 A 
ATOM     16  C   UNL     1      -6.428   6.185   2.934  1.00  0.00     0.013 A 
ATOM     17  C   UNL     1      -6.183   5.929   4.284  1.00  0.00     0.047 A 
BRANCH  15  18
ATOM     18  O   UNL     1      -7.015   5.382   6.500  1.00  0.00    -0.508 OA
ATOM     19  H   UNL     1      -6.390   4.641   6.790  1.00  0.00     0.293 HD
ENDBRANCH  15  18
ENDBRANCH   1  12
BRANCH  11  20
ATOM     20  C   UNL     1      -8.974   8.843  -3.485  1.00  0.00     0.188 C 
ATOM     21  C   UNL     1      -8.525   9.960  -2.487  1.00  0.00     0.179 C 
ATOM     22  O   UNL     1      -8.553   9.151  -4.813  1.00  0.00    -0.362 OA
ATOM     23  C   UNL     1      -7.025  10.271  -2.608  1.00  0.00     0.177 C 
ATOM     24  C   UNL     1      -7.149   9.367  -4.933  1.00  0.00     0.176 C 
ATOM     25  C   UNL     1      -6.675  10.551  -4.070  1.00  0.00     0.177 C 
BRANCH  21  26
ATOM     26  O   UNL     1      -9.266  11.125  -2.759  1.00  0.00    -0.387 OA
ATOM     27  H   UNL     1     -10.167  10.838  -3.060  1.00  0.00     0.211 HD
ENDBRANCH  21  26
BRANCH  23  28
ATOM     28  O   UNL     1      -6.262   9.192  -2.127  1.00  0.00    -0.387 OA
ATOM     29  H   UNL     1      -5.631   9.562  -1.456  1.00  0.00     0.211 HD
ENDBRANCH  23  28
BRANCH  24  30
ATOM     30  C   UNL     1      -6.817   9.589  -6.417  1.00  0.00     0.191 C 
BRANCH  30  31
ATOM     31  O   UNL     1      -5.598   8.985  -6.760  1.00  0.00    -0.394 OA
ATOM     32  H   UNL     1      -4.909   9.356  -6.147  1.00  0.00     0.210 HD
ENDBRANCH  30  31
ENDBRANCH  24  30
BRANCH  25  33
ATOM     33  O   UNL     1      -5.286  10.717  -4.205  1.00  0.00    -0.388 OA
ATOM     34  H   UNL     1      -4.885  10.483  -3.327  1.00  0.00     0.211 HD
ENDBRANCH  25  33
ENDBRANCH  11  20
BRANCH  10  35
ATOM     35  O   UNL     1      -8.320   6.621  -5.362  1.00  0.00    -0.507 OA
ATOM     36  H   UNL     1      -8.281   7.559  -5.741  1.00  0.00     0.293 HD
ENDBRANCH  10  35
TORSDOF 9
ENDMDL
MODEL 8
REMARK VINA RESULT:    -4.518      3.335      8.862
REMARK INTER + INTRA:          -6.147
REMARK INTER:                  -6.080
REMARK INTRA:                  -0.067
REMARK UNBOUND:                -0.044
REMARK SMILES O=c1c(-c2ccc(O)cc2)coc2c([C@@H]3O[C@@H](CO)[C@H](O)[C@H](O)[C@H]3O)c(O)ccc12
REMARK SMILES IDX 3 1 11 2 12 3 13 4 30 5 2 6 1 7 29 8 28 9 26 10 14 11 4 12
REMARK SMILES IDX 5 13 6 14 7 15 10 16 9 17 8 18 15 20 24 21 16 22 22 23 17 24
REMARK SMILES IDX 20 25 25 26 23 28 18 30 19 31 21 33 27 35
REMARK H PARENT 8 19 25 27 23 29 19 32 21 34 27 36
REMARK Flexibility Score: inf
ROOT
ATOM      1  C   UNL     1      -7.289   8.652  -5.479  1.00  0.00     0.065 A 
ATOM      2  C   UNL     1      -6.786   7.550  -4.779  1.00  0.00     0.208 A 
ATOM      3  O   UNL     1      -6.760   7.540  -3.452  1.00  0.00    -0.463 OA
ATOM      4  C   UNL     1      -7.195   8.549  -2.701  1.00  0.00     0.147 A 
ATOM      5  C   UNL     1      -7.674   9.723  -3.335  1.00  0.00     0.066 A 
ATOM      6  C   UNL     1      -7.737   9.758  -4.739  1.00  0.00     0.200 A 
ATOM      7  O   UNL     1      -8.163  10.787  -5.334  1.00  0.00    -0.288 OA
ATOM      8  C   UNL     1      -8.033  10.831  -2.557  1.00  0.00     0.020 A 
ATOM      9  C   UNL     1      -7.814  10.817  -1.184  1.00  0.00     0.047 A 
ATOM     10  C   UNL     1      -7.302   9.680  -0.556  1.00  0.00     0.125 A 
ATOM     11  C   UNL     1      -7.157   8.464  -1.280  1.00  0.00     0.069 A 
ENDROOT
BRANCH   1  12
ATOM     12  C   UNL     1      -7.297   8.648  -6.961  1.00  0.00    -0.011 A 
ATOM     13  C   UNL     1      -6.145   9.000  -7.686  1.00  0.00     0.013 A 
ATOM     14  C   UNL     1      -6.160   8.983  -9.085  1.00  0.00     0.047 A 
ATOM     15  C   UNL     1      -7.320   8.613  -9.772  1.00  0.00     0.115 A 
ATOM     16  C   UNL     1      -8.462   8.288  -7.658  1.00  0.00     0.013 A 
ATOM     17  C   UNL     1      -8.474   8.271  -9.054  1.00  0.00     0.047 A 
BRANCH  15  18
ATOM     18  O   UNL     1      -7.317   8.589 -11.166  1.00  0.00    -0.508 OA
ATOM     19  H   UNL     1      -7.779   9.308 -11.708  1.00  0.00     0.293 HD
ENDBRANCH  15  18
ENDBRANCH   1  12
BRANCH  11  20
ATOM     20  C   UNL     1      -6.855   7.141  -0.539  1.00  0.00     0.188 C 
ATOM     21  C   UNL     1      -7.386   7.057   0.929  1.00  0.00     0.179 C 
ATOM     22  O   UNL     1      -7.198   5.966  -1.270  1.00  0.00    -0.362 OA
ATOM     23  C   UNL     1      -8.882   6.707   0.981  1.00  0.00     0.177 C 
ATOM     24  C   UNL     1      -8.596   5.685  -1.281  1.00  0.00     0.176 C 
ATOM     25  C   UNL     1      -9.145   5.457   0.139  1.00  0.00     0.177 C 
BRANCH  21  26
ATOM     26  O   UNL     1      -6.652   6.071   1.613  1.00  0.00    -0.387 OA
ATOM     27  H   UNL     1      -5.783   6.476   1.870  1.00  0.00     0.211 HD
ENDBRANCH  21  26
BRANCH  23  28
ATOM     28  O   UNL     1      -9.652   7.782   0.503  1.00  0.00    -0.387 OA
ATOM     29  H   UNL     1      -9.037   8.374  -0.004  1.00  0.00     0.211 HD
ENDBRANCH  23  28
BRANCH  24  30
ATOM     30  C   UNL     1      -8.839   4.460  -2.177  1.00  0.00     0.191 C 
BRANCH  30  31
ATOM     31  O   UNL     1      -8.430   4.708  -3.496  1.00  0.00    -0.394 OA
ATOM     32  H   UNL     1      -9.242   4.969  -4.006  1.00  0.00     0.210 HD
ENDBRANCH  30  31
ENDBRANCH  24  30
BRANCH  25  33
ATOM     33  O   UNL     1     -10.526   5.201   0.085  1.00  0.00    -0.388 OA
ATOM     34  H   UNL     1     -10.958   6.037  -0.234  1.00  0.00     0.211 HD
ENDBRANCH  25  33
ENDBRANCH  11  20
BRANCH  10  35
ATOM     35  O   UNL     1      -6.889   9.820   0.770  1.00  0.00    -0.507 OA
ATOM     36  H   UNL     1      -6.451  10.661   1.123  1.00  0.00     0.293 HD
ENDBRANCH  10  35
TORSDOF 9
ENDMDL
MODEL 9
REMARK VINA RESULT:    -4.339      3.708      5.991
REMARK INTER + INTRA:          -5.905
REMARK INTER:                  -7.181
REMARK INTRA:                   1.276
REMARK UNBOUND:                -0.044
REMARK SMILES O=c1c(-c2ccc(O)cc2)coc2c([C@@H]3O[C@@H](CO)[C@H](O)[C@H](O)[C@H]3O)c(O)ccc12
REMARK SMILES IDX 3 1 11 2 12 3 13 4 30 5 2 6 1 7 29 8 28 9 26 10 14 11 4 12
REMARK SMILES IDX 5 13 6 14 7 15 10 16 9 17 8 18 15 20 24 21 16 22 22 23 17 24
REMARK SMILES IDX 20 25 25 26 23 28 18 30 19 31 21 33 27 35
REMARK H PARENT 8 19 25 27 23 29 19 32 21 34 27 36
REMARK Flexibility Score: inf
ROOT
ATOM      1  C   UNL     1      -7.460   7.208  -1.556  1.00  0.00     0.065 A 
ATOM      2  C   UNL     1      -7.548   6.461  -2.736  1.00  0.00     0.208 A 
ATOM      3  O   UNL     1      -7.323   7.024  -3.917  1.00  0.00    -0.463 OA
ATOM      4  C   UNL     1      -7.008   8.307  -4.071  1.00  0.00     0.147 A 
ATOM      5  C   UNL     1      -6.946   9.144  -2.929  1.00  0.00     0.066 A 
ATOM      6  C   UNL     1      -7.156   8.576  -1.660  1.00  0.00     0.200 A 
ATOM      7  O   UNL     1      -7.104   9.293  -0.622  1.00  0.00    -0.288 OA
ATOM      8  C   UNL     1      -6.722  10.517  -3.089  1.00  0.00     0.020 A 
ATOM      9  C   UNL     1      -6.671  11.070  -4.363  1.00  0.00     0.047 A 
ATOM     10  C   UNL     1      -6.774  10.259  -5.496  1.00  0.00     0.125 A 
ATOM     11  C   UNL     1      -6.758   8.842  -5.368  1.00  0.00     0.069 A 
ENDROOT
BRANCH   1  12
ATOM     12  C   UNL     1      -7.727   6.564  -0.249  1.00  0.00    -0.011 A 
ATOM     13  C   UNL     1      -6.720   6.479   0.728  1.00  0.00     0.013 A 
ATOM     14  C   UNL     1      -6.985   5.878   1.963  1.00  0.00     0.047 A 
ATOM     15  C   UNL     1      -8.254   5.359   2.236  1.00  0.00     0.115 A 
ATOM     16  C   UNL     1      -8.997   6.031   0.027  1.00  0.00     0.013 A 
ATOM     17  C   UNL     1      -9.259   5.432   1.261  1.00  0.00     0.047 A 
BRANCH  15  18
ATOM     18  O   UNL     1      -8.508   4.774   3.475  1.00  0.00    -0.508 OA
ATOM     19  H   UNL     1      -8.197   5.205   4.336  1.00  0.00     0.293 HD
ENDBRANCH  15  18
ENDBRANCH   1  12
BRANCH  11  20
ATOM     20  C   UNL     1      -6.596   7.944  -6.615  1.00  0.00     0.188 C 
ATOM     21  C   UNL     1      -7.925   7.379  -7.214  1.00  0.00     0.179 C 
ATOM     22  O   UNL     1      -5.776   8.502  -7.639  1.00  0.00    -0.362 OA
ATOM     23  C   UNL     1      -8.645   8.413  -8.093  1.00  0.00     0.177 C 
ATOM     24  C   UNL     1      -6.425   9.513  -8.405  1.00  0.00     0.176 C 
ATOM     25  C   UNL     1      -7.670   8.972  -9.131  1.00  0.00     0.177 C 
BRANCH  21  26
ATOM     26  O   UNL     1      -7.619   6.242  -7.985  1.00  0.00    -0.387 OA
ATOM     27  H   UNL     1      -6.723   5.925  -7.700  1.00  0.00     0.211 HD
ENDBRANCH  21  26
BRANCH  23  28
ATOM     28  O   UNL     1      -9.158   9.456  -7.300  1.00  0.00    -0.387 OA
ATOM     29  H   UNL     1      -8.726   9.379  -6.410  1.00  0.00     0.211 HD
ENDBRANCH  23  28
BRANCH  24  30
ATOM     30  C   UNL     1      -5.409  10.097  -9.400  1.00  0.00     0.191 C 
BRANCH  30  31
ATOM     31  O   UNL     1      -5.552   9.517 -10.670  1.00  0.00    -0.394 OA
ATOM     32  H   UNL     1      -4.932   8.741 -10.704  1.00  0.00     0.210 HD
ENDBRANCH  30  31
ENDBRANCH  24  30
BRANCH  25  33
ATOM     33  O   UNL     1      -8.288  10.003  -9.858  1.00  0.00    -0.388 OA
ATOM     34  H   UNL     1      -7.633  10.302 -10.542  1.00  0.00     0.211 HD
ENDBRANCH  25  33
ENDBRANCH  11  20
BRANCH  10  35
ATOM     35  O   UNL     1      -6.954  10.902  -6.722  1.00  0.00    -0.507 OA
ATOM     36  H   UNL     1      -7.810  10.833  -7.257  1.00  0.00     0.293 HD
ENDBRANCH  10  35
TORSDOF 9
ENDMDL
