MODEL 1
REMARK VINA RESULT:    -6.167      0.000      0.000
REMARK INTER + INTRA:          -7.161
REMARK INTER:                  -8.330
REMARK INTRA:                   1.169
REMARK UNBOUND:                 1.169
REMARK SMILES O=c1c(-c2ccc(O)cc2)coc2c([C@H]3O[C@H](CO)[C@H](O)[C@H](O)[C@@H]3O)c(O)ccc12
REMARK SMILES IDX 3 1 11 2 12 3 13 4 30 5 2 6 1 7 29 8 28 9 26 10 14 11 4 12
REMARK SMILES IDX 5 13 6 14 7 15 10 16 9 17 8 18 15 20 24 21 16 22 22 23 17 24
REMARK SMILES IDX 20 25 25 26 23 28 18 30 19 31 21 33 27 35
REMARK H PARENT 8 19 25 27 23 29 19 32 21 34 27 36
REMARK Flexibility Score: inf
ROOT
ATOM      1  C   UNL     1      -2.428   0.644   2.850  1.00  0.00     0.065 A 
ATOM      2  C   UNL     1      -3.621   1.370   2.734  1.00  0.00     0.208 A 
ATOM      3  O   UNL     1      -3.643   2.682   2.928  1.00  0.00    -0.463 OA
ATOM      4  C   UNL     1      -2.561   3.390   3.241  1.00  0.00     0.147 A 
ATOM      5  C   UNL     1      -1.313   2.738   3.380  1.00  0.00     0.066 A 
ATOM      6  C   UNL     1      -1.253   1.348   3.172  1.00  0.00     0.200 A 
ATOM      7  O   UNL     1      -0.150   0.739   3.255  1.00  0.00    -0.288 OA
ATOM      8  C   UNL     1      -0.175   3.484   3.718  1.00  0.00     0.020 A 
ATOM      9  C   UNL     1      -0.274   4.858   3.930  1.00  0.00     0.047 A 
ATOM     10  C   UNL     1      -1.504   5.514   3.799  1.00  0.00     0.125 A 
ATOM     11  C   UNL     1      -2.661   4.789   3.434  1.00  0.00     0.069 A 
ENDROOT
BRANCH   1  12
ATOM     12  C   UNL     1      -2.430  -0.824   2.628  1.00  0.00    -0.011 A 
ATOM     13  C   UNL     1      -1.306  -1.468   2.078  1.00  0.00     0.013 A 
ATOM     14  C   UNL     1      -1.312  -2.851   1.879  1.00  0.00     0.047 A 
ATOM     15  C   UNL     1      -2.433  -3.610   2.230  1.00  0.00     0.115 A 
ATOM     16  C   UNL     1      -3.551  -1.594   2.984  1.00  0.00     0.013 A 
ATOM     17  C   UNL     1      -3.553  -2.977   2.784  1.00  0.00     0.047 A 
BRANCH  15  18
ATOM     18  O   UNL     1      -2.424  -4.988   2.026  1.00  0.00    -0.508 OA
ATOM     19  H   UNL     1      -1.632  -5.558   2.299  1.00  0.00     0.293 HD
ENDBRANCH  15  18
ENDBRANCH   1  12
BRANCH  11  20
ATOM     20  C   UNL     1      -4.005   5.496   3.312  1.00  0.00     0.188 C 
ATOM     21  C   UNL     1      -5.153   4.472   3.457  1.00  0.00     0.179 C 
ATOM     22  O   UNL     1      -4.061   6.166   2.061  1.00  0.00    -0.362 OA
ATOM     23  C   UNL     1      -6.527   5.163   3.278  1.00  0.00     0.177 C 
ATOM     24  C   UNL     1      -5.264   6.902   1.877  1.00  0.00     0.176 C 
ATOM     25  C   UNL     1      -6.522   6.003   1.989  1.00  0.00     0.177 C 
BRANCH  21  26
ATOM     26  O   UNL     1      -5.080   3.838   4.709  1.00  0.00    -0.387 OA
ATOM     27  H   UNL     1      -4.446   3.080   4.609  1.00  0.00     0.211 HD
ENDBRANCH  21  26
BRANCH  23  28
ATOM     28  O   UNL     1      -6.932   5.947   4.381  1.00  0.00    -0.387 OA
ATOM     29  H   UNL     1      -6.542   5.591   5.218  1.00  0.00     0.211 HD
ENDBRANCH  23  28
BRANCH  24  30
ATOM     30  C   UNL     1      -5.310   8.191   2.729  1.00  0.00     0.191 C 
BRANCH  30  31
ATOM     31  O   UNL     1      -4.013   8.597   3.073  1.00  0.00    -0.394 OA
ATOM     32  H   UNL     1      -3.555   7.801   3.447  1.00  0.00     0.210 HD
ENDBRANCH  30  31
ENDBRANCH  24  30
BRANCH  25  33
ATOM     33  O   UNL     1      -7.688   6.781   1.896  1.00  0.00    -0.388 OA
ATOM     34  H   UNL     1      -7.809   7.222   2.777  1.00  0.00     0.211 HD
ENDBRANCH  25  33
ENDBRANCH  11  20
BRANCH  10  35
ATOM     35  O   UNL     1      -1.576   6.887   4.038  1.00  0.00    -0.507 OA
ATOM     36  H   UNL     1      -0.772   7.415   4.359  1.00  0.00     0.293 HD
ENDBRANCH  10  35
TORSDOF 9
ENDMDL
MODEL 2
REMARK VINA RESULT:    -5.636     15.292     17.501
REMARK INTER + INTRA:          -6.445
REMARK INTER:                  -6.884
REMARK INTRA:                   0.439
REMARK UNBOUND:                 1.169
REMARK SMILES O=c1c(-c2ccc(O)cc2)coc2c([C@H]3O[C@H](CO)[C@H](O)[C@H](O)[C@@H]3O)c(O)ccc12
REMARK SMILES IDX 3 1 11 2 12 3 13 4 30 5 2 6 1 7 29 8 28 9 26 10 14 11 4 12
REMARK SMILES IDX 5 13 6 14 7 15 10 16 9 17 8 18 15 20 24 21 16 22 22 23 17 24
REMARK SMILES IDX 20 25 25 26 23 28 18 30 19 31 21 33 27 35
REMARK H PARENT 8 19 25 27 23 29 19 32 21 34 27 36
REMARK Flexibility Score: inf
ROOT
ATOM      1  C   UNL     1      -5.325  -3.782  14.901  1.00  0.00     0.065 A 
ATOM      2  C   UNL     1      -4.484  -4.268  15.912  1.00  0.00     0.208 A 
ATOM      3  O   UNL     1      -4.922  -4.401  17.157  1.00  0.00    -0.463 OA
ATOM      4  C   UNL     1      -6.161  -4.091  17.531  1.00  0.00     0.147 A 
ATOM      5  C   UNL     1      -7.076  -3.592  16.575  1.00  0.00     0.066 A 
ATOM      6  C   UNL     1      -6.647  -3.446  15.244  1.00  0.00     0.200 A 
ATOM      7  O   UNL     1      -7.448  -3.035  14.358  1.00  0.00    -0.288 OA
ATOM      8  C   UNL     1      -8.379  -3.257  16.973  1.00  0.00     0.020 A 
ATOM      9  C   UNL     1      -8.766  -3.402  18.303  1.00  0.00     0.047 A 
ATOM     10  C   UNL     1      -7.867  -3.892  19.260  1.00  0.00     0.125 A 
ATOM     11  C   UNL     1      -6.557  -4.261  18.880  1.00  0.00     0.069 A 
ENDROOT
BRANCH   1  12
ATOM     12  C   UNL     1      -4.811  -3.640  13.515  1.00  0.00    -0.011 A 
ATOM     13  C   UNL     1      -3.651  -4.324  13.108  1.00  0.00     0.013 A 
ATOM     14  C   UNL     1      -3.177  -4.192  11.799  1.00  0.00     0.047 A 
ATOM     15  C   UNL     1      -3.855  -3.385  10.881  1.00  0.00     0.115 A 
ATOM     16  C   UNL     1      -5.491  -2.834  12.585  1.00  0.00     0.013 A 
ATOM     17  C   UNL     1      -5.014  -2.706  11.278  1.00  0.00     0.047 A 
BRANCH  15  18
ATOM     18  O   UNL     1      -3.371  -3.264   9.581  1.00  0.00    -0.508 OA
ATOM     19  H   UNL     1      -2.867  -2.439   9.278  1.00  0.00     0.293 HD
ENDBRANCH  15  18
ENDBRANCH   1  12
BRANCH  11  20
ATOM     20  C   UNL     1      -5.571  -4.773  19.921  1.00  0.00     0.188 C 
ATOM     21  C   UNL     1      -4.221  -4.034  19.776  1.00  0.00     0.179 C 
ATOM     22  O   UNL     1      -5.415  -6.175  19.758  1.00  0.00    -0.362 OA
ATOM     23  C   UNL     1      -3.186  -4.582  20.788  1.00  0.00     0.177 C 
ATOM     24  C   UNL     1      -4.547  -6.756  20.723  1.00  0.00     0.176 C 
ATOM     25  C   UNL     1      -3.135  -6.117  20.699  1.00  0.00     0.177 C 
BRANCH  21  26
ATOM     26  O   UNL     1      -4.405  -2.652  19.958  1.00  0.00    -0.387 OA
ATOM     27  H   UNL     1      -3.659  -2.338  20.533  1.00  0.00     0.211 HD
ENDBRANCH  21  26
BRANCH  23  28
ATOM     28  O   UNL     1      -3.401  -4.168  22.122  1.00  0.00    -0.387 OA
ATOM     29  H   UNL     1      -4.369  -4.050  22.295  1.00  0.00     0.211 HD
ENDBRANCH  23  28
BRANCH  24  30
ATOM     30  C   UNL     1      -5.193  -6.848  22.125  1.00  0.00     0.191 C 
BRANCH  30  31
ATOM     31  O   UNL     1      -6.431  -7.504  22.052  1.00  0.00    -0.394 OA
ATOM     32  H   UNL     1      -6.394  -8.092  21.254  1.00  0.00     0.210 HD
ENDBRANCH  30  31
ENDBRANCH  24  30
BRANCH  25  33
ATOM     33  O   UNL     1      -2.340  -6.650  21.728  1.00  0.00    -0.388 OA
ATOM     34  H   UNL     1      -2.185  -7.605  21.504  1.00  0.00     0.211 HD
ENDBRANCH  25  33
ENDBRANCH  11  20
BRANCH  10  35
ATOM     35  O   UNL     1      -8.278  -4.007  20.588  1.00  0.00    -0.507 OA
ATOM     36  H   UNL     1      -9.243  -4.194  20.833  1.00  0.00     0.293 HD
ENDBRANCH  10  35
TORSDOF 9
ENDMDL
MODEL 3
REMARK VINA RESULT:    -4.222      2.692      7.861
REMARK INTER + INTRA:          -4.534
REMARK INTER:                  -5.084
REMARK INTRA:                   0.550
REMARK UNBOUND:                 1.169
REMARK SMILES O=c1c(-c2ccc(O)cc2)coc2c([C@H]3O[C@H](CO)[C@H](O)[C@H](O)[C@@H]3O)c(O)ccc12
REMARK SMILES IDX 3 1 11 2 12 3 13 4 30 5 2 6 1 7 29 8 28 9 26 10 14 11 4 12
REMARK SMILES IDX 5 13 6 14 7 15 10 16 9 17 8 18 15 20 24 21 16 22 22 23 17 24
REMARK SMILES IDX 20 25 25 26 23 28 18 30 19 31 21 33 27 35
REMARK H PARENT 8 19 25 27 23 29 19 32 21 34 27 36
REMARK Flexibility Score: inf
ROOT
ATOM      1  C   UNL     1       0.503   5.025   3.188  1.00  0.00     0.065 A 
ATOM      2  C   UNL     1       0.497   3.655   3.484  1.00  0.00     0.208 A 
ATOM      3  O   UNL     1      -0.601   2.927   3.324  1.00  0.00    -0.463 OA
ATOM      4  C   UNL     1      -1.750   3.431   2.882  1.00  0.00     0.147 A 
ATOM      5  C   UNL     1      -1.834   4.806   2.560  1.00  0.00     0.066 A 
ATOM      6  C   UNL     1      -0.687   5.605   2.710  1.00  0.00     0.200 A 
ATOM      7  O   UNL     1      -0.717   6.828   2.401  1.00  0.00    -0.288 OA
ATOM      8  C   UNL     1      -3.049   5.337   2.103  1.00  0.00     0.020 A 
ATOM      9  C   UNL     1      -4.171   4.519   1.979  1.00  0.00     0.047 A 
ATOM     10  C   UNL     1      -4.100   3.157   2.298  1.00  0.00     0.125 A 
ATOM     11  C   UNL     1      -2.881   2.592   2.736  1.00  0.00     0.069 A 
ENDROOT
BRANCH   1  12
ATOM     12  C   UNL     1       1.745   5.818   3.377  1.00  0.00    -0.011 A 
ATOM     13  C   UNL     1       1.870   7.099   2.810  1.00  0.00     0.013 A 
ATOM     14  C   UNL     1       3.038   7.843   2.998  1.00  0.00     0.047 A 
ATOM     15  C   UNL     1       4.092   7.323   3.756  1.00  0.00     0.115 A 
ATOM     16  C   UNL     1       2.805   5.303   4.142  1.00  0.00     0.013 A 
ATOM     17  C   UNL     1       3.972   6.050   4.328  1.00  0.00     0.047 A 
BRANCH  15  18
ATOM     18  O   UNL     1       5.250   8.076   3.935  1.00  0.00    -0.508 OA
ATOM     19  H   UNL     1       5.635   8.244   4.856  1.00  0.00     0.293 HD
ENDBRANCH  15  18
ENDBRANCH   1  12
BRANCH  11  20
ATOM     20  C   UNL     1      -2.807   1.116   3.105  1.00  0.00     0.188 C 
ATOM     21  C   UNL     1      -2.044   0.338   2.008  1.00  0.00     0.179 C 
ATOM     22  O   UNL     1      -4.125   0.616   3.274  1.00  0.00    -0.362 OA
ATOM     23  C   UNL     1      -2.008  -1.175   2.337  1.00  0.00     0.177 C 
ATOM     24  C   UNL     1      -4.157  -0.749   3.672  1.00  0.00     0.176 C 
ATOM     25  C   UNL     1      -3.428  -1.669   2.661  1.00  0.00     0.177 C 
BRANCH  21  26
ATOM     26  O   UNL     1      -0.740   0.844   1.876  1.00  0.00    -0.387 OA
ATOM     27  H   UNL     1      -0.131   0.061   1.846  1.00  0.00     0.211 HD
ENDBRANCH  21  26
BRANCH  23  28
ATOM     28  O   UNL     1      -1.112  -1.525   3.371  1.00  0.00    -0.387 OA
ATOM     29  H   UNL     1      -0.827  -2.468   3.275  1.00  0.00     0.211 HD
ENDBRANCH  23  28
BRANCH  24  30
ATOM     30  C   UNL     1      -3.740  -0.948   5.147  1.00  0.00     0.191 C 
BRANCH  30  31
ATOM     31  O   UNL     1      -4.150  -2.208   5.606  1.00  0.00    -0.394 OA
ATOM     32  H   UNL     1      -4.687  -2.051   6.426  1.00  0.00     0.210 HD
ENDBRANCH  30  31
ENDBRANCH  24  30
BRANCH  25  33
ATOM     33  O   UNL     1      -3.400  -2.992   3.136  1.00  0.00    -0.388 OA
ATOM     34  H   UNL     1      -2.522  -3.373   2.870  1.00  0.00     0.211 HD
ENDBRANCH  25  33
ENDBRANCH  11  20
BRANCH  10  35
ATOM     35  O   UNL     1      -5.245   2.368   2.183  1.00  0.00    -0.507 OA
ATOM     36  H   UNL     1      -5.219   1.366   2.334  1.00  0.00     0.293 HD
ENDBRANCH  10  35
TORSDOF 9
ENDMDL
MODEL 4
REMARK VINA RESULT:    -3.790     16.187     18.116
REMARK INTER + INTRA:          -3.951
REMARK INTER:                  -3.907
REMARK INTRA:                  -0.043
REMARK UNBOUND:                 1.169
REMARK SMILES O=c1c(-c2ccc(O)cc2)coc2c([C@H]3O[C@H](CO)[C@H](O)[C@H](O)[C@@H]3O)c(O)ccc12
REMARK SMILES IDX 3 1 11 2 12 3 13 4 30 5 2 6 1 7 29 8 28 9 26 10 14 11 4 12
REMARK SMILES IDX 5 13 6 14 7 15 10 16 9 17 8 18 15 20 24 21 16 22 22 23 17 24
REMARK SMILES IDX 20 25 25 26 23 28 18 30 19 31 21 33 27 35
REMARK H PARENT 8 19 25 27 23 29 19 32 21 34 27 36
REMARK Flexibility Score: inf
ROOT
ATOM      1  C   UNL     1      -4.642  -4.302  15.901  1.00  0.00     0.065 A 
ATOM      2  C   UNL     1      -5.818  -4.775  16.498  1.00  0.00     0.208 A 
ATOM      3  O   UNL     1      -5.851  -5.087  17.788  1.00  0.00    -0.463 OA
ATOM      4  C   UNL     1      -4.796  -4.976  18.591  1.00  0.00     0.147 A 
ATOM      5  C   UNL     1      -3.567  -4.508  18.071  1.00  0.00     0.066 A 
ATOM      6  C   UNL     1      -3.499  -4.161  16.710  1.00  0.00     0.200 A 
ATOM      7  O   UNL     1      -2.427  -3.708  16.221  1.00  0.00    -0.288 OA
ATOM      8  C   UNL     1      -2.453  -4.401  18.917  1.00  0.00     0.020 A 
ATOM      9  C   UNL     1      -2.552  -4.766  20.258  1.00  0.00     0.047 A 
ATOM     10  C   UNL     1      -3.763  -5.235  20.783  1.00  0.00     0.125 A 
ATOM     11  C   UNL     1      -4.907  -5.328  19.958  1.00  0.00     0.069 A 
ENDROOT
BRANCH   1  12
ATOM     12  C   UNL     1      -4.630  -3.961  14.456  1.00  0.00    -0.011 A 
ATOM     13  C   UNL     1      -3.562  -4.362  13.634  1.00  0.00     0.013 A 
ATOM     14  C   UNL     1      -3.561  -4.044  12.272  1.00  0.00     0.047 A 
ATOM     15  C   UNL     1      -4.626  -3.330  11.714  1.00  0.00     0.115 A 
ATOM     16  C   UNL     1      -5.700  -3.248  13.887  1.00  0.00     0.013 A 
ATOM     17  C   UNL     1      -5.696  -2.933  12.526  1.00  0.00     0.047 A 
BRANCH  15  18
ATOM     18  O   UNL     1      -4.611  -3.021  10.356  1.00  0.00    -0.508 OA
ATOM     19  H   UNL     1      -5.468  -2.855   9.842  1.00  0.00     0.293 HD
ENDBRANCH  15  18
ENDBRANCH   1  12
BRANCH  11  20
ATOM     20  C   UNL     1      -6.220  -5.858  20.521  1.00  0.00     0.188 C 
ATOM     21  C   UNL     1      -6.396  -7.344  20.133  1.00  0.00     0.179 C 
ATOM     22  O   UNL     1      -7.287  -5.062  20.027  1.00  0.00    -0.362 OA
ATOM     23  C   UNL     1      -7.753  -7.884  20.646  1.00  0.00     0.177 C 
ATOM     24  C   UNL     1      -8.555  -5.450  20.541  1.00  0.00     0.176 C 
ATOM     25  C   UNL     1      -8.884  -6.931  20.226  1.00  0.00     0.177 C 
BRANCH  21  26
ATOM     26  O   UNL     1      -5.334  -8.107  20.649  1.00  0.00    -0.387 OA
ATOM     27  H   UNL     1      -5.608  -9.059  20.582  1.00  0.00     0.211 HD
ENDBRANCH  21  26
BRANCH  23  28
ATOM     28  O   UNL     1      -7.795  -8.123  22.038  1.00  0.00    -0.387 OA
ATOM     29  H   UNL     1      -8.713  -8.367  22.318  1.00  0.00     0.211 HD
ENDBRANCH  23  28
BRANCH  24  30
ATOM     30  C   UNL     1      -8.748  -5.042  22.020  1.00  0.00     0.191 C 
BRANCH  30  31
ATOM     31  O   UNL     1      -9.522  -3.877  22.110  1.00  0.00    -0.394 OA
ATOM     32  H   UNL     1     -10.427  -4.158  22.404  1.00  0.00     0.210 HD
ENDBRANCH  30  31
ENDBRANCH  24  30
BRANCH  25  33
ATOM     33  O   UNL     1     -10.098  -7.300  20.830  1.00  0.00    -0.388 OA
ATOM     34  H   UNL     1     -10.710  -6.523  20.743  1.00  0.00     0.211 HD
ENDBRANCH  25  33
ENDBRANCH  11  20
BRANCH  10  35
ATOM     35  O   UNL     1      -3.826  -5.613  22.125  1.00  0.00    -0.507 OA
ATOM     36  H   UNL     1      -3.838  -6.587  22.404  1.00  0.00     0.293 HD
ENDBRANCH  10  35
TORSDOF 9
ENDMDL
MODEL 5
REMARK VINA RESULT:    -3.405     16.191     18.138
REMARK INTER + INTRA:          -3.431
REMARK INTER:                  -4.234
REMARK INTRA:                   0.804
REMARK UNBOUND:                 1.169
REMARK SMILES O=c1c(-c2ccc(O)cc2)coc2c([C@H]3O[C@H](CO)[C@H](O)[C@H](O)[C@@H]3O)c(O)ccc12
REMARK SMILES IDX 3 1 11 2 12 3 13 4 30 5 2 6 1 7 29 8 28 9 26 10 14 11 4 12
REMARK SMILES IDX 5 13 6 14 7 15 10 16 9 17 8 18 15 20 24 21 16 22 22 23 17 24
REMARK SMILES IDX 20 25 25 26 23 28 18 30 19 31 21 33 27 35
REMARK H PARENT 8 19 25 27 23 29 19 32 21 34 27 36
REMARK Flexibility Score: inf
ROOT
ATOM      1  C   UNL     1      -4.984  -4.247  15.787  1.00  0.00     0.065 A 
ATOM      2  C   UNL     1      -6.238  -4.678  16.240  1.00  0.00     0.208 A 
ATOM      3  O   UNL     1      -6.436  -4.978  17.518  1.00  0.00    -0.463 OA
ATOM      4  C   UNL     1      -5.481  -4.895  18.441  1.00  0.00     0.147 A 
ATOM      5  C   UNL     1      -4.184  -4.469  18.070  1.00  0.00     0.066 A 
ATOM      6  C   UNL     1      -3.942  -4.136  16.726  1.00  0.00     0.200 A 
ATOM      7  O   UNL     1      -2.806  -3.720  16.367  1.00  0.00    -0.288 OA
ATOM      8  C   UNL     1      -3.177  -4.391  19.044  1.00  0.00     0.020 A 
ATOM      9  C   UNL     1      -3.448  -4.742  20.365  1.00  0.00     0.047 A 
ATOM     10  C   UNL     1      -4.727  -5.168  20.742  1.00  0.00     0.125 A 
ATOM     11  C   UNL     1      -5.766  -5.232  19.786  1.00  0.00     0.069 A 
ENDROOT
BRANCH   1  12
ATOM     12  C   UNL     1      -4.789  -3.919  14.352  1.00  0.00    -0.011 A 
ATOM     13  C   UNL     1      -3.762  -4.529  13.610  1.00  0.00     0.013 A 
ATOM     14  C   UNL     1      -3.588  -4.221  12.257  1.00  0.00     0.047 A 
ATOM     15  C   UNL     1      -4.438  -3.306  11.628  1.00  0.00     0.115 A 
ATOM     16  C   UNL     1      -5.643  -3.004  13.711  1.00  0.00     0.013 A 
ATOM     17  C   UNL     1      -5.466  -2.699  12.359  1.00  0.00     0.047 A 
BRANCH  15  18
ATOM     18  O   UNL     1      -4.253  -3.009  10.280  1.00  0.00    -0.508 OA
ATOM     19  H   UNL     1      -4.203  -2.053   9.951  1.00  0.00     0.293 HD
ENDBRANCH  15  18
ENDBRANCH   1  12
BRANCH  11  20
ATOM     20  C   UNL     1      -7.153  -5.715  20.189  1.00  0.00     0.188 C 
ATOM     21  C   UNL     1      -7.407  -5.401  21.682  1.00  0.00     0.179 C 
ATOM     22  O   UNL     1      -7.250  -7.108  19.928  1.00  0.00    -0.362 OA
ATOM     23  C   UNL     1      -8.790  -5.938  22.125  1.00  0.00     0.177 C 
ATOM     24  C   UNL     1      -8.533  -7.643  20.226  1.00  0.00     0.176 C 
ATOM     25  C   UNL     1      -8.935  -7.410  21.704  1.00  0.00     0.177 C 
BRANCH  21  26
ATOM     26  O   UNL     1      -7.321  -4.016  21.905  1.00  0.00    -0.387 OA
ATOM     27  H   UNL     1      -7.878  -3.820  22.703  1.00  0.00     0.211 HD
ENDBRANCH  21  26
BRANCH  23  28
ATOM     28  O   UNL     1      -9.886  -5.178  21.659  1.00  0.00    -0.387 OA
ATOM     29  H   UNL     1      -9.576  -4.304  21.311  1.00  0.00     0.211 HD
ENDBRANCH  23  28
BRANCH  24  30
ATOM     30  C   UNL     1      -9.604  -7.231  19.190  1.00  0.00     0.191 C 
BRANCH  30  31
ATOM     31  O   UNL     1      -9.328  -5.954  18.682  1.00  0.00    -0.394 OA
ATOM     32  H   UNL     1      -8.572  -5.593  19.214  1.00  0.00     0.210 HD
ENDBRANCH  30  31
ENDBRANCH  24  30
BRANCH  25  33
ATOM     33  O   UNL     1     -10.244  -7.868  21.933  1.00  0.00    -0.388 OA
ATOM     34  H   UNL     1     -10.320  -8.044  22.907  1.00  0.00     0.211 HD
ENDBRANCH  25  33
ENDBRANCH  11  20
BRANCH  10  35
ATOM     35  O   UNL     1      -4.963  -5.533  22.068  1.00  0.00    -0.507 OA
ATOM     36  H   UNL     1      -4.441  -6.278  22.517  1.00  0.00     0.293 HD
ENDBRANCH  10  35
TORSDOF 9
ENDMDL
