MODEL 1
REMARK VINA RESULT:    -7.823      0.000      0.000
REMARK INTER + INTRA:         -12.538
REMARK INTER:                 -10.796
REMARK INTRA:                  -1.743
REMARK UNBOUND:                -1.743
REMARK SMILES O=C([O-])[C@H]1O[C@@H](Oc2cc3oc(-c4ccccc4)cc(=O)c3c(O)c2O)[C@@H](O)[C@@H](O)[C@H]1O
REMARK SMILES IDX 7 1 6 2 4 3 31 4 5 5 29 6 27 7 2 8 1 9 3 10 32 11 30 13
REMARK SMILES IDX 28 15 8 17 25 18 9 19 23 20 10 21 22 22 11 23 20 24 12 25
REMARK SMILES IDX 19 26 21 27 26 28 24 30 13 32 14 33 18 34 15 35 17 36 16 37
REMARK H PARENT 32 12 30 14 28 16 26 29 24 31
REMARK Flexibility Score: inf
ROOT
ATOM      1  O   UNL     1       0.607 -55.455 -25.259  1.00  0.00    -0.458 OA
ENDROOT
BRANCH   1   2
ATOM      2  C   UNL     1       0.070 -54.228 -25.768  1.00  0.00     0.339 C 
ATOM      3  C   UNL     1      -0.037 -53.134 -23.653  1.00  0.00     0.199 C 
ATOM      4  C   UNL     1      -1.589 -53.240 -23.615  1.00  0.00     0.180 C 
ATOM      5  O   UNL     1       0.488 -53.124 -24.977  1.00  0.00    -0.328 OA
ATOM      6  C   UNL     1      -2.125 -54.385 -24.496  1.00  0.00     0.181 C 
ATOM      7  C   UNL     1      -1.466 -54.298 -25.880  1.00  0.00     0.214 C 
BRANCH   3   8
ATOM      8  C   UNL     1       0.726 -54.088 -22.766  1.00  0.00     0.073 C 
ATOM      9  O   UNL     1       0.152 -55.020 -22.144  1.00  0.00    -0.547 OA
ATOM     10  O   UNL     1       2.099 -53.927 -22.627  1.00  0.00    -0.547 OA
ENDBRANCH   3   8
BRANCH   4  11
ATOM     11  O   UNL     1      -2.047 -53.362 -22.292  1.00  0.00    -0.387 OA
ATOM     12  H   UNL     1      -2.044 -54.329 -22.075  1.00  0.00     0.211 HD
ENDBRANCH   4  11
BRANCH   6  13
ATOM     13  O   UNL     1      -1.871 -55.637 -23.910  1.00  0.00    -0.387 OA
ATOM     14  H   UNL     1      -2.009 -56.322 -24.616  1.00  0.00     0.211 HD
ENDBRANCH   6  13
BRANCH   7  15
ATOM     15  O   UNL     1      -1.880 -55.350 -26.718  1.00  0.00    -0.384 OA
ATOM     16  H   UNL     1      -1.091 -55.917 -26.918  1.00  0.00     0.211 HD
ENDBRANCH   7  15
ENDBRANCH   1   2
BRANCH   1  17
ATOM     17  C   UNL     1       1.903 -55.919 -25.519  1.00  0.00     0.172 A 
ATOM     18  C   UNL     1       2.624 -56.687 -24.582  1.00  0.00     0.201 A 
ATOM     19  C   UNL     1       2.500 -55.558 -26.726  1.00  0.00     0.098 A 
ATOM     20  C   UNL     1       3.912 -57.178 -24.914  1.00  0.00     0.176 A 
ATOM     21  C   UNL     1       3.779 -56.003 -27.053  1.00  0.00     0.146 A 
ATOM     22  C   UNL     1       4.497 -56.825 -26.156  1.00  0.00     0.111 A 
ATOM     23  O   UNL     1       4.307 -55.650 -28.222  1.00  0.00    -0.456 OA
ATOM     24  C   UNL     1       5.783 -57.253 -26.554  1.00  0.00     0.197 A 
ATOM     25  C   UNL     1       5.512 -56.041 -28.628  1.00  0.00     0.138 A 
ATOM     26  C   UNL     1       6.289 -56.858 -27.793  1.00  0.00     0.100 A 
ATOM     27  O   UNL     1       6.493 -57.985 -25.813  1.00  0.00    -0.289 OA
BRANCH  18  28
ATOM     28  O   UNL     1       2.057 -56.900 -23.323  1.00  0.00    -0.502 OA
ATOM     29  H   UNL     1       2.588 -57.022 -22.472  1.00  0.00     0.293 HD
ENDBRANCH  18  28
BRANCH  20  30
ATOM     30  O   UNL     1       4.616 -58.015 -24.041  1.00  0.00    -0.504 OA
ATOM     31  H   UNL     1       5.257 -57.691 -23.337  1.00  0.00     0.293 HD
ENDBRANCH  20  30
BRANCH  25  32
ATOM     32  C   UNL     1       6.000 -55.588 -29.954  1.00  0.00     0.017 A 
ATOM     33  C   UNL     1       5.123 -55.399 -31.039  1.00  0.00     0.012 A 
ATOM     34  C   UNL     1       7.368 -55.310 -30.131  1.00  0.00     0.012 A 
ATOM     35  C   UNL     1       5.611 -54.958 -32.273  1.00  0.00     0.001 A 
ATOM     36  C   UNL     1       7.851 -54.873 -31.368  1.00  0.00     0.001 A 
ATOM     37  C   UNL     1       6.973 -54.699 -32.439  1.00  0.00     0.000 A 
ENDBRANCH  25  32
ENDBRANCH   1  17
TORSDOF 9
ENDMDL
MODEL 2
REMARK VINA RESULT:    -7.670      4.240      6.151
REMARK INTER + INTRA:         -12.328
REMARK INTER:                 -10.763
REMARK INTRA:                  -1.564
REMARK UNBOUND:                -1.743
REMARK SMILES O=C([O-])[C@H]1O[C@@H](Oc2cc3oc(-c4ccccc4)cc(=O)c3c(O)c2O)[C@@H](O)[C@@H](O)[C@H]1O
REMARK SMILES IDX 7 1 6 2 4 3 31 4 5 5 29 6 27 7 2 8 1 9 3 10 32 11 30 13
REMARK SMILES IDX 28 15 8 17 25 18 9 19 23 20 10 21 22 22 11 23 20 24 12 25
REMARK SMILES IDX 19 26 21 27 26 28 24 30 13 32 14 33 18 34 15 35 17 36 16 37
REMARK H PARENT 32 12 30 14 28 16 26 29 24 31
REMARK Flexibility Score: inf
ROOT
ATOM      1  O   UNL     1       1.940 -49.675 -22.977  1.00  0.00    -0.458 OA
ENDROOT
BRANCH   1   2
ATOM      2  C   UNL     1       3.167 -48.965 -23.179  1.00  0.00     0.339 C 
ATOM      3  C   UNL     1       2.722 -47.277 -21.556  1.00  0.00     0.199 C 
ATOM      4  C   UNL     1       2.478 -46.205 -22.656  1.00  0.00     0.180 C 
ATOM      5  O   UNL     1       3.587 -48.326 -21.982  1.00  0.00    -0.328 OA
ATOM      6  C   UNL     1       2.070 -46.826 -24.006  1.00  0.00     0.181 C 
ATOM      7  C   UNL     1       3.044 -47.963 -24.346  1.00  0.00     0.214 C 
BRANCH   3   8
ATOM      8  C   UNL     1       1.498 -47.824 -20.862  1.00  0.00     0.073 C 
ATOM      9  O   UNL     1       1.585 -48.621 -19.892  1.00  0.00    -0.547 OA
ATOM     10  O   UNL     1       0.240 -47.443 -21.314  1.00  0.00    -0.547 OA
ENDBRANCH   3   8
BRANCH   4  11
ATOM     11  O   UNL     1       1.531 -45.259 -22.227  1.00  0.00    -0.387 OA
ATOM     12  H   UNL     1       0.881 -45.147 -22.966  1.00  0.00     0.211 HD
ENDBRANCH   4  11
BRANCH   6  13
ATOM     13  O   UNL     1       0.750 -47.307 -23.965  1.00  0.00    -0.387 OA
ATOM     14  H   UNL     1       0.618 -47.863 -24.777  1.00  0.00     0.211 HD
ENDBRANCH   6  13
BRANCH   7  15
ATOM     15  O   UNL     1       2.694 -48.604 -25.548  1.00  0.00    -0.384 OA
ATOM     16  H   UNL     1       2.862 -47.976 -26.296  1.00  0.00     0.211 HD
ENDBRANCH   7  15
ENDBRANCH   1   2
BRANCH   1  17
ATOM     17  C   UNL     1       1.781 -51.053 -23.174  1.00  0.00     0.172 A 
ATOM     18  C   UNL     1       0.994 -51.845 -22.315  1.00  0.00     0.201 A 
ATOM     19  C   UNL     1       2.472 -51.649 -24.228  1.00  0.00     0.098 A 
ATOM     20  C   UNL     1       0.821 -53.226 -22.588  1.00  0.00     0.176 A 
ATOM     21  C   UNL     1       2.342 -53.012 -24.489  1.00  0.00     0.146 A 
ATOM     22  C   UNL     1       1.509 -53.814 -23.678  1.00  0.00     0.111 A 
ATOM     23  O   UNL     1       3.006 -53.539 -25.514  1.00  0.00    -0.456 OA
ATOM     24  C   UNL     1       1.411 -55.185 -24.005  1.00  0.00     0.197 A 
ATOM     25  C   UNL     1       2.930 -54.824 -25.851  1.00  0.00     0.138 A 
ATOM     26  C   UNL     1       2.125 -55.688 -25.094  1.00  0.00     0.100 A 
ATOM     27  O   UNL     1       0.693 -55.974 -23.332  1.00  0.00    -0.289 OA
BRANCH  18  28
ATOM     28  O   UNL     1       0.440 -51.244 -21.181  1.00  0.00    -0.502 OA
ATOM     29  H   UNL     1      -0.547 -51.234 -20.967  1.00  0.00     0.293 HD
ENDBRANCH  18  28
BRANCH  20  30
ATOM     30  O   UNL     1      -0.024 -54.020 -21.805  1.00  0.00    -0.504 OA
ATOM     31  H   UNL     1      -0.713 -53.659 -21.168  1.00  0.00     0.293 HD
ENDBRANCH  20  30
BRANCH  25  32
ATOM     32  C   UNL     1       3.712 -55.304 -27.017  1.00  0.00     0.017 A 
ATOM     33  C   UNL     1       4.844 -56.125 -26.859  1.00  0.00     0.012 A 
ATOM     34  C   UNL     1       3.300 -54.958 -28.318  1.00  0.00     0.012 A 
ATOM     35  C   UNL     1       5.553 -56.574 -27.977  1.00  0.00     0.001 A 
ATOM     36  C   UNL     1       4.016 -55.407 -29.432  1.00  0.00     0.001 A 
ATOM     37  C   UNL     1       5.142 -56.212 -29.262  1.00  0.00     0.000 A 
ENDBRANCH  25  32
ENDBRANCH   1  17
TORSDOF 9
ENDMDL
MODEL 3
REMARK VINA RESULT:    -7.521      3.891      6.308
REMARK INTER + INTRA:         -12.122
REMARK INTER:                 -10.529
REMARK INTRA:                  -1.593
REMARK UNBOUND:                -1.743
REMARK SMILES O=C([O-])[C@H]1O[C@@H](Oc2cc3oc(-c4ccccc4)cc(=O)c3c(O)c2O)[C@@H](O)[C@@H](O)[C@H]1O
REMARK SMILES IDX 7 1 6 2 4 3 31 4 5 5 29 6 27 7 2 8 1 9 3 10 32 11 30 13
REMARK SMILES IDX 28 15 8 17 25 18 9 19 23 20 10 21 22 22 11 23 20 24 12 25
REMARK SMILES IDX 19 26 21 27 26 28 24 30 13 32 14 33 18 34 15 35 17 36 16 37
REMARK H PARENT 32 12 30 14 28 16 26 29 24 31
REMARK Flexibility Score: inf
ROOT
ATOM      1  O   UNL     1       1.299 -50.187 -22.064  1.00  0.00    -0.458 OA
ENDROOT
BRANCH   1   2
ATOM      2  C   UNL     1       0.382 -49.094 -22.190  1.00  0.00     0.339 C 
ATOM      3  C   UNL     1       2.028 -47.488 -22.815  1.00  0.00     0.199 C 
ATOM      4  C   UNL     1       1.940 -46.777 -21.433  1.00  0.00     0.180 C 
ATOM      5  O   UNL     1       0.828 -48.167 -23.170  1.00  0.00    -0.328 OA
ATOM      6  C   UNL     1       1.410 -47.706 -20.324  1.00  0.00     0.181 C 
ATOM      7  C   UNL     1       0.141 -48.410 -20.828  1.00  0.00     0.214 C 
BRANCH   3   8
ATOM      8  C   UNL     1       3.241 -48.357 -23.050  1.00  0.00     0.073 C 
ATOM      9  O   UNL     1       4.129 -48.511 -22.171  1.00  0.00    -0.547 OA
ATOM     10  O   UNL     1       3.384 -48.997 -24.275  1.00  0.00    -0.547 OA
ENDBRANCH   3   8
BRANCH   4  11
ATOM     11  O   UNL     1       3.182 -46.223 -21.079  1.00  0.00    -0.387 OA
ATOM     12  H   UNL     1       3.872 -46.899 -21.300  1.00  0.00     0.211 HD
ENDBRANCH   4  11
BRANCH   6  13
ATOM     13  O   UNL     1       2.379 -48.653 -19.948  1.00  0.00    -0.387 OA
ATOM     14  H   UNL     1       1.893 -49.481 -19.694  1.00  0.00     0.211 HD
ENDBRANCH   6  13
BRANCH   7  15
ATOM     15  O   UNL     1      -0.365 -49.312 -19.875  1.00  0.00    -0.384 OA
ATOM     16  H   UNL     1      -0.722 -50.103 -20.354  1.00  0.00     0.211 HD
ENDBRANCH   7  15
ENDBRANCH   1   2
BRANCH   1  17
ATOM     17  C   UNL     1       1.047 -51.487 -22.521  1.00  0.00     0.172 A 
ATOM     18  C   UNL     1       0.044 -52.298 -21.952  1.00  0.00     0.201 A 
ATOM     19  C   UNL     1       1.857 -51.995 -23.535  1.00  0.00     0.098 A 
ATOM     20  C   UNL     1      -0.208 -53.587 -22.485  1.00  0.00     0.176 A 
ATOM     21  C   UNL     1       1.646 -53.274 -24.046  1.00  0.00     0.146 A 
ATOM     22  C   UNL     1       0.607 -54.082 -23.535  1.00  0.00     0.111 A 
ATOM     23  O   UNL     1       2.431 -53.716 -25.025  1.00  0.00    -0.456 OA
ATOM     24  C   UNL     1       0.437 -55.362 -24.106  1.00  0.00     0.197 A 
ATOM     25  C   UNL     1       2.294 -54.913 -25.589  1.00  0.00     0.138 A 
ATOM     26  C   UNL     1       1.286 -55.777 -25.135  1.00  0.00     0.100 A 
ATOM     27  O   UNL     1      -0.462 -56.149 -23.708  1.00  0.00    -0.289 OA
BRANCH  18  28
ATOM     28  O   UNL     1      -0.646 -51.815 -20.837  1.00  0.00    -0.502 OA
ATOM     29  H   UNL     1      -0.315 -51.069 -20.241  1.00  0.00     0.293 HD
ENDBRANCH  18  28
BRANCH  20  30
ATOM     30  O   UNL     1      -1.254 -54.381 -22.001  1.00  0.00    -0.504 OA
ATOM     31  H   UNL     1      -1.644 -54.304 -21.078  1.00  0.00     0.293 HD
ENDBRANCH  20  30
BRANCH  25  32
ATOM     32  C   UNL     1       3.225 -55.301 -26.677  1.00  0.00     0.017 A 
ATOM     33  C   UNL     1       4.375 -56.073 -26.424  1.00  0.00     0.012 A 
ATOM     34  C   UNL     1       2.943 -54.917 -28.001  1.00  0.00     0.012 A 
ATOM     35  C   UNL     1       5.227 -56.436 -27.473  1.00  0.00     0.001 A 
ATOM     36  C   UNL     1       3.800 -55.279 -29.044  1.00  0.00     0.001 A 
ATOM     37  C   UNL     1       4.942 -56.036 -28.780  1.00  0.00     0.000 A 
ENDBRANCH  25  32
ENDBRANCH   1  17
TORSDOF 9
ENDMDL
MODEL 4
REMARK VINA RESULT:    -7.477      1.109      2.244
REMARK INTER + INTRA:         -12.061
REMARK INTER:                 -10.462
REMARK INTRA:                  -1.598
REMARK UNBOUND:                -1.743
REMARK SMILES O=C([O-])[C@H]1O[C@@H](Oc2cc3oc(-c4ccccc4)cc(=O)c3c(O)c2O)[C@@H](O)[C@@H](O)[C@H]1O
REMARK SMILES IDX 7 1 6 2 4 3 31 4 5 5 29 6 27 7 2 8 1 9 3 10 32 11 30 13
REMARK SMILES IDX 28 15 8 17 25 18 9 19 23 20 10 21 22 22 11 23 20 24 12 25
REMARK SMILES IDX 19 26 21 27 26 28 24 30 13 32 14 33 18 34 15 35 17 36 16 37
REMARK H PARENT 32 12 30 14 28 16 26 29 24 31
REMARK Flexibility Score: inf
ROOT
ATOM      1  O   UNL     1       0.631 -55.663 -25.394  1.00  0.00    -0.458 OA
ENDROOT
BRANCH   1   2
ATOM      2  C   UNL     1       0.251 -54.816 -24.303  1.00  0.00     0.339 C 
ATOM      3  C   UNL     1      -1.761 -55.989 -23.795  1.00  0.00     0.199 C 
ATOM      4  C   UNL     1      -2.641 -54.840 -24.367  1.00  0.00     0.180 C 
ATOM      5  O   UNL     1      -0.491 -55.540 -23.331  1.00  0.00    -0.328 OA
ATOM      6  C   UNL     1      -1.886 -53.973 -25.392  1.00  0.00     0.181 C 
ATOM      7  C   UNL     1      -0.523 -53.579 -24.804  1.00  0.00     0.214 C 
BRANCH   3   8
ATOM      8  C   UNL     1      -1.627 -57.227 -24.649  1.00  0.00     0.073 C 
ATOM      9  O   UNL     1      -2.359 -57.422 -25.654  1.00  0.00    -0.547 OA
ATOM     10  O   UNL     1      -0.674 -58.180 -24.311  1.00  0.00    -0.547 OA
ENDBRANCH   3   8
BRANCH   4  11
ATOM     11  O   UNL     1      -3.830 -55.352 -24.915  1.00  0.00    -0.387 OA
ATOM     12  H   UNL     1      -3.626 -56.263 -25.246  1.00  0.00     0.211 HD
ENDBRANCH   4  11
BRANCH   6  13
ATOM     13  O   UNL     1      -1.716 -54.657 -26.609  1.00  0.00    -0.387 OA
ATOM     14  H   UNL     1      -1.993 -55.598 -26.454  1.00  0.00     0.211 HD
ENDBRANCH   6  13
BRANCH   7  15
ATOM     15  O   UNL     1       0.237 -52.824 -25.715  1.00  0.00    -0.384 OA
ATOM     16  H   UNL     1       1.180 -52.824 -25.409  1.00  0.00     0.211 HD
ENDBRANCH   7  15
ENDBRANCH   1   2
BRANCH   1  17
ATOM     17  C   UNL     1       1.939 -56.103 -25.635  1.00  0.00     0.172 A 
ATOM     18  C   UNL     1       2.646 -56.893 -24.706  1.00  0.00     0.201 A 
ATOM     19  C   UNL     1       2.562 -55.693 -26.813  1.00  0.00     0.098 A 
ATOM     20  C   UNL     1       3.948 -57.357 -25.020  1.00  0.00     0.176 A 
ATOM     21  C   UNL     1       3.855 -56.111 -27.121  1.00  0.00     0.146 A 
ATOM     22  C   UNL     1       4.560 -56.954 -26.234  1.00  0.00     0.111 A 
ATOM     23  O   UNL     1       4.409 -55.711 -28.263  1.00  0.00    -0.456 OA
ATOM     24  C   UNL     1       5.862 -57.352 -26.612  1.00  0.00     0.197 A 
ATOM     25  C   UNL     1       5.628 -56.073 -28.651  1.00  0.00     0.138 A 
ATOM     26  C   UNL     1       6.395 -56.908 -27.824  1.00  0.00     0.100 A 
ATOM     27  O   UNL     1       6.562 -58.100 -25.878  1.00  0.00    -0.289 OA
BRANCH  18  28
ATOM     28  O   UNL     1       2.049 -57.156 -23.470  1.00  0.00    -0.502 OA
ATOM     29  H   UNL     1       1.984 -58.074 -23.053  1.00  0.00     0.293 HD
ENDBRANCH  18  28
BRANCH  20  30
ATOM     30  O   UNL     1       4.641 -58.214 -24.158  1.00  0.00    -0.504 OA
ATOM     31  H   UNL     1       5.490 -58.695 -24.398  1.00  0.00     0.293 HD
ENDBRANCH  20  30
BRANCH  25  32
ATOM     32  C   UNL     1       6.144 -55.570 -29.947  1.00  0.00     0.017 A 
ATOM     33  C   UNL     1       7.501 -55.239 -30.124  1.00  0.00     0.012 A 
ATOM     34  C   UNL     1       5.268 -55.445 -31.041  1.00  0.00     0.012 A 
ATOM     35  C   UNL     1       7.962 -54.780 -31.362  1.00  0.00     0.001 A 
ATOM     36  C   UNL     1       5.733 -54.982 -32.275  1.00  0.00     0.001 A 
ATOM     37  C   UNL     1       7.078 -54.648 -32.435  1.00  0.00     0.000 A 
ENDBRANCH  25  32
ENDBRANCH   1  17
TORSDOF 9
ENDMDL
MODEL 5
REMARK VINA RESULT:    -7.405      2.847      8.732
REMARK INTER + INTRA:         -11.961
REMARK INTER:                 -10.262
REMARK INTRA:                  -1.699
REMARK UNBOUND:                -1.743
REMARK SMILES O=C([O-])[C@H]1O[C@@H](Oc2cc3oc(-c4ccccc4)cc(=O)c3c(O)c2O)[C@@H](O)[C@@H](O)[C@H]1O
REMARK SMILES IDX 7 1 6 2 4 3 31 4 5 5 29 6 27 7 2 8 1 9 3 10 32 11 30 13
REMARK SMILES IDX 28 15 8 17 25 18 9 19 23 20 10 21 22 22 11 23 20 24 12 25
REMARK SMILES IDX 19 26 21 27 26 28 24 30 13 32 14 33 18 34 15 35 17 36 16 37
REMARK H PARENT 32 12 30 14 28 16 26 29 24 31
REMARK Flexibility Score: inf
ROOT
ATOM      1  O   UNL     1       7.133 -55.662 -29.562  1.00  0.00    -0.458 OA
ENDROOT
BRANCH   1   2
ATOM      2  C   UNL     1       7.251 -56.415 -30.775  1.00  0.00     0.339 C 
ATOM      3  C   UNL     1       9.535 -55.854 -31.167  1.00  0.00     0.199 C 
ATOM      4  C   UNL     1       9.159 -54.916 -32.350  1.00  0.00     0.180 C 
ATOM      5  O   UNL     1       8.579 -56.889 -30.951  1.00  0.00    -0.328 OA
ATOM      6  C   UNL     1       7.709 -54.403 -32.259  1.00  0.00     0.181 C 
ATOM      7  C   UNL     1       6.775 -55.591 -31.989  1.00  0.00     0.214 C 
BRANCH   3   8
ATOM      8  C   UNL     1       9.920 -55.184 -29.870  1.00  0.00     0.073 C 
ATOM      9  O   UNL     1      10.362 -55.839 -28.890  1.00  0.00    -0.547 OA
ATOM     10  O   UNL     1       9.775 -53.807 -29.753  1.00  0.00    -0.547 OA
ENDBRANCH   3   8
BRANCH   4  11
ATOM     11  O   UNL     1      10.069 -53.849 -32.446  1.00  0.00    -0.387 OA
ATOM     12  H   UNL     1       9.629 -53.058 -32.044  1.00  0.00     0.211 HD
ENDBRANCH   4  11
BRANCH   6  13
ATOM     13  O   UNL     1       7.576 -53.435 -31.247  1.00  0.00    -0.387 OA
ATOM     14  H   UNL     1       7.283 -53.912 -30.426  1.00  0.00     0.211 HD
ENDBRANCH   6  13
BRANCH   7  15
ATOM     15  O   UNL     1       5.438 -55.179 -31.847  1.00  0.00    -0.384 OA
ATOM     16  H   UNL     1       5.217 -54.574 -32.601  1.00  0.00     0.211 HD
ENDBRANCH   7  15
ENDBRANCH   1   2
BRANCH   1  17
ATOM     17  C   UNL     1       6.553 -56.149 -28.383  1.00  0.00     0.172 A 
ATOM     18  C   UNL     1       7.252 -57.001 -27.504  1.00  0.00     0.201 A 
ATOM     19  C   UNL     1       5.228 -55.810 -28.114  1.00  0.00     0.098 A 
ATOM     20  C   UNL     1       6.640 -57.423 -26.296  1.00  0.00     0.176 A 
ATOM     21  C   UNL     1       4.600 -56.246 -26.949  1.00  0.00     0.146 A 
ATOM     22  C   UNL     1       5.300 -57.050 -26.022  1.00  0.00     0.111 A 
ATOM     23  O   UNL     1       3.340 -55.888 -26.722  1.00  0.00    -0.456 OA
ATOM     24  C   UNL     1       4.611 -57.446 -24.855  1.00  0.00     0.197 A 
ATOM     25  C   UNL     1       2.665 -56.239 -25.631  1.00  0.00     0.138 A 
ATOM     26  C   UNL     1       3.289 -57.039 -24.662  1.00  0.00     0.100 A 
ATOM     27  O   UNL     1       5.159 -58.167 -23.978  1.00  0.00    -0.289 OA
BRANCH  18  28
ATOM     28  O   UNL     1       8.523 -57.444 -27.879  1.00  0.00    -0.502 OA
ATOM     29  H   UNL     1       8.903 -58.350 -27.642  1.00  0.00     0.293 HD
ENDBRANCH  18  28
BRANCH  20  30
ATOM     30  O   UNL     1       7.338 -58.197 -25.361  1.00  0.00    -0.504 OA
ATOM     31  H   UNL     1       8.338 -58.292 -25.338  1.00  0.00     0.293 HD
ENDBRANCH  20  30
BRANCH  25  32
ATOM     32  C   UNL     1       1.262 -55.779 -25.479  1.00  0.00     0.017 A 
ATOM     33  C   UNL     1       0.781 -54.641 -26.154  1.00  0.00     0.012 A 
ATOM     34  C   UNL     1       0.377 -56.511 -24.666  1.00  0.00     0.012 A 
ATOM     35  C   UNL     1      -0.550 -54.240 -26.002  1.00  0.00     0.001 A 
ATOM     36  C   UNL     1      -0.951 -56.103 -24.515  1.00  0.00     0.001 A 
ATOM     37  C   UNL     1      -1.414 -54.968 -25.181  1.00  0.00     0.000 A 
ENDBRANCH  25  32
ENDBRANCH   1  17
TORSDOF 9
ENDMDL
MODEL 6
REMARK VINA RESULT:    -7.311      4.386      7.190
REMARK INTER + INTRA:         -11.832
REMARK INTER:                 -10.234
REMARK INTRA:                  -1.598
REMARK UNBOUND:                -1.743
REMARK SMILES O=C([O-])[C@H]1O[C@@H](Oc2cc3oc(-c4ccccc4)cc(=O)c3c(O)c2O)[C@@H](O)[C@@H](O)[C@H]1O
REMARK SMILES IDX 7 1 6 2 4 3 31 4 5 5 29 6 27 7 2 8 1 9 3 10 32 11 30 13
REMARK SMILES IDX 28 15 8 17 25 18 9 19 23 20 10 21 22 22 11 23 20 24 12 25
REMARK SMILES IDX 19 26 21 27 26 28 24 30 13 32 14 33 18 34 15 35 17 36 16 37
REMARK H PARENT 32 12 30 14 28 16 26 29 24 31
REMARK Flexibility Score: inf
ROOT
ATOM      1  O   UNL     1       1.944 -49.335 -22.574  1.00  0.00    -0.458 OA
ENDROOT
BRANCH   1   2
ATOM      2  C   UNL     1       2.105 -48.621 -21.342  1.00  0.00     0.339 C 
ATOM      3  C   UNL     1       0.729 -46.778 -21.967  1.00  0.00     0.199 C 
ATOM      4  C   UNL     1       1.960 -45.839 -22.117  1.00  0.00     0.180 C 
ATOM      5  O   UNL     1       0.951 -47.846 -21.050  1.00  0.00    -0.328 OA
ATOM      6  C   UNL     1       3.265 -46.613 -22.383  1.00  0.00     0.181 C 
ATOM      7  C   UNL     1       3.382 -47.756 -21.364  1.00  0.00     0.214 C 
BRANCH   3   8
ATOM      8  C   UNL     1       0.099 -47.277 -23.246  1.00  0.00     0.073 C 
ATOM      9  O   UNL     1       0.549 -46.954 -24.377  1.00  0.00    -0.547 OA
ATOM     10  O   UNL     1      -1.013 -48.106 -23.172  1.00  0.00    -0.547 OA
ENDBRANCH   3   8
BRANCH   4  11
ATOM     11  O   UNL     1       1.730 -44.876 -23.115  1.00  0.00    -0.387 OA
ATOM     12  H   UNL     1       2.280 -45.135 -23.898  1.00  0.00     0.211 HD
ENDBRANCH   4  11
BRANCH   6  13
ATOM     13  O   UNL     1       3.297 -47.119 -23.694  1.00  0.00    -0.387 OA
ATOM     14  H   UNL     1       4.185 -47.546 -23.819  1.00  0.00     0.211 HD
ENDBRANCH   6  13
BRANCH   7  15
ATOM     15  O   UNL     1       4.533 -48.533 -21.586  1.00  0.00    -0.384 OA
ATOM     16  H   UNL     1       4.367 -49.120 -22.368  1.00  0.00     0.211 HD
ENDBRANCH   7  15
ENDBRANCH   1   2
BRANCH   1  17
ATOM     17  C   UNL     1       1.549 -50.676 -22.665  1.00  0.00     0.172 A 
ATOM     18  C   UNL     1       0.386 -51.157 -22.029  1.00  0.00     0.201 A 
ATOM     19  C   UNL     1       2.370 -51.556 -23.367  1.00  0.00     0.098 A 
ATOM     20  C   UNL     1      -0.000 -52.511 -22.195  1.00  0.00     0.176 A 
ATOM     21  C   UNL     1       2.023 -52.899 -23.510  1.00  0.00     0.146 A 
ATOM     22  C   UNL     1       0.831 -53.390 -22.934  1.00  0.00     0.111 A 
ATOM     23  O   UNL     1       2.825 -53.703 -24.202  1.00  0.00    -0.456 OA
ATOM     24  C   UNL     1       0.530 -54.757 -23.128  1.00  0.00     0.197 A 
ATOM     25  C   UNL     1       2.569 -54.992 -24.408  1.00  0.00     0.138 A 
ATOM     26  C   UNL     1       1.404 -55.557 -23.867  1.00  0.00     0.100 A 
ATOM     27  O   UNL     1      -0.510 -55.279 -22.645  1.00  0.00    -0.289 OA
BRANCH  18  28
ATOM     28  O   UNL     1      -0.330 -50.283 -21.206  1.00  0.00    -0.502 OA
ATOM     29  H   UNL     1      -0.716 -49.401 -21.512  1.00  0.00     0.293 HD
ENDBRANCH  18  28
BRANCH  20  30
ATOM     30  O   UNL     1      -1.194 -52.997 -21.649  1.00  0.00    -0.504 OA
ATOM     31  H   UNL     1      -2.068 -53.039 -22.144  1.00  0.00     0.293 HD
ENDBRANCH  20  30
BRANCH  25  32
ATOM     32  C   UNL     1       3.533 -55.795 -25.199  1.00  0.00     0.017 A 
ATOM     33  C   UNL     1       4.104 -56.976 -24.688  1.00  0.00     0.012 A 
ATOM     34  C   UNL     1       3.868 -55.389 -26.504  1.00  0.00     0.012 A 
ATOM     35  C   UNL     1       5.000 -57.720 -25.462  1.00  0.00     0.001 A 
ATOM     36  C   UNL     1       4.767 -56.135 -27.272  1.00  0.00     0.001 A 
ATOM     37  C   UNL     1       5.334 -57.298 -26.751  1.00  0.00     0.000 A 
ENDBRANCH  25  32
ENDBRANCH   1  17
TORSDOF 9
ENDMDL
MODEL 7
REMARK VINA RESULT:    -7.109      4.857      9.005
REMARK INTER + INTRA:         -11.553
REMARK INTER:                  -9.797
REMARK INTRA:                  -1.755
REMARK UNBOUND:                -1.743
REMARK SMILES O=C([O-])[C@H]1O[C@@H](Oc2cc3oc(-c4ccccc4)cc(=O)c3c(O)c2O)[C@@H](O)[C@@H](O)[C@H]1O
REMARK SMILES IDX 7 1 6 2 4 3 31 4 5 5 29 6 27 7 2 8 1 9 3 10 32 11 30 13
REMARK SMILES IDX 28 15 8 17 25 18 9 19 23 20 10 21 22 22 11 23 20 24 12 25
REMARK SMILES IDX 19 26 21 27 26 28 24 30 13 32 14 33 18 34 15 35 17 36 16 37
REMARK H PARENT 32 12 30 14 28 16 26 29 24 31
REMARK Flexibility Score: inf
ROOT
ATOM      1  O   UNL     1       0.998 -53.283 -22.945  1.00  0.00    -0.458 OA
ENDROOT
BRANCH   1   2
ATOM      2  C   UNL     1       2.138 -53.663 -23.725  1.00  0.00     0.339 C 
ATOM      3  C   UNL     1       0.980 -55.274 -25.047  1.00  0.00     0.199 C 
ATOM      4  C   UNL     1       1.682 -56.457 -24.320  1.00  0.00     0.180 C 
ATOM      5  O   UNL     1       1.748 -54.073 -25.028  1.00  0.00    -0.328 OA
ATOM      6  C   UNL     1       2.184 -56.072 -22.916  1.00  0.00     0.181 C 
ATOM      7  C   UNL     1       2.963 -54.752 -23.009  1.00  0.00     0.214 C 
BRANCH   3   8
ATOM      8  C   UNL     1      -0.459 -55.010 -24.673  1.00  0.00     0.073 C 
ATOM      9  O   UNL     1      -1.013 -55.599 -23.708  1.00  0.00    -0.547 OA
ATOM     10  O   UNL     1      -1.194 -54.099 -25.422  1.00  0.00    -0.547 OA
ENDBRANCH   3   8
BRANCH   4  11
ATOM     11  O   UNL     1       0.837 -57.579 -24.267  1.00  0.00    -0.387 OA
ATOM     12  H   UNL     1       0.729 -57.812 -23.309  1.00  0.00     0.211 HD
ENDBRANCH   4  11
BRANCH   6  13
ATOM     13  O   UNL     1       1.116 -55.949 -22.010  1.00  0.00    -0.387 OA
ATOM     14  H   UNL     1       1.445 -55.406 -21.246  1.00  0.00     0.211 HD
ENDBRANCH   6  13
BRANCH   7  15
ATOM     15  O   UNL     1       3.408 -54.322 -21.746  1.00  0.00    -0.384 OA
ATOM     16  H   UNL     1       4.385 -54.483 -21.688  1.00  0.00     0.211 HD
ENDBRANCH   7  15
ENDBRANCH   1   2
BRANCH   1  17
ATOM     17  C   UNL     1       0.590 -51.959 -22.735  1.00  0.00     0.172 A 
ATOM     18  C   UNL     1      -0.768 -51.582 -22.766  1.00  0.00     0.201 A 
ATOM     19  C   UNL     1       1.575 -50.991 -22.542  1.00  0.00     0.098 A 
ATOM     20  C   UNL     1      -1.134 -50.239 -22.495  1.00  0.00     0.176 A 
ATOM     21  C   UNL     1       1.233 -49.660 -22.310  1.00  0.00     0.146 A 
ATOM     22  C   UNL     1      -0.124 -49.270 -22.275  1.00  0.00     0.111 A 
ATOM     23  O   UNL     1       2.202 -48.769 -22.114  1.00  0.00    -0.456 OA
ATOM     24  C   UNL     1      -0.402 -47.908 -22.020  1.00  0.00     0.197 A 
ATOM     25  C   UNL     1       1.973 -47.483 -21.867  1.00  0.00     0.138 A 
ATOM     26  C   UNL     1       0.651 -47.015 -21.817  1.00  0.00     0.100 A 
ATOM     27  O   UNL     1      -1.584 -47.474 -21.975  1.00  0.00    -0.289 OA
BRANCH  18  28
ATOM     28  O   UNL     1      -1.716 -52.548 -23.115  1.00  0.00    -0.502 OA
ATOM     29  H   UNL     1      -2.698 -52.491 -22.882  1.00  0.00     0.293 HD
ENDBRANCH  18  28
BRANCH  20  30
ATOM     30  O   UNL     1      -2.477 -49.852 -22.432  1.00  0.00    -0.504 OA
ATOM     31  H   UNL     1      -2.912 -49.206 -23.067  1.00  0.00     0.293 HD
ENDBRANCH  20  30
BRANCH  25  32
ATOM     32  C   UNL     1       3.131 -46.578 -21.661  1.00  0.00     0.017 A 
ATOM     33  C   UNL     1       3.209 -45.719 -20.549  1.00  0.00     0.012 A 
ATOM     34  C   UNL     1       4.196 -46.596 -22.581  1.00  0.00     0.012 A 
ATOM     35  C   UNL     1       4.320 -44.888 -20.374  1.00  0.00     0.001 A 
ATOM     36  C   UNL     1       5.302 -45.759 -22.403  1.00  0.00     0.001 A 
ATOM     37  C   UNL     1       5.363 -44.905 -21.302  1.00  0.00     0.000 A 
ENDBRANCH  25  32
ENDBRANCH   1  17
TORSDOF 9
ENDMDL
MODEL 8
REMARK VINA RESULT:    -6.747      2.193      4.339
REMARK INTER + INTRA:         -11.054
REMARK INTER:                 -10.109
REMARK INTRA:                  -0.945
REMARK UNBOUND:                -1.743
REMARK SMILES O=C([O-])[C@H]1O[C@@H](Oc2cc3oc(-c4ccccc4)cc(=O)c3c(O)c2O)[C@@H](O)[C@@H](O)[C@H]1O
REMARK SMILES IDX 7 1 6 2 4 3 31 4 5 5 29 6 27 7 2 8 1 9 3 10 32 11 30 13
REMARK SMILES IDX 28 15 8 17 25 18 9 19 23 20 10 21 22 22 11 23 20 24 12 25
REMARK SMILES IDX 19 26 21 27 26 28 24 30 13 32 14 33 18 34 15 35 17 36 16 37
REMARK H PARENT 32 12 30 14 28 16 26 29 24 31
REMARK Flexibility Score: inf
ROOT
ATOM      1  O   UNL     1      -2.372 -54.502 -25.510  1.00  0.00    -0.458 OA
ENDROOT
BRANCH   1   2
ATOM      2  C   UNL     1      -3.499 -54.690 -24.646  1.00  0.00     0.339 C 
ATOM      3  C   UNL     1      -5.007 -55.330 -26.376  1.00  0.00     0.199 C 
ATOM      4  C   UNL     1      -5.771 -53.978 -26.287  1.00  0.00     0.180 C 
ATOM      5  O   UNL     1      -4.368 -55.691 -25.155  1.00  0.00    -0.328 OA
ATOM      6  C   UNL     1      -4.908 -52.850 -25.690  1.00  0.00     0.181 C 
ATOM      7  C   UNL     1      -4.242 -53.360 -24.404  1.00  0.00     0.214 C 
BRANCH   3   8
ATOM      8  C   UNL     1      -4.078 -55.504 -27.554  1.00  0.00     0.073 C 
ATOM      9  O   UNL     1      -3.934 -54.606 -28.424  1.00  0.00    -0.547 OA
ATOM     10  O   UNL     1      -3.370 -56.692 -27.684  1.00  0.00    -0.547 OA
ENDBRANCH   3   8
BRANCH   4  11
ATOM     11  O   UNL     1      -6.283 -53.612 -27.544  1.00  0.00    -0.387 OA
ATOM     12  H   UNL     1      -6.143 -54.385 -28.148  1.00  0.00     0.211 HD
ENDBRANCH   4  11
BRANCH   6  13
ATOM     13  O   UNL     1      -3.935 -52.416 -26.607  1.00  0.00    -0.387 OA
ATOM     14  H   UNL     1      -3.048 -52.630 -26.213  1.00  0.00     0.211 HD
ENDBRANCH   6  13
BRANCH   7  15
ATOM     15  O   UNL     1      -3.398 -52.388 -23.836  1.00  0.00    -0.384 OA
ATOM     16  H   UNL     1      -3.770 -51.493 -24.045  1.00  0.00     0.211 HD
ENDBRANCH   7  15
ENDBRANCH   1   2
BRANCH   1  17
ATOM     17  C   UNL     1      -1.053 -54.835 -25.174  1.00  0.00     0.172 A 
ATOM     18  C   UNL     1      -0.653 -55.046 -23.839  1.00  0.00     0.201 A 
ATOM     19  C   UNL     1      -0.112 -54.904 -26.200  1.00  0.00     0.098 A 
ATOM     20  C   UNL     1       0.681 -55.433 -23.555  1.00  0.00     0.176 A 
ATOM     21  C   UNL     1       1.212 -55.249 -25.934  1.00  0.00     0.146 A 
ATOM     22  C   UNL     1       1.623 -55.526 -24.611  1.00  0.00     0.111 A 
ATOM     23  O   UNL     1       2.076 -55.320 -26.943  1.00  0.00    -0.456 OA
ATOM     24  C   UNL     1       2.975 -55.883 -24.412  1.00  0.00     0.197 A 
ATOM     25  C   UNL     1       3.353 -55.659 -26.790  1.00  0.00     0.138 A 
ATOM     26  C   UNL     1       3.840 -55.948 -25.506  1.00  0.00     0.100 A 
ATOM     27  O   UNL     1       3.426 -56.143 -23.264  1.00  0.00    -0.289 OA
BRANCH  18  28
ATOM     28  O   UNL     1      -1.585 -54.818 -22.823  1.00  0.00    -0.502 OA
ATOM     29  H   UNL     1      -2.278 -55.489 -22.525  1.00  0.00     0.293 HD
ENDBRANCH  18  28
BRANCH  20  30
ATOM     30  O   UNL     1       1.087 -55.736 -22.251  1.00  0.00    -0.504 OA
ATOM     31  H   UNL     1       1.428 -55.057 -21.591  1.00  0.00     0.293 HD
ENDBRANCH  20  30
BRANCH  25  32
ATOM     32  C   UNL     1       4.227 -55.710 -27.987  1.00  0.00     0.017 A 
ATOM     33  C   UNL     1       3.755 -55.346 -29.263  1.00  0.00     0.012 A 
ATOM     34  C   UNL     1       5.572 -56.102 -27.848  1.00  0.00     0.012 A 
ATOM     35  C   UNL     1       4.607 -55.390 -30.371  1.00  0.00     0.001 A 
ATOM     36  C   UNL     1       6.417 -56.149 -28.960  1.00  0.00     0.001 A 
ATOM     37  C   UNL     1       5.935 -55.795 -30.221  1.00  0.00     0.000 A 
ENDBRANCH  25  32
ENDBRANCH   1  17
TORSDOF 9
ENDMDL
MODEL 9
REMARK VINA RESULT:    -6.671      4.601      8.284
REMARK INTER + INTRA:         -10.949
REMARK INTER:                  -9.122
REMARK INTRA:                  -1.826
REMARK UNBOUND:                -1.743
REMARK SMILES O=C([O-])[C@H]1O[C@@H](Oc2cc3oc(-c4ccccc4)cc(=O)c3c(O)c2O)[C@@H](O)[C@@H](O)[C@H]1O
REMARK SMILES IDX 7 1 6 2 4 3 31 4 5 5 29 6 27 7 2 8 1 9 3 10 32 11 30 13
REMARK SMILES IDX 28 15 8 17 25 18 9 19 23 20 10 21 22 22 11 23 20 24 12 25
REMARK SMILES IDX 19 26 21 27 26 28 24 30 13 32 14 33 18 34 15 35 17 36 16 37
REMARK H PARENT 32 12 30 14 28 16 26 29 24 31
REMARK Flexibility Score: inf
ROOT
ATOM      1  O   UNL     1       1.667 -49.882 -22.244  1.00  0.00    -0.458 OA
ENDROOT
BRANCH   1   2
ATOM      2  C   UNL     1       0.545 -49.003 -22.108  1.00  0.00     0.339 C 
ATOM      3  C   UNL     1       1.792 -46.995 -22.418  1.00  0.00     0.199 C 
ATOM      4  C   UNL     1       1.662 -46.617 -20.915  1.00  0.00     0.180 C 
ATOM      5  O   UNL     1       0.728 -47.823 -22.879  1.00  0.00    -0.328 OA
ATOM      6  C   UNL     1       1.406 -47.842 -20.017  1.00  0.00     0.181 C 
ATOM      7  C   UNL     1       0.270 -48.677 -20.626  1.00  0.00     0.214 C 
BRANCH   3   8
ATOM      8  C   UNL     1       3.133 -47.525 -22.867  1.00  0.00     0.073 C 
ATOM      9  O   UNL     1       4.100 -47.647 -22.070  1.00  0.00    -0.547 OA
ATOM     10  O   UNL     1       3.306 -47.878 -24.200  1.00  0.00    -0.547 OA
ENDBRANCH   3   8
BRANCH   4  11
ATOM     11  O   UNL     1       2.791 -45.900 -20.483  1.00  0.00    -0.387 OA
ATOM     12  H   UNL     1       3.366 -46.538 -19.988  1.00  0.00     0.211 HD
ENDBRANCH   4  11
BRANCH   6  13
ATOM     13  O   UNL     1       2.568 -48.622 -19.879  1.00  0.00    -0.387 OA
ATOM     14  H   UNL     1       2.869 -48.530 -18.937  1.00  0.00     0.211 HD
ENDBRANCH   6  13
BRANCH   7  15
ATOM     15  O   UNL     1       0.022 -49.840 -19.875  1.00  0.00    -0.384 OA
ATOM     16  H   UNL     1      -0.623 -50.403 -20.377  1.00  0.00     0.211 HD
ENDBRANCH   7  15
ENDBRANCH   1   2
BRANCH   1  17
ATOM     17  C   UNL     1       1.631 -51.112 -22.914  1.00  0.00     0.172 A 
ATOM     18  C   UNL     1       2.719 -51.579 -23.679  1.00  0.00     0.201 A 
ATOM     19  C   UNL     1       0.456 -51.860 -22.850  1.00  0.00     0.098 A 
ATOM     20  C   UNL     1       2.654 -52.855 -24.294  1.00  0.00     0.176 A 
ATOM     21  C   UNL     1       0.363 -53.101 -23.478  1.00  0.00     0.146 A 
ATOM     22  C   UNL     1       1.462 -53.617 -24.199  1.00  0.00     0.111 A 
ATOM     23  O   UNL     1      -0.770 -53.791 -23.380  1.00  0.00    -0.456 OA
ATOM     24  C   UNL     1       1.307 -54.886 -24.800  1.00  0.00     0.197 A 
ATOM     25  C   UNL     1      -0.946 -54.990 -23.928  1.00  0.00     0.138 A 
ATOM     26  C   UNL     1       0.098 -55.571 -24.663  1.00  0.00     0.100 A 
ATOM     27  O   UNL     1       2.235 -55.419 -25.466  1.00  0.00    -0.289 OA
BRANCH  18  28
ATOM     28  O   UNL     1       3.821 -50.736 -23.849  1.00  0.00    -0.502 OA
ATOM     29  H   UNL     1       4.227 -50.175 -23.112  1.00  0.00     0.293 HD
ENDBRANCH  18  28
BRANCH  20  30
ATOM     30  O   UNL     1       3.749 -53.383 -24.987  1.00  0.00    -0.504 OA
ATOM     31  H   UNL     1       4.163 -52.961 -25.800  1.00  0.00     0.293 HD
ENDBRANCH  20  30
BRANCH  25  32
ATOM     32  C   UNL     1      -2.252 -55.671 -23.752  1.00  0.00     0.017 A 
ATOM     33  C   UNL     1      -3.342 -55.030 -23.134  1.00  0.00     0.012 A 
ATOM     34  C   UNL     1      -2.422 -56.981 -24.239  1.00  0.00     0.012 A 
ATOM     35  C   UNL     1      -4.566 -55.693 -22.995  1.00  0.00     0.001 A 
ATOM     36  C   UNL     1      -3.646 -57.640 -24.093  1.00  0.00     0.001 A 
ATOM     37  C   UNL     1      -4.716 -56.997 -23.470  1.00  0.00     0.000 A 
ENDBRANCH  25  32
ENDBRANCH   1  17
TORSDOF 9
ENDMDL
