MODEL 1
REMARK VINA RESULT:    -3.111      0.000      0.000
REMARK INTER + INTRA:          -4.648
REMARK INTER:                  -4.384
REMARK INTRA:                  -0.265
REMARK UNBOUND:                -0.265
REMARK SMILES CCCCCCCCC(=O)[O-]
REMARK SMILES IDX 6 1 7 2 8 3 9 4 10 5 11 6 5 7 4 8 3 9 2 10 1 11
REMARK H PARENT
REMARK Flexibility Score: inf
ROOT
ATOM      1  C   UNL     1       9.012 -22.135 -18.271  1.00  0.00     0.000 C 
ENDROOT
BRANCH   1   2
ATOM      2  C   UNL     1       8.864 -22.131 -19.805  1.00  0.00     0.006 C 
BRANCH   2   3
ATOM      3  C   UNL     1       9.544 -20.934 -20.499  1.00  0.00     0.053 C 
BRANCH   3   4
ATOM      4  C   UNL     1       9.369 -20.956 -21.988  1.00  0.00     0.041 C 
ATOM      5  O   UNL     1      10.309 -20.593 -22.743  1.00  0.00    -0.550 OA
ATOM      6  O   UNL     1       8.154 -21.338 -22.541  1.00  0.00    -0.550 OA
ENDBRANCH   3   4
ENDBRANCH   2   3
ENDBRANCH   1   2
BRANCH   1   7
ATOM      7  C   UNL     1       7.803 -21.590 -17.493  1.00  0.00     0.000 C 
BRANCH   7   8
ATOM      8  C   UNL     1       7.891 -21.857 -15.983  1.00  0.00    -0.000 C 
BRANCH   8   9
ATOM      9  C   UNL     1       8.076 -20.549 -15.204  1.00  0.00    -0.000 C 
BRANCH   9  10
ATOM     10  C   UNL     1       9.201 -20.678 -14.172  1.00  0.00    -0.003 C 
ATOM     11  C   UNL     1      10.543 -20.253 -14.761  1.00  0.00     0.004 C 
ENDBRANCH   9  10
ENDBRANCH   8   9
ENDBRANCH   7   8
ENDBRANCH   1   7
TORSDOF 7
ENDMDL
MODEL 2
REMARK VINA RESULT:    -3.052      1.320      1.956
REMARK INTER + INTRA:          -4.566
REMARK INTER:                  -3.937
REMARK INTRA:                  -0.629
REMARK UNBOUND:                -0.265
REMARK SMILES CCCCCCCCC(=O)[O-]
REMARK SMILES IDX 6 1 7 2 8 3 9 4 10 5 11 6 5 7 4 8 3 9 2 10 1 11
REMARK H PARENT
REMARK Flexibility Score: inf
ROOT
ATOM      1  C   UNL     1       6.978 -22.983 -17.836  1.00  0.00     0.000 C 
ENDROOT
BRANCH   1   2
ATOM      2  C   UNL     1       8.433 -23.001 -18.345  1.00  0.00     0.006 C 
BRANCH   2   3
ATOM      3  C   UNL     1       8.968 -21.620 -18.768  1.00  0.00     0.053 C 
BRANCH   3   4
ATOM      4  C   UNL     1       9.281 -21.546 -20.233  1.00  0.00     0.041 C 
ATOM      5  O   UNL     1       8.548 -22.135 -21.070  1.00  0.00    -0.550 OA
ATOM      6  O   UNL     1      10.407 -20.860 -20.671  1.00  0.00    -0.550 OA
ENDBRANCH   3   4
ENDBRANCH   2   3
ENDBRANCH   1   2
BRANCH   1   7
ATOM      7  C   UNL     1       6.808 -22.653 -16.344  1.00  0.00     0.000 C 
BRANCH   7   8
ATOM      8  C   UNL     1       6.224 -21.254 -16.102  1.00  0.00    -0.000 C 
BRANCH   8   9
ATOM      9  C   UNL     1       7.280 -20.313 -15.509  1.00  0.00    -0.000 C 
BRANCH   9  10
ATOM     10  C   UNL     1       8.487 -21.100 -14.987  1.00  0.00    -0.003 C 
ATOM     11  C   UNL     1       9.608 -20.162 -14.546  1.00  0.00     0.004 C 
ENDBRANCH   9  10
ENDBRANCH   8   9
ENDBRANCH   7   8
ENDBRANCH   1   7
TORSDOF 7
ENDMDL
MODEL 3
REMARK VINA RESULT:    -2.998      3.530      6.136
REMARK INTER + INTRA:          -4.490
REMARK INTER:                  -4.107
REMARK INTRA:                  -0.383
REMARK UNBOUND:                -0.265
REMARK SMILES CCCCCCCCC(=O)[O-]
REMARK SMILES IDX 6 1 7 2 8 3 9 4 10 5 11 6 5 7 4 8 3 9 2 10 1 11
REMARK H PARENT
REMARK Flexibility Score: inf
ROOT
ATOM      1  C   UNL     1       8.352 -21.954 -18.502  1.00  0.00     0.000 C 
ENDROOT
BRANCH   1   2
ATOM      2  C   UNL     1       7.096 -22.138 -17.628  1.00  0.00     0.006 C 
BRANCH   2   3
ATOM      3  C   UNL     1       7.383 -22.175 -16.115  1.00  0.00     0.053 C 
BRANCH   3   4
ATOM      4  C   UNL     1       7.539 -20.807 -15.522  1.00  0.00     0.041 C 
ATOM      5  O   UNL     1       6.592 -19.979 -15.578  1.00  0.00    -0.550 OA
ATOM      6  O   UNL     1       8.745 -20.431 -14.944  1.00  0.00    -0.550 OA
ENDBRANCH   3   4
ENDBRANCH   2   3
ENDBRANCH   1   2
BRANCH   1   7
ATOM      7  C   UNL     1       8.594 -23.057 -19.545  1.00  0.00     0.000 C 
BRANCH   7   8
ATOM      8  C   UNL     1       7.635 -22.973 -20.741  1.00  0.00    -0.000 C 
BRANCH   8   9
ATOM      9  C   UNL     1       8.407 -22.764 -22.049  1.00  0.00    -0.000 C 
BRANCH   9  10
ATOM     10  C   UNL     1       8.220 -21.337 -22.576  1.00  0.00    -0.003 C 
ATOM     11  C   UNL     1       9.371 -20.433 -22.141  1.00  0.00     0.004 C 
ENDBRANCH   9  10
ENDBRANCH   8   9
ENDBRANCH   7   8
ENDBRANCH   1   7
TORSDOF 7
ENDMDL
MODEL 4
REMARK VINA RESULT:    -2.962      1.298      2.243
REMARK INTER + INTRA:          -4.438
REMARK INTER:                  -4.116
REMARK INTRA:                  -0.322
REMARK UNBOUND:                -0.265
REMARK SMILES CCCCCCCCC(=O)[O-]
REMARK SMILES IDX 6 1 7 2 8 3 9 4 10 5 11 6 5 7 4 8 3 9 2 10 1 11
REMARK H PARENT
REMARK Flexibility Score: inf
ROOT
ATOM      1  C   UNL     1       7.408 -22.892 -20.571  1.00  0.00     0.000 C 
ENDROOT
BRANCH   1   2
ATOM      2  C   UNL     1       8.235 -22.926 -21.871  1.00  0.00     0.006 C 
BRANCH   2   3
ATOM      3  C   UNL     1       8.308 -21.574 -22.607  1.00  0.00     0.053 C 
BRANCH   3   4
ATOM      4  C   UNL     1       9.533 -20.788 -22.249  1.00  0.00     0.041 C 
ATOM      5  O   UNL     1       9.530 -20.026 -21.246  1.00  0.00    -0.550 OA
ATOM      6  O   UNL     1      10.667 -20.864 -23.048  1.00  0.00    -0.550 OA
ENDBRANCH   3   4
ENDBRANCH   2   3
ENDBRANCH   1   2
BRANCH   1   7
ATOM      7  C   UNL     1       8.223 -22.980 -19.271  1.00  0.00     0.000 C 
BRANCH   7   8
ATOM      8  C   UNL     1       8.116 -21.715 -18.408  1.00  0.00    -0.000 C 
BRANCH   8   9
ATOM      9  C   UNL     1       8.726 -21.943 -17.020  1.00  0.00    -0.000 C 
BRANCH   9  10
ATOM     10  C   UNL     1       7.908 -21.234 -15.936  1.00  0.00    -0.003 C 
ATOM     11  C   UNL     1       8.813 -20.650 -14.855  1.00  0.00     0.004 C 
ENDBRANCH   9  10
ENDBRANCH   8   9
ENDBRANCH   7   8
ENDBRANCH   1   7
TORSDOF 7
ENDMDL
MODEL 5
REMARK VINA RESULT:    -2.931     17.535     19.227
REMARK INTER + INTRA:          -4.395
REMARK INTER:                  -4.123
REMARK INTRA:                  -0.272
REMARK UNBOUND:                -0.265
REMARK SMILES CCCCCCCCC(=O)[O-]
REMARK SMILES IDX 6 1 7 2 8 3 9 4 10 5 11 6 5 7 4 8 3 9 2 10 1 11
REMARK H PARENT
REMARK Flexibility Score: inf
ROOT
ATOM      1  C   UNL     1      -8.772 -19.683 -12.590  1.00  0.00     0.000 C 
ENDROOT
BRANCH   1   2
ATOM      2  C   UNL     1      -8.576 -20.993 -11.802  1.00  0.00     0.006 C 
BRANCH   2   3
ATOM      3  C   UNL     1      -9.125 -20.951 -10.363  1.00  0.00     0.053 C 
BRANCH   3   4
ATOM      4  C   UNL     1      -8.527 -22.009  -9.485  1.00  0.00     0.041 C 
ATOM      5  O   UNL     1      -8.900 -22.128  -8.289  1.00  0.00    -0.550 OA
ATOM      6  O   UNL     1      -7.527 -22.838  -9.977  1.00  0.00    -0.550 OA
ENDBRANCH   3   4
ENDBRANCH   2   3
ENDBRANCH   1   2
BRANCH   1   7
ATOM      7  C   UNL     1      -8.652 -19.811 -14.117  1.00  0.00     0.000 C 
BRANCH   7   8
ATOM      8  C   UNL     1      -8.106 -21.175 -14.564  1.00  0.00    -0.000 C 
BRANCH   8   9
ATOM      9  C   UNL     1      -8.833 -21.672 -15.819  1.00  0.00    -0.000 C 
BRANCH   9  10
ATOM     10  C   UNL     1      -7.908 -21.639 -17.040  1.00  0.00    -0.003 C 
ATOM     11  C   UNL     1      -6.474 -21.303 -16.638  1.00  0.00     0.004 C 
ENDBRANCH   9  10
ENDBRANCH   8   9
ENDBRANCH   7   8
ENDBRANCH   1   7
TORSDOF 7
ENDMDL
MODEL 6
REMARK VINA RESULT:    -2.892      1.265      1.764
REMARK INTER + INTRA:          -4.340
REMARK INTER:                  -3.918
REMARK INTRA:                  -0.422
REMARK UNBOUND:                -0.265
REMARK SMILES CCCCCCCCC(=O)[O-]
REMARK SMILES IDX 6 1 7 2 8 3 9 4 10 5 11 6 5 7 4 8 3 9 2 10 1 11
REMARK H PARENT
REMARK Flexibility Score: inf
ROOT
ATOM      1  C   UNL     1       8.504 -21.708 -18.665  1.00  0.00     0.000 C 
ENDROOT
BRANCH   1   2
ATOM      2  C   UNL     1       9.238 -22.047 -19.977  1.00  0.00     0.006 C 
BRANCH   2   3
ATOM      3  C   UNL     1       8.313 -22.544 -21.105  1.00  0.00     0.053 C 
BRANCH   3   4
ATOM      4  C   UNL     1       8.513 -21.794 -22.388  1.00  0.00     0.041 C 
ATOM      5  O   UNL     1       8.446 -22.395 -23.492  1.00  0.00    -0.550 OA
ATOM      6  O   UNL     1       8.813 -20.438 -22.363  1.00  0.00    -0.550 OA
ENDBRANCH   3   4
ENDBRANCH   2   3
ENDBRANCH   1   2
BRANCH   1   7
ATOM      7  C   UNL     1       7.535 -22.787 -18.157  1.00  0.00     0.000 C 
BRANCH   7   8
ATOM      8  C   UNL     1       6.773 -22.363 -16.893  1.00  0.00    -0.000 C 
BRANCH   8   9
ATOM      9  C   UNL     1       6.723 -20.835 -16.769  1.00  0.00    -0.000 C 
BRANCH   9  10
ATOM     10  C   UNL     1       7.096 -20.386 -15.352  1.00  0.00    -0.003 C 
ATOM     11  C   UNL     1       8.546 -20.734 -15.027  1.00  0.00     0.004 C 
ENDBRANCH   9  10
ENDBRANCH   8   9
ENDBRANCH   7   8
ENDBRANCH   1   7
TORSDOF 7
ENDMDL
MODEL 7
REMARK VINA RESULT:    -2.864     14.544     16.037
REMARK INTER + INTRA:          -4.301
REMARK INTER:                  -3.788
REMARK INTRA:                  -0.514
REMARK UNBOUND:                -0.265
REMARK SMILES CCCCCCCCC(=O)[O-]
REMARK SMILES IDX 6 1 7 2 8 3 9 4 10 5 11 6 5 7 4 8 3 9 2 10 1 11
REMARK H PARENT
REMARK Flexibility Score: inf
ROOT
ATOM      1  C   UNL     1      -6.413 -22.222 -12.829  1.00  0.00     0.000 C 
ENDROOT
BRANCH   1   2
ATOM      2  C   UNL     1      -5.517 -23.125 -13.699  1.00  0.00     0.006 C 
BRANCH   2   3
ATOM      3  C   UNL     1      -4.011 -22.984 -13.408  1.00  0.00     0.053 C 
BRANCH   3   4
ATOM      4  C   UNL     1      -3.188 -22.883 -14.658  1.00  0.00     0.041 C 
ATOM      5  O   UNL     1      -3.747 -22.733 -15.776  1.00  0.00    -0.550 OA
ATOM      6  O   UNL     1      -1.806 -22.995 -14.593  1.00  0.00    -0.550 OA
ENDBRANCH   3   4
ENDBRANCH   2   3
ENDBRANCH   1   2
BRANCH   1   7
ATOM      7  C   UNL     1      -7.925 -22.445 -12.991  1.00  0.00     0.000 C 
BRANCH   7   8
ATOM      8  C   UNL     1      -8.703 -21.142 -13.225  1.00  0.00    -0.000 C 
BRANCH   8   9
ATOM      9  C   UNL     1      -8.265 -20.469 -14.532  1.00  0.00    -0.000 C 
BRANCH   9  10
ATOM     10  C   UNL     1      -8.337 -21.449 -15.707  1.00  0.00    -0.003 C 
ATOM     11  C   UNL     1      -7.143 -21.278 -16.642  1.00  0.00     0.004 C 
ENDBRANCH   9  10
ENDBRANCH   8   9
ENDBRANCH   7   8
ENDBRANCH   1   7
TORSDOF 7
ENDMDL
MODEL 8
REMARK VINA RESULT:    -2.833     17.328     19.029
REMARK INTER + INTRA:          -4.258
REMARK INTER:                  -3.867
REMARK INTRA:                  -0.391
REMARK UNBOUND:                -0.265
REMARK SMILES CCCCCCCCC(=O)[O-]
REMARK SMILES IDX 6 1 7 2 8 3 9 4 10 5 11 6 5 7 4 8 3 9 2 10 1 11
REMARK H PARENT
REMARK Flexibility Score: inf
ROOT
ATOM      1  C   UNL     1      -7.223 -21.748 -12.734  1.00  0.00     0.000 C 
ENDROOT
BRANCH   1   2
ATOM      2  C   UNL     1      -7.452 -22.589 -11.463  1.00  0.00     0.006 C 
BRANCH   2   3
ATOM      3  C   UNL     1      -8.544 -22.033 -10.530  1.00  0.00     0.053 C 
BRANCH   3   4
ATOM      4  C   UNL     1      -8.267 -22.316  -9.084  1.00  0.00     0.041 C 
ATOM      5  O   UNL     1      -9.085 -21.957  -8.197  1.00  0.00    -0.550 OA
ATOM      6  O   UNL     1      -7.084 -22.941  -8.711  1.00  0.00    -0.550 OA
ENDBRANCH   3   4
ENDBRANCH   2   3
ENDBRANCH   1   2
BRANCH   1   7
ATOM      7  C   UNL     1      -8.283 -20.669 -13.007  1.00  0.00     0.000 C 
BRANCH   7   8
ATOM      8  C   UNL     1      -8.741 -20.633 -14.473  1.00  0.00    -0.000 C 
BRANCH   8   9
ATOM      9  C   UNL     1      -8.276 -21.887 -15.224  1.00  0.00    -0.000 C 
BRANCH   9  10
ATOM     10  C   UNL     1      -8.008 -21.577 -16.700  1.00  0.00    -0.003 C 
ATOM     11  C   UNL     1      -6.528 -21.300 -16.946  1.00  0.00     0.004 C 
ENDBRANCH   9  10
ENDBRANCH   8   9
ENDBRANCH   7   8
ENDBRANCH   1   7
TORSDOF 7
ENDMDL
MODEL 9
REMARK VINA RESULT:    -2.629     14.614     15.998
REMARK INTER + INTRA:          -3.970
REMARK INTER:                  -3.620
REMARK INTRA:                  -0.350
REMARK UNBOUND:                -0.265
REMARK SMILES CCCCCCCCC(=O)[O-]
REMARK SMILES IDX 6 1 7 2 8 3 9 4 10 5 11 6 5 7 4 8 3 9 2 10 1 11
REMARK H PARENT
REMARK Flexibility Score: inf
ROOT
ATOM      1  C   UNL     1      -6.502 -22.789 -13.959  1.00  0.00     0.000 C 
ENDROOT
BRANCH   1   2
ATOM      2  C   UNL     1      -5.033 -22.942 -13.518  1.00  0.00     0.006 C 
BRANCH   2   3
ATOM      3  C   UNL     1      -4.042 -23.125 -14.683  1.00  0.00     0.053 C 
BRANCH   3   4
ATOM      4  C   UNL     1      -2.626 -22.829 -14.289  1.00  0.00     0.041 C 
ATOM      5  O   UNL     1      -2.261 -22.955 -13.090  1.00  0.00    -0.550 OA
ATOM      6  O   UNL     1      -1.719 -22.376 -15.238  1.00  0.00    -0.550 OA
ENDBRANCH   3   4
ENDBRANCH   2   3
ENDBRANCH   1   2
BRANCH   1   7
ATOM      7  C   UNL     1      -6.740 -21.803 -15.115  1.00  0.00     0.000 C 
BRANCH   7   8
ATOM      8  C   UNL     1      -8.201 -21.776 -15.589  1.00  0.00    -0.000 C 
BRANCH   8   9
ATOM      9  C   UNL     1      -9.120 -21.207 -14.502  1.00  0.00    -0.000 C 
BRANCH   9  10
ATOM     10  C   UNL     1      -8.715 -19.777 -14.132  1.00  0.00    -0.003 C 
ATOM     11  C   UNL     1      -9.050 -19.468 -12.675  1.00  0.00     0.004 C 
ENDBRANCH   9  10
ENDBRANCH   8   9
ENDBRANCH   7   8
ENDBRANCH   1   7
TORSDOF 7
ENDMDL
