MODEL 1
REMARK VINA RESULT:     6.099      0.000      0.000
REMARK INTER + INTRA:           8.735
REMARK INTER:                   9.308
REMARK INTRA:                  -0.573
REMARK UNBOUND:                -0.573
REMARK SMILES CCCCCCCCCCC(=O)[O-]
REMARK SMILES IDX 7 1 8 2 9 3 10 4 11 5 12 6 13 7 6 8 5 9 4 10 3 11 2 12 1 13
REMARK H PARENT
REMARK Flexibility Score: inf
ROOT
ATOM      1  C   UNL     1      17.960 -59.785  -2.998  1.00  0.00     0.000 C 
ENDROOT
BRANCH   1   2
ATOM      2  C   UNL     1      18.759 -58.507  -2.690  1.00  0.00     0.000 C 
BRANCH   2   3
ATOM      3  C   UNL     1      18.001 -57.527  -1.776  1.00  0.00     0.006 C 
BRANCH   3   4
ATOM      4  C   UNL     1      18.232 -56.046  -2.124  1.00  0.00     0.053 C 
BRANCH   4   5
ATOM      5  C   UNL     1      17.177 -55.498  -3.036  1.00  0.00     0.041 C 
ATOM      6  O   UNL     1      16.007 -55.309  -2.610  1.00  0.00    -0.550 OA
ATOM      7  O   UNL     1      17.492 -55.162  -4.347  1.00  0.00    -0.550 OA
ENDBRANCH   4   5
ENDBRANCH   3   4
ENDBRANCH   2   3
ENDBRANCH   1   2
BRANCH   1   8
ATOM      8  C   UNL     1      16.486 -59.674  -2.579  1.00  0.00     0.000 C 
BRANCH   8   9
ATOM      9  C   UNL     1      15.536 -59.571  -3.783  1.00  0.00    -0.000 C 
BRANCH   9  10
ATOM     10  C   UNL     1      14.940 -58.160  -3.892  1.00  0.00    -0.000 C 
BRANCH  10  11
ATOM     11  C   UNL     1      13.420 -58.174  -4.112  1.00  0.00    -0.000 C 
BRANCH  11  12
ATOM     12  C   UNL     1      12.700 -57.061  -3.336  1.00  0.00    -0.003 C 
ATOM     13  C   UNL     1      11.268 -57.466  -2.995  1.00  0.00     0.004 C 
ENDBRANCH  11  12
ENDBRANCH  10  11
ENDBRANCH   9  10
ENDBRANCH   8   9
ENDBRANCH   1   8
TORSDOF 9
ENDMDL
MODEL 2
REMARK VINA RESULT:     6.693      2.267      4.669
REMARK INTER + INTRA:           9.642
REMARK INTER:                  10.507
REMARK INTRA:                  -0.864
REMARK UNBOUND:                -0.573
REMARK SMILES CCCCCCCCCCC(=O)[O-]
REMARK SMILES IDX 7 1 8 2 9 3 10 4 11 5 12 6 13 7 6 8 5 9 4 10 3 11 2 12 1 13
REMARK H PARENT
REMARK Flexibility Score: inf
ROOT
ATOM      1  C   UNL     1      16.344 -59.506  -2.697  1.00  0.00     0.000 C 
ENDROOT
BRANCH   1   2
ATOM      2  C   UNL     1      15.558 -59.059  -3.941  1.00  0.00     0.000 C 
BRANCH   2   3
ATOM      3  C   UNL     1      14.049 -58.908  -3.679  1.00  0.00     0.006 C 
BRANCH   3   4
ATOM      4  C   UNL     1      13.558 -57.449  -3.686  1.00  0.00     0.053 C 
BRANCH   4   5
ATOM      5  C   UNL     1      12.093 -57.334  -3.391  1.00  0.00     0.041 C 
ATOM      6  O   UNL     1      11.519 -58.202  -2.682  1.00  0.00    -0.550 OA
ATOM      7  O   UNL     1      11.367 -56.251  -3.869  1.00  0.00    -0.550 OA
ENDBRANCH   4   5
ENDBRANCH   3   4
ENDBRANCH   2   3
ENDBRANCH   1   2
BRANCH   1   8
ATOM      8  C   UNL     1      17.842 -59.700  -2.984  1.00  0.00     0.000 C 
BRANCH   8   9
ATOM      9  C   UNL     1      18.666 -58.434  -2.700  1.00  0.00    -0.000 C 
BRANCH   9  10
ATOM     10  C   UNL     1      18.002 -57.579  -1.611  1.00  0.00    -0.000 C 
BRANCH  10  11
ATOM     11  C   UNL     1      17.940 -56.090  -1.981  1.00  0.00    -0.000 C 
BRANCH  11  12
ATOM     12  C   UNL     1      16.897 -55.794  -3.068  1.00  0.00    -0.003 C 
ATOM     13  C   UNL     1      17.520 -55.033  -4.235  1.00  0.00     0.004 C 
ENDBRANCH  11  12
ENDBRANCH  10  11
ENDBRANCH   9  10
ENDBRANCH   8   9
ENDBRANCH   1   8
TORSDOF 9
ENDMDL
