MODEL 1
REMARK VINA RESULT:    -3.739      0.000      0.000
REMARK INTER + INTRA:          -5.486
REMARK INTER:                  -5.051
REMARK INTRA:                  -0.435
REMARK UNBOUND:                -0.435
REMARK SMILES [NH3+]CCCC[C@H]([NH3+])C(=O)[O-]
REMARK SMILES IDX 4 1 3 2 2 3 1 4 5 8 6 9 7 10 8 14 9 15 10 16
REMARK H PARENT 1 5 1 6 1 7 7 11 7 12 7 13
REMARK Flexibility Score: inf
ROOT
ATOM      1  C   UNL     1     212.786 196.880 209.957  1.00  0.00     0.012 C 
ENDROOT
BRANCH   1   2
ATOM      2  C   UNL     1     211.951 198.034 209.383  1.00  0.00     0.061 C 
BRANCH   2   3
ATOM      3  C   UNL     1     210.844 198.496 210.345  1.00  0.00     0.258 C 
BRANCH   3   4
ATOM      4  N   UNL     1     211.128 199.810 210.924  1.00  0.00    -0.358 N 
ATOM      5  H   UNL     1     211.989 200.221 210.494  1.00  0.00     0.344 HD
ATOM      6  H   UNL     1     210.316 200.453 210.782  1.00  0.00     0.344 HD
ATOM      7  H   UNL     1     211.285 199.702 211.952  1.00  0.00     0.344 HD
ENDBRANCH   3   4
ENDBRANCH   2   3
ENDBRANCH   1   2
BRANCH   1   8
ATOM      8  C   UNL     1     212.155 196.334 211.247  1.00  0.00     0.072 C 
BRANCH   8   9
ATOM      9  C   UNL     1     213.181 196.169 212.391  1.00  0.00     0.227 C 
BRANCH   9  10
ATOM     10  N   UNL     1     213.278 194.773 212.840  1.00  0.00    -0.350 N 
ATOM     11  H   UNL     1     213.714 194.729 213.788  1.00  0.00     0.345 HD
ATOM     12  H   UNL     1     213.846 194.205 212.169  1.00  0.00     0.345 HD
ATOM     13  H   UNL     1     212.321 194.355 212.914  1.00  0.00     0.345 HD
ENDBRANCH   9  10
BRANCH   9  14
ATOM     14  C   UNL     1     212.802 197.061 213.544  1.00  0.00     0.099 C 
ATOM     15  O   UNL     1     212.692 196.590 214.706  1.00  0.00    -0.544 OA
ATOM     16  O   UNL     1     212.549 198.409 213.323  1.00  0.00    -0.544 OA
ENDBRANCH   9  14
ENDBRANCH   8   9
ENDBRANCH   1   8
TORSDOF 7
ENDMDL
MODEL 2
REMARK VINA RESULT:    -3.626      2.727      4.652
REMARK INTER + INTRA:          -5.333
REMARK INTER:                  -5.196
REMARK INTRA:                  -0.137
REMARK UNBOUND:                -0.435
REMARK SMILES [NH3+]CCCC[C@H]([NH3+])C(=O)[O-]
REMARK SMILES IDX 4 1 3 2 2 3 1 4 5 8 6 9 7 10 8 14 9 15 10 16
REMARK H PARENT 1 5 1 6 1 7 7 11 7 12 7 13
REMARK Flexibility Score: inf
ROOT
ATOM      1  C   UNL     1     213.768 197.716 214.420  1.00  0.00     0.012 C 
ENDROOT
BRANCH   1   2
ATOM      2  C   UNL     1     213.376 197.803 215.902  1.00  0.00     0.061 C 
BRANCH   2   3
ATOM      3  C   UNL     1     212.426 196.672 216.329  1.00  0.00     0.258 C 
BRANCH   3   4
ATOM      4  N   UNL     1     211.202 197.183 216.951  1.00  0.00    -0.358 N 
ATOM      5  H   UNL     1     210.424 197.215 216.253  1.00  0.00     0.344 HD
ATOM      6  H   UNL     1     210.930 196.584 217.763  1.00  0.00     0.344 HD
ATOM      7  H   UNL     1     211.379 198.152 217.301  1.00  0.00     0.344 HD
ENDBRANCH   3   4
ENDBRANCH   2   3
ENDBRANCH   1   2
BRANCH   1   8
ATOM      8  C   UNL     1     212.625 197.119 213.584  1.00  0.00     0.072 C 
BRANCH   8   9
ATOM      9  C   UNL     1     212.304 197.958 212.327  1.00  0.00     0.227 C 
BRANCH   9  10
ATOM     10  N   UNL     1     211.304 198.999 212.607  1.00  0.00    -0.350 N 
ATOM     11  H   UNL     1     210.412 198.564 212.930  1.00  0.00     0.345 HD
ATOM     12  H   UNL     1     211.121 199.577 211.754  1.00  0.00     0.345 HD
ATOM     13  H   UNL     1     211.646 199.624 213.374  1.00  0.00     0.345 HD
ENDBRANCH   9  10
BRANCH   9  14
ATOM     14  C   UNL     1     211.817 197.054 211.225  1.00  0.00     0.099 C 
ATOM     15  O   UNL     1     212.426 195.985 210.960  1.00  0.00    -0.544 OA
ATOM     16  O   UNL     1     210.700 197.410 210.479  1.00  0.00    -0.544 OA
ENDBRANCH   9  14
ENDBRANCH   8   9
ENDBRANCH   1   8
TORSDOF 7
ENDMDL
MODEL 3
REMARK VINA RESULT:    -3.523      2.743      4.458
REMARK INTER + INTRA:          -5.194
REMARK INTER:                  -5.101
REMARK INTRA:                  -0.093
REMARK UNBOUND:                -0.435
REMARK SMILES [NH3+]CCCC[C@H]([NH3+])C(=O)[O-]
REMARK SMILES IDX 4 1 3 2 2 3 1 4 5 8 6 9 7 10 8 14 9 15 10 16
REMARK H PARENT 1 5 1 6 1 7 7 11 7 12 7 13
REMARK Flexibility Score: inf
ROOT
ATOM      1  C   UNL     1     212.837 197.041 213.523  1.00  0.00     0.012 C 
ENDROOT
BRANCH   1   2
ATOM      2  C   UNL     1     213.558 197.863 214.600  1.00  0.00     0.061 C 
BRANCH   2   3
ATOM      3  C   UNL     1     213.282 197.346 216.022  1.00  0.00     0.258 C 
BRANCH   3   4
ATOM      4  N   UNL     1     212.724 195.991 216.018  1.00  0.00    -0.358 N 
ATOM      5  H   UNL     1     212.597 195.645 216.997  1.00  0.00     0.344 HD
ATOM      6  H   UNL     1     211.809 195.976 215.511  1.00  0.00     0.344 HD
ATOM      7  H   UNL     1     213.385 195.353 215.519  1.00  0.00     0.344 HD
ENDBRANCH   3   4
ENDBRANCH   2   3
ENDBRANCH   1   2
BRANCH   1   8
ATOM      8  C   UNL     1     212.196 197.958 212.469  1.00  0.00     0.072 C 
BRANCH   8   9
ATOM      9  C   UNL     1     211.676 197.181 211.239  1.00  0.00     0.227 C 
BRANCH   9  10
ATOM     10  N   UNL     1     212.183 195.801 211.210  1.00  0.00    -0.350 N 
ATOM     11  H   UNL     1     211.487 195.171 210.753  1.00  0.00     0.345 HD
ATOM     12  H   UNL     1     212.380 195.457 212.179  1.00  0.00     0.345 HD
ATOM     13  H   UNL     1     213.065 195.757 210.648  1.00  0.00     0.345 HD
ENDBRANCH   9  10
BRANCH   9  14
ATOM     14  C   UNL     1     212.071 197.905 209.979  1.00  0.00     0.099 C 
ATOM     15  O   UNL     1     212.986 197.453 209.242  1.00  0.00    -0.544 OA
ATOM     16  O   UNL     1     211.438 199.093 209.635  1.00  0.00    -0.544 OA
ENDBRANCH   9  14
ENDBRANCH   8   9
ENDBRANCH   1   8
TORSDOF 7
ENDMDL
MODEL 4
REMARK VINA RESULT:    -3.303      2.939      4.578
REMARK INTER + INTRA:          -4.897
REMARK INTER:                  -4.799
REMARK INTRA:                  -0.098
REMARK UNBOUND:                -0.435
REMARK SMILES [NH3+]CCCC[C@H]([NH3+])C(=O)[O-]
REMARK SMILES IDX 4 1 3 2 2 3 1 4 5 8 6 9 7 10 8 14 9 15 10 16
REMARK H PARENT 1 5 1 6 1 7 7 11 7 12 7 13
REMARK Flexibility Score: inf
ROOT
ATOM      1  C   UNL     1     212.637 197.180 213.953  1.00  0.00     0.012 C 
ENDROOT
BRANCH   1   2
ATOM      2  C   UNL     1     213.577 197.271 215.164  1.00  0.00     0.061 C 
BRANCH   2   3
ATOM      3  C   UNL     1     212.820 197.240 216.502  1.00  0.00     0.258 C 
BRANCH   3   4
ATOM      4  N   UNL     1     211.824 196.167 216.548  1.00  0.00    -0.358 N 
ATOM      5  H   UNL     1     211.930 195.606 217.425  1.00  0.00     0.344 HD
ATOM      6  H   UNL     1     210.859 196.566 216.493  1.00  0.00     0.344 HD
ATOM      7  H   UNL     1     211.966 195.537 215.727  1.00  0.00     0.344 HD
ENDBRANCH   3   4
ENDBRANCH   2   3
ENDBRANCH   1   2
BRANCH   1   8
ATOM      8  C   UNL     1     213.091 196.073 212.989  1.00  0.00     0.072 C 
BRANCH   8   9
ATOM      9  C   UNL     1     212.777 196.402 211.512  1.00  0.00     0.227 C 
BRANCH   9  10
ATOM     10  N   UNL     1     211.371 196.127 211.179  1.00  0.00    -0.350 N 
ATOM     11  H   UNL     1     211.306 195.667 210.244  1.00  0.00     0.345 HD
ATOM     12  H   UNL     1     210.811 197.012 211.172  1.00  0.00     0.345 HD
ATOM     13  H   UNL     1     210.960 195.470 211.883  1.00  0.00     0.345 HD
ENDBRANCH   9  10
BRANCH   9  14
ATOM     14  C   UNL     1     213.688 195.610 210.612  1.00  0.00     0.099 C 
ATOM     15  O   UNL     1     214.078 194.461 210.948  1.00  0.00    -0.544 OA
ATOM     16  O   UNL     1     214.121 196.156 209.410  1.00  0.00    -0.544 OA
ENDBRANCH   9  14
ENDBRANCH   8   9
ENDBRANCH   1   8
TORSDOF 7
ENDMDL
MODEL 5
REMARK VINA RESULT:    -3.272      2.507      3.384
REMARK INTER + INTRA:          -4.855
REMARK INTER:                  -4.777
REMARK INTRA:                  -0.078
REMARK UNBOUND:                -0.435
REMARK SMILES [NH3+]CCCC[C@H]([NH3+])C(=O)[O-]
REMARK SMILES IDX 4 1 3 2 2 3 1 4 5 8 6 9 7 10 8 14 9 15 10 16
REMARK H PARENT 1 5 1 6 1 7 7 11 7 12 7 13
REMARK Flexibility Score: inf
ROOT
ATOM      1  C   UNL     1     210.517 199.712 209.688  1.00  0.00     0.012 C 
ENDROOT
BRANCH   1   2
ATOM      2  C   UNL     1     211.075 200.740 208.692  1.00  0.00     0.061 C 
BRANCH   2   3
ATOM      3  C   UNL     1     210.131 201.936 208.487  1.00  0.00     0.258 C 
BRANCH   3   4
ATOM      4  N   UNL     1     210.862 203.185 208.265  1.00  0.00    -0.358 N 
ATOM      5  H   UNL     1     210.584 203.902 208.974  1.00  0.00     0.344 HD
ATOM      6  H   UNL     1     211.893 203.016 208.313  1.00  0.00     0.344 HD
ATOM      7  H   UNL     1     210.632 203.549 207.313  1.00  0.00     0.344 HD
ENDBRANCH   3   4
ENDBRANCH   2   3
ENDBRANCH   1   2
BRANCH   1   8
ATOM      8  C   UNL     1     211.634 198.801 210.219  1.00  0.00     0.072 C 
BRANCH   8   9
ATOM      9  C   UNL     1     211.395 198.352 211.679  1.00  0.00     0.227 C 
BRANCH   9  10
ATOM     10  N   UNL     1     211.645 199.442 212.633  1.00  0.00    -0.350 N 
ATOM     11  H   UNL     1     211.121 199.271 213.520  1.00  0.00     0.345 HD
ATOM     12  H   UNL     1     211.355 200.363 212.229  1.00  0.00     0.345 HD
ATOM     13  H   UNL     1     212.664 199.481 212.871  1.00  0.00     0.345 HD
ENDBRANCH   9  10
BRANCH   9  14
ATOM     14  C   UNL     1     212.275 197.172 211.996  1.00  0.00     0.099 C 
ATOM     15  O   UNL     1     212.625 196.373 211.089  1.00  0.00    -0.544 OA
ATOM     16  O   UNL     1     212.688 196.948 213.304  1.00  0.00    -0.544 OA
ENDBRANCH   9  14
ENDBRANCH   8   9
ENDBRANCH   1   8
TORSDOF 7
ENDMDL
MODEL 6
REMARK VINA RESULT:    -3.259      2.091      2.716
REMARK INTER + INTRA:          -4.837
REMARK INTER:                  -4.719
REMARK INTRA:                  -0.118
REMARK UNBOUND:                -0.435
REMARK SMILES [NH3+]CCCC[C@H]([NH3+])C(=O)[O-]
REMARK SMILES IDX 4 1 3 2 2 3 1 4 5 8 6 9 7 10 8 14 9 15 10 16
REMARK H PARENT 1 5 1 6 1 7 7 11 7 12 7 13
REMARK Flexibility Score: inf
ROOT
ATOM      1  C   UNL     1     211.244 197.942 210.175  1.00  0.00     0.012 C 
ENDROOT
BRANCH   1   2
ATOM      2  C   UNL     1     211.951 198.667 209.020  1.00  0.00     0.061 C 
BRANCH   2   3
ATOM      3  C   UNL     1     212.688 197.699 208.080  1.00  0.00     0.258 C 
BRANCH   3   4
ATOM      4  N   UNL     1     211.986 196.421 207.941  1.00  0.00    -0.358 N 
ATOM      5  H   UNL     1     211.174 196.519 207.290  1.00  0.00     0.344 HD
ATOM      6  H   UNL     1     212.640 195.684 207.591  1.00  0.00     0.344 HD
ATOM      7  H   UNL     1     211.631 196.126 208.879  1.00  0.00     0.344 HD
ENDBRANCH   3   4
ENDBRANCH   2   3
ENDBRANCH   1   2
BRANCH   1   8
ATOM      8  C   UNL     1     212.225 197.645 211.319  1.00  0.00     0.072 C 
BRANCH   8   9
ATOM      9  C   UNL     1     211.828 198.341 212.641  1.00  0.00     0.227 C 
BRANCH   9  10
ATOM     10  N   UNL     1     211.807 199.804 212.502  1.00  0.00    -0.350 N 
ATOM     11  H   UNL     1     211.735 200.254 213.441  1.00  0.00     0.345 HD
ATOM     12  H   UNL     1     211.001 200.109 211.907  1.00  0.00     0.345 HD
ATOM     13  H   UNL     1     212.698 200.133 212.063  1.00  0.00     0.345 HD
ENDBRANCH   9  10
BRANCH   9  14
ATOM     14  C   UNL     1     212.784 197.937 213.733  1.00  0.00     0.099 C 
ATOM     15  O   UNL     1     212.768 196.767 214.196  1.00  0.00    -0.544 OA
ATOM     16  O   UNL     1     213.677 198.867 214.251  1.00  0.00    -0.544 OA
ENDBRANCH   9  14
ENDBRANCH   8   9
ENDBRANCH   1   8
TORSDOF 7
ENDMDL
MODEL 7
REMARK VINA RESULT:    -3.229      2.858      4.393
REMARK INTER + INTRA:          -4.797
REMARK INTER:                  -4.696
REMARK INTRA:                  -0.102
REMARK UNBOUND:                -0.435
REMARK SMILES [NH3+]CCCC[C@H]([NH3+])C(=O)[O-]
REMARK SMILES IDX 4 1 3 2 2 3 1 4 5 8 6 9 7 10 8 14 9 15 10 16
REMARK H PARENT 1 5 1 6 1 7 7 11 7 12 7 13
REMARK Flexibility Score: inf
ROOT
ATOM      1  C   UNL     1     212.828 195.973 211.276  1.00  0.00     0.012 C 
ENDROOT
BRANCH   1   2
ATOM      2  C   UNL     1     213.469 195.732 212.650  1.00  0.00     0.061 C 
BRANCH   2   3
ATOM      3  C   UNL     1     212.950 196.704 213.723  1.00  0.00     0.258 C 
BRANCH   3   4
ATOM      4  N   UNL     1     213.006 196.125 215.067  1.00  0.00    -0.358 N 
ATOM      5  H   UNL     1     213.195 195.098 215.015  1.00  0.00     0.344 HD
ATOM      6  H   UNL     1     213.746 196.597 215.635  1.00  0.00     0.344 HD
ATOM      7  H   UNL     1     212.085 196.274 215.539  1.00  0.00     0.344 HD
ENDBRANCH   3   4
ENDBRANCH   2   3
ENDBRANCH   1   2
BRANCH   1   8
ATOM      8  C   UNL     1     212.238 197.389 211.186  1.00  0.00     0.072 C 
BRANCH   8   9
ATOM      9  C   UNL     1     211.463 197.631 209.871  1.00  0.00     0.227 C 
BRANCH   9  10
ATOM     10  N   UNL     1     211.867 196.686 208.819  1.00  0.00    -0.350 N 
ATOM     11  H   UNL     1     211.033 196.170 208.460  1.00  0.00     0.345 HD
ATOM     12  H   UNL     1     212.570 196.002 209.183  1.00  0.00     0.345 HD
ATOM     13  H   UNL     1     212.285 197.208 208.014  1.00  0.00     0.345 HD
ENDBRANCH   9  10
BRANCH   9  14
ATOM     14  C   UNL     1     211.679 199.047 209.408  1.00  0.00     0.099 C 
ATOM     15  O   UNL     1     212.567 199.312 208.555  1.00  0.00    -0.544 OA
ATOM     16  O   UNL     1     210.911 200.075 209.941  1.00  0.00    -0.544 OA
ENDBRANCH   9  14
ENDBRANCH   8   9
ENDBRANCH   1   8
TORSDOF 7
ENDMDL
MODEL 8
REMARK VINA RESULT:    -3.164     15.869     16.511
REMARK INTER + INTRA:          -4.709
REMARK INTER:                  -4.191
REMARK INTRA:                  -0.518
REMARK UNBOUND:                -0.435
REMARK SMILES [NH3+]CCCC[C@H]([NH3+])C(=O)[O-]
REMARK SMILES IDX 4 1 3 2 2 3 1 4 5 8 6 9 7 10 8 14 9 15 10 16
REMARK H PARENT 1 5 1 6 1 7 7 11 7 12 7 13
REMARK Flexibility Score: inf
ROOT
ATOM      1  C   UNL     1     199.354 201.388 206.052  1.00  0.00     0.012 C 
ENDROOT
BRANCH   1   2
ATOM      2  C   UNL     1     198.882 201.766 207.464  1.00  0.00     0.061 C 
BRANCH   2   3
ATOM      3  C   UNL     1     198.383 203.217 207.550  1.00  0.00     0.258 C 
BRANCH   3   4
ATOM      4  N   UNL     1     196.965 203.294 207.911  1.00  0.00    -0.358 N 
ATOM      5  H   UNL     1     196.391 202.708 207.262  1.00  0.00     0.344 HD
ATOM      6  H   UNL     1     196.824 202.978 208.898  1.00  0.00     0.344 HD
ATOM      7  H   UNL     1     196.649 204.287 207.835  1.00  0.00     0.344 HD
ENDBRANCH   3   4
ENDBRANCH   2   3
ENDBRANCH   1   2
BRANCH   1   8
ATOM      8  C   UNL     1     198.366 200.421 205.383  1.00  0.00     0.072 C 
BRANCH   8   9
ATOM      9  C   UNL     1     197.477 199.675 206.403  1.00  0.00     0.227 C 
BRANCH   9  10
ATOM     10  N   UNL     1     197.745 198.229 206.406  1.00  0.00    -0.350 N 
ATOM     11  H   UNL     1     196.858 197.699 206.560  1.00  0.00     0.345 HD
ATOM     12  H   UNL     1     198.434 197.980 207.153  1.00  0.00     0.345 HD
ATOM     13  H   UNL     1     198.129 197.937 205.477  1.00  0.00     0.345 HD
ENDBRANCH   9  10
BRANCH   9  14
ATOM     14  C   UNL     1     196.026 199.933 206.095  1.00  0.00     0.099 C 
ATOM     15  O   UNL     1     195.271 198.991 205.736  1.00  0.00    -0.544 OA
ATOM     16  O   UNL     1     195.517 201.223 206.185  1.00  0.00    -0.544 OA
ENDBRANCH   9  14
ENDBRANCH   8   9
ENDBRANCH   1   8
TORSDOF 7
ENDMDL
MODEL 9
REMARK VINA RESULT:    -3.114     15.901     16.706
REMARK INTER + INTRA:          -4.642
REMARK INTER:                  -4.138
REMARK INTRA:                  -0.504
REMARK UNBOUND:                -0.435
REMARK SMILES [NH3+]CCCC[C@H]([NH3+])C(=O)[O-]
REMARK SMILES IDX 4 1 3 2 2 3 1 4 5 8 6 9 7 10 8 14 9 15 10 16
REMARK H PARENT 1 5 1 6 1 7 7 11 7 12 7 13
REMARK Flexibility Score: inf
ROOT
ATOM      1  C   UNL     1     199.222 202.258 207.573  1.00  0.00     0.012 C 
ENDROOT
BRANCH   1   2
ATOM      2  C   UNL     1     199.141 203.735 207.159  1.00  0.00     0.061 C 
BRANCH   2   3
ATOM      3  C   UNL     1     198.321 204.580 208.147  1.00  0.00     0.258 C 
BRANCH   3   4
ATOM      4  N   UNL     1     196.885 204.305 208.050  1.00  0.00    -0.358 N 
ATOM      5  H   UNL     1     196.629 204.042 207.071  1.00  0.00     0.344 HD
ATOM      6  H   UNL     1     196.617 203.539 208.709  1.00  0.00     0.344 HD
ATOM      7  H   UNL     1     196.356 205.167 208.316  1.00  0.00     0.344 HD
ENDBRANCH   3   4
ENDBRANCH   2   3
ENDBRANCH   1   2
BRANCH   1   8
ATOM      8  C   UNL     1     198.566 201.356 206.516  1.00  0.00     0.072 C 
BRANCH   8   9
ATOM      9  C   UNL     1     197.259 200.701 207.019  1.00  0.00     0.227 C 
BRANCH   9  10
ATOM     10  N   UNL     1     197.304 199.236 206.902  1.00  0.00    -0.350 N 
ATOM     11  H   UNL     1     197.309 198.799 207.851  1.00  0.00     0.345 HD
ATOM     12  H   UNL     1     198.155 198.931 206.375  1.00  0.00     0.345 HD
ATOM     13  H   UNL     1     196.452 198.892 206.402  1.00  0.00     0.345 HD
ENDBRANCH   9  10
BRANCH   9  14
ATOM     14  C   UNL     1     196.088 201.247 206.246  1.00  0.00     0.099 C 
ATOM     15  O   UNL     1     195.059 200.546 206.065  1.00  0.00    -0.544 OA
ATOM     16  O   UNL     1     196.150 202.527 205.708  1.00  0.00    -0.544 OA
ENDBRANCH   9  14
ENDBRANCH   8   9
ENDBRANCH   1   8
TORSDOF 7
ENDMDL
