MODEL 1
REMARK VINA RESULT:    -4.288      0.000      0.000
REMARK INTER + INTRA:          -8.802
REMARK INTER:                  -7.297
REMARK INTRA:                  -1.505
REMARK UNBOUND:                -1.505
REMARK SMILES CCCCCCCCCCCCCC(=O)[O-]
REMARK SMILES IDX 8 1 9 2 10 3 11 4 12 5 13 6 14 7 15 8 16 9 7 10 6 11 5 12
REMARK SMILES IDX 4 13 3 14 2 15 1 16
REMARK H PARENT
REMARK Flexibility Score: inf
ROOT
ATOM      1  C   UNL     1     163.901 176.507 181.386  1.00  0.00     0.000 C 
ENDROOT
BRANCH   1   2
ATOM      2  C   UNL     1     164.322 177.948 181.046  1.00  0.00     0.000 C 
BRANCH   2   3
ATOM      3  C   UNL     1     163.671 178.995 181.961  1.00  0.00     0.000 C 
BRANCH   3   4
ATOM      4  C   UNL     1     162.634 179.826 181.192  1.00  0.00     0.000 C 
BRANCH   4   5
ATOM      5  C   UNL     1     162.865 179.805 179.672  1.00  0.00     0.006 C 
BRANCH   5   6
ATOM      6  C   UNL     1     161.575 179.542 178.884  1.00  0.00     0.053 C 
BRANCH   6   7
ATOM      7  C   UNL     1     161.796 178.467 177.867  1.00  0.00     0.041 C 
ATOM      8  O   UNL     1     162.835 178.471 177.157  1.00  0.00    -0.550 OA
ATOM      9  O   UNL     1     160.877 177.433 177.738  1.00  0.00    -0.550 OA
ENDBRANCH   6   7
ENDBRANCH   5   6
ENDBRANCH   4   5
ENDBRANCH   3   4
ENDBRANCH   2   3
ENDBRANCH   1   2
BRANCH   1  10
ATOM     10  C   UNL     1     162.736 175.955 180.545  1.00  0.00     0.000 C 
BRANCH  10  11
ATOM     11  C   UNL     1     161.359 176.405 181.059  1.00  0.00    -0.000 C 
BRANCH  11  12
ATOM     12  C   UNL     1     160.402 175.209 181.179  1.00  0.00    -0.000 C 
BRANCH  12  13
ATOM     13  C   UNL     1     160.659 174.133 180.112  1.00  0.00    -0.000 C 
BRANCH  13  14
ATOM     14  C   UNL     1     161.005 172.764 180.725  1.00  0.00    -0.000 C 
BRANCH  14  15
ATOM     15  C   UNL     1     161.020 172.795 182.261  1.00  0.00    -0.003 C 
ATOM     16  C   UNL     1     162.416 172.572 182.845  1.00  0.00     0.004 C 
ENDBRANCH  14  15
ENDBRANCH  13  14
ENDBRANCH  12  13
ENDBRANCH  11  12
ENDBRANCH  10  11
ENDBRANCH   1  10
TORSDOF 12
ENDMDL
MODEL 2
REMARK VINA RESULT:    -4.162     10.982     13.518
REMARK INTER + INTRA:          -8.587
REMARK INTER:                  -6.601
REMARK INTRA:                  -1.986
REMARK UNBOUND:                -1.505
REMARK SMILES CCCCCCCCCCCCCC(=O)[O-]
REMARK SMILES IDX 8 1 9 2 10 3 11 4 12 5 13 6 14 7 15 8 16 9 7 10 6 11 5 12
REMARK SMILES IDX 4 13 3 14 2 15 1 16
REMARK H PARENT
REMARK Flexibility Score: inf
ROOT
ATOM      1  C   UNL     1     176.528 176.160 180.723  1.00  0.00     0.000 C 
ENDROOT
BRANCH   1   2
ATOM      2  C   UNL     1     175.214 176.287 179.932  1.00  0.00     0.000 C 
BRANCH   2   3
ATOM      3  C   UNL     1     173.975 175.929 180.765  1.00  0.00     0.000 C 
BRANCH   3   4
ATOM      4  C   UNL     1     173.410 177.170 181.471  1.00  0.00     0.000 C 
BRANCH   4   5
ATOM      5  C   UNL     1     173.444 178.424 180.582  1.00  0.00     0.006 C 
BRANCH   5   6
ATOM      6  C   UNL     1     172.232 179.338 180.806  1.00  0.00     0.053 C 
BRANCH   6   7
ATOM      7  C   UNL     1     171.444 179.477 179.542  1.00  0.00     0.041 C 
ATOM      8  O   UNL     1     172.032 179.669 178.446  1.00  0.00    -0.550 OA
ATOM      9  O   UNL     1     170.061 179.344 179.568  1.00  0.00    -0.550 OA
ENDBRANCH   6   7
ENDBRANCH   5   6
ENDBRANCH   4   5
ENDBRANCH   3   4
ENDBRANCH   2   3
ENDBRANCH   1   2
BRANCH   1  10
ATOM     10  C   UNL     1     177.429 177.408 180.691  1.00  0.00     0.000 C 
BRANCH  10  11
ATOM     11  C   UNL     1     176.939 178.526 181.625  1.00  0.00    -0.000 C 
BRANCH  11  12
ATOM     12  C   UNL     1     176.874 179.870 180.883  1.00  0.00    -0.000 C 
BRANCH  12  13
ATOM     13  C   UNL     1     177.157 179.733 179.378  1.00  0.00    -0.000 C 
BRANCH  13  14
ATOM     14  C   UNL     1     175.947 180.125 178.512  1.00  0.00    -0.000 C 
BRANCH  14  15
ATOM     15  C   UNL     1     175.630 179.075 177.436  1.00  0.00    -0.003 C 
ATOM     16  C   UNL     1     176.823 178.172 177.118  1.00  0.00     0.004 C 
ENDBRANCH  14  15
ENDBRANCH  13  14
ENDBRANCH  12  13
ENDBRANCH  11  12
ENDBRANCH  10  11
ENDBRANCH   1  10
TORSDOF 12
ENDMDL
MODEL 3
REMARK VINA RESULT:    -4.106      2.582      5.300
REMARK INTER + INTRA:          -8.492
REMARK INTER:                  -6.680
REMARK INTRA:                  -1.812
REMARK UNBOUND:                -1.505
REMARK SMILES CCCCCCCCCCCCCC(=O)[O-]
REMARK SMILES IDX 8 1 9 2 10 3 11 4 12 5 13 6 14 7 15 8 16 9 7 10 6 11 5 12
REMARK SMILES IDX 4 13 3 14 2 15 1 16
REMARK H PARENT
REMARK Flexibility Score: inf
ROOT
ATOM      1  C   UNL     1     164.766 177.592 180.675  1.00  0.00     0.000 C 
ENDROOT
BRANCH   1   2
ATOM      2  C   UNL     1     163.941 176.705 181.625  1.00  0.00     0.000 C 
BRANCH   2   3
ATOM      3  C   UNL     1     162.933 175.811 180.888  1.00  0.00     0.000 C 
BRANCH   3   4
ATOM      4  C   UNL     1     161.491 176.243 181.193  1.00  0.00     0.000 C 
BRANCH   4   5
ATOM      5  C   UNL     1     160.462 175.148 180.866  1.00  0.00     0.006 C 
BRANCH   5   6
ATOM      6  C   UNL     1     160.944 174.196 179.764  1.00  0.00     0.053 C 
BRANCH   6   7
ATOM      7  C   UNL     1     160.760 172.773 180.188  1.00  0.00     0.041 C 
ATOM      8  O   UNL     1     160.228 171.943 179.406  1.00  0.00    -0.550 OA
ATOM      9  O   UNL     1     161.223 172.352 181.428  1.00  0.00    -0.550 OA
ENDBRANCH   6   7
ENDBRANCH   5   6
ENDBRANCH   4   5
ENDBRANCH   3   4
ENDBRANCH   2   3
ENDBRANCH   1   2
BRANCH   1  10
ATOM     10  C   UNL     1     164.430 179.093 180.731  1.00  0.00     0.000 C 
BRANCH  10  11
ATOM     11  C   UNL     1     163.146 179.392 181.520  1.00  0.00    -0.000 C 
BRANCH  11  12
ATOM     12  C   UNL     1     162.103 180.082 180.627  1.00  0.00    -0.000 C 
BRANCH  12  13
ATOM     13  C   UNL     1     162.336 179.819 179.130  1.00  0.00    -0.000 C 
BRANCH  13  14
ATOM     14  C   UNL     1     161.424 178.709 178.577  1.00  0.00    -0.000 C 
BRANCH  14  15
ATOM     15  C   UNL     1     162.210 177.625 177.824  1.00  0.00    -0.003 C 
ATOM     16  C   UNL     1     161.332 176.807 176.875  1.00  0.00     0.004 C 
ENDBRANCH  14  15
ENDBRANCH  13  14
ENDBRANCH  12  13
ENDBRANCH  11  12
ENDBRANCH  10  11
ENDBRANCH   1  10
TORSDOF 12
ENDMDL
MODEL 4
REMARK VINA RESULT:    -4.052      2.752      4.148
REMARK INTER + INTRA:          -8.400
REMARK INTER:                  -6.388
REMARK INTRA:                  -2.012
REMARK UNBOUND:                -1.505
REMARK SMILES CCCCCCCCCCCCCC(=O)[O-]
REMARK SMILES IDX 8 1 9 2 10 3 11 4 12 5 13 6 14 7 15 8 16 9 7 10 6 11 5 12
REMARK SMILES IDX 4 13 3 14 2 15 1 16
REMARK H PARENT
REMARK Flexibility Score: inf
ROOT
ATOM      1  C   UNL     1     162.116 180.124 179.784  1.00  0.00     0.000 C 
ENDROOT
BRANCH   1   2
ATOM      2  C   UNL     1     161.971 179.665 181.246  1.00  0.00     0.000 C 
BRANCH   2   3
ATOM      3  C   UNL     1     163.278 179.112 181.834  1.00  0.00     0.000 C 
BRANCH   3   4
ATOM      4  C   UNL     1     164.485 179.537 180.986  1.00  0.00     0.000 C 
BRANCH   4   5
ATOM      5  C   UNL     1     165.394 178.355 180.613  1.00  0.00     0.006 C 
BRANCH   5   6
ATOM      6  C   UNL     1     165.739 178.324 179.119  1.00  0.00     0.053 C 
BRANCH   6   7
ATOM      7  C   UNL     1     167.222 178.370 178.925  1.00  0.00     0.041 C 
ATOM      8  O   UNL     1     167.772 177.633 178.065  1.00  0.00    -0.550 OA
ATOM      9  O   UNL     1     167.992 179.263 179.660  1.00  0.00    -0.550 OA
ENDBRANCH   6   7
ENDBRANCH   5   6
ENDBRANCH   4   5
ENDBRANCH   3   4
ENDBRANCH   2   3
ENDBRANCH   1   2
BRANCH   1  10
ATOM     10  C   UNL     1     161.375 179.254 178.753  1.00  0.00     0.000 C 
BRANCH  10  11
ATOM     11  C   UNL     1     162.319 178.369 177.924  1.00  0.00    -0.000 C 
BRANCH  11  12
ATOM     12  C   UNL     1     161.581 177.132 177.388  1.00  0.00    -0.000 C 
BRANCH  12  13
ATOM     13  C   UNL     1     161.472 176.007 178.430  1.00  0.00    -0.000 C 
BRANCH  13  14
ATOM     14  C   UNL     1     162.758 175.843 179.260  1.00  0.00    -0.000 C 
BRANCH  14  15
ATOM     15  C   UNL     1     162.499 175.941 180.771  1.00  0.00    -0.003 C 
ATOM     16  C   UNL     1     161.014 175.868 181.125  1.00  0.00     0.004 C 
ENDBRANCH  14  15
ENDBRANCH  13  14
ENDBRANCH  12  13
ENDBRANCH  11  12
ENDBRANCH  10  11
ENDBRANCH   1  10
TORSDOF 12
ENDMDL
MODEL 5
REMARK VINA RESULT:    -4.023      2.766      6.012
REMARK INTER + INTRA:          -8.350
REMARK INTER:                  -6.719
REMARK INTRA:                  -1.631
REMARK UNBOUND:                -1.505
REMARK SMILES CCCCCCCCCCCCCC(=O)[O-]
REMARK SMILES IDX 8 1 9 2 10 3 11 4 12 5 13 6 14 7 15 8 16 9 7 10 6 11 5 12
REMARK SMILES IDX 4 13 3 14 2 15 1 16
REMARK H PARENT
REMARK Flexibility Score: inf
ROOT
ATOM      1  C   UNL     1     164.030 176.834 181.493  1.00  0.00     0.000 C 
ENDROOT
BRANCH   1   2
ATOM      2  C   UNL     1     162.940 176.113 180.680  1.00  0.00     0.000 C 
BRANCH   2   3
ATOM      3  C   UNL     1     161.517 176.514 181.097  1.00  0.00     0.000 C 
BRANCH   3   4
ATOM      4  C   UNL     1     160.600 175.285 181.172  1.00  0.00     0.000 C 
BRANCH   4   5
ATOM      5  C   UNL     1     161.362 173.964 180.981  1.00  0.00     0.006 C 
BRANCH   5   6
ATOM      6  C   UNL     1     161.494 173.166 182.284  1.00  0.00     0.053 C 
BRANCH   6   7
ATOM      7  C   UNL     1     162.892 172.656 182.443  1.00  0.00     0.041 C 
ATOM      8  O   UNL     1     163.212 171.530 181.983  1.00  0.00    -0.550 OA
ATOM      9  O   UNL     1     163.854 173.448 183.058  1.00  0.00    -0.550 OA
ENDBRANCH   6   7
ENDBRANCH   5   6
ENDBRANCH   4   5
ENDBRANCH   3   4
ENDBRANCH   2   3
ENDBRANCH   1   2
BRANCH   1  10
ATOM     10  C   UNL     1     163.694 178.282 181.890  1.00  0.00     0.000 C 
BRANCH  10  11
ATOM     11  C   UNL     1     164.505 179.325 181.105  1.00  0.00    -0.000 C 
BRANCH  11  12
ATOM     12  C   UNL     1     163.769 179.739 179.822  1.00  0.00    -0.000 C 
BRANCH  12  13
ATOM     13  C   UNL     1     162.291 180.083 180.070  1.00  0.00    -0.000 C 
BRANCH  13  14
ATOM     14  C   UNL     1     161.403 179.787 178.848  1.00  0.00    -0.000 C 
BRANCH  14  15
ATOM     15  C   UNL     1     162.152 179.016 177.750  1.00  0.00    -0.003 C 
ATOM     16  C   UNL     1     161.618 177.596 177.553  1.00  0.00     0.004 C 
ENDBRANCH  14  15
ENDBRANCH  13  14
ENDBRANCH  12  13
ENDBRANCH  11  12
ENDBRANCH  10  11
ENDBRANCH   1  10
TORSDOF 12
ENDMDL
MODEL 6
REMARK VINA RESULT:    -3.991     11.430     13.509
REMARK INTER + INTRA:          -8.296
REMARK INTER:                  -6.614
REMARK INTRA:                  -1.682
REMARK UNBOUND:                -1.505
REMARK SMILES CCCCCCCCCCCCCC(=O)[O-]
REMARK SMILES IDX 8 1 9 2 10 3 11 4 12 5 13 6 14 7 15 8 16 9 7 10 6 11 5 12
REMARK SMILES IDX 4 13 3 14 2 15 1 16
REMARK H PARENT
REMARK Flexibility Score: inf
ROOT
ATOM      1  C   UNL     1     176.418 177.606 181.518  1.00  0.00     0.000 C 
ENDROOT
BRANCH   1   2
ATOM      2  C   UNL     1     176.701 179.065 181.917  1.00  0.00     0.000 C 
BRANCH   2   3
ATOM      3  C   UNL     1     177.108 179.945 180.726  1.00  0.00     0.000 C 
BRANCH   3   4
ATOM      4  C   UNL     1     177.532 179.085 179.527  1.00  0.00     0.000 C 
BRANCH   4   5
ATOM      5  C   UNL     1     176.829 179.496 178.223  1.00  0.00     0.006 C 
BRANCH   5   6
ATOM      6  C   UNL     1     176.529 178.299 177.312  1.00  0.00     0.053 C 
BRANCH   6   7
ATOM      7  C   UNL     1     176.789 178.654 175.882  1.00  0.00     0.041 C 
ATOM      8  O   UNL     1     177.944 178.993 175.513  1.00  0.00    -0.550 OA
ATOM      9  O   UNL     1     175.766 178.563 174.947  1.00  0.00    -0.550 OA
ENDBRANCH   6   7
ENDBRANCH   5   6
ENDBRANCH   4   5
ENDBRANCH   3   4
ENDBRANCH   2   3
ENDBRANCH   1   2
BRANCH   1  10
ATOM     10  C   UNL     1     174.934 177.199 181.554  1.00  0.00     0.000 C 
BRANCH  10  11
ATOM     11  C   UNL     1     174.275 177.207 180.165  1.00  0.00    -0.000 C 
BRANCH  11  12
ATOM     12  C   UNL     1     173.722 178.601 179.831  1.00  0.00    -0.000 C 
BRANCH  12  13
ATOM     13  C   UNL     1     173.129 179.315 181.057  1.00  0.00    -0.000 C 
BRANCH  13  14
ATOM     14  C   UNL     1     171.659 179.720 180.851  1.00  0.00    -0.000 C 
BRANCH  14  15
ATOM     15  C   UNL     1     170.703 178.519 180.921  1.00  0.00    -0.003 C 
ATOM     16  C   UNL     1     170.966 177.622 182.131  1.00  0.00     0.004 C 
ENDBRANCH  14  15
ENDBRANCH  13  14
ENDBRANCH  12  13
ENDBRANCH  11  12
ENDBRANCH  10  11
ENDBRANCH   1  10
TORSDOF 12
ENDMDL
MODEL 7
REMARK VINA RESULT:    -3.951      1.398      2.685
REMARK INTER + INTRA:          -8.228
REMARK INTER:                  -6.604
REMARK INTRA:                  -1.625
REMARK UNBOUND:                -1.505
REMARK SMILES CCCCCCCCCCCCCC(=O)[O-]
REMARK SMILES IDX 8 1 9 2 10 3 11 4 12 5 13 6 14 7 15 8 16 9 7 10 6 11 5 12
REMARK SMILES IDX 4 13 3 14 2 15 1 16
REMARK H PARENT
REMARK Flexibility Score: inf
ROOT
ATOM      1  C   UNL     1     162.867 179.247 181.137  1.00  0.00     0.000 C 
ENDROOT
BRANCH   1   2
ATOM      2  C   UNL     1     163.048 179.807 179.715  1.00  0.00     0.000 C 
BRANCH   2   3
ATOM      3  C   UNL     1     161.718 179.980 178.965  1.00  0.00     0.000 C 
BRANCH   3   4
ATOM      4  C   UNL     1     161.339 178.693 178.219  1.00  0.00     0.000 C 
BRANCH   4   5
ATOM      5  C   UNL     1     162.534 178.052 177.495  1.00  0.00     0.006 C 
BRANCH   5   6
ATOM      6  C   UNL     1     162.437 176.522 177.438  1.00  0.00     0.053 C 
BRANCH   6   7
ATOM      7  C   UNL     1     161.290 176.104 176.574  1.00  0.00     0.041 C 
ATOM      8  O   UNL     1     160.273 175.566 177.087  1.00  0.00    -0.550 OA
ATOM      9  O   UNL     1     161.321 176.353 175.207  1.00  0.00    -0.550 OA
ENDBRANCH   6   7
ENDBRANCH   5   6
ENDBRANCH   4   5
ENDBRANCH   3   4
ENDBRANCH   2   3
ENDBRANCH   1   2
BRANCH   1  10
ATOM     10  C   UNL     1     163.782 178.060 181.489  1.00  0.00     0.000 C 
BRANCH  10  11
ATOM     11  C   UNL     1     163.164 176.699 181.133  1.00  0.00    -0.000 C 
BRANCH  11  12
ATOM     12  C   UNL     1     161.633 176.745 181.253  1.00  0.00    -0.000 C 
BRANCH  12  13
ATOM     13  C   UNL     1     160.953 175.496 180.668  1.00  0.00    -0.000 C 
BRANCH  13  14
ATOM     14  C   UNL     1     161.789 174.219 180.871  1.00  0.00    -0.000 C 
BRANCH  14  15
ATOM     15  C   UNL     1     161.191 173.288 181.937  1.00  0.00    -0.003 C 
ATOM     16  C   UNL     1     160.837 171.906 181.386  1.00  0.00     0.004 C 
ENDBRANCH  14  15
ENDBRANCH  13  14
ENDBRANCH  12  13
ENDBRANCH  11  12
ENDBRANCH  10  11
ENDBRANCH   1  10
TORSDOF 12
ENDMDL
MODEL 8
REMARK VINA RESULT:    -3.943      2.350      5.487
REMARK INTER + INTRA:          -8.215
REMARK INTER:                  -6.298
REMARK INTRA:                  -1.916
REMARK UNBOUND:                -1.505
REMARK SMILES CCCCCCCCCCCCCC(=O)[O-]
REMARK SMILES IDX 8 1 9 2 10 3 11 4 12 5 13 6 14 7 15 8 16 9 7 10 6 11 5 12
REMARK SMILES IDX 4 13 3 14 2 15 1 16
REMARK H PARENT
REMARK Flexibility Score: inf
ROOT
ATOM      1  C   UNL     1     163.003 178.060 177.857  1.00  0.00     0.000 C 
ENDROOT
BRANCH   1   2
ATOM      2  C   UNL     1     162.893 176.608 178.355  1.00  0.00     0.000 C 
BRANCH   2   3
ATOM      3  C   UNL     1     161.556 176.313 179.051  1.00  0.00     0.000 C 
BRANCH   3   4
ATOM      4  C   UNL     1     161.773 175.949 180.526  1.00  0.00     0.000 C 
BRANCH   4   5
ATOM      5  C   UNL     1     160.582 175.188 181.132  1.00  0.00     0.006 C 
BRANCH   5   6
ATOM      6  C   UNL     1     160.943 173.753 181.535  1.00  0.00     0.053 C 
BRANCH   6   7
ATOM      7  C   UNL     1     161.151 172.906 180.319  1.00  0.00     0.041 C 
ATOM      8  O   UNL     1     160.195 172.686 179.529  1.00  0.00    -0.550 OA
ATOM      9  O   UNL     1     162.412 172.400 180.032  1.00  0.00    -0.550 OA
ENDBRANCH   6   7
ENDBRANCH   5   6
ENDBRANCH   4   5
ENDBRANCH   3   4
ENDBRANCH   2   3
ENDBRANCH   1   2
BRANCH   1  10
ATOM     10  C   UNL     1     161.862 178.991 178.306  1.00  0.00     0.000 C 
BRANCH  10  11
ATOM     11  C   UNL     1     162.304 180.019 179.359  1.00  0.00    -0.000 C 
BRANCH  11  12
ATOM     12  C   UNL     1     161.701 179.689 180.733  1.00  0.00    -0.000 C 
BRANCH  12  13
ATOM     13  C   UNL     1     162.769 179.350 181.785  1.00  0.00    -0.000 C 
BRANCH  13  14
ATOM     14  C   UNL     1     164.195 179.358 181.204  1.00  0.00    -0.000 C 
BRANCH  14  15
ATOM     15  C   UNL     1     164.820 177.956 181.160  1.00  0.00    -0.003 C 
ATOM     16  C   UNL     1     166.066 177.888 180.276  1.00  0.00     0.004 C 
ENDBRANCH  14  15
ENDBRANCH  13  14
ENDBRANCH  12  13
ENDBRANCH  11  12
ENDBRANCH  10  11
ENDBRANCH   1  10
TORSDOF 12
ENDMDL
MODEL 9
REMARK VINA RESULT:    -3.940     10.512     13.049
REMARK INTER + INTRA:          -8.208
REMARK INTER:                  -6.472
REMARK INTRA:                  -1.736
REMARK UNBOUND:                -1.505
REMARK SMILES CCCCCCCCCCCCCC(=O)[O-]
REMARK SMILES IDX 8 1 9 2 10 3 11 4 12 5 13 6 14 7 15 8 16 9 7 10 6 11 5 12
REMARK SMILES IDX 4 13 3 14 2 15 1 16
REMARK H PARENT
REMARK Flexibility Score: inf
ROOT
ATOM      1  C   UNL     1     175.697 177.637 181.512  1.00  0.00     0.000 C 
ENDROOT
BRANCH   1   2
ATOM      2  C   UNL     1     174.219 177.785 181.110  1.00  0.00     0.000 C 
BRANCH   2   3
ATOM      3  C   UNL     1     173.721 179.236 181.177  1.00  0.00     0.000 C 
BRANCH   3   4
ATOM      4  C   UNL     1     172.232 179.323 180.813  1.00  0.00     0.000 C 
BRANCH   4   5
ATOM      5  C   UNL     1     171.536 177.953 180.830  1.00  0.00     0.006 C 
BRANCH   5   6
ATOM      6  C   UNL     1     170.603 177.780 182.036  1.00  0.00     0.053 C 
BRANCH   6   7
ATOM      7  C   UNL     1     170.754 176.411 182.621  1.00  0.00     0.041 C 
ATOM      8  O   UNL     1     171.883 176.008 183.006  1.00  0.00    -0.550 OA
ATOM      9  O   UNL     1     169.639 175.599 182.785  1.00  0.00    -0.550 OA
ENDBRANCH   6   7
ENDBRANCH   5   6
ENDBRANCH   4   5
ENDBRANCH   3   4
ENDBRANCH   2   3
ENDBRANCH   1   2
BRANCH   1  10
ATOM     10  C   UNL     1     176.422 178.958 181.824  1.00  0.00     0.000 C 
BRANCH  10  11
ATOM     11  C   UNL     1     177.154 179.544 180.606  1.00  0.00    -0.000 C 
BRANCH  11  12
ATOM     12  C   UNL     1     177.532 178.436 179.611  1.00  0.00    -0.000 C 
BRANCH  12  13
ATOM     13  C   UNL     1     176.889 178.634 178.228  1.00  0.00    -0.000 C 
BRANCH  13  14
ATOM     14  C   UNL     1     175.936 179.842 178.188  1.00  0.00    -0.000 C 
BRANCH  14  15
ATOM     15  C   UNL     1     174.584 179.502 177.542  1.00  0.00    -0.003 C 
ATOM     16  C   UNL     1     174.342 177.996 177.429  1.00  0.00     0.004 C 
ENDBRANCH  14  15
ENDBRANCH  13  14
ENDBRANCH  12  13
ENDBRANCH  11  12
ENDBRANCH  10  11
ENDBRANCH   1  10
TORSDOF 12
ENDMDL
