MODEL 1
REMARK VINA RESULT:    -6.175      0.000      0.000
REMARK INTER + INTRA:         -15.908
REMARK INTER:                 -14.118
REMARK INTRA:                  -1.790
REMARK UNBOUND:                -1.790
REMARK SMILES CCCCCCCCCCCCCCCCCCCCCCCC(=O)[O-]
REMARK SMILES IDX 13 1 14 2 15 3 16 4 17 5 18 6 19 7 20 8 21 9 22 10 23 11
REMARK SMILES IDX 24 12 25 13 26 14 12 15 11 16 10 17 9 18 8 19 7 20 6 21 5 22
REMARK SMILES IDX 4 23 3 24 2 25 1 26
REMARK H PARENT
REMARK Flexibility Score: inf
ROOT
ATOM      1  C   UNL     1      89.851 325.153 200.000  1.00  0.00     0.000 C 
ENDROOT
BRANCH   1   2
ATOM      2  C   UNL     1      88.845 325.028 198.842  1.00  0.00     0.000 C 
BRANCH   2   3
ATOM      3  C   UNL     1      88.786 326.286 197.945  1.00  0.00     0.000 C 
BRANCH   3   4
ATOM      4  C   UNL     1      87.967 326.088 196.660  1.00  0.00     0.000 C 
BRANCH   4   5
ATOM      5  C   UNL     1      88.849 326.006 195.403  1.00  0.00     0.000 C 
BRANCH   5   6
ATOM      6  C   UNL     1      88.215 326.702 194.189  1.00  0.00     0.000 C 
BRANCH   6   7
ATOM      7  C   UNL     1      86.751 326.285 193.963  1.00  0.00     0.000 C 
BRANCH   7   8
ATOM      8  C   UNL     1      86.630 324.905 193.297  1.00  0.00     0.000 C 
BRANCH   8   9
ATOM      9  C   UNL     1      87.840 324.570 192.407  1.00  0.00     0.000 C 
BRANCH   9  10
ATOM     10  C   UNL     1      87.567 323.394 191.456  1.00  0.00     0.006 C 
BRANCH  10  11
ATOM     11  C   UNL     1      88.350 323.505 190.140  1.00  0.00     0.053 C 
BRANCH  11  12
ATOM     12  C   UNL     1      89.112 322.245 189.876  1.00  0.00     0.041 C 
ATOM     13  O   UNL     1      89.508 321.530 190.834  1.00  0.00    -0.550 OA
ATOM     14  O   UNL     1      89.413 321.875 188.572  1.00  0.00    -0.550 OA
ENDBRANCH  11  12
ENDBRANCH  10  11
ENDBRANCH   9  10
ENDBRANCH   8   9
ENDBRANCH   7   8
ENDBRANCH   6   7
ENDBRANCH   5   6
ENDBRANCH   4   5
ENDBRANCH   3   4
ENDBRANCH   2   3
ENDBRANCH   1   2
BRANCH   1  15
ATOM     15  C   UNL     1      89.747 326.514 200.713  1.00  0.00     0.000 C 
BRANCH  15  16
ATOM     16  C   UNL     1      88.831 326.461 201.947  1.00  0.00     0.000 C 
BRANCH  16  17
ATOM     17  C   UNL     1      89.618 326.371 203.263  1.00  0.00     0.000 C 
BRANCH  17  18
ATOM     18  C   UNL     1      89.133 327.428 204.261  1.00  0.00    -0.000 C 
BRANCH  18  19
ATOM     19  C   UNL     1      89.825 327.270 205.620  1.00  0.00    -0.000 C 
BRANCH  19  20
ATOM     20  C   UNL     1      89.427 325.944 206.285  1.00  0.00    -0.000 C 
BRANCH  20  21
ATOM     21  C   UNL     1      88.143 326.062 207.125  1.00  0.00    -0.000 C 
BRANCH  21  22
ATOM     22  C   UNL     1      86.911 325.486 206.401  1.00  0.00    -0.000 C 
BRANCH  22  23
ATOM     23  C   UNL     1      87.208 324.131 205.726  1.00  0.00    -0.000 C 
BRANCH  23  24
ATOM     24  C   UNL     1      86.448 323.919 204.405  1.00  0.00    -0.000 C 
BRANCH  24  25
ATOM     25  C   UNL     1      87.348 323.409 203.272  1.00  0.00    -0.003 C 
ATOM     26  C   UNL     1      86.522 322.788 202.148  1.00  0.00     0.004 C 
ENDBRANCH  24  25
ENDBRANCH  23  24
ENDBRANCH  22  23
ENDBRANCH  21  22
ENDBRANCH  20  21
ENDBRANCH  19  20
ENDBRANCH  18  19
ENDBRANCH  17  18
ENDBRANCH  16  17
ENDBRANCH  15  16
ENDBRANCH   1  15
TORSDOF 22
ENDMDL
MODEL 2
REMARK VINA RESULT:    -6.154      3.980     10.536
REMARK INTER + INTRA:         -15.859
REMARK INTER:                 -13.483
REMARK INTRA:                  -2.377
REMARK UNBOUND:                -1.790
REMARK SMILES CCCCCCCCCCCCCCCCCCCCCCCC(=O)[O-]
REMARK SMILES IDX 13 1 14 2 15 3 16 4 17 5 18 6 19 7 20 8 21 9 22 10 23 11
REMARK SMILES IDX 24 12 25 13 26 14 12 15 11 16 10 17 9 18 8 19 7 20 6 21 5 22
REMARK SMILES IDX 4 23 3 24 2 25 1 26
REMARK H PARENT
REMARK Flexibility Score: inf
ROOT
ATOM      1  C   UNL     1      88.717 324.664 202.023  1.00  0.00     0.000 C 
ENDROOT
BRANCH   1   2
ATOM      2  C   UNL     1      87.537 323.741 201.671  1.00  0.00     0.000 C 
BRANCH   2   3
ATOM      3  C   UNL     1      86.431 323.723 202.751  1.00  0.00     0.000 C 
BRANCH   3   4
ATOM      4  C   UNL     1      86.928 323.272 204.134  1.00  0.00     0.000 C 
BRANCH   4   5
ATOM      5  C   UNL     1      86.339 324.115 205.278  1.00  0.00     0.000 C 
BRANCH   5   6
ATOM      6  C   UNL     1      87.380 324.465 206.352  1.00  0.00     0.000 C 
BRANCH   6   7
ATOM      7  C   UNL     1      87.420 325.970 206.671  1.00  0.00     0.000 C 
BRANCH   7   8
ATOM      8  C   UNL     1      88.844 326.545 206.610  1.00  0.00     0.000 C 
BRANCH   8   9
ATOM      9  C   UNL     1      89.217 327.051 205.205  1.00  0.00     0.000 C 
BRANCH   9  10
ATOM     10  C   UNL     1      90.611 326.583 204.758  1.00  0.00     0.006 C 
BRANCH  10  11
ATOM     11  C   UNL     1      91.175 327.425 203.605  1.00  0.00     0.053 C 
BRANCH  11  12
ATOM     12  C   UNL     1      92.243 326.670 202.879  1.00  0.00     0.041 C 
ATOM     13  O   UNL     1      92.070 325.460 202.575  1.00  0.00    -0.550 OA
ATOM     14  O   UNL     1      93.444 327.293 202.566  1.00  0.00    -0.550 OA
ENDBRANCH  11  12
ENDBRANCH  10  11
ENDBRANCH   9  10
ENDBRANCH   8   9
ENDBRANCH   7   8
ENDBRANCH   6   7
ENDBRANCH   5   6
ENDBRANCH   4   5
ENDBRANCH   3   4
ENDBRANCH   2   3
ENDBRANCH   1   2
BRANCH   1  15
ATOM     15  C   UNL     1      88.495 326.104 201.521  1.00  0.00     0.000 C 
BRANCH  15  16
ATOM     16  C   UNL     1      89.448 326.479 200.375  1.00  0.00     0.000 C 
BRANCH  16  17
ATOM     17  C   UNL     1      89.947 325.253 199.597  1.00  0.00     0.000 C 
BRANCH  17  18
ATOM     18  C   UNL     1      89.154 325.073 198.297  1.00  0.00    -0.000 C 
BRANCH  18  19
ATOM     19  C   UNL     1      88.496 326.387 197.860  1.00  0.00    -0.000 C 
BRANCH  19  20
ATOM     20  C   UNL     1      87.857 326.242 196.471  1.00  0.00    -0.000 C 
BRANCH  20  21
ATOM     21  C   UNL     1      88.872 326.416 195.328  1.00  0.00    -0.000 C 
BRANCH  21  22
ATOM     22  C   UNL     1      88.193 326.697 193.975  1.00  0.00    -0.000 C 
BRANCH  22  23
ATOM     23  C   UNL     1      87.280 325.537 193.525  1.00  0.00    -0.000 C 
BRANCH  23  24
ATOM     24  C   UNL     1      87.950 324.573 192.530  1.00  0.00    -0.000 C 
BRANCH  24  25
ATOM     25  C   UNL     1      88.341 323.233 193.166  1.00  0.00    -0.003 C 
ATOM     26  C   UNL     1      87.125 322.533 193.769  1.00  0.00     0.004 C 
ENDBRANCH  24  25
ENDBRANCH  23  24
ENDBRANCH  22  23
ENDBRANCH  21  22
ENDBRANCH  20  21
ENDBRANCH  19  20
ENDBRANCH  18  19
ENDBRANCH  17  18
ENDBRANCH  16  17
ENDBRANCH  15  16
ENDBRANCH   1  15
TORSDOF 22
ENDMDL
MODEL 3
REMARK VINA RESULT:    -6.126      3.880     11.274
REMARK INTER + INTRA:         -15.795
REMARK INTER:                 -14.017
REMARK INTRA:                  -1.778
REMARK UNBOUND:                -1.790
REMARK SMILES CCCCCCCCCCCCCCCCCCCCCCCC(=O)[O-]
REMARK SMILES IDX 13 1 14 2 15 3 16 4 17 5 18 6 19 7 20 8 21 9 22 10 23 11
REMARK SMILES IDX 24 12 25 13 26 14 12 15 11 16 10 17 9 18 8 19 7 20 6 21 5 22
REMARK SMILES IDX 4 23 3 24 2 25 1 26
REMARK H PARENT
REMARK Flexibility Score: inf
ROOT
ATOM      1  C   UNL     1      89.370 326.455 201.937  1.00  0.00     0.000 C 
ENDROOT
BRANCH   1   2
ATOM      2  C   UNL     1      90.840 326.820 201.658  1.00  0.00     0.000 C 
BRANCH   2   3
ATOM      3  C   UNL     1      91.618 327.236 202.927  1.00  0.00     0.000 C 
BRANCH   3   4
ATOM      4  C   UNL     1      90.712 327.579 204.120  1.00  0.00     0.000 C 
BRANCH   4   5
ATOM      5  C   UNL     1      91.435 327.443 205.471  1.00  0.00     0.000 C 
BRANCH   5   6
ATOM      6  C   UNL     1      90.519 326.906 206.581  1.00  0.00     0.000 C 
BRANCH   6   7
ATOM      7  C   UNL     1      89.041 326.851 206.155  1.00  0.00     0.000 C 
BRANCH   7   8
ATOM      8  C   UNL     1      88.207 325.919 207.049  1.00  0.00     0.000 C 
BRANCH   8   9
ATOM      9  C   UNL     1      86.916 325.439 206.361  1.00  0.00     0.000 C 
BRANCH   9  10
ATOM     10  C   UNL     1      87.070 324.052 205.717  1.00  0.00     0.006 C 
BRANCH  10  11
ATOM     11  C   UNL     1      87.425 324.130 204.226  1.00  0.00     0.053 C 
BRANCH  11  12
ATOM     12  C   UNL     1      88.729 323.445 203.962  1.00  0.00     0.041 C 
ATOM     13  O   UNL     1      88.814 322.564 203.066  1.00  0.00    -0.550 OA
ATOM     14  O   UNL     1      89.845 323.756 204.728  1.00  0.00    -0.550 OA
ENDBRANCH  11  12
ENDBRANCH  10  11
ENDBRANCH   9  10
ENDBRANCH   8   9
ENDBRANCH   7   8
ENDBRANCH   6   7
ENDBRANCH   5   6
ENDBRANCH   4   5
ENDBRANCH   3   4
ENDBRANCH   2   3
ENDBRANCH   1   2
BRANCH   1  15
ATOM     15  C   UNL     1      88.641 325.979 200.666  1.00  0.00     0.000 C 
BRANCH  15  16
ATOM     16  C   UNL     1      89.264 326.553 199.383  1.00  0.00     0.000 C 
BRANCH  16  17
ATOM     17  C   UNL     1      88.834 325.785 198.124  1.00  0.00     0.000 C 
BRANCH  17  18
ATOM     18  C   UNL     1      87.751 326.556 197.360  1.00  0.00    -0.000 C 
BRANCH  18  19
ATOM     19  C   UNL     1      87.452 325.902 196.006  1.00  0.00    -0.000 C 
BRANCH  19  20
ATOM     20  C   UNL     1      88.529 326.268 194.974  1.00  0.00    -0.000 C 
BRANCH  20  21
ATOM     21  C   UNL     1      88.160 325.825 193.548  1.00  0.00    -0.000 C 
BRANCH  21  22
ATOM     22  C   UNL     1      86.787 325.131 193.482  1.00  0.00    -0.000 C 
BRANCH  22  23
ATOM     23  C   UNL     1      86.751 324.002 192.430  1.00  0.00    -0.000 C 
BRANCH  23  24
ATOM     24  C   UNL     1      88.037 323.899 191.591  1.00  0.00    -0.000 C 
BRANCH  24  25
ATOM     25  C   UNL     1      87.805 323.253 190.219  1.00  0.00    -0.003 C 
ATOM     26  C   UNL     1      88.986 323.505 189.284  1.00  0.00     0.004 C 
ENDBRANCH  24  25
ENDBRANCH  23  24
ENDBRANCH  22  23
ENDBRANCH  21  22
ENDBRANCH  20  21
ENDBRANCH  19  20
ENDBRANCH  18  19
ENDBRANCH  17  18
ENDBRANCH  16  17
ENDBRANCH  15  16
ENDBRANCH   1  15
TORSDOF 22
ENDMDL
MODEL 4
REMARK VINA RESULT:    -6.101      2.517      3.785
REMARK INTER + INTRA:         -15.737
REMARK INTER:                 -13.166
REMARK INTRA:                  -2.571
REMARK UNBOUND:                -1.790
REMARK SMILES CCCCCCCCCCCCCCCCCCCCCCCC(=O)[O-]
REMARK SMILES IDX 13 1 14 2 15 3 16 4 17 5 18 6 19 7 20 8 21 9 22 10 23 11
REMARK SMILES IDX 24 12 25 13 26 14 12 15 11 16 10 17 9 18 8 19 7 20 6 21 5 22
REMARK SMILES IDX 4 23 3 24 2 25 1 26
REMARK H PARENT
REMARK Flexibility Score: inf
ROOT
ATOM      1  C   UNL     1      88.816 326.780 198.025  1.00  0.00     0.000 C 
ENDROOT
BRANCH   1   2
ATOM      2  C   UNL     1      88.158 326.155 196.781  1.00  0.00     0.000 C 
BRANCH   2   3
ATOM      3  C   UNL     1      88.996 326.330 195.493  1.00  0.00     0.000 C 
BRANCH   3   4
ATOM      4  C   UNL     1      88.155 326.679 194.255  1.00  0.00     0.000 C 
BRANCH   4   5
ATOM      5  C   UNL     1      86.724 326.120 194.335  1.00  0.00     0.000 C 
BRANCH   5   6
ATOM      6  C   UNL     1      86.468 325.003 193.311  1.00  0.00     0.000 C 
BRANCH   6   7
ATOM      7  C   UNL     1      87.706 324.691 192.452  1.00  0.00     0.000 C 
BRANCH   7   8
ATOM      8  C   UNL     1      88.221 323.258 192.664  1.00  0.00     0.000 C 
BRANCH   8   9
ATOM      9  C   UNL     1      87.896 322.714 194.067  1.00  0.00     0.000 C 
BRANCH   9  10
ATOM     10  C   UNL     1      89.115 322.727 195.003  1.00  0.00     0.006 C 
BRANCH  10  11
ATOM     11  C   UNL     1      88.724 322.603 196.482  1.00  0.00     0.053 C 
BRANCH  11  12
ATOM     12  C   UNL     1      89.941 322.657 197.351  1.00  0.00     0.041 C 
ATOM     13  O   UNL     1      90.751 323.616 197.252  1.00  0.00    -0.550 OA
ATOM     14  O   UNL     1      90.199 321.630 198.250  1.00  0.00    -0.550 OA
ENDBRANCH  11  12
ENDBRANCH  10  11
ENDBRANCH   9  10
ENDBRANCH   8   9
ENDBRANCH   7   8
ENDBRANCH   6   7
ENDBRANCH   5   6
ENDBRANCH   4   5
ENDBRANCH   3   4
ENDBRANCH   2   3
ENDBRANCH   1   2
BRANCH   1  15
ATOM     15  C   UNL     1      88.869 325.795 199.208  1.00  0.00     0.000 C 
BRANCH  15  16
ATOM     16  C   UNL     1      89.335 326.467 200.510  1.00  0.00     0.000 C 
BRANCH  16  17
ATOM     17  C   UNL     1      90.783 326.105 200.875  1.00  0.00     0.000 C 
BRANCH  17  18
ATOM     18  C   UNL     1      91.204 326.795 202.178  1.00  0.00    -0.000 C 
BRANCH  18  19
ATOM     19  C   UNL     1      89.994 327.079 203.075  1.00  0.00    -0.000 C 
BRANCH  19  20
ATOM     20  C   UNL     1      90.385 327.006 204.558  1.00  0.00    -0.000 C 
BRANCH  20  21
ATOM     21  C   UNL     1      89.204 327.292 205.500  1.00  0.00    -0.000 C 
BRANCH  21  22
ATOM     22  C   UNL     1      88.979 326.164 206.524  1.00  0.00    -0.000 C 
BRANCH  22  23
ATOM     23  C   UNL     1      87.484 325.951 206.843  1.00  0.00    -0.000 C 
BRANCH  23  24
ATOM     24  C   UNL     1      86.820 324.859 205.986  1.00  0.00    -0.000 C 
BRANCH  24  25
ATOM     25  C   UNL     1      87.833 324.025 205.190  1.00  0.00    -0.003 C 
ATOM     26  C   UNL     1      87.666 324.240 203.687  1.00  0.00     0.004 C 
ENDBRANCH  24  25
ENDBRANCH  23  24
ENDBRANCH  22  23
ENDBRANCH  21  22
ENDBRANCH  20  21
ENDBRANCH  19  20
ENDBRANCH  18  19
ENDBRANCH  17  18
ENDBRANCH  16  17
ENDBRANCH  15  16
ENDBRANCH   1  15
TORSDOF 22
ENDMDL
MODEL 5
REMARK VINA RESULT:    -6.089      3.877     11.602
REMARK INTER + INTRA:         -15.710
REMARK INTER:                 -13.766
REMARK INTRA:                  -1.944
REMARK UNBOUND:                -1.790
REMARK SMILES CCCCCCCCCCCCCCCCCCCCCCCC(=O)[O-]
REMARK SMILES IDX 13 1 14 2 15 3 16 4 17 5 18 6 19 7 20 8 21 9 22 10 23 11
REMARK SMILES IDX 24 12 25 13 26 14 12 15 11 16 10 17 9 18 8 19 7 20 6 21 5 22
REMARK SMILES IDX 4 23 3 24 2 25 1 26
REMARK H PARENT
REMARK Flexibility Score: inf
ROOT
ATOM      1  C   UNL     1      88.872 324.873 198.509  1.00  0.00     0.000 C 
ENDROOT
BRANCH   1   2
ATOM      2  C   UNL     1      89.743 325.355 199.684  1.00  0.00     0.000 C 
BRANCH   2   3
ATOM      3  C   UNL     1      89.115 326.530 200.469  1.00  0.00     0.000 C 
BRANCH   3   4
ATOM      4  C   UNL     1      88.796 326.191 201.933  1.00  0.00     0.000 C 
BRANCH   4   5
ATOM      5  C   UNL     1      89.781 326.843 202.919  1.00  0.00     0.000 C 
BRANCH   5   6
ATOM      6  C   UNL     1      89.120 327.217 204.255  1.00  0.00     0.000 C 
BRANCH   6   7
ATOM      7  C   UNL     1      89.533 326.280 205.404  1.00  0.00     0.000 C 
BRANCH   7   8
ATOM      8  C   UNL     1      88.758 326.565 206.701  1.00  0.00     0.000 C 
BRANCH   8   9
ATOM      9  C   UNL     1      87.349 325.944 206.697  1.00  0.00     0.000 C 
BRANCH   9  10
ATOM     10  C   UNL     1      87.360 324.456 206.311  1.00  0.00     0.006 C 
BRANCH  10  11
ATOM     11  C   UNL     1      86.309 324.115 205.246  1.00  0.00     0.053 C 
BRANCH  11  12
ATOM     12  C   UNL     1      86.972 323.678 203.977  1.00  0.00     0.041 C 
ATOM     13  O   UNL     1      88.182 323.327 203.981  1.00  0.00    -0.550 OA
ATOM     14  O   UNL     1      86.264 323.689 202.783  1.00  0.00    -0.550 OA
ENDBRANCH  11  12
ENDBRANCH  10  11
ENDBRANCH   9  10
ENDBRANCH   8   9
ENDBRANCH   7   8
ENDBRANCH   6   7
ENDBRANCH   5   6
ENDBRANCH   4   5
ENDBRANCH   3   4
ENDBRANCH   2   3
ENDBRANCH   1   2
BRANCH   1  15
ATOM     15  C   UNL     1      88.693 325.964 197.437  1.00  0.00     0.000 C 
BRANCH  15  16
ATOM     16  C   UNL     1      88.402 325.377 196.046  1.00  0.00     0.000 C 
BRANCH  16  17
ATOM     17  C   UNL     1      88.552 326.415 194.924  1.00  0.00     0.000 C 
BRANCH  17  18
ATOM     18  C   UNL     1      87.183 326.798 194.349  1.00  0.00    -0.000 C 
BRANCH  18  19
ATOM     19  C   UNL     1      86.184 325.641 194.470  1.00  0.00    -0.000 C 
BRANCH  19  20
ATOM     20  C   UNL     1      86.176 324.792 193.191  1.00  0.00    -0.000 C 
BRANCH  20  21
ATOM     21  C   UNL     1      86.785 323.395 193.401  1.00  0.00    -0.000 C 
BRANCH  21  22
ATOM     22  C   UNL     1      88.009 323.144 192.501  1.00  0.00    -0.000 C 
BRANCH  22  23
ATOM     23  C   UNL     1      88.078 324.131 191.317  1.00  0.00    -0.000 C 
BRANCH  23  24
ATOM     24  C   UNL     1      88.474 323.470 189.985  1.00  0.00    -0.000 C 
BRANCH  24  25
ATOM     25  C   UNL     1      88.007 322.013 189.878  1.00  0.00    -0.003 C 
ATOM     26  C   UNL     1      86.667 321.914 189.153  1.00  0.00     0.004 C 
ENDBRANCH  24  25
ENDBRANCH  23  24
ENDBRANCH  22  23
ENDBRANCH  21  22
ENDBRANCH  20  21
ENDBRANCH  19  20
ENDBRANCH  18  19
ENDBRANCH  17  18
ENDBRANCH  16  17
ENDBRANCH  15  16
ENDBRANCH   1  15
TORSDOF 22
ENDMDL
MODEL 6
REMARK VINA RESULT:    -6.085      4.207     11.495
REMARK INTER + INTRA:         -15.702
REMARK INTER:                 -13.627
REMARK INTRA:                  -2.075
REMARK UNBOUND:                -1.790
REMARK SMILES CCCCCCCCCCCCCCCCCCCCCCCC(=O)[O-]
REMARK SMILES IDX 13 1 14 2 15 3 16 4 17 5 18 6 19 7 20 8 21 9 22 10 23 11
REMARK SMILES IDX 24 12 25 13 26 14 12 15 11 16 10 17 9 18 8 19 7 20 6 21 5 22
REMARK SMILES IDX 4 23 3 24 2 25 1 26
REMARK H PARENT
REMARK Flexibility Score: inf
ROOT
ATOM      1  C   UNL     1      89.426 326.484 200.398  1.00  0.00     0.000 C 
ENDROOT
BRANCH   1   2
ATOM      2  C   UNL     1      88.532 325.776 201.432  1.00  0.00     0.000 C 
BRANCH   2   3
ATOM      3  C   UNL     1      89.182 324.510 202.036  1.00  0.00     0.000 C 
BRANCH   3   4
ATOM      4  C   UNL     1      88.200 323.342 202.217  1.00  0.00     0.000 C 
BRANCH   4   5
ATOM      5  C   UNL     1      86.989 323.717 203.089  1.00  0.00     0.000 C 
BRANCH   5   6
ATOM      6  C   UNL     1      87.260 323.532 204.590  1.00  0.00     0.000 C 
BRANCH   6   7
ATOM      7  C   UNL     1      86.271 324.315 205.472  1.00  0.00     0.000 C 
BRANCH   7   8
ATOM      8  C   UNL     1      86.971 325.363 206.352  1.00  0.00     0.000 C 
BRANCH   8   9
ATOM      9  C   UNL     1      88.502 325.338 206.195  1.00  0.00     0.000 C 
BRANCH   9  10
ATOM     10  C   UNL     1      89.112 326.747 206.127  1.00  0.00     0.006 C 
BRANCH  10  11
ATOM     11  C   UNL     1      89.368 327.211 204.686  1.00  0.00     0.053 C 
BRANCH  11  12
ATOM     12  C   UNL     1      90.816 327.067 204.339  1.00  0.00     0.041 C 
ATOM     13  O   UNL     1      91.614 326.533 205.154  1.00  0.00    -0.550 OA
ATOM     14  O   UNL     1      91.292 327.553 203.128  1.00  0.00    -0.550 OA
ENDBRANCH  11  12
ENDBRANCH  10  11
ENDBRANCH   9  10
ENDBRANCH   8   9
ENDBRANCH   7   8
ENDBRANCH   6   7
ENDBRANCH   5   6
ENDBRANCH   4   5
ENDBRANCH   3   4
ENDBRANCH   2   3
ENDBRANCH   1   2
BRANCH   1  15
ATOM     15  C   UNL     1      88.881 326.336 198.965  1.00  0.00     0.000 C 
BRANCH  15  16
ATOM     16  C   UNL     1      89.196 324.960 198.357  1.00  0.00     0.000 C 
BRANCH  16  17
ATOM     17  C   UNL     1      89.119 324.960 196.823  1.00  0.00     0.000 C 
BRANCH  17  18
ATOM     18  C   UNL     1      88.230 326.104 196.322  1.00  0.00    -0.000 C 
BRANCH  18  19
ATOM     19  C   UNL     1      88.583 326.495 194.883  1.00  0.00    -0.000 C 
BRANCH  19  20
ATOM     20  C   UNL     1      87.376 326.300 193.953  1.00  0.00    -0.000 C 
BRANCH  20  21
ATOM     21  C   UNL     1      86.976 324.822 193.800  1.00  0.00    -0.000 C 
BRANCH  21  22
ATOM     22  C   UNL     1      88.094 323.971 193.171  1.00  0.00    -0.000 C 
BRANCH  22  23
ATOM     23  C   UNL     1      88.152 324.122 191.636  1.00  0.00    -0.000 C 
BRANCH  23  24
ATOM     24  C   UNL     1      87.192 323.182 190.886  1.00  0.00    -0.000 C 
BRANCH  24  25
ATOM     25  C   UNL     1      87.732 322.741 189.519  1.00  0.00    -0.003 C 
ATOM     26  C   UNL     1      89.047 323.444 189.193  1.00  0.00     0.004 C 
ENDBRANCH  24  25
ENDBRANCH  23  24
ENDBRANCH  22  23
ENDBRANCH  21  22
ENDBRANCH  20  21
ENDBRANCH  19  20
ENDBRANCH  18  19
ENDBRANCH  17  18
ENDBRANCH  16  17
ENDBRANCH  15  16
ENDBRANCH   1  15
TORSDOF 22
ENDMDL
MODEL 7
REMARK VINA RESULT:    -6.078      4.044     10.922
REMARK INTER + INTRA:         -15.684
REMARK INTER:                 -13.520
REMARK INTRA:                  -2.165
REMARK UNBOUND:                -1.790
REMARK SMILES CCCCCCCCCCCCCCCCCCCCCCCC(=O)[O-]
REMARK SMILES IDX 13 1 14 2 15 3 16 4 17 5 18 6 19 7 20 8 21 9 22 10 23 11
REMARK SMILES IDX 24 12 25 13 26 14 12 15 11 16 10 17 9 18 8 19 7 20 6 21 5 22
REMARK SMILES IDX 4 23 3 24 2 25 1 26
REMARK H PARENT
REMARK Flexibility Score: inf
ROOT
ATOM      1  C   UNL     1      88.987 326.055 200.431  1.00  0.00     0.000 C 
ENDROOT
BRANCH   1   2
ATOM      2  C   UNL     1      90.388 326.570 200.809  1.00  0.00     0.000 C 
BRANCH   2   3
ATOM      3  C   UNL     1      90.572 326.781 202.329  1.00  0.00     0.000 C 
BRANCH   3   4
ATOM      4  C   UNL     1      89.281 326.583 203.139  1.00  0.00     0.000 C 
BRANCH   4   5
ATOM      5  C   UNL     1      89.218 327.487 204.382  1.00  0.00     0.000 C 
BRANCH   5   6
ATOM      6  C   UNL     1      89.983 326.900 205.579  1.00  0.00     0.000 C 
BRANCH   6   7
ATOM      7  C   UNL     1      89.062 326.574 206.768  1.00  0.00     0.000 C 
BRANCH   7   8
ATOM      8  C   UNL     1      88.386 325.200 206.628  1.00  0.00     0.000 C 
BRANCH   8   9
ATOM      9  C   UNL     1      86.871 325.309 206.377  1.00  0.00     0.000 C 
BRANCH   9  10
ATOM     10  C   UNL     1      86.363 324.271 205.365  1.00  0.00     0.006 C 
BRANCH  10  11
ATOM     11  C   UNL     1      87.088 322.923 205.488  1.00  0.00     0.053 C 
BRANCH  11  12
ATOM     12  C   UNL     1      87.507 322.430 204.139  1.00  0.00     0.041 C 
ATOM     13  O   UNL     1      88.467 322.976 203.533  1.00  0.00    -0.550 OA
ATOM     14  O   UNL     1      86.817 321.386 203.535  1.00  0.00    -0.550 OA
ENDBRANCH  11  12
ENDBRANCH  10  11
ENDBRANCH   9  10
ENDBRANCH   8   9
ENDBRANCH   7   8
ENDBRANCH   6   7
ENDBRANCH   5   6
ENDBRANCH   4   5
ENDBRANCH   3   4
ENDBRANCH   2   3
ENDBRANCH   1   2
BRANCH   1  15
ATOM     15  C   UNL     1      88.926 325.562 198.973  1.00  0.00     0.000 C 
BRANCH  15  16
ATOM     16  C   UNL     1      88.607 326.696 197.984  1.00  0.00     0.000 C 
BRANCH  16  17
ATOM     17  C   UNL     1      87.924 326.190 196.705  1.00  0.00     0.000 C 
BRANCH  17  18
ATOM     18  C   UNL     1      88.900 326.206 195.524  1.00  0.00    -0.000 C 
BRANCH  18  19
ATOM     19  C   UNL     1      88.214 326.689 194.240  1.00  0.00    -0.000 C 
BRANCH  19  20
ATOM     20  C   UNL     1      86.761 326.197 194.180  1.00  0.00    -0.000 C 
BRANCH  20  21
ATOM     21  C   UNL     1      86.549 325.098 193.125  1.00  0.00    -0.000 C 
BRANCH  21  22
ATOM     22  C   UNL     1      87.867 324.652 192.465  1.00  0.00    -0.000 C 
BRANCH  22  23
ATOM     23  C   UNL     1      88.223 323.188 192.800  1.00  0.00    -0.000 C 
BRANCH  23  24
ATOM     24  C   UNL     1      87.255 322.530 193.799  1.00  0.00    -0.000 C 
BRANCH  24  25
ATOM     25  C   UNL     1      87.699 322.694 195.259  1.00  0.00    -0.003 C 
ATOM     26  C   UNL     1      89.208 322.504 195.401  1.00  0.00     0.004 C 
ENDBRANCH  24  25
ENDBRANCH  23  24
ENDBRANCH  22  23
ENDBRANCH  21  22
ENDBRANCH  20  21
ENDBRANCH  19  20
ENDBRANCH  18  19
ENDBRANCH  17  18
ENDBRANCH  16  17
ENDBRANCH  15  16
ENDBRANCH   1  15
TORSDOF 22
ENDMDL
MODEL 8
REMARK VINA RESULT:    -6.064      1.344      2.457
REMARK INTER + INTRA:         -15.652
REMARK INTER:                 -14.010
REMARK INTRA:                  -1.642
REMARK UNBOUND:                -1.790
REMARK SMILES CCCCCCCCCCCCCCCCCCCCCCCC(=O)[O-]
REMARK SMILES IDX 13 1 14 2 15 3 16 4 17 5 18 6 19 7 20 8 21 9 22 10 23 11
REMARK SMILES IDX 24 12 25 13 26 14 12 15 11 16 10 17 9 18 8 19 7 20 6 21 5 22
REMARK SMILES IDX 4 23 3 24 2 25 1 26
REMARK H PARENT
REMARK Flexibility Score: inf
ROOT
ATOM      1  C   UNL     1      88.872 325.046 198.151  1.00  0.00     0.000 C 
ENDROOT
BRANCH   1   2
ATOM      2  C   UNL     1      88.565 325.024 196.643  1.00  0.00     0.000 C 
BRANCH   2   3
ATOM      3  C   UNL     1      88.891 326.358 195.933  1.00  0.00     0.000 C 
BRANCH   3   4
ATOM      4  C   UNL     1      88.306 326.461 194.516  1.00  0.00     0.000 C 
BRANCH   4   5
ATOM      5  C   UNL     1      86.815 326.085 194.463  1.00  0.00     0.000 C 
BRANCH   5   6
ATOM      6  C   UNL     1      86.491 325.109 193.321  1.00  0.00     0.000 C 
BRANCH   6   7
ATOM      7  C   UNL     1      87.751 324.619 192.585  1.00  0.00     0.000 C 
BRANCH   7   8
ATOM      8  C   UNL     1      87.427 323.587 191.492  1.00  0.00     0.000 C 
BRANCH   8   9
ATOM      9  C   UNL     1      88.455 323.599 190.345  1.00  0.00     0.000 C 
BRANCH   9  10
ATOM     10  C   UNL     1      87.990 322.785 189.127  1.00  0.00     0.006 C 
BRANCH  10  11
ATOM     11  C   UNL     1      86.682 322.027 189.388  1.00  0.00     0.053 C 
BRANCH  11  12
ATOM     12  C   UNL     1      86.933 320.553 189.445  1.00  0.00     0.041 C 
ATOM     13  O   UNL     1      86.291 319.770 188.697  1.00  0.00    -0.550 OA
ATOM     14  O   UNL     1      87.857 320.040 190.347  1.00  0.00    -0.550 OA
ENDBRANCH  11  12
ENDBRANCH  10  11
ENDBRANCH   9  10
ENDBRANCH   8   9
ENDBRANCH   7   8
ENDBRANCH   6   7
ENDBRANCH   5   6
ENDBRANCH   4   5
ENDBRANCH   3   4
ENDBRANCH   2   3
ENDBRANCH   1   2
BRANCH   1  15
ATOM     15  C   UNL     1      88.929 326.481 198.709  1.00  0.00     0.000 C 
BRANCH  15  16
ATOM     16  C   UNL     1      89.440 326.527 200.158  1.00  0.00     0.000 C 
BRANCH  16  17
ATOM     17  C   UNL     1      88.495 325.821 201.141  1.00  0.00     0.000 C 
BRANCH  17  18
ATOM     18  C   UNL     1      89.208 325.524 202.465  1.00  0.00    -0.000 C 
BRANCH  18  19
ATOM     19  C   UNL     1      89.898 326.776 203.020  1.00  0.00    -0.000 C 
BRANCH  19  20
ATOM     20  C   UNL     1      89.103 327.362 204.196  1.00  0.00    -0.000 C 
BRANCH  20  21
ATOM     21  C   UNL     1      89.684 326.965 205.563  1.00  0.00    -0.000 C 
BRANCH  21  22
ATOM     22  C   UNL     1      88.590 326.699 206.614  1.00  0.00    -0.000 C 
BRANCH  22  23
ATOM     23  C   UNL     1      88.188 325.210 206.678  1.00  0.00    -0.000 C 
BRANCH  23  24
ATOM     24  C   UNL     1      86.826 324.909 206.029  1.00  0.00    -0.000 C 
BRANCH  24  25
ATOM     25  C   UNL     1      86.929 323.945 204.840  1.00  0.00    -0.003 C 
ATOM     26  C   UNL     1      86.735 322.497 205.285  1.00  0.00     0.004 C 
ENDBRANCH  24  25
ENDBRANCH  23  24
ENDBRANCH  22  23
ENDBRANCH  21  22
ENDBRANCH  20  21
ENDBRANCH  19  20
ENDBRANCH  18  19
ENDBRANCH  17  18
ENDBRANCH  16  17
ENDBRANCH  15  16
ENDBRANCH   1  15
TORSDOF 22
ENDMDL
MODEL 9
REMARK VINA RESULT:    -5.981      0.916      1.881
REMARK INTER + INTRA:         -15.464
REMARK INTER:                 -13.597
REMARK INTRA:                  -1.867
REMARK UNBOUND:                -1.790
REMARK SMILES CCCCCCCCCCCCCCCCCCCCCCCC(=O)[O-]
REMARK SMILES IDX 13 1 14 2 15 3 16 4 17 5 18 6 19 7 20 8 21 9 22 10 23 11
REMARK SMILES IDX 24 12 25 13 26 14 12 15 11 16 10 17 9 18 8 19 7 20 6 21 5 22
REMARK SMILES IDX 4 23 3 24 2 25 1 26
REMARK H PARENT
REMARK Flexibility Score: inf
ROOT
ATOM      1  C   UNL     1      88.879 326.483 201.418  1.00  0.00     0.000 C 
ENDROOT
BRANCH   1   2
ATOM      2  C   UNL     1      89.625 326.504 200.071  1.00  0.00     0.000 C 
BRANCH   2   3
ATOM      3  C   UNL     1      88.918 325.683 198.968  1.00  0.00     0.000 C 
BRANCH   3   4
ATOM      4  C   UNL     1      88.486 326.524 197.756  1.00  0.00     0.000 C 
BRANCH   4   5
ATOM      5  C   UNL     1      88.671 325.779 196.423  1.00  0.00     0.000 C 
BRANCH   5   6
ATOM      6  C   UNL     1      87.559 326.092 195.411  1.00  0.00     0.000 C 
BRANCH   6   7
ATOM      7  C   UNL     1      88.109 326.532 194.043  1.00  0.00     0.000 C 
BRANCH   7   8
ATOM      8  C   UNL     1      88.131 325.383 193.022  1.00  0.00     0.000 C 
BRANCH   8   9
ATOM      9  C   UNL     1      86.815 324.582 193.005  1.00  0.00     0.000 C 
BRANCH   9  10
ATOM     10  C   UNL     1      86.693 323.672 191.773  1.00  0.00     0.006 C 
BRANCH  10  11
ATOM     11  C   UNL     1      87.992 323.601 190.960  1.00  0.00     0.053 C 
BRANCH  11  12
ATOM     12  C   UNL     1      88.608 322.243 191.075  1.00  0.00     0.041 C 
ATOM     13  O   UNL     1      88.877 321.577 190.040  1.00  0.00    -0.550 OA
ATOM     14  O   UNL     1      88.857 321.696 192.327  1.00  0.00    -0.550 OA
ENDBRANCH  11  12
ENDBRANCH  10  11
ENDBRANCH   9  10
ENDBRANCH   8   9
ENDBRANCH   7   8
ENDBRANCH   6   7
ENDBRANCH   5   6
ENDBRANCH   4   5
ENDBRANCH   3   4
ENDBRANCH   2   3
ENDBRANCH   1   2
BRANCH   1  15
ATOM     15  C   UNL     1      89.784 326.013 202.573  1.00  0.00     0.000 C 
BRANCH  15  16
ATOM     16  C   UNL     1      90.227 327.174 203.479  1.00  0.00     0.000 C 
BRANCH  16  17
ATOM     17  C   UNL     1      89.277 327.390 204.667  1.00  0.00     0.000 C 
BRANCH  17  18
ATOM     18  C   UNL     1      89.346 326.210 205.642  1.00  0.00    -0.000 C 
BRANCH  18  19
ATOM     19  C   UNL     1      88.282 326.331 206.740  1.00  0.00    -0.000 C 
BRANCH  19  20
ATOM     20  C   UNL     1      87.047 325.485 206.399  1.00  0.00    -0.000 C 
BRANCH  20  21
ATOM     21  C   UNL     1      87.346 323.977 206.377  1.00  0.00    -0.000 C 
BRANCH  21  22
ATOM     22  C   UNL     1      86.659 323.257 205.202  1.00  0.00    -0.000 C 
BRANCH  22  23
ATOM     23  C   UNL     1      87.465 323.372 203.891  1.00  0.00    -0.000 C 
BRANCH  23  24
ATOM     24  C   UNL     1      86.586 323.505 202.635  1.00  0.00    -0.000 C 
BRANCH  24  25
ATOM     25  C   UNL     1      87.338 323.170 201.340  1.00  0.00    -0.003 C 
ATOM     26  C   UNL     1      86.597 322.107 200.531  1.00  0.00     0.004 C 
ENDBRANCH  24  25
ENDBRANCH  23  24
ENDBRANCH  22  23
ENDBRANCH  21  22
ENDBRANCH  20  21
ENDBRANCH  19  20
ENDBRANCH  18  19
ENDBRANCH  17  18
ENDBRANCH  16  17
ENDBRANCH  15  16
ENDBRANCH   1  15
TORSDOF 22
ENDMDL
