MODEL 1
REMARK VINA RESULT:    -6.505      0.000      0.000
REMARK INTER + INTRA:          -7.945
REMARK INTER:                  -7.645
REMARK INTRA:                  -0.300
REMARK UNBOUND:                -0.300
REMARK SMILES O=c1c(O)c(-c2ccc(O)cc2)oc2cc(O)cc(O)c12
REMARK SMILES IDX 5 1 3 2 2 3 1 4 21 5 19 6 18 7 16 8 15 9 14 10 13 11 6 12
REMARK SMILES IDX 7 13 8 14 9 15 12 16 11 17 10 18 4 20 20 22 17 24
REMARK H PARENT 10 19 4 21 20 23 17 25
REMARK Flexibility Score: inf
ROOT
ATOM      1  C   UNL     1       7.287  15.601  21.731  1.00  0.00     0.180 A 
ATOM      2  C   UNL     1       8.535  15.589  21.084  1.00  0.00     0.208 A 
ATOM      3  C   UNL     1       8.970  16.749  20.424  1.00  0.00     0.238 A 
ATOM      4  O   UNL     1      10.063  16.716  19.801  1.00  0.00    -0.285 OA
ATOM      5  C   UNL     1       8.160  17.911  20.431  1.00  0.00     0.111 A 
ATOM      6  C   UNL     1       8.519  19.153  19.829  1.00  0.00     0.134 A 
ATOM      7  C   UNL     1       7.584  20.195  19.784  1.00  0.00     0.093 A 
ATOM      8  C   UNL     1       6.328  20.061  20.378  1.00  0.00     0.123 A 
ATOM      9  C   UNL     1       5.989  18.872  21.021  1.00  0.00     0.094 A 
ATOM     10  C   UNL     1       6.887  17.802  21.050  1.00  0.00     0.146 A 
ATOM     11  O   UNL     1       6.521  16.684  21.664  1.00  0.00    -0.452 OA
ENDROOT
BRANCH   1  12
ATOM     12  C   UNL     1       6.770  14.425  22.469  1.00  0.00     0.021 A 
ATOM     13  C   UNL     1       7.071  14.225  23.829  1.00  0.00     0.016 A 
ATOM     14  C   UNL     1       6.552  13.121  24.512  1.00  0.00     0.047 A 
ATOM     15  C   UNL     1       5.717  12.211  23.850  1.00  0.00     0.115 A 
ATOM     16  C   UNL     1       5.916  13.520  21.818  1.00  0.00     0.016 A 
ATOM     17  C   UNL     1       5.399  12.417  22.503  1.00  0.00     0.047 A 
BRANCH  15  18
ATOM     18  O   UNL     1       5.196  11.107  24.519  1.00  0.00    -0.508 OA
ATOM     19  H   UNL     1       4.251  11.108  24.885  1.00  0.00     0.293 HD
ENDBRANCH  15  18
ENDBRANCH   1  12
BRANCH   2  20
ATOM     20  O   UNL     1       9.308  14.426  21.070  1.00  0.00    -0.502 OA
ATOM     21  H   UNL     1      10.236  14.385  21.476  1.00  0.00     0.293 HD
ENDBRANCH   2  20
BRANCH   6  22
ATOM     22  O   UNL     1       9.780  19.423  19.288  1.00  0.00    -0.507 OA
ATOM     23  H   UNL     1      10.231  18.868  18.577  1.00  0.00     0.293 HD
ENDBRANCH   6  22
BRANCH   8  24
ATOM     24  O   UNL     1       5.409  21.109  20.343  1.00  0.00    -0.508 OA
ATOM     25  H   UNL     1       4.839  21.287  19.525  1.00  0.00     0.293 HD
ENDBRANCH   8  24
TORSDOF 5
ENDMDL
MODEL 2
REMARK VINA RESULT:    -6.396      0.320      1.104
REMARK INTER + INTRA:          -7.818
REMARK INTER:                  -7.532
REMARK INTRA:                  -0.285
REMARK UNBOUND:                -0.300
REMARK SMILES O=c1c(O)c(-c2ccc(O)cc2)oc2cc(O)cc(O)c12
REMARK SMILES IDX 5 1 3 2 2 3 1 4 21 5 19 6 18 7 16 8 15 9 14 10 13 11 6 12
REMARK SMILES IDX 7 13 8 14 9 15 12 16 11 17 10 18 4 20 20 22 17 24
REMARK H PARENT 10 19 4 21 20 23 17 25
REMARK Flexibility Score: inf
ROOT
ATOM      1  C   UNL     1       7.187  15.722  21.766  1.00  0.00     0.180 A 
ATOM      2  C   UNL     1       8.347  15.675  20.974  1.00  0.00     0.208 A 
ATOM      3  C   UNL     1       8.794  16.851  20.352  1.00  0.00     0.238 A 
ATOM      4  O   UNL     1       9.802  16.792  19.600  1.00  0.00    -0.285 OA
ATOM      5  C   UNL     1       8.085  18.063  20.541  1.00  0.00     0.111 A 
ATOM      6  C   UNL     1       8.471  19.321  19.991  1.00  0.00     0.134 A 
ATOM      7  C   UNL     1       7.623  20.426  20.135  1.00  0.00     0.093 A 
ATOM      8  C   UNL     1       6.436  20.333  20.866  1.00  0.00     0.123 A 
ATOM      9  C   UNL     1       6.080  19.124  21.457  1.00  0.00     0.094 A 
ATOM     10  C   UNL     1       6.887  17.994  21.300  1.00  0.00     0.146 A 
ATOM     11  O   UNL     1       6.507  16.858  21.871  1.00  0.00    -0.452 OA
ENDROOT
BRANCH   1  12
ATOM     12  C   UNL     1       6.667  14.530  22.475  1.00  0.00     0.021 A 
ATOM     13  C   UNL     1       5.802  13.620  21.840  1.00  0.00     0.016 A 
ATOM     14  C   UNL     1       5.343  12.488  22.520  1.00  0.00     0.047 A 
ATOM     15  C   UNL     1       5.752  12.244  23.838  1.00  0.00     0.115 A 
ATOM     16  C   UNL     1       7.088  14.267  23.789  1.00  0.00     0.016 A 
ATOM     17  C   UNL     1       6.627  13.135  24.467  1.00  0.00     0.047 A 
BRANCH  15  18
ATOM     18  O   UNL     1       5.301  11.121  24.527  1.00  0.00    -0.508 OA
ATOM     19  H   UNL     1       5.811  10.246  24.503  1.00  0.00     0.293 HD
ENDBRANCH  15  18
ENDBRANCH   1  12
BRANCH   2  20
ATOM     20  O   UNL     1       9.019  14.465  20.783  1.00  0.00    -0.502 OA
ATOM     21  H   UNL     1       9.964  14.419  20.421  1.00  0.00     0.293 HD
ENDBRANCH   2  20
BRANCH   6  22
ATOM     22  O   UNL     1       9.678  19.544  19.322  1.00  0.00    -0.507 OA
ATOM     23  H   UNL     1       9.767  19.689  18.328  1.00  0.00     0.293 HD
ENDBRANCH   6  22
BRANCH   8  24
ATOM     24  O   UNL     1       5.606  21.443  21.018  1.00  0.00    -0.508 OA
ATOM     25  H   UNL     1       4.929  21.500  21.769  1.00  0.00     0.293 HD
ENDBRANCH   8  24
TORSDOF 5
ENDMDL
MODEL 3
REMARK VINA RESULT:    -5.118      2.161      6.433
REMARK INTER + INTRA:          -6.316
REMARK INTER:                  -6.016
REMARK INTRA:                  -0.300
REMARK UNBOUND:                -0.300
REMARK SMILES O=c1c(O)c(-c2ccc(O)cc2)oc2cc(O)cc(O)c12
REMARK SMILES IDX 5 1 3 2 2 3 1 4 21 5 19 6 18 7 16 8 15 9 14 10 13 11 6 12
REMARK SMILES IDX 7 13 8 14 9 15 12 16 11 17 10 18 4 20 20 22 17 24
REMARK H PARENT 10 19 4 21 20 23 17 25
REMARK Flexibility Score: inf
ROOT
ATOM      1  C   UNL     1       8.278  17.952  21.193  1.00  0.00     0.180 A 
ATOM      2  C   UNL     1       8.990  17.373  20.129  1.00  0.00     0.208 A 
ATOM      3  C   UNL     1       8.748  16.030  19.799  1.00  0.00     0.238 A 
ATOM      4  O   UNL     1       9.428  15.501  18.881  1.00  0.00    -0.285 OA
ATOM      5  C   UNL     1       7.787  15.287  20.527  1.00  0.00     0.111 A 
ATOM      6  C   UNL     1       7.434  13.932  20.254  1.00  0.00     0.134 A 
ATOM      7  C   UNL     1       6.566  13.256  21.121  1.00  0.00     0.093 A 
ATOM      8  C   UNL     1       5.989  13.907  22.213  1.00  0.00     0.123 A 
ATOM      9  C   UNL     1       6.281  15.247  22.454  1.00  0.00     0.094 A 
ATOM     10  C   UNL     1       7.172  15.938  21.628  1.00  0.00     0.146 A 
ATOM     11  O   UNL     1       7.431  17.211  21.899  1.00  0.00    -0.452 OA
ENDROOT
BRANCH   1  12
ATOM     12  C   UNL     1       8.458  19.369  21.585  1.00  0.00     0.021 A 
ATOM     13  C   UNL     1       7.701  20.395  20.990  1.00  0.00     0.016 A 
ATOM     14  C   UNL     1       7.871  21.723  21.393  1.00  0.00     0.047 A 
ATOM     15  C   UNL     1       8.790  22.041  22.402  1.00  0.00     0.115 A 
ATOM     16  C   UNL     1       9.362  19.693  22.609  1.00  0.00     0.016 A 
ATOM     17  C   UNL     1       9.531  21.023  23.009  1.00  0.00     0.047 A 
BRANCH  15  18
ATOM     18  O   UNL     1       8.970  23.360  22.810  1.00  0.00    -0.508 OA
ATOM     19  H   UNL     1       9.813  23.874  22.583  1.00  0.00     0.293 HD
ENDBRANCH  15  18
ENDBRANCH   1  12
BRANCH   2  20
ATOM     20  O   UNL     1       9.949  18.117  19.438  1.00  0.00    -0.502 OA
ATOM     21  H   UNL     1       9.707  18.913  18.859  1.00  0.00     0.293 HD
ENDBRANCH   2  20
BRANCH   6  22
ATOM     22  O   UNL     1       7.882  13.218  19.139  1.00  0.00    -0.507 OA
ATOM     23  H   UNL     1       7.420  13.202  18.242  1.00  0.00     0.293 HD
ENDBRANCH   6  22
BRANCH   8  24
ATOM     24  O   UNL     1       5.113  13.232  23.062  1.00  0.00    -0.508 OA
ATOM     25  H   UNL     1       5.233  12.248  23.273  1.00  0.00     0.293 HD
ENDBRANCH   8  24
TORSDOF 5
ENDMDL
MODEL 4
REMARK VINA RESULT:    -5.000      2.262      3.538
REMARK INTER + INTRA:          -6.177
REMARK INTER:                  -5.920
REMARK INTRA:                  -0.257
REMARK UNBOUND:                -0.300
REMARK SMILES O=c1c(O)c(-c2ccc(O)cc2)oc2cc(O)cc(O)c12
REMARK SMILES IDX 5 1 3 2 2 3 1 4 21 5 19 6 18 7 16 8 15 9 14 10 13 11 6 12
REMARK SMILES IDX 7 13 8 14 9 15 12 16 11 17 10 18 4 20 20 22 17 24
REMARK H PARENT 10 19 4 21 20 23 17 25
REMARK Flexibility Score: inf
ROOT
ATOM      1  C   UNL     1       7.688  17.654  21.020  1.00  0.00     0.180 A 
ATOM      2  C   UNL     1       6.989  18.373  20.034  1.00  0.00     0.208 A 
ATOM      3  C   UNL     1       7.404  19.676  19.720  1.00  0.00     0.238 A 
ATOM      4  O   UNL     1       6.742  20.334  18.875  1.00  0.00    -0.285 OA
ATOM      5  C   UNL     1       8.521  20.240  20.383  1.00  0.00     0.111 A 
ATOM      6  C   UNL     1       9.053  21.537  20.115  1.00  0.00     0.134 A 
ATOM      7  C   UNL     1      10.079  22.042  20.923  1.00  0.00     0.093 A 
ATOM      8  C   UNL     1      10.636  21.272  21.946  1.00  0.00     0.123 A 
ATOM      9  C   UNL     1      10.164  19.982  22.177  1.00  0.00     0.094 A 
ATOM     10  C   UNL     1       9.117  19.464  21.412  1.00  0.00     0.146 A 
ATOM     11  O   UNL     1       8.690  18.234  21.671  1.00  0.00    -0.452 OA
ENDROOT
BRANCH   1  12
ATOM     12  C   UNL     1       7.326  16.266  21.389  1.00  0.00     0.021 A 
ATOM     13  C   UNL     1       6.240  15.995  22.242  1.00  0.00     0.016 A 
ATOM     14  C   UNL     1       5.901  14.676  22.557  1.00  0.00     0.047 A 
ATOM     15  C   UNL     1       6.635  13.611  22.016  1.00  0.00     0.115 A 
ATOM     16  C   UNL     1       8.043  15.193  20.835  1.00  0.00     0.016 A 
ATOM     17  C   UNL     1       7.703  13.875  21.152  1.00  0.00     0.047 A 
BRANCH  15  18
ATOM     18  O   UNL     1       6.309  12.293  22.324  1.00  0.00    -0.508 OA
ATOM     19  H   UNL     1       5.515  11.831  21.896  1.00  0.00     0.293 HD
ENDBRANCH  15  18
ENDBRANCH   1  12
BRANCH   2  20
ATOM     20  O   UNL     1       5.877  17.806  19.407  1.00  0.00    -0.502 OA
ATOM     21  H   UNL     1       5.752  17.820  18.402  1.00  0.00     0.293 HD
ENDBRANCH   2  20
BRANCH   6  22
ATOM     22  O   UNL     1       8.631  22.351  19.060  1.00  0.00    -0.507 OA
ATOM     23  H   UNL     1       7.921  22.100  18.389  1.00  0.00     0.293 HD
ENDBRANCH   6  22
BRANCH   8  24
ATOM     24  O   UNL     1      11.668  21.778  22.735  1.00  0.00    -0.508 OA
ATOM     25  H   UNL     1      11.542  22.605  23.306  1.00  0.00     0.293 HD
ENDBRANCH   8  24
TORSDOF 5
ENDMDL
MODEL 5
REMARK VINA RESULT:    -4.927      2.191      6.610
REMARK INTER + INTRA:          -6.091
REMARK INTER:                  -5.976
REMARK INTRA:                  -0.115
REMARK UNBOUND:                -0.300
REMARK SMILES O=c1c(O)c(-c2ccc(O)cc2)oc2cc(O)cc(O)c12
REMARK SMILES IDX 5 1 3 2 2 3 1 4 21 5 19 6 18 7 16 8 15 9 14 10 13 11 6 12
REMARK SMILES IDX 7 13 8 14 9 15 12 16 11 17 10 18 4 20 20 22 17 24
REMARK H PARENT 10 19 4 21 20 23 17 25
REMARK Flexibility Score: inf
ROOT
ATOM      1  C   UNL     1       7.880  16.871  21.293  1.00  0.00     0.180 A 
ATOM      2  C   UNL     1       7.313  16.490  20.065  1.00  0.00     0.208 A 
ATOM      3  C   UNL     1       6.584  15.293  19.994  1.00  0.00     0.238 A 
ATOM      4  O   UNL     1       6.124  14.930  18.880  1.00  0.00    -0.285 OA
ATOM      5  C   UNL     1       6.419  14.498  21.154  1.00  0.00     0.111 A 
ATOM      6  C   UNL     1       5.667  13.286  21.206  1.00  0.00     0.134 A 
ATOM      7  C   UNL     1       5.681  12.515  22.375  1.00  0.00     0.093 A 
ATOM      8  C   UNL     1       6.365  12.946  23.514  1.00  0.00     0.123 A 
ATOM      9  C   UNL     1       7.053  14.156  23.492  1.00  0.00     0.094 A 
ATOM     10  C   UNL     1       7.088  14.930  22.329  1.00  0.00     0.146 A 
ATOM     11  O   UNL     1       7.764  16.072  22.348  1.00  0.00    -0.452 OA
ENDROOT
BRANCH   1  12
ATOM     12  C   UNL     1       8.641  18.132  21.453  1.00  0.00     0.021 A 
ATOM     13  C   UNL     1       8.198  19.149  22.318  1.00  0.00     0.016 A 
ATOM     14  C   UNL     1       8.945  20.321  22.473  1.00  0.00     0.047 A 
ATOM     15  C   UNL     1      10.149  20.486  21.775  1.00  0.00     0.115 A 
ATOM     16  C   UNL     1       9.859  18.296  20.774  1.00  0.00     0.016 A 
ATOM     17  C   UNL     1      10.603  19.469  20.929  1.00  0.00     0.047 A 
BRANCH  15  18
ATOM     18  O   UNL     1      10.901  21.649  21.919  1.00  0.00    -0.508 OA
ATOM     19  H   UNL     1      11.446  21.826  22.755  1.00  0.00     0.293 HD
ENDBRANCH  15  18
ENDBRANCH   1  12
BRANCH   2  20
ATOM     20  O   UNL     1       7.506  17.278  18.927  1.00  0.00    -0.502 OA
ATOM     21  H   UNL     1       8.275  17.128  18.285  1.00  0.00     0.293 HD
ENDBRANCH   2  20
BRANCH   6  22
ATOM     22  O   UNL     1       4.875  12.814  20.156  1.00  0.00    -0.507 OA
ATOM     23  H   UNL     1       4.838  11.853  19.851  1.00  0.00     0.293 HD
ENDBRANCH   6  22
BRANCH   8  24
ATOM     24  O   UNL     1       6.360  12.179  24.678  1.00  0.00    -0.508 OA
ATOM     25  H   UNL     1       6.093  12.574  25.572  1.00  0.00     0.293 HD
ENDBRANCH   8  24
TORSDOF 5
ENDMDL
MODEL 6
REMARK VINA RESULT:    -4.835      2.709      4.750
REMARK INTER + INTRA:          -5.983
REMARK INTER:                  -5.685
REMARK INTRA:                  -0.297
REMARK UNBOUND:                -0.300
REMARK SMILES O=c1c(O)c(-c2ccc(O)cc2)oc2cc(O)cc(O)c12
REMARK SMILES IDX 5 1 3 2 2 3 1 4 21 5 19 6 18 7 16 8 15 9 14 10 13 11 6 12
REMARK SMILES IDX 7 13 8 14 9 15 12 16 11 17 10 18 4 20 20 22 17 24
REMARK H PARENT 10 19 4 21 20 23 17 25
REMARK Flexibility Score: inf
ROOT
ATOM      1  C   UNL     1       7.896  18.347  21.443  1.00  0.00     0.180 A 
ATOM      2  C   UNL     1       6.739  19.023  21.869  1.00  0.00     0.208 A 
ATOM      3  C   UNL     1       6.842  20.367  22.260  1.00  0.00     0.238 A 
ATOM      4  O   UNL     1       5.813  20.952  22.691  1.00  0.00    -0.285 OA
ATOM      5  C   UNL     1       8.096  21.024  22.206  1.00  0.00     0.111 A 
ATOM      6  C   UNL     1       8.307  22.394  22.541  1.00  0.00     0.134 A 
ATOM      7  C   UNL     1       9.612  22.902  22.577  1.00  0.00     0.093 A 
ATOM      8  C   UNL     1      10.705  22.106  22.227  1.00  0.00     0.123 A 
ATOM      9  C   UNL     1      10.502  20.783  21.841  1.00  0.00     0.094 A 
ATOM     10  C   UNL     1       9.216  20.238  21.831  1.00  0.00     0.146 A 
ATOM     11  O   UNL     1       9.068  18.970  21.467  1.00  0.00    -0.452 OA
ENDROOT
BRANCH   1  12
ATOM     12  C   UNL     1       7.863  16.936  20.992  1.00  0.00     0.021 A 
ATOM     13  C   UNL     1       7.568  16.602  19.657  1.00  0.00     0.016 A 
ATOM     14  C   UNL     1       7.567  15.265  19.248  1.00  0.00     0.047 A 
ATOM     15  C   UNL     1       7.874  14.248  20.162  1.00  0.00     0.115 A 
ATOM     16  C   UNL     1       8.190  15.913  21.896  1.00  0.00     0.016 A 
ATOM     17  C   UNL     1       8.188  14.577  21.484  1.00  0.00     0.047 A 
BRANCH  15  18
ATOM     18  O   UNL     1       7.875  12.913  19.766  1.00  0.00    -0.508 OA
ATOM     19  H   UNL     1       8.615  12.279  20.046  1.00  0.00     0.293 HD
ENDBRANCH  15  18
ENDBRANCH   1  12
BRANCH   2  20
ATOM     20  O   UNL     1       5.516  18.351  21.935  1.00  0.00    -0.502 OA
ATOM     21  H   UNL     1       5.426  17.422  22.329  1.00  0.00     0.293 HD
ENDBRANCH   2  20
BRANCH   6  22
ATOM     22  O   UNL     1       7.278  23.299  22.817  1.00  0.00    -0.507 OA
ATOM     23  H   UNL     1       7.155  24.188  22.357  1.00  0.00     0.293 HD
ENDBRANCH   6  22
BRANCH   8  24
ATOM     24  O   UNL     1      11.998  22.625  22.250  1.00  0.00    -0.508 OA
ATOM     25  H   UNL     1      12.640  22.485  21.479  1.00  0.00     0.293 HD
ENDBRANCH   8  24
TORSDOF 5
ENDMDL
MODEL 7
REMARK VINA RESULT:    -4.765      3.257      4.869
REMARK INTER + INTRA:          -5.900
REMARK INTER:                  -5.872
REMARK INTRA:                  -0.028
REMARK UNBOUND:                -0.300
REMARK SMILES O=c1c(O)c(-c2ccc(O)cc2)oc2cc(O)cc(O)c12
REMARK SMILES IDX 5 1 3 2 2 3 1 4 21 5 19 6 18 7 16 8 15 9 14 10 13 11 6 12
REMARK SMILES IDX 7 13 8 14 9 15 12 16 11 17 10 18 4 20 20 22 17 24
REMARK H PARENT 10 19 4 21 20 23 17 25
REMARK Flexibility Score: inf
ROOT
ATOM      1  C   UNL     1       8.873  19.125  21.209  1.00  0.00     0.180 A 
ATOM      2  C   UNL     1       9.285  19.995  20.184  1.00  0.00     0.208 A 
ATOM      3  C   UNL     1       9.524  21.344  20.492  1.00  0.00     0.238 A 
ATOM      4  O   UNL     1       9.840  22.129  19.560  1.00  0.00    -0.285 OA
ATOM      5  C   UNL     1       9.363  21.803  21.822  1.00  0.00     0.111 A 
ATOM      6  C   UNL     1       9.616  23.139  22.253  1.00  0.00     0.134 A 
ATOM      7  C   UNL     1       9.298  23.513  23.565  1.00  0.00     0.093 A 
ATOM      8  C   UNL     1       8.797  22.582  24.478  1.00  0.00     0.123 A 
ATOM      9  C   UNL     1       8.603  21.260  24.083  1.00  0.00     0.094 A 
ATOM     10  C   UNL     1       8.877  20.866  22.771  1.00  0.00     0.146 A 
ATOM     11  O   UNL     1       8.668  19.600  22.432  1.00  0.00    -0.452 OA
ENDROOT
BRANCH   1  12
ATOM     12  C   UNL     1       8.626  17.684  20.969  1.00  0.00     0.021 A 
ATOM     13  C   UNL     1       9.594  16.868  20.355  1.00  0.00     0.016 A 
ATOM     14  C   UNL     1       9.349  15.506  20.161  1.00  0.00     0.047 A 
ATOM     15  C   UNL     1       8.140  14.939  20.588  1.00  0.00     0.115 A 
ATOM     16  C   UNL     1       7.426  17.105  21.412  1.00  0.00     0.016 A 
ATOM     17  C   UNL     1       7.183  15.742  21.216  1.00  0.00     0.047 A 
BRANCH  15  18
ATOM     18  O   UNL     1       7.883  13.584  20.398  1.00  0.00    -0.508 OA
ATOM     19  H   UNL     1       8.155  13.109  19.545  1.00  0.00     0.293 HD
ENDBRANCH  15  18
ENDBRANCH   1  12
BRANCH   2  20
ATOM     20  O   UNL     1       9.416  19.526  18.875  1.00  0.00    -0.502 OA
ATOM     21  H   UNL     1      10.183  18.930  18.585  1.00  0.00     0.293 HD
ENDBRANCH   2  20
BRANCH   6  22
ATOM     22  O   UNL     1      10.199  24.122  21.449  1.00  0.00    -0.507 OA
ATOM     23  H   UNL     1       9.687  24.758  20.856  1.00  0.00     0.293 HD
ENDBRANCH   6  22
BRANCH   8  24
ATOM     24  O   UNL     1       8.499  22.959  25.786  1.00  0.00    -0.508 OA
ATOM     25  H   UNL     1       7.552  23.183  26.070  1.00  0.00     0.293 HD
ENDBRANCH   8  24
TORSDOF 5
ENDMDL
MODEL 8
REMARK VINA RESULT:    -4.734      4.771      7.220
REMARK INTER + INTRA:          -5.864
REMARK INTER:                  -5.848
REMARK INTRA:                  -0.017
REMARK UNBOUND:                -0.300
REMARK SMILES O=c1c(O)c(-c2ccc(O)cc2)oc2cc(O)cc(O)c12
REMARK SMILES IDX 5 1 3 2 2 3 1 4 21 5 19 6 18 7 16 8 15 9 14 10 13 11 6 12
REMARK SMILES IDX 7 13 8 14 9 15 12 16 11 17 10 18 4 20 20 22 17 24
REMARK H PARENT 10 19 4 21 20 23 17 25
REMARK Flexibility Score: inf
ROOT
ATOM      1  C   UNL     1       8.158  21.668  23.820  1.00  0.00     0.180 A 
ATOM      2  C   UNL     1       8.612  22.704  22.985  1.00  0.00     0.208 A 
ATOM      3  C   UNL     1       9.040  22.393  21.685  1.00  0.00     0.238 A 
ATOM      4  O   UNL     1       9.496  23.317  20.962  1.00  0.00    -0.285 OA
ATOM      5  C   UNL     1       8.997  21.053  21.230  1.00  0.00     0.111 A 
ATOM      6  C   UNL     1       9.369  20.630  19.919  1.00  0.00     0.134 A 
ATOM      7  C   UNL     1       9.411  19.262  19.621  1.00  0.00     0.093 A 
ATOM      8  C   UNL     1       9.030  18.307  20.566  1.00  0.00     0.123 A 
ATOM      9  C   UNL     1       8.608  18.714  21.830  1.00  0.00     0.094 A 
ATOM     10  C   UNL     1       8.591  20.069  22.169  1.00  0.00     0.146 A 
ATOM     11  O   UNL     1       8.191  20.412  23.387  1.00  0.00    -0.452 OA
ENDROOT
BRANCH   1  12
ATOM     12  C   UNL     1       7.666  21.920  25.194  1.00  0.00     0.021 A 
ATOM     13  C   UNL     1       6.392  21.488  25.606  1.00  0.00     0.016 A 
ATOM     14  C   UNL     1       5.959  21.714  26.916  1.00  0.00     0.047 A 
ATOM     15  C   UNL     1       6.796  22.364  27.833  1.00  0.00     0.115 A 
ATOM     16  C   UNL     1       8.507  22.551  26.125  1.00  0.00     0.016 A 
ATOM     17  C   UNL     1       8.071  22.778  27.434  1.00  0.00     0.047 A 
BRANCH  15  18
ATOM     18  O   UNL     1       6.375  22.597  29.139  1.00  0.00    -0.508 OA
ATOM     19  H   UNL     1       6.358  21.856  29.830  1.00  0.00     0.293 HD
ENDBRANCH  15  18
ENDBRANCH   1  12
BRANCH   2  20
ATOM     20  O   UNL     1       8.666  24.016  23.461  1.00  0.00    -0.502 OA
ATOM     21  H   UNL     1       8.218  24.302  24.325  1.00  0.00     0.293 HD
ENDBRANCH   2  20
BRANCH   6  22
ATOM     22  O   UNL     1       9.679  21.506  18.875  1.00  0.00    -0.507 OA
ATOM     23  H   UNL     1       9.432  21.358  17.908  1.00  0.00     0.293 HD
ENDBRANCH   6  22
BRANCH   8  24
ATOM     24  O   UNL     1       9.059  16.949  20.255  1.00  0.00    -0.508 OA
ATOM     25  H   UNL     1       9.851  16.530  19.782  1.00  0.00     0.293 HD
ENDBRANCH   8  24
TORSDOF 5
ENDMDL
MODEL 9
REMARK VINA RESULT:    -4.637      2.886      7.070
REMARK INTER + INTRA:          -5.750
REMARK INTER:                  -5.456
REMARK INTRA:                  -0.294
REMARK UNBOUND:                -0.300
REMARK SMILES O=c1c(O)c(-c2ccc(O)cc2)oc2cc(O)cc(O)c12
REMARK SMILES IDX 5 1 3 2 2 3 1 4 21 5 19 6 18 7 16 8 15 9 14 10 13 11 6 12
REMARK SMILES IDX 7 13 8 14 9 15 12 16 11 17 10 18 4 20 20 22 17 24
REMARK H PARENT 10 19 4 21 20 23 17 25
REMARK Flexibility Score: inf
ROOT
ATOM      1  C   UNL     1       8.208  19.602  21.111  1.00  0.00     0.180 A 
ATOM      2  C   UNL     1       7.120  19.842  20.254  1.00  0.00     0.208 A 
ATOM      3  C   UNL     1       6.426  18.748  19.713  1.00  0.00     0.238 A 
ATOM      4  O   UNL     1       5.487  18.968  18.904  1.00  0.00    -0.285 OA
ATOM      5  C   UNL     1       6.818  17.429  20.047  1.00  0.00     0.111 A 
ATOM      6  C   UNL     1       6.162  16.248  19.587  1.00  0.00     0.134 A 
ATOM      7  C   UNL     1       6.717  14.995  19.875  1.00  0.00     0.093 A 
ATOM      8  C   UNL     1       7.866  14.878  20.660  1.00  0.00     0.123 A 
ATOM      9  C   UNL     1       8.480  16.023  21.162  1.00  0.00     0.094 A 
ATOM     10  C   UNL     1       7.972  17.289  20.862  1.00  0.00     0.146 A 
ATOM     11  O   UNL     1       8.593  18.354  21.353  1.00  0.00    -0.452 OA
ENDROOT
BRANCH   1  12
ATOM     12  C   UNL     1       8.973  20.703  21.741  1.00  0.00     0.021 A 
ATOM     13  C   UNL     1       8.625  21.204  23.009  1.00  0.00     0.016 A 
ATOM     14  C   UNL     1       9.377  22.227  23.595  1.00  0.00     0.047 A 
ATOM     15  C   UNL     1      10.492  22.753  22.928  1.00  0.00     0.115 A 
ATOM     16  C   UNL     1      10.103  21.222  21.088  1.00  0.00     0.016 A 
ATOM     17  C   UNL     1      10.853  22.245  21.676  1.00  0.00     0.047 A 
BRANCH  15  18
ATOM     18  O   UNL     1      11.247  23.773  23.501  1.00  0.00    -0.508 OA
ATOM     19  H   UNL     1      10.842  24.423  24.164  1.00  0.00     0.293 HD
ENDBRANCH  15  18
ENDBRANCH   1  12
BRANCH   2  20
ATOM     20  O   UNL     1       6.762  21.151  19.921  1.00  0.00    -0.502 OA
ATOM     21  H   UNL     1       6.694  21.889  20.612  1.00  0.00     0.293 HD
ENDBRANCH   2  20
BRANCH   6  22
ATOM     22  O   UNL     1       4.960  16.250  18.875  1.00  0.00    -0.507 OA
ATOM     23  H   UNL     1       4.284  16.998  18.890  1.00  0.00     0.293 HD
ENDBRANCH   6  22
BRANCH   8  24
ATOM     24  O   UNL     1       8.401  13.626  20.954  1.00  0.00    -0.508 OA
ATOM     25  H   UNL     1       8.114  12.794  20.452  1.00  0.00     0.293 HD
ENDBRANCH   8  24
TORSDOF 5
ENDMDL
