MODEL 1
REMARK VINA RESULT:    -4.053      0.000      0.000
REMARK INTER + INTRA:          -6.540
REMARK INTER:                  -5.829
REMARK INTRA:                  -0.711
REMARK UNBOUND:                -0.711
REMARK SMILES O=C(CO)[C@@H](O)[C@@H](O)[C@H](O)CO
REMARK SMILES IDX 7 1 9 2 11 3 12 4 10 6 5 8 2 9 1 10 3 11 4 12 6 14 8 16
REMARK H PARENT 12 5 10 7 4 13 6 15 8 17
REMARK Flexibility Score: inf
ROOT
ATOM      1  C   UNL     1     -43.918  28.049   4.922  1.00  0.00     0.181 C 
ENDROOT
BRANCH   1   2
ATOM      2  C   UNL     1     -44.456  27.359   3.637  1.00  0.00     0.171 C 
BRANCH   2   3
ATOM      3  C   UNL     1     -43.744  27.779   2.331  1.00  0.00     0.190 C 
BRANCH   3   4
ATOM      4  O   UNL     1     -43.479  26.674   1.507  1.00  0.00    -0.394 OA
ATOM      5  H   UNL     1     -43.940  26.840   0.644  1.00  0.00     0.210 HD
ENDBRANCH   3   4
ENDBRANCH   2   3
BRANCH   2   6
ATOM      6  O   UNL     1     -44.412  25.964   3.790  1.00  0.00    -0.388 OA
ATOM      7  H   UNL     1     -44.894  25.750   4.632  1.00  0.00     0.211 HD
ENDBRANCH   2   6
ENDBRANCH   1   2
BRANCH   1   8
ATOM      8  C   UNL     1     -43.719  27.105   6.145  1.00  0.00     0.214 C 
BRANCH   8   9
ATOM      9  C   UNL     1     -43.200  27.871   7.349  1.00  0.00     0.189 C 
ATOM     10  O   UNL     1     -42.055  28.303   7.328  1.00  0.00    -0.294 OA
BRANCH   9  11
ATOM     11  C   UNL     1     -44.058  28.106   8.570  1.00  0.00     0.234 C 
BRANCH  11  12
ATOM     12  O   UNL     1     -44.499  26.895   9.124  1.00  0.00    -0.388 OA
ATOM     13  H   UNL     1     -44.218  26.176   8.499  1.00  0.00     0.211 HD
ENDBRANCH  11  12
ENDBRANCH   9  11
ENDBRANCH   8   9
BRANCH   8  14
ATOM     14  O   UNL     1     -44.902  26.411   6.458  1.00  0.00    -0.382 OA
ATOM     15  H   UNL     1     -45.442  26.338   5.628  1.00  0.00     0.211 HD
ENDBRANCH   8  14
ENDBRANCH   1   8
BRANCH   1  16
ATOM     16  O   UNL     1     -42.743  28.767   4.630  1.00  0.00    -0.387 OA
ATOM     17  H   UNL     1     -42.102  28.625   5.374  1.00  0.00     0.211 HD
ENDBRANCH   1  16
TORSDOF 10
ENDMDL
MODEL 2
REMARK VINA RESULT:    -4.001      1.435      4.322
REMARK INTER + INTRA:          -6.466
REMARK INTER:                  -5.232
REMARK INTRA:                  -1.234
REMARK UNBOUND:                -0.711
REMARK SMILES O=C(CO)[C@@H](O)[C@@H](O)[C@H](O)CO
REMARK SMILES IDX 7 1 9 2 11 3 12 4 10 6 5 8 2 9 1 10 3 11 4 12 6 14 8 16
REMARK H PARENT 12 5 10 7 4 13 6 15 8 17
REMARK Flexibility Score: inf
ROOT
ATOM      1  C   UNL     1     -44.911  27.020   6.324  1.00  0.00     0.181 C 
ENDROOT
BRANCH   1   2
ATOM      2  C   UNL     1     -44.577  28.162   7.324  1.00  0.00     0.171 C 
BRANCH   2   3
ATOM      3  C   UNL     1     -43.224  28.009   8.054  1.00  0.00     0.190 C 
BRANCH   3   4
ATOM      4  O   UNL     1     -42.142  28.263   7.197  1.00  0.00    -0.394 OA
ATOM      5  H   UNL     1     -41.314  28.111   7.725  1.00  0.00     0.210 HD
ENDBRANCH   3   4
ENDBRANCH   2   3
BRANCH   2   6
ATOM      6  O   UNL     1     -44.641  29.403   6.670  1.00  0.00    -0.388 OA
ATOM      7  H   UNL     1     -45.243  29.984   7.207  1.00  0.00     0.211 HD
ENDBRANCH   2   6
ENDBRANCH   1   2
BRANCH   1   8
ATOM      8  C   UNL     1     -45.465  27.488   4.945  1.00  0.00     0.214 C 
BRANCH   8   9
ATOM      9  C   UNL     1     -44.417  27.347   3.857  1.00  0.00     0.189 C 
ATOM     10  O   UNL     1     -44.299  26.271   3.285  1.00  0.00    -0.294 OA
BRANCH   9  11
ATOM     11  C   UNL     1     -43.517  28.496   3.469  1.00  0.00     0.234 C 
BRANCH  11  12
ATOM     12  O   UNL     1     -42.625  28.816   4.502  1.00  0.00    -0.388 OA
ATOM     13  H   UNL     1     -42.213  29.688   4.264  1.00  0.00     0.211 HD
ENDBRANCH  11  12
ENDBRANCH   9  11
ENDBRANCH   8   9
BRANCH   8  14
ATOM     14  O   UNL     1     -46.646  26.801   4.604  1.00  0.00    -0.382 OA
ATOM     15  H   UNL     1     -47.067  26.482   5.444  1.00  0.00     0.211 HD
ENDBRANCH   8  14
ENDBRANCH   1   8
BRANCH   1  16
ATOM     16  O   UNL     1     -43.800  26.171   6.170  1.00  0.00    -0.387 OA
ATOM     17  H   UNL     1     -44.133  25.258   5.972  1.00  0.00     0.211 HD
ENDBRANCH   1  16
TORSDOF 10
ENDMDL
MODEL 3
REMARK VINA RESULT:    -3.966      1.446      4.309
REMARK INTER + INTRA:          -6.417
REMARK INTER:                  -4.992
REMARK INTRA:                  -1.425
REMARK UNBOUND:                -0.711
REMARK SMILES O=C(CO)[C@@H](O)[C@@H](O)[C@H](O)CO
REMARK SMILES IDX 7 1 9 2 11 3 12 4 10 6 5 8 2 9 1 10 3 11 4 12 6 14 8 16
REMARK H PARENT 12 5 10 7 4 13 6 15 8 17
REMARK Flexibility Score: inf
ROOT
ATOM      1  C   UNL     1     -44.892  27.166   6.651  1.00  0.00     0.181 C 
ENDROOT
BRANCH   1   2
ATOM      2  C   UNL     1     -44.566  28.293   7.671  1.00  0.00     0.171 C 
BRANCH   2   3
ATOM      3  C   UNL     1     -43.094  28.338   8.138  1.00  0.00     0.190 C 
BRANCH   3   4
ATOM      4  O   UNL     1     -42.219  28.594   7.071  1.00  0.00    -0.394 OA
ATOM      5  H   UNL     1     -42.439  27.943   6.355  1.00  0.00     0.210 HD
ENDBRANCH   3   4
ENDBRANCH   2   3
BRANCH   2   6
ATOM      6  O   UNL     1     -44.949  29.538   7.145  1.00  0.00    -0.388 OA
ATOM      7  H   UNL     1     -45.812  29.781   7.573  1.00  0.00     0.211 HD
ENDBRANCH   2   6
ENDBRANCH   1   2
BRANCH   1   8
ATOM      8  C   UNL     1     -45.441  27.655   5.277  1.00  0.00     0.214 C 
BRANCH   8   9
ATOM      9  C   UNL     1     -44.317  27.853   4.276  1.00  0.00     0.189 C 
ATOM     10  O   UNL     1     -43.554  28.798   4.424  1.00  0.00    -0.294 OA
BRANCH   9  11
ATOM     11  C   UNL     1     -44.124  26.919   3.106  1.00  0.00     0.234 C 
BRANCH  11  12
ATOM     12  O   UNL     1     -44.106  25.579   3.521  1.00  0.00    -0.388 OA
ATOM     13  H   UNL     1     -43.232  25.430   3.967  1.00  0.00     0.211 HD
ENDBRANCH  11  12
ENDBRANCH   9  11
ENDBRANCH   8   9
BRANCH   8  14
ATOM     14  O   UNL     1     -46.420  26.778   4.772  1.00  0.00    -0.382 OA
ATOM     15  H   UNL     1     -47.310  27.184   4.943  1.00  0.00     0.211 HD
ENDBRANCH   8  14
ENDBRANCH   1   8
BRANCH   1  16
ATOM     16  O   UNL     1     -43.777  26.324   6.488  1.00  0.00    -0.387 OA
ATOM     17  H   UNL     1     -44.006  25.433   6.861  1.00  0.00     0.211 HD
ENDBRANCH   1  16
TORSDOF 10
ENDMDL
MODEL 4
REMARK VINA RESULT:    -3.940      1.490      2.182
REMARK INTER + INTRA:          -6.379
REMARK INTER:                  -5.812
REMARK INTRA:                  -0.567
REMARK UNBOUND:                -0.711
REMARK SMILES O=C(CO)[C@@H](O)[C@@H](O)[C@H](O)CO
REMARK SMILES IDX 7 1 9 2 11 3 12 4 10 6 5 8 2 9 1 10 3 11 4 12 6 14 8 16
REMARK H PARENT 12 5 10 7 4 13 6 15 8 17
REMARK Flexibility Score: inf
ROOT
ATOM      1  C   UNL     1     -44.471  27.091   4.471  1.00  0.00     0.181 C 
ENDROOT
BRANCH   1   2
ATOM      2  C   UNL     1     -45.907  27.686   4.429  1.00  0.00     0.171 C 
BRANCH   2   3
ATOM      3  C   UNL     1     -46.280  28.384   3.102  1.00  0.00     0.190 C 
BRANCH   3   4
ATOM      4  O   UNL     1     -46.044  27.554   1.996  1.00  0.00    -0.394 OA
ATOM      5  H   UNL     1     -45.451  26.821   2.307  1.00  0.00     0.210 HD
ENDBRANCH   3   4
ENDBRANCH   2   3
BRANCH   2   6
ATOM      6  O   UNL     1     -46.846  26.687   4.736  1.00  0.00    -0.388 OA
ATOM      7  H   UNL     1     -46.601  26.324   5.628  1.00  0.00     0.211 HD
ENDBRANCH   2   6
ENDBRANCH   1   2
BRANCH   1   8
ATOM      8  C   UNL     1     -43.906  26.826   5.898  1.00  0.00     0.214 C 
BRANCH   8   9
ATOM      9  C   UNL     1     -43.120  28.021   6.407  1.00  0.00     0.189 C 
ATOM     10  O   UNL     1     -42.568  28.754   5.597  1.00  0.00    -0.294 OA
BRANCH   9  11
ATOM     11  C   UNL     1     -42.998  28.321   7.882  1.00  0.00     0.234 C 
BRANCH  11  12
ATOM     12  O   UNL     1     -41.780  28.951   8.176  1.00  0.00    -0.388 OA
ATOM     13  H   UNL     1     -41.600  28.789   9.139  1.00  0.00     0.211 HD
ENDBRANCH  11  12
ENDBRANCH   9  11
ENDBRANCH   8   9
BRANCH   8  14
ATOM     14  O   UNL     1     -44.927  26.472   6.800  1.00  0.00    -0.382 OA
ATOM     15  H   UNL     1     -45.149  27.274   7.340  1.00  0.00     0.211 HD
ENDBRANCH   8  14
ENDBRANCH   1   8
BRANCH   1  16
ATOM     16  O   UNL     1     -44.402  25.937   3.669  1.00  0.00    -0.387 OA
ATOM     17  H   UNL     1     -43.480  25.866   3.308  1.00  0.00     0.211 HD
ENDBRANCH   1  16
TORSDOF 10
ENDMDL
MODEL 5
REMARK VINA RESULT:    -3.880      1.244      4.719
REMARK INTER + INTRA:          -6.292
REMARK INTER:                  -5.359
REMARK INTRA:                  -0.933
REMARK UNBOUND:                -0.711
REMARK SMILES O=C(CO)[C@@H](O)[C@@H](O)[C@H](O)CO
REMARK SMILES IDX 7 1 9 2 11 3 12 4 10 6 5 8 2 9 1 10 3 11 4 12 6 14 8 16
REMARK H PARENT 12 5 10 7 4 13 6 15 8 17
REMARK Flexibility Score: inf
ROOT
ATOM      1  C   UNL     1     -43.802  27.958   5.043  1.00  0.00     0.181 C 
ENDROOT
BRANCH   1   2
ATOM      2  C   UNL     1     -43.823  26.998   6.266  1.00  0.00     0.171 C 
BRANCH   2   3
ATOM      3  C   UNL     1     -43.321  27.622   7.587  1.00  0.00     0.190 C 
BRANCH   3   4
ATOM      4  O   UNL     1     -42.145  28.365   7.395  1.00  0.00    -0.394 OA
ATOM      5  H   UNL     1     -41.756  28.526   8.294  1.00  0.00     0.210 HD
ENDBRANCH   3   4
ENDBRANCH   2   3
BRANCH   2   6
ATOM      6  O   UNL     1     -45.114  26.470   6.435  1.00  0.00    -0.388 OA
ATOM      7  H   UNL     1     -45.404  26.705   7.356  1.00  0.00     0.211 HD
ENDBRANCH   2   6
ENDBRANCH   1   2
BRANCH   1   8
ATOM      8  C   UNL     1     -44.490  27.407   3.758  1.00  0.00     0.214 C 
BRANCH   8   9
ATOM      9  C   UNL     1     -43.910  28.046   2.509  1.00  0.00     0.189 C 
ATOM     10  O   UNL     1     -42.994  28.848   2.626  1.00  0.00    -0.294 OA
BRANCH   9  11
ATOM     11  C   UNL     1     -44.439  27.719   1.132  1.00  0.00     0.234 C 
BRANCH  11  12
ATOM     12  O   UNL     1     -45.717  27.144   1.201  1.00  0.00    -0.388 OA
ATOM     13  H   UNL     1     -45.813  26.568   0.397  1.00  0.00     0.211 HD
ENDBRANCH  11  12
ENDBRANCH   9  11
ENDBRANCH   8   9
BRANCH   8  14
ATOM     14  O   UNL     1     -44.411  26.003   3.692  1.00  0.00    -0.382 OA
ATOM     15  H   UNL     1     -44.473  25.651   4.618  1.00  0.00     0.211 HD
ENDBRANCH   8  14
ENDBRANCH   1   8
BRANCH   1  16
ATOM     16  O   UNL     1     -44.320  29.215   5.405  1.00  0.00    -0.387 OA
ATOM     17  H   UNL     1     -44.850  29.561   4.641  1.00  0.00     0.211 HD
ENDBRANCH   1  16
TORSDOF 10
ENDMDL
MODEL 6
REMARK VINA RESULT:    -3.844      1.635      2.643
REMARK INTER + INTRA:          -6.241
REMARK INTER:                  -5.182
REMARK INTRA:                  -1.059
REMARK UNBOUND:                -0.711
REMARK SMILES O=C(CO)[C@@H](O)[C@@H](O)[C@H](O)CO
REMARK SMILES IDX 7 1 9 2 11 3 12 4 10 6 5 8 2 9 1 10 3 11 4 12 6 14 8 16
REMARK H PARENT 12 5 10 7 4 13 6 15 8 17
REMARK Flexibility Score: inf
ROOT
ATOM      1  C   UNL     1     -44.173  27.420   3.355  1.00  0.00     0.181 C 
ENDROOT
BRANCH   1   2
ATOM      2  C   UNL     1     -45.210  27.995   2.350  1.00  0.00     0.171 C 
BRANCH   2   3
ATOM      3  C   UNL     1     -44.994  27.567   0.881  1.00  0.00     0.190 C 
BRANCH   3   4
ATOM      4  O   UNL     1     -43.901  26.697   0.750  1.00  0.00    -0.394 OA
ATOM      5  H   UNL     1     -43.954  26.303  -0.160  1.00  0.00     0.210 HD
ENDBRANCH   3   4
ENDBRANCH   2   3
BRANCH   2   6
ATOM      6  O   UNL     1     -46.511  27.670   2.767  1.00  0.00    -0.388 OA
ATOM      7  H   UNL     1     -46.420  27.068   3.553  1.00  0.00     0.211 HD
ENDBRANCH   2   6
ENDBRANCH   1   2
BRANCH   1   8
ATOM      8  C   UNL     1     -44.096  28.160   4.724  1.00  0.00     0.214 C 
BRANCH   8   9
ATOM      9  C   UNL     1     -44.497  27.244   5.865  1.00  0.00     0.189 C 
ATOM     10  O   UNL     1     -43.638  26.555   6.400  1.00  0.00    -0.294 OA
BRANCH   9  11
ATOM     11  C   UNL     1     -45.925  27.159   6.351  1.00  0.00     0.234 C 
BRANCH  11  12
ATOM     12  O   UNL     1     -46.741  26.499   5.420  1.00  0.00    -0.388 OA
ATOM     13  H   UNL     1     -46.511  25.535   5.472  1.00  0.00     0.211 HD
ENDBRANCH  11  12
ENDBRANCH   9  11
ENDBRANCH   8   9
BRANCH   8  14
ATOM     14  O   UNL     1     -42.819  28.711   4.941  1.00  0.00    -0.382 OA
ATOM     15  H   UNL     1     -42.941  29.624   5.311  1.00  0.00     0.211 HD
ENDBRANCH   8  14
ENDBRANCH   1   8
BRANCH   1  16
ATOM     16  O   UNL     1     -44.381  26.039   3.528  1.00  0.00    -0.387 OA
ATOM     17  H   UNL     1     -43.564  25.653   3.937  1.00  0.00     0.211 HD
ENDBRANCH   1  16
TORSDOF 10
ENDMDL
MODEL 7
REMARK VINA RESULT:    -3.784      1.479      5.481
REMARK INTER + INTRA:          -6.154
REMARK INTER:                  -5.223
REMARK INTRA:                  -0.930
REMARK UNBOUND:                -0.711
REMARK SMILES O=C(CO)[C@@H](O)[C@@H](O)[C@H](O)CO
REMARK SMILES IDX 7 1 9 2 11 3 12 4 10 6 5 8 2 9 1 10 3 11 4 12 6 14 8 16
REMARK H PARENT 12 5 10 7 4 13 6 15 8 17
REMARK Flexibility Score: inf
ROOT
ATOM      1  C   UNL     1     -44.423  27.513   3.826  1.00  0.00     0.181 C 
ENDROOT
BRANCH   1   2
ATOM      2  C   UNL     1     -43.923  28.021   5.208  1.00  0.00     0.171 C 
BRANCH   2   3
ATOM      3  C   UNL     1     -43.827  26.933   6.302  1.00  0.00     0.190 C 
BRANCH   3   4
ATOM      4  O   UNL     1     -45.082  26.371   6.584  1.00  0.00    -0.394 OA
ATOM      5  H   UNL     1     -45.715  26.722   5.904  1.00  0.00     0.210 HD
ENDBRANCH   3   4
ENDBRANCH   2   3
BRANCH   2   6
ATOM      6  O   UNL     1     -42.687  28.672   5.058  1.00  0.00    -0.388 OA
ATOM      7  H   UNL     1     -42.195  28.559   5.914  1.00  0.00     0.211 HD
ENDBRANCH   2   6
ENDBRANCH   1   2
BRANCH   1   8
ATOM      8  C   UNL     1     -43.636  28.057   2.597  1.00  0.00     0.214 C 
BRANCH   8   9
ATOM      9  C   UNL     1     -44.245  27.566   1.296  1.00  0.00     0.189 C 
ATOM     10  O   UNL     1     -45.391  27.139   1.303  1.00  0.00    -0.294 OA
BRANCH   9  11
ATOM     11  C   UNL     1     -43.469  27.588  -0.000  1.00  0.00     0.234 C 
BRANCH  11  12
ATOM     12  O   UNL     1     -42.281  28.322   0.129  1.00  0.00    -0.388 OA
ATOM     13  H   UNL     1     -41.686  28.033  -0.612  1.00  0.00     0.211 HD
ENDBRANCH  11  12
ENDBRANCH   9  11
ENDBRANCH   8   9
BRANCH   8  14
ATOM     14  O   UNL     1     -43.555  29.463   2.619  1.00  0.00    -0.382 OA
ATOM     15  H   UNL     1     -44.072  29.786   3.402  1.00  0.00     0.211 HD
ENDBRANCH   8  14
ENDBRANCH   1   8
BRANCH   1  16
ATOM     16  O   UNL     1     -44.478  26.107   3.819  1.00  0.00    -0.387 OA
ATOM     17  H   UNL     1     -44.499  25.804   2.874  1.00  0.00     0.211 HD
ENDBRANCH   1  16
TORSDOF 10
ENDMDL
MODEL 8
REMARK VINA RESULT:    -3.739      2.078      3.053
REMARK INTER + INTRA:          -6.090
REMARK INTER:                  -5.120
REMARK INTRA:                  -0.970
REMARK UNBOUND:                -0.711
REMARK SMILES O=C(CO)[C@@H](O)[C@@H](O)[C@H](O)CO
REMARK SMILES IDX 7 1 9 2 11 3 12 4 10 6 5 8 2 9 1 10 3 11 4 12 6 14 8 16
REMARK H PARENT 12 5 10 7 4 13 6 15 8 17
REMARK Flexibility Score: inf
ROOT
ATOM      1  C   UNL     1     -44.137  27.340   3.590  1.00  0.00     0.181 C 
ENDROOT
BRANCH   1   2
ATOM      2  C   UNL     1     -44.214  27.676   2.074  1.00  0.00     0.171 C 
BRANCH   2   3
ATOM      3  C   UNL     1     -42.987  27.227   1.249  1.00  0.00     0.190 C 
BRANCH   3   4
ATOM      4  O   UNL     1     -42.958  27.841  -0.013  1.00  0.00    -0.394 OA
ATOM      5  H   UNL     1     -43.841  28.276  -0.141  1.00  0.00     0.210 HD
ENDBRANCH   3   4
ENDBRANCH   2   3
BRANCH   2   6
ATOM      6  O   UNL     1     -45.392  27.144   1.526  1.00  0.00    -0.388 OA
ATOM      7  H   UNL     1     -46.152  27.605   1.970  1.00  0.00     0.211 HD
ENDBRANCH   2   6
ENDBRANCH   1   2
BRANCH   1   8
ATOM      8  C   UNL     1     -44.944  28.294   4.521  1.00  0.00     0.214 C 
BRANCH   8   9
ATOM      9  C   UNL     1     -46.255  27.662   4.950  1.00  0.00     0.189 C 
ATOM     10  O   UNL     1     -47.125  27.473   4.110  1.00  0.00    -0.294 OA
BRANCH   9  11
ATOM     11  C   UNL     1     -46.513  27.268   6.385  1.00  0.00     0.234 C 
BRANCH  11  12
ATOM     12  O   UNL     1     -45.577  26.324   6.831  1.00  0.00    -0.388 OA
ATOM     13  H   UNL     1     -44.699  26.590   6.449  1.00  0.00     0.211 HD
ENDBRANCH  11  12
ENDBRANCH   9  11
ENDBRANCH   8   9
BRANCH   8  14
ATOM     14  O   UNL     1     -44.183  28.690   5.637  1.00  0.00    -0.382 OA
ATOM     15  H   UNL     1     -44.806  29.069   6.311  1.00  0.00     0.211 HD
ENDBRANCH   8  14
ENDBRANCH   1   8
BRANCH   1  16
ATOM     16  O   UNL     1     -44.488  25.995   3.806  1.00  0.00    -0.387 OA
ATOM     17  H   UNL     1     -45.372  25.975   4.256  1.00  0.00     0.211 HD
ENDBRANCH   1  16
TORSDOF 10
ENDMDL
MODEL 9
REMARK VINA RESULT:    -3.563      2.062      4.977
REMARK INTER + INTRA:          -5.836
REMARK INTER:                  -4.801
REMARK INTRA:                  -1.034
REMARK UNBOUND:                -0.711
REMARK SMILES O=C(CO)[C@@H](O)[C@@H](O)[C@H](O)CO
REMARK SMILES IDX 7 1 9 2 11 3 12 4 10 6 5 8 2 9 1 10 3 11 4 12 6 14 8 16
REMARK H PARENT 12 5 10 7 4 13 6 15 8 17
REMARK Flexibility Score: inf
ROOT
ATOM      1  C   UNL     1     -45.599  28.092   3.616  1.00  0.00     0.181 C 
ENDROOT
BRANCH   1   2
ATOM      2  C   UNL     1     -44.444  27.320   4.312  1.00  0.00     0.171 C 
BRANCH   2   3
ATOM      3  C   UNL     1     -44.507  27.314   5.856  1.00  0.00     0.190 C 
BRANCH   3   4
ATOM      4  O   UNL     1     -45.375  26.322   6.335  1.00  0.00    -0.394 OA
ATOM      5  H   UNL     1     -44.964  25.953   7.160  1.00  0.00     0.210 HD
ENDBRANCH   3   4
ENDBRANCH   2   3
BRANCH   2   6
ATOM      6  O   UNL     1     -44.384  26.005   3.821  1.00  0.00    -0.388 OA
ATOM      7  H   UNL     1     -45.143  25.510   4.228  1.00  0.00     0.211 HD
ENDBRANCH   2   6
ENDBRANCH   1   2
BRANCH   1   8
ATOM      8  C   UNL     1     -45.396  28.357   2.094  1.00  0.00     0.214 C 
BRANCH   8   9
ATOM      9  C   UNL     1     -44.058  29.022   1.827  1.00  0.00     0.189 C 
ATOM     10  O   UNL     1     -43.839  30.125   2.309  1.00  0.00    -0.294 OA
BRANCH   9  11
ATOM     11  C   UNL     1     -42.998  28.359   0.979  1.00  0.00     0.234 C 
BRANCH  11  12
ATOM     12  O   UNL     1     -42.687  27.079   1.460  1.00  0.00    -0.388 OA
ATOM     13  H   UNL     1     -43.315  26.895   2.207  1.00  0.00     0.211 HD
ENDBRANCH  11  12
ENDBRANCH   9  11
ENDBRANCH   8   9
BRANCH   8  14
ATOM     14  O   UNL     1     -45.532  27.174   1.342  1.00  0.00    -0.382 OA
ATOM     15  H   UNL     1     -45.199  26.421   1.897  1.00  0.00     0.211 HD
ENDBRANCH   8  14
ENDBRANCH   1   8
BRANCH   1  16
ATOM     16  O   UNL     1     -46.828  27.453   3.866  1.00  0.00    -0.387 OA
ATOM     17  H   UNL     1     -47.338  28.007   4.512  1.00  0.00     0.211 HD
ENDBRANCH   1  16
TORSDOF 10
ENDMDL
