MODEL 1
REMARK VINA RESULT:    -5.849      0.000      0.000
REMARK INTER + INTRA:          -9.285
REMARK INTER:                  -8.072
REMARK INTRA:                  -1.214
REMARK UNBOUND:                -1.214
REMARK SMILES CC[C@H](CC[C@@H](C)[C@H]1CC[C@H]2[C@H]3CC=C4C[C@H](O)CC[C@]4(C)[C@H]3CC[C@]12C)C(C)C
REMARK SMILES IDX 5 1 4 2 3 3 2 4 1 5 28 6 29 7 30 8 6 9 7 10 8 11 9 12 26 13
REMARK SMILES IDX 10 14 11 15 25 16 27 17 12 18 24 19 23 20 13 21 21 22 14 23
REMARK SMILES IDX 15 24 20 25 22 26 16 27 19 28 17 29 18 30
REMARK H PARENT 18 31
REMARK Flexibility Score: inf
ROOT
ATOM      1  C   UNL     1       2.023   0.329   9.835  1.00  0.00     0.004 C 
ENDROOT
BRANCH   1   2
ATOM      2  C   UNL     1       1.835  -1.019   9.098  1.00  0.00     0.004 C 
BRANCH   2   3
ATOM      3  C   UNL     1       0.505  -1.299   8.289  1.00  0.00    -0.009 C 
BRANCH   3   4
ATOM      4  C   UNL     1       0.156  -2.817   8.120  1.00  0.00     0.000 C 
ATOM      5  C   UNL     1       1.200  -3.764   8.726  1.00  0.00     0.004 C 
ENDBRANCH   3   4
BRANCH   3   6
ATOM      6  C   UNL     1      -0.677  -0.474   8.936  1.00  0.00    -0.014 C 
ATOM      7  C   UNL     1      -1.377   0.429   7.899  1.00  0.00     0.007 C 
ATOM      8  C   UNL     1      -1.757  -1.328   9.623  1.00  0.00     0.007 C 
ENDBRANCH   3   6
ENDBRANCH   2   3
ENDBRANCH   1   2
BRANCH   1   9
ATOM      9  C   UNL     1       3.275   1.206   9.488  1.00  0.00    -0.011 C 
ATOM     10  C   UNL     1       4.647   0.477   9.471  1.00  0.00     0.008 C 
BRANCH   9  11
ATOM     11  C   UNL     1       2.980   2.216   8.308  1.00  0.00    -0.002 C 
ATOM     12  C   UNL     1       1.465   2.502   8.086  1.00  0.00     0.005 C 
ATOM     13  C   UNL     1       3.673   3.618   8.204  1.00  0.00    -0.026 C 
ATOM     14  C   UNL     1       1.371   3.877   7.402  1.00  0.00     0.005 C 
ATOM     15  C   UNL     1       2.815   4.209   7.061  1.00  0.00    -0.001 C 
ATOM     16  C   UNL     1       5.146   3.623   7.712  1.00  0.00     0.007 C 
ATOM     17  C   UNL     1       3.571   4.367   9.558  1.00  0.00     0.012 C 
ATOM     18  C   UNL     1       3.189   5.603   6.505  1.00  0.00     0.000 C 
ATOM     19  C   UNL     1       5.595   5.030   7.215  1.00  0.00     0.005 C 
ATOM     20  C   UNL     1       4.685   5.607   6.078  1.00  0.00     0.003 C 
ATOM     21  C   UNL     1       2.870   6.803   7.404  1.00  0.00     0.031 C 
ATOM     22  C   UNL     1       5.125   7.007   5.433  1.00  0.00    -0.008 C 
ATOM     23  C   UNL     1       3.173   8.069   6.677  1.00  0.00    -0.027 C 
ATOM     24  C   UNL     1       4.232   8.200   5.854  1.00  0.00    -0.065 C 
ATOM     25  C   UNL     1       4.985   6.872   3.879  1.00  0.00     0.014 C 
ATOM     26  C   UNL     1       6.604   7.348   5.769  1.00  0.00     0.016 C 
ATOM     27  C   UNL     1       4.409   9.518   5.127  1.00  0.00     0.063 C 
ATOM     28  C   UNL     1       5.155   8.185   3.088  1.00  0.00     0.033 C 
ATOM     29  C   UNL     1       4.256   9.325   3.609  1.00  0.00     0.118 C 
BRANCH  29  30
ATOM     30  O   UNL     1       2.908   9.128   3.245  1.00  0.00    -0.393 OA
ATOM     31  H   UNL     1       2.368   9.838   3.680  1.00  0.00     0.210 HD
ENDBRANCH  29  30
ENDBRANCH   9  11
ENDBRANCH   1   9
TORSDOF 7
ENDMDL
MODEL 2
REMARK VINA RESULT:    -5.845      2.948      5.223
REMARK INTER + INTRA:          -9.280
REMARK INTER:                  -8.193
REMARK INTRA:                  -1.087
REMARK UNBOUND:                -1.214
REMARK SMILES CC[C@H](CC[C@@H](C)[C@H]1CC[C@H]2[C@H]3CC=C4C[C@H](O)CC[C@]4(C)[C@H]3CC[C@]12C)C(C)C
REMARK SMILES IDX 5 1 4 2 3 3 2 4 1 5 28 6 29 7 30 8 6 9 7 10 8 11 9 12 26 13
REMARK SMILES IDX 10 14 11 15 25 16 27 17 12 18 24 19 23 20 13 21 21 22 14 23
REMARK SMILES IDX 15 24 20 25 22 26 16 27 19 28 17 29 18 30
REMARK H PARENT 18 31
REMARK Flexibility Score: inf
ROOT
ATOM      1  C   UNL     1      -1.615  -1.964   9.956  1.00  0.00     0.004 C 
ENDROOT
BRANCH   1   2
ATOM      2  C   UNL     1      -2.897  -2.709   9.514  1.00  0.00     0.004 C 
BRANCH   2   3
ATOM      3  C   UNL     1      -4.278  -1.941   9.456  1.00  0.00    -0.009 C 
BRANCH   3   4
ATOM      4  C   UNL     1      -4.319  -0.756   8.431  1.00  0.00     0.000 C 
ATOM      5  C   UNL     1      -4.220   0.630   9.083  1.00  0.00     0.004 C 
ENDBRANCH   3   4
BRANCH   3   6
ATOM      6  C   UNL     1      -5.440  -2.986   9.220  1.00  0.00    -0.014 C 
ATOM      7  C   UNL     1      -4.890  -4.413   9.012  1.00  0.00     0.007 C 
ATOM      8  C   UNL     1      -6.491  -3.044  10.343  1.00  0.00     0.007 C 
ENDBRANCH   3   6
ENDBRANCH   2   3
ENDBRANCH   1   2
BRANCH   1   9
ATOM      9  C   UNL     1      -0.267  -2.289   9.224  1.00  0.00    -0.011 C 
ATOM     10  C   UNL     1      -0.238  -3.589   8.373  1.00  0.00     0.008 C 
BRANCH   9  11
ATOM     11  C   UNL     1       0.386  -0.997   8.590  1.00  0.00    -0.002 C 
ATOM     12  C   UNL     1      -0.648   0.021   8.024  1.00  0.00     0.005 C 
ATOM     13  C   UNL     1       1.436  -0.119   9.355  1.00  0.00    -0.026 C 
ATOM     14  C   UNL     1       0.037   1.398   8.031  1.00  0.00     0.005 C 
ATOM     15  C   UNL     1       1.483   1.079   8.378  1.00  0.00    -0.001 C 
ATOM     16  C   UNL     1       2.878  -0.688   9.442  1.00  0.00     0.007 C 
ATOM     17  C   UNL     1       0.917   0.214  10.779  1.00  0.00     0.012 C 
ATOM     18  C   UNL     1       2.492   2.217   8.656  1.00  0.00     0.000 C 
ATOM     19  C   UNL     1       3.922   0.410   9.801  1.00  0.00     0.005 C 
ATOM     20  C   UNL     1       3.920   1.620   8.805  1.00  0.00     0.003 C 
ATOM     21  C   UNL     1       2.162   3.149   9.828  1.00  0.00     0.031 C 
ATOM     22  C   UNL     1       5.029   2.754   9.034  1.00  0.00    -0.008 C 
ATOM     23  C   UNL     1       3.158   4.257   9.885  1.00  0.00    -0.027 C 
ATOM     24  C   UNL     1       4.464   4.074   9.612  1.00  0.00    -0.065 C 
ATOM     25  C   UNL     1       5.639   3.104   7.635  1.00  0.00     0.014 C 
ATOM     26  C   UNL     1       6.173   2.252   9.961  1.00  0.00     0.016 C 
ATOM     27  C   UNL     1       5.374   5.287   9.649  1.00  0.00     0.063 C 
ATOM     28  C   UNL     1       6.572   4.332   7.614  1.00  0.00     0.033 C 
ATOM     29  C   UNL     1       5.938   5.585   8.250  1.00  0.00     0.118 C 
BRANCH  29  30
ATOM     30  O   UNL     1       4.959   6.153   7.408  1.00  0.00    -0.393 OA
ATOM     31  H   UNL     1       4.660   5.452   6.772  1.00  0.00     0.210 HD
ENDBRANCH  29  30
ENDBRANCH   9  11
ENDBRANCH   1   9
TORSDOF 7
ENDMDL
MODEL 3
REMARK VINA RESULT:    -5.842     11.754     13.205
REMARK INTER + INTRA:          -9.276
REMARK INTER:                  -7.681
REMARK INTRA:                  -1.594
REMARK UNBOUND:                -1.214
REMARK SMILES CC[C@H](CC[C@@H](C)[C@H]1CC[C@H]2[C@H]3CC=C4C[C@H](O)CC[C@]4(C)[C@H]3CC[C@]12C)C(C)C
REMARK SMILES IDX 5 1 4 2 3 3 2 4 1 5 28 6 29 7 30 8 6 9 7 10 8 11 9 12 26 13
REMARK SMILES IDX 10 14 11 15 25 16 27 17 12 18 24 19 23 20 13 21 21 22 14 23
REMARK SMILES IDX 15 24 20 25 22 26 16 27 19 28 17 29 18 30
REMARK H PARENT 18 31
REMARK Flexibility Score: inf
ROOT
ATOM      1  C   UNL     1      -0.020  -5.294  -1.731  1.00  0.00     0.004 C 
ENDROOT
BRANCH   1   2
ATOM      2  C   UNL     1      -1.505  -5.626  -2.010  1.00  0.00     0.004 C 
BRANCH   2   3
ATOM      3  C   UNL     1      -2.458  -4.528  -2.633  1.00  0.00    -0.009 C 
BRANCH   3   4
ATOM      4  C   UNL     1      -2.539  -4.551  -4.198  1.00  0.00     0.000 C 
ATOM      5  C   UNL     1      -2.041  -3.260  -4.863  1.00  0.00     0.004 C 
ENDBRANCH   3   4
BRANCH   3   6
ATOM      6  C   UNL     1      -3.879  -4.632  -1.952  1.00  0.00    -0.014 C 
ATOM      7  C   UNL     1      -4.706  -3.344  -2.157  1.00  0.00     0.007 C 
ATOM      8  C   UNL     1      -4.735  -5.821  -2.424  1.00  0.00     0.007 C 
ENDBRANCH   3   6
ENDBRANCH   2   3
ENDBRANCH   1   2
BRANCH   1   9
ATOM      9  C   UNL     1       0.974  -5.221  -2.941  1.00  0.00    -0.011 C 
ATOM     10  C   UNL     1       0.740  -6.240  -4.091  1.00  0.00     0.008 C 
BRANCH   9  11
ATOM     11  C   UNL     1       1.293  -3.729  -3.354  1.00  0.00    -0.002 C 
ATOM     12  C   UNL     1       0.816  -2.671  -2.315  1.00  0.00     0.005 C 
ATOM     13  C   UNL     1       2.728  -3.258  -3.776  1.00  0.00    -0.026 C 
ATOM     14  C   UNL     1       1.697  -1.425  -2.517  1.00  0.00     0.005 C 
ATOM     15  C   UNL     1       2.470  -1.733  -3.789  1.00  0.00    -0.001 C 
ATOM     16  C   UNL     1       3.188  -3.651  -5.207  1.00  0.00     0.007 C 
ATOM     17  C   UNL     1       3.776  -3.739  -2.739  1.00  0.00     0.012 C 
ATOM     18  C   UNL     1       3.608  -0.798  -4.261  1.00  0.00     0.000 C 
ATOM     19  C   UNL     1       4.388  -2.787  -5.696  1.00  0.00     0.005 C 
ATOM     20  C   UNL     1       4.099  -1.247  -5.667  1.00  0.00     0.003 C 
ATOM     21  C   UNL     1       4.787  -0.620  -3.298  1.00  0.00     0.031 C 
ATOM     22  C   UNL     1       5.239  -0.281  -6.246  1.00  0.00    -0.008 C 
ATOM     23  C   UNL     1       5.730   0.400  -3.841  1.00  0.00    -0.027 C 
ATOM     24  C   UNL     1       6.006   0.507  -5.155  1.00  0.00    -0.065 C 
ATOM     25  C   UNL     1       4.536   0.784  -7.154  1.00  0.00     0.014 C 
ATOM     26  C   UNL     1       6.267  -1.067  -7.109  1.00  0.00     0.016 C 
ATOM     27  C   UNL     1       6.939   1.618  -5.597  1.00  0.00     0.063 C 
ATOM     28  C   UNL     1       5.440   1.939  -7.632  1.00  0.00     0.033 C 
ATOM     29  C   UNL     1       6.194   2.633  -6.480  1.00  0.00     0.118 C 
BRANCH  29  30
ATOM     30  O   UNL     1       5.334   3.449  -5.716  1.00  0.00    -0.393 OA
ATOM     31  H   UNL     1       5.088   2.949  -4.895  1.00  0.00     0.210 HD
ENDBRANCH  29  30
ENDBRANCH   9  11
ENDBRANCH   1   9
TORSDOF 7
ENDMDL
MODEL 4
REMARK VINA RESULT:    -5.814      3.778      5.774
REMARK INTER + INTRA:          -9.237
REMARK INTER:                  -7.627
REMARK INTRA:                  -1.611
REMARK UNBOUND:                -1.214
REMARK SMILES CC[C@H](CC[C@@H](C)[C@H]1CC[C@H]2[C@H]3CC=C4C[C@H](O)CC[C@]4(C)[C@H]3CC[C@]12C)C(C)C
REMARK SMILES IDX 5 1 4 2 3 3 2 4 1 5 28 6 29 7 30 8 6 9 7 10 8 11 9 12 26 13
REMARK SMILES IDX 10 14 11 15 25 16 27 17 12 18 24 19 23 20 13 21 21 22 14 23
REMARK SMILES IDX 15 24 20 25 22 26 16 27 19 28 17 29 18 30
REMARK H PARENT 18 31
REMARK Flexibility Score: inf
ROOT
ATOM      1  C   UNL     1      -2.663  -0.196   8.862  1.00  0.00     0.004 C 
ENDROOT
BRANCH   1   2
ATOM      2  C   UNL     1      -3.429   0.632   9.921  1.00  0.00     0.004 C 
BRANCH   2   3
ATOM      3  C   UNL     1      -4.086   2.014   9.520  1.00  0.00    -0.009 C 
BRANCH   3   4
ATOM      4  C   UNL     1      -5.648   2.051   9.646  1.00  0.00     0.000 C 
ATOM      5  C   UNL     1      -6.309   3.169   8.828  1.00  0.00     0.004 C 
ENDBRANCH   3   4
BRANCH   3   6
ATOM      6  C   UNL     1      -3.386   3.174  10.333  1.00  0.00    -0.014 C 
ATOM      7  C   UNL     1      -2.342   2.624  11.327  1.00  0.00     0.007 C 
ATOM      8  C   UNL     1      -2.694   4.241   9.465  1.00  0.00     0.007 C 
ENDBRANCH   3   6
ENDBRANCH   2   3
ENDBRANCH   1   2
BRANCH   1   9
ATOM      9  C   UNL     1      -1.215  -0.692   9.201  1.00  0.00    -0.011 C 
ATOM     10  C   UNL     1      -0.981  -2.228   9.155  1.00  0.00     0.008 C 
BRANCH   9  11
ATOM     11  C   UNL     1      -0.108   0.226   8.545  1.00  0.00    -0.002 C 
ATOM     12  C   UNL     1      -0.657   1.569   7.978  1.00  0.00     0.005 C 
ATOM     13  C   UNL     1       1.216   0.615   9.289  1.00  0.00    -0.026 C 
ATOM     14  C   UNL     1       0.523   2.556   7.962  1.00  0.00     0.005 C 
ATOM     15  C   UNL     1       1.725   1.687   8.298  1.00  0.00    -0.001 C 
ATOM     16  C   UNL     1       2.310  -0.484   9.367  1.00  0.00     0.007 C 
ATOM     17  C   UNL     1       0.894   1.137  10.714  1.00  0.00     0.012 C 
ATOM     18  C   UNL     1       3.109   2.327   8.553  1.00  0.00     0.000 C 
ATOM     19  C   UNL     1       3.712   0.106   9.702  1.00  0.00     0.005 C 
ATOM     20  C   UNL     1       4.181   1.209   8.693  1.00  0.00     0.003 C 
ATOM     21  C   UNL     1       3.196   3.321   9.716  1.00  0.00     0.031 C 
ATOM     22  C   UNL     1       5.654   1.806   8.897  1.00  0.00    -0.008 C 
ATOM     23  C   UNL     1       4.554   3.938   9.750  1.00  0.00    -0.027 C 
ATOM     24  C   UNL     1       5.674   3.245   9.466  1.00  0.00    -0.065 C 
ATOM     25  C   UNL     1       6.333   1.873   7.488  1.00  0.00     0.014 C 
ATOM     26  C   UNL     1       6.514   0.894   9.818  1.00  0.00     0.016 C 
ATOM     27  C   UNL     1       6.993   3.992   9.480  1.00  0.00     0.063 C 
ATOM     28  C   UNL     1       7.680   2.624   7.443  1.00  0.00     0.033 C 
ATOM     29  C   UNL     1       7.609   4.030   8.071  1.00  0.00     0.118 C 
BRANCH  29  30
ATOM     30  O   UNL     1       6.928   4.937   7.233  1.00  0.00    -0.393 OA
ATOM     31  H   UNL     1       7.124   4.691   6.292  1.00  0.00     0.210 HD
ENDBRANCH  29  30
ENDBRANCH   9  11
ENDBRANCH   1   9
TORSDOF 7
ENDMDL
MODEL 5
REMARK VINA RESULT:    -5.786      2.753      5.460
REMARK INTER + INTRA:          -9.199
REMARK INTER:                  -7.806
REMARK INTRA:                  -1.393
REMARK UNBOUND:                -1.214
REMARK SMILES CC[C@H](CC[C@@H](C)[C@H]1CC[C@H]2[C@H]3CC=C4C[C@H](O)CC[C@]4(C)[C@H]3CC[C@]12C)C(C)C
REMARK SMILES IDX 5 1 4 2 3 3 2 4 1 5 28 6 29 7 30 8 6 9 7 10 8 11 9 12 26 13
REMARK SMILES IDX 10 14 11 15 25 16 27 17 12 18 24 19 23 20 13 21 21 22 14 23
REMARK SMILES IDX 15 24 20 25 22 26 16 27 19 28 17 29 18 30
REMARK H PARENT 18 31
REMARK Flexibility Score: inf
ROOT
ATOM      1  C   UNL     1       0.938  -4.804   9.656  1.00  0.00     0.004 C 
ENDROOT
BRANCH   1   2
ATOM      2  C   UNL     1       1.274  -6.061   8.819  1.00  0.00     0.004 C 
BRANCH   2   3
ATOM      3  C   UNL     1       1.631  -5.918   7.285  1.00  0.00    -0.009 C 
BRANCH   3   4
ATOM      4  C   UNL     1       2.535  -7.066   6.719  1.00  0.00     0.000 C 
ATOM      5  C   UNL     1       4.018  -6.923   7.086  1.00  0.00     0.004 C 
ENDBRANCH   3   4
BRANCH   3   6
ATOM      6  C   UNL     1       0.296  -5.737   6.459  1.00  0.00    -0.014 C 
ATOM      7  C   UNL     1       0.485  -6.121   4.977  1.00  0.00     0.007 C 
ATOM      8  C   UNL     1      -0.909  -6.527   7.001  1.00  0.00     0.007 C 
ENDBRANCH   3   6
ENDBRANCH   2   3
ENDBRANCH   1   2
BRANCH   1   9
ATOM      9  C   UNL     1       2.009  -3.663   9.760  1.00  0.00    -0.011 C 
ATOM     10  C   UNL     1       3.498  -4.107   9.722  1.00  0.00     0.008 C 
BRANCH   9  11
ATOM     11  C   UNL     1       1.611  -2.399   8.899  1.00  0.00    -0.002 C 
ATOM     12  C   UNL     1       0.194  -2.493   8.259  1.00  0.00     0.005 C 
ATOM     13  C   UNL     1       1.704  -0.936   9.454  1.00  0.00    -0.026 C 
ATOM     14  C   UNL     1      -0.277  -1.049   8.016  1.00  0.00     0.005 C 
ATOM     15  C   UNL     1       0.958  -0.212   8.309  1.00  0.00    -0.001 C 
ATOM     16  C   UNL     1       3.127  -0.317   9.528  1.00  0.00     0.007 C 
ATOM     17  C   UNL     1       1.021  -0.847  10.844  1.00  0.00     0.012 C 
ATOM     18  C   UNL     1       0.869   1.331   8.348  1.00  0.00     0.000 C 
ATOM     19  C   UNL     1       3.087   1.235   9.650  1.00  0.00     0.005 C 
ATOM     20  C   UNL     1       2.298   1.930   8.488  1.00  0.00     0.003 C 
ATOM     21  C   UNL     1      -0.083   1.933   9.388  1.00  0.00     0.031 C 
ATOM     22  C   UNL     1       2.286   3.532   8.472  1.00  0.00    -0.008 C 
ATOM     23  C   UNL     1      -0.148   3.412   9.213  1.00  0.00    -0.027 C 
ATOM     24  C   UNL     1       0.929   4.153   8.884  1.00  0.00    -0.065 C 
ATOM     25  C   UNL     1       2.556   3.989   6.999  1.00  0.00     0.014 C 
ATOM     26  C   UNL     1       3.400   4.118   9.384  1.00  0.00     0.016 C 
ATOM     27  C   UNL     1       0.731   5.642   8.681  1.00  0.00     0.063 C 
ATOM     28  C   UNL     1       2.368   5.497   6.734  1.00  0.00     0.033 C 
ATOM     29  C   UNL     1       1.005   6.031   7.218  1.00  0.00     0.118 C 
BRANCH  29  30
ATOM     30  O   UNL     1      -0.043   5.618   6.369  1.00  0.00    -0.393 OA
ATOM     31  H   UNL     1       0.289   4.862   5.819  1.00  0.00     0.210 HD
ENDBRANCH  29  30
ENDBRANCH   9  11
ENDBRANCH   1   9
TORSDOF 7
ENDMDL
MODEL 6
REMARK VINA RESULT:    -5.732      3.478      5.990
REMARK INTER + INTRA:          -9.124
REMARK INTER:                  -7.436
REMARK INTRA:                  -1.688
REMARK UNBOUND:                -1.214
REMARK SMILES CC[C@H](CC[C@@H](C)[C@H]1CC[C@H]2[C@H]3CC=C4C[C@H](O)CC[C@]4(C)[C@H]3CC[C@]12C)C(C)C
REMARK SMILES IDX 5 1 4 2 3 3 2 4 1 5 28 6 29 7 30 8 6 9 7 10 8 11 9 12 26 13
REMARK SMILES IDX 10 14 11 15 25 16 27 17 12 18 24 19 23 20 13 21 21 22 14 23
REMARK SMILES IDX 15 24 20 25 22 26 16 27 19 28 17 29 18 30
REMARK H PARENT 18 31
REMARK Flexibility Score: inf
ROOT
ATOM      1  C   UNL     1      -4.000   1.015   9.850  1.00  0.00     0.004 C 
ENDROOT
BRANCH   1   2
ATOM      2  C   UNL     1      -4.324  -0.050   8.776  1.00  0.00     0.004 C 
BRANCH   2   3
ATOM      3  C   UNL     1      -3.883  -1.553   8.994  1.00  0.00    -0.009 C 
BRANCH   3   4
ATOM      4  C   UNL     1      -2.794  -1.757  10.102  1.00  0.00     0.000 C 
ATOM      5  C   UNL     1      -1.439  -2.232   9.558  1.00  0.00     0.004 C 
ENDBRANCH   3   4
BRANCH   3   6
ATOM      6  C   UNL     1      -5.169  -2.438   9.239  1.00  0.00    -0.014 C 
ATOM      7  C   UNL     1      -4.853  -3.945   9.133  1.00  0.00     0.007 C 
ATOM      8  C   UNL     1      -5.868  -2.197  10.589  1.00  0.00     0.007 C 
ENDBRANCH   3   6
ENDBRANCH   2   3
ENDBRANCH   1   2
BRANCH   1   9
ATOM      9  C   UNL     1      -3.312   2.350   9.401  1.00  0.00    -0.011 C 
ATOM     10  C   UNL     1      -4.185   3.634   9.468  1.00  0.00     0.008 C 
BRANCH   9  11
ATOM     11  C   UNL     1      -1.828   2.458   9.933  1.00  0.00    -0.002 C 
ATOM     12  C   UNL     1      -1.523   1.528  11.144  1.00  0.00     0.005 C 
ATOM     13  C   UNL     1      -0.581   2.316   8.993  1.00  0.00    -0.026 C 
ATOM     14  C   UNL     1      -0.005   1.278  11.138  1.00  0.00     0.005 C 
ATOM     15  C   UNL     1       0.515   2.241  10.082  1.00  0.00    -0.001 C 
ATOM     16  C   UNL     1      -0.249   3.542   8.100  1.00  0.00     0.007 C 
ATOM     17  C   UNL     1      -0.719   1.048   8.111  1.00  0.00     0.012 C 
ATOM     18  C   UNL     1       1.994   2.192   9.635  1.00  0.00     0.000 C 
ATOM     19  C   UNL     1       1.211   3.496   7.559  1.00  0.00     0.005 C 
ATOM     20  C   UNL     1       2.291   3.392   8.690  1.00  0.00     0.003 C 
ATOM     21  C   UNL     1       2.476   0.874   9.019  1.00  0.00     0.031 C 
ATOM     22  C   UNL     1       3.828   3.438   8.237  1.00  0.00    -0.008 C 
ATOM     23  C   UNL     1       3.943   0.948   8.759  1.00  0.00    -0.027 C 
ATOM     24  C   UNL     1       4.549   2.071   8.326  1.00  0.00    -0.065 C 
ATOM     25  C   UNL     1       4.577   4.403   9.216  1.00  0.00     0.014 C 
ATOM     26  C   UNL     1       3.977   3.987   6.789  1.00  0.00     0.016 C 
ATOM     27  C   UNL     1       6.054   2.042   8.148  1.00  0.00     0.063 C 
ATOM     28  C   UNL     1       6.113   4.413   9.080  1.00  0.00     0.033 C 
ATOM     29  C   UNL     1       6.735   3.003   9.138  1.00  0.00     0.118 C 
BRANCH  29  30
ATOM     30  O   UNL     1       6.725   2.487  10.450  1.00  0.00    -0.393 OA
ATOM     31  H   UNL     1       5.783   2.293  10.694  1.00  0.00     0.210 HD
ENDBRANCH  29  30
ENDBRANCH   9  11
ENDBRANCH   1   9
TORSDOF 7
ENDMDL
MODEL 7
REMARK VINA RESULT:    -5.727      4.085      8.350
REMARK INTER + INTRA:          -9.117
REMARK INTER:                  -7.681
REMARK INTRA:                  -1.436
REMARK UNBOUND:                -1.214
REMARK SMILES CC[C@H](CC[C@@H](C)[C@H]1CC[C@H]2[C@H]3CC=C4C[C@H](O)CC[C@]4(C)[C@H]3CC[C@]12C)C(C)C
REMARK SMILES IDX 5 1 4 2 3 3 2 4 1 5 28 6 29 7 30 8 6 9 7 10 8 11 9 12 26 13
REMARK SMILES IDX 10 14 11 15 25 16 27 17 12 18 24 19 23 20 13 21 21 22 14 23
REMARK SMILES IDX 15 24 20 25 22 26 16 27 19 28 17 29 18 30
REMARK H PARENT 18 31
REMARK Flexibility Score: inf
ROOT
ATOM      1  C   UNL     1       2.917   1.235  10.140  1.00  0.00     0.004 C 
ENDROOT
BRANCH   1   2
ATOM      2  C   UNL     1       3.786   2.381   9.569  1.00  0.00     0.004 C 
BRANCH   2   3
ATOM      3  C   UNL     1       3.974   2.529   8.006  1.00  0.00    -0.009 C 
BRANCH   3   4
ATOM      4  C   UNL     1       3.406   3.860   7.406  1.00  0.00     0.000 C 
ATOM      5  C   UNL     1       1.956   3.749   6.914  1.00  0.00     0.004 C 
ENDBRANCH   3   4
BRANCH   3   6
ATOM      6  C   UNL     1       5.496   2.303   7.645  1.00  0.00    -0.014 C 
ATOM      7  C   UNL     1       6.320   3.596   7.814  1.00  0.00     0.007 C 
ATOM      8  C   UNL     1       6.190   1.192   8.453  1.00  0.00     0.007 C 
ENDBRANCH   3   6
ENDBRANCH   2   3
ENDBRANCH   1   2
BRANCH   1   9
ATOM      9  C   UNL     1       2.308   0.188   9.145  1.00  0.00    -0.011 C 
ATOM     10  C   UNL     1       2.503  -1.310   9.513  1.00  0.00     0.008 C 
BRANCH   9  11
ATOM     11  C   UNL     1       0.880   0.624   8.629  1.00  0.00    -0.002 C 
ATOM     12  C   UNL     1       0.137  -0.481   7.820  1.00  0.00     0.005 C 
ATOM     13  C   UNL     1      -0.212   1.230   9.577  1.00  0.00    -0.026 C 
ATOM     14  C   UNL     1      -1.367  -0.176   7.934  1.00  0.00     0.005 C 
ATOM     15  C   UNL     1      -1.408   1.192   8.597  1.00  0.00    -0.001 C 
ATOM     16  C   UNL     1      -0.016   2.713   9.993  1.00  0.00     0.007 C 
ATOM     17  C   UNL     1      -0.370   0.347  10.843  1.00  0.00     0.012 C 
ATOM     18  C   UNL     1      -2.753   1.802   9.054  1.00  0.00     0.000 C 
ATOM     19  C   UNL     1      -1.329   3.350  10.537  1.00  0.00     0.005 C 
ATOM     20  C   UNL     1      -2.525   3.266   9.528  1.00  0.00     0.003 C 
ATOM     21  C   UNL     1      -3.545   1.004  10.096  1.00  0.00     0.031 C 
ATOM     22  C   UNL     1      -3.893   3.982   9.958  1.00  0.00    -0.008 C 
ATOM     23  C   UNL     1      -4.863   1.658  10.335  1.00  0.00    -0.027 C 
ATOM     24  C   UNL     1      -5.017   2.996  10.359  1.00  0.00    -0.065 C 
ATOM     25  C   UNL     1      -4.418   4.776   8.715  1.00  0.00     0.014 C 
ATOM     26  C   UNL     1      -3.667   4.984  11.126  1.00  0.00     0.016 C 
ATOM     27  C   UNL     1      -6.416   3.547  10.556  1.00  0.00     0.063 C 
ATOM     28  C   UNL     1      -5.839   5.359   8.860  1.00  0.00     0.033 C 
ATOM     29  C   UNL     1      -6.879   4.311   9.304  1.00  0.00     0.118 C 
BRANCH  29  30
ATOM     30  O   UNL     1      -7.207   3.430   8.253  1.00  0.00    -0.393 OA
ATOM     31  H   UNL     1      -6.376   2.965   7.974  1.00  0.00     0.210 HD
ENDBRANCH  29  30
ENDBRANCH   9  11
ENDBRANCH   1   9
TORSDOF 7
ENDMDL
MODEL 8
REMARK VINA RESULT:    -5.694      4.055     10.653
REMARK INTER + INTRA:          -9.071
REMARK INTER:                  -7.594
REMARK INTRA:                  -1.477
REMARK UNBOUND:                -1.214
REMARK SMILES CC[C@H](CC[C@@H](C)[C@H]1CC[C@H]2[C@H]3CC=C4C[C@H](O)CC[C@]4(C)[C@H]3CC[C@]12C)C(C)C
REMARK SMILES IDX 5 1 4 2 3 3 2 4 1 5 28 6 29 7 30 8 6 9 7 10 8 11 9 12 26 13
REMARK SMILES IDX 10 14 11 15 25 16 27 17 12 18 24 19 23 20 13 21 21 22 14 23
REMARK SMILES IDX 15 24 20 25 22 26 16 27 19 28 17 29 18 30
REMARK H PARENT 18 31
REMARK Flexibility Score: inf
ROOT
ATOM      1  C   UNL     1       2.288   2.772   9.924  1.00  0.00     0.004 C 
ENDROOT
BRANCH   1   2
ATOM      2  C   UNL     1       3.072   3.803   9.078  1.00  0.00     0.004 C 
BRANCH   2   3
ATOM      3  C   UNL     1       3.852   3.336   7.784  1.00  0.00    -0.009 C 
BRANCH   3   4
ATOM      4  C   UNL     1       3.633   4.247   6.528  1.00  0.00     0.000 C 
ATOM      5  C   UNL     1       2.746   5.471   6.799  1.00  0.00     0.004 C 
ENDBRANCH   3   4
BRANCH   3   6
ATOM      6  C   UNL     1       5.380   3.153   8.140  1.00  0.00    -0.014 C 
ATOM      7  C   UNL     1       5.957   1.856   7.534  1.00  0.00     0.007 C 
ATOM      8  C   UNL     1       6.286   4.320   7.706  1.00  0.00     0.007 C 
ENDBRANCH   3   6
ENDBRANCH   2   3
ENDBRANCH   1   2
BRANCH   1   9
ATOM      9  C   UNL     1       1.303   1.795   9.194  1.00  0.00    -0.011 C 
ATOM     10  C   UNL     1       0.481   2.392   8.018  1.00  0.00     0.008 C 
BRANCH   9  11
ATOM     11  C   UNL     1       1.944   0.367   8.975  1.00  0.00    -0.002 C 
ATOM     12  C   UNL     1       3.334   0.187   9.653  1.00  0.00     0.005 C 
ATOM     13  C   UNL     1       1.171  -0.962   9.285  1.00  0.00    -0.026 C 
ATOM     14  C   UNL     1       3.520  -1.322   9.888  1.00  0.00     0.005 C 
ATOM     15  C   UNL     1       2.353  -1.949   9.141  1.00  0.00    -0.001 C 
ATOM     16  C   UNL     1       0.096  -1.391   8.250  1.00  0.00     0.007 C 
ATOM     17  C   UNL     1       0.539  -0.895  10.700  1.00  0.00     0.012 C 
ATOM     18  C   UNL     1       2.067  -3.463   9.264  1.00  0.00     0.000 C 
ATOM     19  C   UNL     1      -0.285  -2.895   8.388  1.00  0.00     0.005 C 
ATOM     20  C   UNL     1       0.942  -3.861   8.266  1.00  0.00     0.003 C 
ATOM     21  C   UNL     1       1.763  -3.988  10.672  1.00  0.00     0.031 C 
ATOM     22  C   UNL     1       0.637  -5.435   8.296  1.00  0.00    -0.008 C 
ATOM     23  C   UNL     1       1.634  -5.473  10.638  1.00  0.00    -0.027 C 
ATOM     24  C   UNL     1       1.054  -6.129   9.615  1.00  0.00    -0.065 C 
ATOM     25  C   UNL     1       1.480  -6.098   7.155  1.00  0.00     0.014 C 
ATOM     26  C   UNL     1      -0.868  -5.726   8.033  1.00  0.00     0.016 C 
ATOM     27  C   UNL     1       1.029  -7.645   9.665  1.00  0.00     0.063 C 
ATOM     28  C   UNL     1       1.491  -7.641   7.159  1.00  0.00     0.033 C 
ATOM     29  C   UNL     1       1.877  -8.239   8.527  1.00  0.00     0.118 C 
BRANCH  29  30
ATOM     30  O   UNL     1       3.256  -8.099   8.782  1.00  0.00    -0.393 OA
ATOM     31  H   UNL     1       3.360  -7.646   9.659  1.00  0.00     0.210 HD
ENDBRANCH  29  30
ENDBRANCH   9  11
ENDBRANCH   1   9
TORSDOF 7
ENDMDL
MODEL 9
REMARK VINA RESULT:    -5.634     10.868     14.944
REMARK INTER + INTRA:          -8.989
REMARK INTER:                  -7.956
REMARK INTRA:                  -1.033
REMARK UNBOUND:                -1.214
REMARK SMILES CC[C@H](CC[C@@H](C)[C@H]1CC[C@H]2[C@H]3CC=C4C[C@H](O)CC[C@]4(C)[C@H]3CC[C@]12C)C(C)C
REMARK SMILES IDX 5 1 4 2 3 3 2 4 1 5 28 6 29 7 30 8 6 9 7 10 8 11 9 12 26 13
REMARK SMILES IDX 10 14 11 15 25 16 27 17 12 18 24 19 23 20 13 21 21 22 14 23
REMARK SMILES IDX 15 24 20 25 22 26 16 27 19 28 17 29 18 30
REMARK H PARENT 18 31
REMARK Flexibility Score: inf
ROOT
ATOM      1  C   UNL     1       7.897   3.006  -3.992  1.00  0.00     0.004 C 
ENDROOT
BRANCH   1   2
ATOM      2  C   UNL     1       8.882   4.170  -3.730  1.00  0.00     0.004 C 
BRANCH   2   3
ATOM      3  C   UNL     1       8.336   5.574  -3.247  1.00  0.00    -0.009 C 
BRANCH   3   4
ATOM      4  C   UNL     1       8.458   6.719  -4.310  1.00  0.00     0.000 C 
ATOM      5  C   UNL     1       8.918   6.234  -5.691  1.00  0.00     0.004 C 
ENDBRANCH   3   4
BRANCH   3   6
ATOM      6  C   UNL     1       6.860   5.398  -2.713  1.00  0.00    -0.014 C 
ATOM      7  C   UNL     1       6.691   5.988  -1.297  1.00  0.00     0.007 C 
ATOM      8  C   UNL     1       5.772   6.012  -3.613  1.00  0.00     0.007 C 
ENDBRANCH   3   6
ENDBRANCH   2   3
ENDBRANCH   1   2
BRANCH   1   9
ATOM      9  C   UNL     1       7.151   2.950  -5.370  1.00  0.00    -0.011 C 
ATOM     10  C   UNL     1       7.994   2.503  -6.596  1.00  0.00     0.008 C 
BRANCH   9  11
ATOM     11  C   UNL     1       5.700   2.339  -5.231  1.00  0.00    -0.002 C 
ATOM     12  C   UNL     1       4.709   2.808  -6.337  1.00  0.00     0.005 C 
ATOM     13  C   UNL     1       5.443   0.799  -5.088  1.00  0.00    -0.026 C 
ATOM     14  C   UNL     1       3.624   1.723  -6.447  1.00  0.00     0.005 C 
ATOM     15  C   UNL     1       3.906   0.810  -5.265  1.00  0.00    -0.001 C 
ATOM     16  C   UNL     1       5.733   0.179  -3.694  1.00  0.00     0.007 C 
ATOM     17  C   UNL     1       6.225   0.023  -6.180  1.00  0.00     0.012 C 
ATOM     18  C   UNL     1       3.137  -0.522  -5.100  1.00  0.00     0.000 C 
ATOM     19  C   UNL     1       5.042  -1.205  -3.511  1.00  0.00     0.005 C 
ATOM     20  C   UNL     1       3.491  -1.159  -3.726  1.00  0.00     0.003 C 
ATOM     21  C   UNL     1       3.289  -1.541  -6.235  1.00  0.00     0.031 C 
ATOM     22  C   UNL     1       2.678  -2.515  -3.463  1.00  0.00    -0.008 C 
ATOM     23  C   UNL     1       2.394  -2.707  -5.986  1.00  0.00    -0.027 C 
ATOM     24  C   UNL     1       2.178  -3.208  -4.754  1.00  0.00    -0.065 C 
ATOM     25  C   UNL     1       1.403  -2.145  -2.632  1.00  0.00     0.014 C 
ATOM     26  C   UNL     1       3.523  -3.535  -2.646  1.00  0.00     0.016 C 
ATOM     27  C   UNL     1       1.204  -4.362  -4.617  1.00  0.00     0.063 C 
ATOM     28  C   UNL     1       0.377  -3.284  -2.462  1.00  0.00     0.033 C 
ATOM     29  C   UNL     1      -0.027  -3.939  -3.798  1.00  0.00     0.118 C 
BRANCH  29  30
ATOM     30  O   UNL     1      -0.883  -3.103  -4.545  1.00  0.00    -0.393 OA
ATOM     31  H   UNL     1      -1.447  -3.682  -5.122  1.00  0.00     0.210 HD
ENDBRANCH  29  30
ENDBRANCH   9  11
ENDBRANCH   1   9
TORSDOF 7
ENDMDL
