MODEL 1
REMARK VINA RESULT:    -3.933      0.000      0.000
REMARK INTER + INTRA:          -8.169
REMARK INTER:                  -6.692
REMARK INTRA:                  -1.477
REMARK UNBOUND:                -1.477
REMARK SMILES CCCCCCCCCCCCCC(=O)[O-]
REMARK SMILES IDX 8 1 9 2 10 3 11 4 12 5 13 6 14 7 15 8 16 9 7 10 6 11 5 12
REMARK SMILES IDX 4 13 3 14 2 15 1 16
REMARK H PARENT
REMARK Flexibility Score: inf
ROOT
ATOM      1  C   UNL     1      22.808 -15.516  -2.267  1.00  0.00     0.000 C 
ENDROOT
BRANCH   1   2
ATOM      2  C   UNL     1      23.218 -16.875  -2.853  1.00  0.00     0.000 C 
BRANCH   2   3
ATOM      3  C   UNL     1      24.172 -16.695  -4.041  1.00  0.00     0.000 C 
BRANCH   3   4
ATOM      4  C   UNL     1      25.580 -17.196  -3.699  1.00  0.00     0.000 C 
BRANCH   4   5
ATOM      5  C   UNL     1      26.554 -16.025  -3.526  1.00  0.00     0.006 C 
BRANCH   5   6
ATOM      6  C   UNL     1      27.800 -16.456  -2.748  1.00  0.00     0.053 C 
BRANCH   6   7
ATOM      7  C   UNL     1      29.025 -15.829  -3.333  1.00  0.00     0.041 C 
ATOM      8  O   UNL     1      29.170 -14.578  -3.311  1.00  0.00    -0.550 OA
ATOM      9  O   UNL     1      29.987 -16.622  -3.946  1.00  0.00    -0.550 OA
ENDBRANCH   6   7
ENDBRANCH   5   6
ENDBRANCH   4   5
ENDBRANCH   3   4
ENDBRANCH   2   3
ENDBRANCH   1   2
BRANCH   1  10
ATOM     10  C   UNL     1      23.202 -14.336  -3.169  1.00  0.00     0.000 C 
BRANCH  10  11
ATOM     11  C   UNL     1      24.089 -13.308  -2.445  1.00  0.00    -0.000 C 
BRANCH  11  12
ATOM     12  C   UNL     1      24.475 -13.757  -1.027  1.00  0.00    -0.000 C 
BRANCH  12  13
ATOM     13  C   UNL     1      25.637 -12.936  -0.439  1.00  0.00    -0.000 C 
BRANCH  13  14
ATOM     14  C   UNL     1      26.996 -13.634  -0.608  1.00  0.00    -0.000 C 
BRANCH  14  15
ATOM     15  C   UNL     1      27.728 -13.828   0.729  1.00  0.00    -0.003 C 
ATOM     16  C   UNL     1      28.412 -15.190   0.787  1.00  0.00     0.004 C 
ENDBRANCH  14  15
ENDBRANCH  13  14
ENDBRANCH  12  13
ENDBRANCH  11  12
ENDBRANCH  10  11
ENDBRANCH   1  10
TORSDOF 12
ENDMDL
MODEL 2
REMARK VINA RESULT:    -3.854      0.839      1.478
REMARK INTER + INTRA:          -8.035
REMARK INTER:                  -6.788
REMARK INTRA:                  -1.246
REMARK UNBOUND:                -1.477
REMARK SMILES CCCCCCCCCCCCCC(=O)[O-]
REMARK SMILES IDX 8 1 9 2 10 3 11 4 12 5 13 6 14 7 15 8 16 9 7 10 6 11 5 12
REMARK SMILES IDX 4 13 3 14 2 15 1 16
REMARK H PARENT
REMARK Flexibility Score: inf
ROOT
ATOM      1  C   UNL     1      23.024 -15.057  -2.063  1.00  0.00     0.000 C 
ENDROOT
BRANCH   1   2
ATOM      2  C   UNL     1      23.308 -16.392  -2.768  1.00  0.00     0.000 C 
BRANCH   2   3
ATOM      3  C   UNL     1      24.204 -16.185  -3.996  1.00  0.00     0.000 C 
BRANCH   3   4
ATOM      4  C   UNL     1      25.501 -16.993  -3.876  1.00  0.00     0.000 C 
BRANCH   4   5
ATOM      5  C   UNL     1      26.724 -16.070  -3.842  1.00  0.00     0.006 C 
BRANCH   5   6
ATOM      6  C   UNL     1      27.699 -16.488  -2.739  1.00  0.00     0.053 C 
BRANCH   6   7
ATOM      7  C   UNL     1      29.037 -15.854  -2.954  1.00  0.00     0.041 C 
ATOM      8  O   UNL     1      30.083 -16.555  -2.924  1.00  0.00    -0.550 OA
ATOM      9  O   UNL     1      29.134 -14.481  -3.138  1.00  0.00    -0.550 OA
ENDBRANCH   6   7
ENDBRANCH   5   6
ENDBRANCH   4   5
ENDBRANCH   3   4
ENDBRANCH   2   3
ENDBRANCH   1   2
BRANCH   1  10
ATOM     10  C   UNL     1      24.100 -13.996  -2.342  1.00  0.00     0.000 C 
BRANCH  10  11
ATOM     11  C   UNL     1      24.758 -13.466  -1.056  1.00  0.00    -0.000 C 
BRANCH  11  12
ATOM     12  C   UNL     1      26.290 -13.586  -1.085  1.00  0.00    -0.000 C 
BRANCH  12  13
ATOM     13  C   UNL     1      26.914 -13.567   0.322  1.00  0.00    -0.000 C 
BRANCH  13  14
ATOM     14  C   UNL     1      28.007 -14.633   0.496  1.00  0.00    -0.000 C 
BRANCH  14  15
ATOM     15  C   UNL     1      28.901 -14.367   1.717  1.00  0.00    -0.003 C 
ATOM     16  C   UNL     1      29.230 -12.883   1.844  1.00  0.00     0.004 C 
ENDBRANCH  14  15
ENDBRANCH  13  14
ENDBRANCH  12  13
ENDBRANCH  11  12
ENDBRANCH  10  11
ENDBRANCH   1  10
TORSDOF 12
ENDMDL
MODEL 3
REMARK VINA RESULT:    -3.804      1.792      4.414
REMARK INTER + INTRA:          -7.949
REMARK INTER:                  -6.641
REMARK INTRA:                  -1.308
REMARK UNBOUND:                -1.477
REMARK SMILES CCCCCCCCCCCCCC(=O)[O-]
REMARK SMILES IDX 8 1 9 2 10 3 11 4 12 5 13 6 14 7 15 8 16 9 7 10 6 11 5 12
REMARK SMILES IDX 4 13 3 14 2 15 1 16
REMARK H PARENT
REMARK Flexibility Score: inf
ROOT
ATOM      1  C   UNL     1      25.956 -13.435  -1.142  1.00  0.00     0.000 C 
ENDROOT
BRANCH   1   2
ATOM      2  C   UNL     1      26.605 -13.550   0.246  1.00  0.00     0.000 C 
BRANCH   2   3
ATOM      3  C   UNL     1      28.135 -13.537   0.139  1.00  0.00     0.000 C 
BRANCH   3   4
ATOM      4  C   UNL     1      28.588 -13.710  -1.315  1.00  0.00     0.000 C 
BRANCH   4   5
ATOM      5  C   UNL     1      29.796 -14.650  -1.407  1.00  0.00     0.006 C 
BRANCH   5   6
ATOM      6  C   UNL     1      29.946 -15.479  -0.129  1.00  0.00     0.053 C 
BRANCH   6   7
ATOM      7  C   UNL     1      30.248 -16.905  -0.462  1.00  0.00     0.041 C 
ATOM      8  O   UNL     1      29.997 -17.355  -1.612  1.00  0.00    -0.550 OA
ATOM      9  O   UNL     1      30.760 -17.754   0.511  1.00  0.00    -0.550 OA
ENDBRANCH   6   7
ENDBRANCH   5   6
ENDBRANCH   4   5
ENDBRANCH   3   4
ENDBRANCH   2   3
ENDBRANCH   1   2
BRANCH   1  10
ATOM     10  C   UNL     1      24.426 -13.568  -1.096  1.00  0.00     0.000 C 
BRANCH  10  11
ATOM     11  C   UNL     1      23.851 -14.236  -2.357  1.00  0.00    -0.000 C 
BRANCH  11  12
ATOM     12  C   UNL     1      22.964 -15.448  -2.030  1.00  0.00    -0.000 C 
BRANCH  12  13
ATOM     13  C   UNL     1      23.260 -16.661  -2.930  1.00  0.00    -0.000 C 
BRANCH  13  14
ATOM     14  C   UNL     1      24.380 -16.382  -3.945  1.00  0.00    -0.000 C 
BRANCH  14  15
ATOM     15  C   UNL     1      25.642 -17.215  -3.675  1.00  0.00    -0.003 C 
ATOM     16  C   UNL     1      26.832 -16.319  -3.348  1.00  0.00     0.004 C 
ENDBRANCH  14  15
ENDBRANCH  13  14
ENDBRANCH  12  13
ENDBRANCH  11  12
ENDBRANCH  10  11
ENDBRANCH   1  10
TORSDOF 12
ENDMDL
MODEL 4
REMARK VINA RESULT:    -3.726      2.382      5.222
REMARK INTER + INTRA:          -7.816
REMARK INTER:                  -6.475
REMARK INTRA:                  -1.342
REMARK UNBOUND:                -1.477
REMARK SMILES CCCCCCCCCCCCCC(=O)[O-]
REMARK SMILES IDX 8 1 9 2 10 3 11 4 12 5 13 6 14 7 15 8 16 9 7 10 6 11 5 12
REMARK SMILES IDX 4 13 3 14 2 15 1 16
REMARK H PARENT
REMARK Flexibility Score: inf
ROOT
ATOM      1  C   UNL     1      27.459 -13.841   0.596  1.00  0.00     0.000 C 
ENDROOT
BRANCH   1   2
ATOM      2  C   UNL     1      26.735 -13.473  -0.708  1.00  0.00     0.000 C 
BRANCH   2   3
ATOM      3  C   UNL     1      25.282 -13.065  -0.432  1.00  0.00     0.000 C 
BRANCH   3   4
ATOM      4  C   UNL     1      24.338 -13.631  -1.499  1.00  0.00     0.000 C 
BRANCH   4   5
ATOM      5  C   UNL     1      25.125 -14.282  -2.641  1.00  0.00     0.006 C 
BRANCH   5   6
ATOM      6  C   UNL     1      24.184 -14.940  -3.654  1.00  0.00     0.053 C 
BRANCH   6   7
ATOM      7  C   UNL     1      24.045 -16.401  -3.369  1.00  0.00     0.041 C 
ATOM      8  O   UNL     1      23.017 -16.839  -2.789  1.00  0.00    -0.550 OA
ATOM      9  O   UNL     1      25.074 -17.275  -3.699  1.00  0.00    -0.550 OA
ENDBRANCH   6   7
ENDBRANCH   5   6
ENDBRANCH   4   5
ENDBRANCH   3   4
ENDBRANCH   2   3
ENDBRANCH   1   2
BRANCH   1  10
ATOM     10  C   UNL     1      28.884 -13.269   0.667  1.00  0.00     0.000 C 
BRANCH  10  11
ATOM     11  C   UNL     1      29.965 -14.340   0.439  1.00  0.00    -0.000 C 
BRANCH  11  12
ATOM     12  C   UNL     1      29.386 -15.764   0.409  1.00  0.00    -0.000 C 
BRANCH  12  13
ATOM     13  C   UNL     1      30.254 -16.740  -0.406  1.00  0.00    -0.000 C 
BRANCH  13  14
ATOM     14  C   UNL     1      29.945 -16.686  -1.910  1.00  0.00    -0.000 C 
BRANCH  14  15
ATOM     15  C   UNL     1      28.467 -16.382  -2.198  1.00  0.00    -0.003 C 
ATOM     16  C   UNL     1      28.273 -15.915  -3.637  1.00  0.00     0.004 C 
ENDBRANCH  14  15
ENDBRANCH  13  14
ENDBRANCH  12  13
ENDBRANCH  11  12
ENDBRANCH  10  11
ENDBRANCH   1  10
TORSDOF 12
ENDMDL
MODEL 5
REMARK VINA RESULT:    -3.704      1.860      4.206
REMARK INTER + INTRA:          -7.778
REMARK INTER:                  -6.517
REMARK INTRA:                  -1.261
REMARK UNBOUND:                -1.477
REMARK SMILES CCCCCCCCCCCCCC(=O)[O-]
REMARK SMILES IDX 8 1 9 2 10 3 11 4 12 5 13 6 14 7 15 8 16 9 7 10 6 11 5 12
REMARK SMILES IDX 4 13 3 14 2 15 1 16
REMARK H PARENT
REMARK Flexibility Score: inf
ROOT
ATOM      1  C   UNL     1      26.718 -15.658  -3.908  1.00  0.00     0.000 C 
ENDROOT
BRANCH   1   2
ATOM      2  C   UNL     1      28.132 -16.143  -3.553  1.00  0.00     0.000 C 
BRANCH   2   3
ATOM      3  C   UNL     1      28.216 -16.558  -2.079  1.00  0.00     0.000 C 
BRANCH   3   4
ATOM      4  C   UNL     1      29.673 -16.751  -1.642  1.00  0.00     0.000 C 
BRANCH   4   5
ATOM      5  C   UNL     1      29.844 -16.452  -0.148  1.00  0.00     0.006 C 
BRANCH   5   6
ATOM      6  C   UNL     1      28.609 -15.744   0.416  1.00  0.00     0.053 C 
BRANCH   6   7
ATOM      7  C   UNL     1      28.955 -14.356   0.852  1.00  0.00     0.041 C 
ATOM      8  O   UNL     1      28.628 -13.952   1.999  1.00  0.00    -0.550 OA
ATOM      9  O   UNL     1      29.595 -13.490  -0.025  1.00  0.00    -0.550 OA
ENDBRANCH   6   7
ENDBRANCH   5   6
ENDBRANCH   4   5
ENDBRANCH   3   4
ENDBRANCH   2   3
ENDBRANCH   1   2
BRANCH   1  10
ATOM     10  C   UNL     1      25.657 -16.760  -3.760  1.00  0.00     0.000 C 
BRANCH  10  11
ATOM     11  C   UNL     1      24.228 -16.242  -3.996  1.00  0.00    -0.000 C 
BRANCH  11  12
ATOM     12  C   UNL     1      23.278 -16.581  -2.836  1.00  0.00    -0.000 C 
BRANCH  12  13
ATOM     13  C   UNL     1      22.939 -15.356  -1.968  1.00  0.00    -0.000 C 
BRANCH  13  14
ATOM     14  C   UNL     1      23.822 -14.141  -2.294  1.00  0.00    -0.000 C 
BRANCH  14  15
ATOM     15  C   UNL     1      24.446 -13.513  -1.039  1.00  0.00    -0.003 C 
ATOM     16  C   UNL     1      25.970 -13.527  -1.118  1.00  0.00     0.004 C 
ENDBRANCH  14  15
ENDBRANCH  13  14
ENDBRANCH  12  13
ENDBRANCH  11  12
ENDBRANCH  10  11
ENDBRANCH   1  10
TORSDOF 12
ENDMDL
MODEL 6
REMARK VINA RESULT:    -3.675      2.579      5.205
REMARK INTER + INTRA:          -7.731
REMARK INTER:                  -6.378
REMARK INTRA:                  -1.353
REMARK UNBOUND:                -1.477
REMARK SMILES CCCCCCCCCCCCCC(=O)[O-]
REMARK SMILES IDX 8 1 9 2 10 3 11 4 12 5 13 6 14 7 15 8 16 9 7 10 6 11 5 12
REMARK SMILES IDX 4 13 3 14 2 15 1 16
REMARK H PARENT
REMARK Flexibility Score: inf
ROOT
ATOM      1  C   UNL     1      27.154 -14.241  -1.946  1.00  0.00     0.000 C 
ENDROOT
BRANCH   1   2
ATOM      2  C   UNL     1      28.095 -15.433  -1.717  1.00  0.00     0.000 C 
BRANCH   2   3
ATOM      3  C   UNL     1      28.588 -15.471  -0.264  1.00  0.00     0.000 C 
BRANCH   3   4
ATOM      4  C   UNL     1      30.112 -15.631  -0.202  1.00  0.00     0.000 C 
BRANCH   4   5
ATOM      5  C   UNL     1      30.757 -14.467   0.558  1.00  0.00     0.006 C 
BRANCH   5   6
ATOM      6  C   UNL     1      30.135 -13.130   0.148  1.00  0.00     0.053 C 
BRANCH   6   7
ATOM      7  C   UNL     1      29.667 -12.378   1.353  1.00  0.00     0.041 C 
ATOM      8  O   UNL     1      28.974 -12.956   2.231  1.00  0.00    -0.550 OA
ATOM      9  O   UNL     1      29.953 -11.024   1.483  1.00  0.00    -0.550 OA
ENDBRANCH   6   7
ENDBRANCH   5   6
ENDBRANCH   4   5
ENDBRANCH   3   4
ENDBRANCH   2   3
ENDBRANCH   1   2
BRANCH   1  10
ATOM     10  C   UNL     1      26.637 -13.629  -0.635  1.00  0.00     0.000 C 
BRANCH  10  11
ATOM     11  C   UNL     1      25.221 -13.042  -0.772  1.00  0.00    -0.000 C 
BRANCH  11  12
ATOM     12  C   UNL     1      24.242 -14.017  -1.445  1.00  0.00    -0.000 C 
BRANCH  12  13
ATOM     13  C   UNL     1      23.776 -13.529  -2.829  1.00  0.00    -0.000 C 
BRANCH  13  14
ATOM     14  C   UNL     1      23.934 -14.604  -3.916  1.00  0.00    -0.000 C 
BRANCH  14  15
ATOM     15  C   UNL     1      23.855 -16.030  -3.351  1.00  0.00    -0.003 C 
ATOM     16  C   UNL     1      25.069 -16.854  -3.767  1.00  0.00     0.004 C 
ENDBRANCH  14  15
ENDBRANCH  13  14
ENDBRANCH  12  13
ENDBRANCH  11  12
ENDBRANCH  10  11
ENDBRANCH   1  10
TORSDOF 12
ENDMDL
MODEL 7
REMARK VINA RESULT:    -3.675      2.697      5.117
REMARK INTER + INTRA:          -7.729
REMARK INTER:                  -6.245
REMARK INTRA:                  -1.484
REMARK UNBOUND:                -1.477
REMARK SMILES CCCCCCCCCCCCCC(=O)[O-]
REMARK SMILES IDX 8 1 9 2 10 3 11 4 12 5 13 6 14 7 15 8 16 9 7 10 6 11 5 12
REMARK SMILES IDX 4 13 3 14 2 15 1 16
REMARK H PARENT
REMARK Flexibility Score: inf
ROOT
ATOM      1  C   UNL     1      27.818 -14.687   0.504  1.00  0.00     0.000 C 
ENDROOT
BRANCH   1   2
ATOM      2  C   UNL     1      26.944 -13.517   0.027  1.00  0.00     0.000 C 
BRANCH   2   3
ATOM      3  C   UNL     1      26.292 -13.834  -1.325  1.00  0.00     0.000 C 
BRANCH   3   4
ATOM      4  C   UNL     1      24.789 -13.531  -1.297  1.00  0.00     0.000 C 
BRANCH   4   5
ATOM      5  C   UNL     1      24.035 -14.396  -2.314  1.00  0.00     0.006 C 
BRANCH   5   6
ATOM      6  C   UNL     1      24.996 -15.007  -3.337  1.00  0.00     0.053 C 
BRANCH   6   7
ATOM      7  C   UNL     1      24.622 -16.426  -3.625  1.00  0.00     0.041 C 
ATOM      8  O   UNL     1      25.508 -17.321  -3.655  1.00  0.00    -0.550 OA
ATOM      9  O   UNL     1      23.302 -16.754  -3.909  1.00  0.00    -0.550 OA
ENDBRANCH   6   7
ENDBRANCH   5   6
ENDBRANCH   4   5
ENDBRANCH   3   4
ENDBRANCH   2   3
ENDBRANCH   1   2
BRANCH   1  10
ATOM     10  C   UNL     1      28.879 -14.258   1.530  1.00  0.00     0.000 C 
BRANCH  10  11
ATOM     11  C   UNL     1      29.223 -12.761   1.435  1.00  0.00    -0.000 C 
BRANCH  11  12
ATOM     12  C   UNL     1      30.561 -12.508   0.721  1.00  0.00    -0.000 C 
BRANCH  12  13
ATOM     13  C   UNL     1      30.378 -12.016  -0.726  1.00  0.00    -0.000 C 
BRANCH  13  14
ATOM     14  C   UNL     1      30.860 -13.042  -1.763  1.00  0.00    -0.000 C 
BRANCH  14  15
ATOM     15  C   UNL     1      29.704 -13.652  -2.570  1.00  0.00    -0.003 C 
ATOM     16  C   UNL     1      29.793 -15.175  -2.592  1.00  0.00     0.004 C 
ENDBRANCH  14  15
ENDBRANCH  13  14
ENDBRANCH  12  13
ENDBRANCH  11  12
ENDBRANCH  10  11
ENDBRANCH   1  10
TORSDOF 12
ENDMDL
MODEL 8
REMARK VINA RESULT:    -3.595      1.746      2.466
REMARK INTER + INTRA:          -7.594
REMARK INTER:                  -6.192
REMARK INTRA:                  -1.401
REMARK UNBOUND:                -1.477
REMARK SMILES CCCCCCCCCCCCCC(=O)[O-]
REMARK SMILES IDX 8 1 9 2 10 3 11 4 12 5 13 6 14 7 15 8 16 9 7 10 6 11 5 12
REMARK SMILES IDX 4 13 3 14 2 15 1 16
REMARK H PARENT
REMARK Flexibility Score: inf
ROOT
ATOM      1  C   UNL     1      24.765 -15.305  -3.916  1.00  0.00     0.000 C 
ENDROOT
BRANCH   1   2
ATOM      2  C   UNL     1      25.852 -16.388  -3.837  1.00  0.00     0.000 C 
BRANCH   2   3
ATOM      3  C   UNL     1      27.244 -15.761  -3.698  1.00  0.00     0.000 C 
BRANCH   3   4
ATOM      4  C   UNL     1      28.067 -16.475  -2.619  1.00  0.00     0.000 C 
BRANCH   4   5
ATOM      5  C   UNL     1      29.468 -15.866  -2.502  1.00  0.00     0.006 C 
BRANCH   5   6
ATOM      6  C   UNL     1      30.549 -16.939  -2.655  1.00  0.00     0.053 C 
BRANCH   6   7
ATOM      7  C   UNL     1      30.561 -17.845  -1.466  1.00  0.00     0.041 C 
ATOM      8  O   UNL     1      30.592 -17.364  -0.302  1.00  0.00    -0.550 OA
ATOM      9  O   UNL     1      30.586 -19.223  -1.641  1.00  0.00    -0.550 OA
ENDBRANCH   6   7
ENDBRANCH   5   6
ENDBRANCH   4   5
ENDBRANCH   3   4
ENDBRANCH   2   3
ENDBRANCH   1   2
BRANCH   1  10
ATOM     10  C   UNL     1      23.568 -15.595  -2.997  1.00  0.00     0.000 C 
BRANCH  10  11
ATOM     11  C   UNL     1      23.562 -14.713  -1.736  1.00  0.00    -0.000 C 
BRANCH  11  12
ATOM     12  C   UNL     1      24.520 -13.517  -1.849  1.00  0.00    -0.000 C 
BRANCH  12  13
ATOM     13  C   UNL     1      25.332 -13.283  -0.562  1.00  0.00    -0.000 C 
BRANCH  13  14
ATOM     14  C   UNL     1      26.834 -13.541  -0.759  1.00  0.00    -0.000 C 
BRANCH  14  15
ATOM     15  C   UNL     1      27.599 -13.615   0.571  1.00  0.00    -0.003 C 
ATOM     16  C   UNL     1      28.155 -15.016   0.807  1.00  0.00     0.004 C 
ENDBRANCH  14  15
ENDBRANCH  13  14
ENDBRANCH  12  13
ENDBRANCH  11  12
ENDBRANCH  10  11
ENDBRANCH   1  10
TORSDOF 12
ENDMDL
MODEL 9
REMARK VINA RESULT:    -3.531      2.622      5.501
REMARK INTER + INTRA:          -7.484
REMARK INTER:                  -6.054
REMARK INTRA:                  -1.431
REMARK UNBOUND:                -1.477
REMARK SMILES CCCCCCCCCCCCCC(=O)[O-]
REMARK SMILES IDX 8 1 9 2 10 3 11 4 12 5 13 6 14 7 15 8 16 9 7 10 6 11 5 12
REMARK SMILES IDX 4 13 3 14 2 15 1 16
REMARK H PARENT
REMARK Flexibility Score: inf
ROOT
ATOM      1  C   UNL     1      28.571 -14.482  -2.982  1.00  0.00     0.000 C 
ENDROOT
BRANCH   1   2
ATOM      2  C   UNL     1      28.918 -14.267  -1.502  1.00  0.00     0.000 C 
BRANCH   2   3
ATOM      3  C   UNL     1      28.472 -15.464  -0.653  1.00  0.00     0.000 C 
BRANCH   3   4
ATOM      4  C   UNL     1      28.135 -15.032   0.778  1.00  0.00     0.000 C 
BRANCH   4   5
ATOM      5  C   UNL     1      28.287 -13.516   0.945  1.00  0.00     0.006 C 
BRANCH   5   6
ATOM      6  C   UNL     1      29.217 -13.182   2.114  1.00  0.00     0.053 C 
BRANCH   6   7
ATOM      7  C   UNL     1      29.717 -11.777   2.001  1.00  0.00     0.041 C 
ATOM      8  O   UNL     1      29.677 -11.008   2.998  1.00  0.00    -0.550 OA
ATOM      9  O   UNL     1      30.183 -11.300   0.783  1.00  0.00    -0.550 OA
ENDBRANCH   6   7
ENDBRANCH   5   6
ENDBRANCH   4   5
ENDBRANCH   3   4
ENDBRANCH   2   3
ENDBRANCH   1   2
BRANCH   1  10
ATOM     10  C   UNL     1      27.901 -15.840  -3.245  1.00  0.00     0.000 C 
BRANCH  10  11
ATOM     11  C   UNL     1      26.590 -15.710  -4.039  1.00  0.00    -0.000 C 
BRANCH  11  12
ATOM     12  C   UNL     1      25.528 -16.729  -3.595  1.00  0.00    -0.000 C 
BRANCH  12  13
ATOM     13  C   UNL     1      24.122 -16.112  -3.485  1.00  0.00    -0.000 C 
BRANCH  13  14
ATOM     14  C   UNL     1      24.162 -14.591  -3.270  1.00  0.00    -0.000 C 
BRANCH  14  15
ATOM     15  C   UNL     1      23.967 -14.200  -1.797  1.00  0.00    -0.003 C 
ATOM     16  C   UNL     1      25.216 -13.528  -1.237  1.00  0.00     0.004 C 
ENDBRANCH  14  15
ENDBRANCH  13  14
ENDBRANCH  12  13
ENDBRANCH  11  12
ENDBRANCH  10  11
ENDBRANCH   1  10
TORSDOF 12
ENDMDL
