MODEL 1
REMARK VINA RESULT:    -4.350      0.000      0.000
REMARK INTER + INTRA:          -4.623
REMARK INTER:                  -4.604
REMARK INTRA:                  -0.019
REMARK UNBOUND:                -0.019
REMARK SMILES O=C([O-])c1cccnc1
REMARK SMILES IDX 4 1 5 2 9 3 6 4 8 5 7 6 2 7 1 8 3 9
REMARK H PARENT
REMARK Flexibility Score: inf
ROOT
ATOM      1  C   UNL     1      -1.265   1.201  13.775  1.00  0.00     0.016 A 
ATOM      2  C   UNL     1      -0.279   2.151  13.464  1.00  0.00     0.013 A 
ATOM      3  C   UNL     1      -2.221   1.525  14.753  1.00  0.00     0.120 A 
ATOM      4  C   UNL     1      -0.264   3.384  14.119  1.00  0.00     0.021 A 
ATOM      5  N   UNL     1      -2.184   2.734  15.376  1.00  0.00    -0.264 NA
ATOM      6  C   UNL     1      -1.234   3.660  15.082  1.00  0.00     0.111 A 
ENDROOT
BRANCH   1   7
ATOM      7  C   UNL     1      -1.292  -0.108  13.088  1.00  0.00     0.073 C 
ATOM      8  O   UNL     1      -1.203  -0.174  11.833  1.00  0.00    -0.545 OA
ATOM      9  O   UNL     1      -1.415  -1.285  13.817  1.00  0.00    -0.545 OA
ENDBRANCH   1   7
TORSDOF 1
ENDMDL
MODEL 2
REMARK VINA RESULT:    -4.330      0.919      1.604
REMARK INTER + INTRA:          -4.603
REMARK INTER:                  -4.584
REMARK INTRA:                  -0.019
REMARK UNBOUND:                -0.019
REMARK SMILES O=C([O-])c1cccnc1
REMARK SMILES IDX 4 1 5 2 9 3 6 4 8 5 7 6 2 7 1 8 3 9
REMARK H PARENT
REMARK Flexibility Score: inf
ROOT
ATOM      1  C   UNL     1      -1.258   1.176  13.664  1.00  0.00     0.016 A 
ATOM      2  C   UNL     1      -2.240   1.484  14.619  1.00  0.00     0.013 A 
ATOM      3  C   UNL     1      -0.272   2.138  13.385  1.00  0.00     0.120 A 
ATOM      4  C   UNL     1      -2.222   2.719  15.269  1.00  0.00     0.021 A 
ATOM      5  N   UNL     1      -0.277   3.335  14.033  1.00  0.00    -0.264 NA
ATOM      6  C   UNL     1      -1.224   3.642  14.959  1.00  0.00     0.111 A 
ENDROOT
BRANCH   1   7
ATOM      7  C   UNL     1      -1.266  -0.130  12.970  1.00  0.00     0.073 C 
ATOM      8  O   UNL     1      -1.203  -0.187  11.713  1.00  0.00    -0.545 OA
ATOM      9  O   UNL     1      -1.344  -1.313  13.695  1.00  0.00    -0.545 OA
ENDBRANCH   1   7
TORSDOF 1
ENDMDL
MODEL 3
REMARK VINA RESULT:    -4.281      2.549      3.491
REMARK INTER + INTRA:          -4.550
REMARK INTER:                  -4.530
REMARK INTRA:                  -0.021
REMARK UNBOUND:                -0.019
REMARK SMILES O=C([O-])c1cccnc1
REMARK SMILES IDX 4 1 5 2 9 3 6 4 8 5 7 6 2 7 1 8 3 9
REMARK H PARENT
REMARK Flexibility Score: inf
ROOT
ATOM      1  C   UNL     1      -0.856   1.844  12.816  1.00  0.00     0.016 A 
ATOM      2  C   UNL     1      -1.003   0.623  12.138  1.00  0.00     0.013 A 
ATOM      3  C   UNL     1      -1.228   1.908  14.169  1.00  0.00     0.120 A 
ATOM      4  C   UNL     1      -1.508  -0.493  12.808  1.00  0.00     0.021 A 
ATOM      5  N   UNL     1      -1.717   0.805  14.799  1.00  0.00    -0.264 NA
ATOM      6  C   UNL     1      -1.864  -0.381  14.152  1.00  0.00     0.111 A 
ENDROOT
BRANCH   1   7
ATOM      7  C   UNL     1      -0.321   3.033  12.116  1.00  0.00     0.073 C 
ATOM      8  O   UNL     1       0.445   3.836  12.713  1.00  0.00    -0.545 OA
ATOM      9  O   UNL     1      -0.657   3.281  10.790  1.00  0.00    -0.545 OA
ENDBRANCH   1   7
TORSDOF 1
ENDMDL
MODEL 4
REMARK VINA RESULT:    -4.216      2.874      4.020
REMARK INTER + INTRA:          -4.482
REMARK INTER:                  -4.461
REMARK INTRA:                  -0.021
REMARK UNBOUND:                -0.019
REMARK SMILES O=C([O-])c1cccnc1
REMARK SMILES IDX 4 1 5 2 9 3 6 4 8 5 7 6 2 7 1 8 3 9
REMARK H PARENT
REMARK Flexibility Score: inf
ROOT
ATOM      1  C   UNL     1      -1.462   1.990  13.921  1.00  0.00     0.016 A 
ATOM      2  C   UNL     1      -1.879   0.869  14.657  1.00  0.00     0.013 A 
ATOM      3  C   UNL     1      -1.045   1.801  12.592  1.00  0.00     0.120 A 
ATOM      4  C   UNL     1      -1.875  -0.396  14.067  1.00  0.00     0.021 A 
ATOM      5  N   UNL     1      -1.052   0.557  12.041  1.00  0.00    -0.264 NA
ATOM      6  C   UNL     1      -1.453  -0.534  12.744  1.00  0.00     0.111 A 
ENDROOT
BRANCH   1   7
ATOM      7  C   UNL     1      -1.462   3.336  14.535  1.00  0.00     0.073 C 
ATOM      8  O   UNL     1      -1.183   3.482  15.755  1.00  0.00    -0.545 OA
ATOM      9  O   UNL     1      -1.771   4.458  13.774  1.00  0.00    -0.545 OA
ENDBRANCH   1   7
TORSDOF 1
ENDMDL
MODEL 5
REMARK VINA RESULT:    -4.180      1.619      2.079
REMARK INTER + INTRA:          -4.444
REMARK INTER:                  -4.427
REMARK INTRA:                  -0.016
REMARK UNBOUND:                -0.019
REMARK SMILES O=C([O-])c1cccnc1
REMARK SMILES IDX 4 1 5 2 9 3 6 4 8 5 7 6 2 7 1 8 3 9
REMARK H PARENT
REMARK Flexibility Score: inf
ROOT
ATOM      1  C   UNL     1      -1.261   1.000  13.464  1.00  0.00     0.016 A 
ATOM      2  C   UNL     1      -0.969   1.152  12.099  1.00  0.00     0.013 A 
ATOM      3  C   UNL     1      -0.844   2.004  14.354  1.00  0.00     0.120 A 
ATOM      4  C   UNL     1      -0.281   2.282  11.653  1.00  0.00     0.021 A 
ATOM      5  N   UNL     1      -0.175   3.096  13.893  1.00  0.00    -0.264 NA
ATOM      6  C   UNL     1       0.113   3.253  12.574  1.00  0.00     0.111 A 
ENDROOT
BRANCH   1   7
ATOM      7  C   UNL     1      -1.991  -0.192  13.949  1.00  0.00     0.073 C 
ATOM      8  O   UNL     1      -3.213  -0.118  14.246  1.00  0.00    -0.545 OA
ATOM      9  O   UNL     1      -1.338  -1.412  14.082  1.00  0.00    -0.545 OA
ENDBRANCH   1   7
TORSDOF 1
ENDMDL
MODEL 6
REMARK VINA RESULT:    -4.078      2.675      3.573
REMARK INTER + INTRA:          -4.336
REMARK INTER:                  -4.317
REMARK INTRA:                  -0.019
REMARK UNBOUND:                -0.019
REMARK SMILES O=C([O-])c1cccnc1
REMARK SMILES IDX 4 1 5 2 9 3 6 4 8 5 7 6 2 7 1 8 3 9
REMARK H PARENT
REMARK Flexibility Score: inf
ROOT
ATOM      1  C   UNL     1      -1.014   2.020  13.401  1.00  0.00     0.016 A 
ATOM      2  C   UNL     1      -0.956   1.195  12.266  1.00  0.00     0.013 A 
ATOM      3  C   UNL     1      -1.400   1.448  14.626  1.00  0.00     0.120 A 
ATOM      4  C   UNL     1      -1.277  -0.160  12.369  1.00  0.00     0.021 A 
ATOM      5  N   UNL     1      -1.707   0.124  14.698  1.00  0.00    -0.264 NA
ATOM      6  C   UNL     1      -1.655  -0.683  13.606  1.00  0.00     0.111 A 
ENDROOT
BRANCH   1   7
ATOM      7  C   UNL     1      -0.676   3.456  13.305  1.00  0.00     0.073 C 
ATOM      8  O   UNL     1       0.403   3.825  12.769  1.00  0.00    -0.545 OA
ATOM      9  O   UNL     1      -1.544   4.420  13.805  1.00  0.00    -0.545 OA
ENDBRANCH   1   7
TORSDOF 1
ENDMDL
MODEL 7
REMARK VINA RESULT:    -4.052      2.845      3.547
REMARK INTER + INTRA:          -4.308
REMARK INTER:                  -4.291
REMARK INTRA:                  -0.017
REMARK UNBOUND:                -0.019
REMARK SMILES O=C([O-])c1cccnc1
REMARK SMILES IDX 4 1 5 2 9 3 6 4 8 5 7 6 2 7 1 8 3 9
REMARK H PARENT
REMARK Flexibility Score: inf
ROOT
ATOM      1  C   UNL     1      -1.622   1.781  13.805  1.00  0.00     0.016 A 
ATOM      2  C   UNL     1      -1.267   2.505  12.655  1.00  0.00     0.013 A 
ATOM      3  C   UNL     1      -1.643   0.378  13.732  1.00  0.00     0.120 A 
ATOM      4  C   UNL     1      -0.946   1.832  11.475  1.00  0.00     0.021 A 
ATOM      5  N   UNL     1      -1.325  -0.254  12.569  1.00  0.00    -0.264 NA
ATOM      6  C   UNL     1      -0.981   0.438  11.451  1.00  0.00     0.111 A 
ENDROOT
BRANCH   1   7
ATOM      7  C   UNL     1      -1.964   2.484  15.061  1.00  0.00     0.073 C 
ATOM      8  O   UNL     1      -1.084   3.124  15.696  1.00  0.00    -0.545 OA
ATOM      9  O   UNL     1      -3.262   2.448  15.558  1.00  0.00    -0.545 OA
ENDBRANCH   1   7
TORSDOF 1
ENDMDL
MODEL 8
REMARK VINA RESULT:    -3.845      9.515     10.045
REMARK INTER + INTRA:          -4.089
REMARK INTER:                  -4.072
REMARK INTRA:                  -0.017
REMARK UNBOUND:                -0.019
REMARK SMILES O=C([O-])c1cccnc1
REMARK SMILES IDX 4 1 5 2 9 3 6 4 8 5 7 6 2 7 1 8 3 9
REMARK H PARENT
REMARK Flexibility Score: inf
ROOT
ATOM      1  C   UNL     1      -9.897  -0.319   9.224  1.00  0.00     0.016 A 
ATOM      2  C   UNL     1      -9.688  -0.081  10.592  1.00  0.00     0.013 A 
ATOM      3  C   UNL     1     -10.368   0.738   8.426  1.00  0.00     0.120 A 
ATOM      4  C   UNL     1      -9.945   1.181  11.131  1.00  0.00     0.021 A 
ATOM      5  N   UNL     1     -10.610   1.958   8.976  1.00  0.00    -0.264 NA
ATOM      6  C   UNL     1     -10.412   2.199  10.299  1.00  0.00     0.111 A 
ENDROOT
BRANCH   1   7
ATOM      7  C   UNL     1      -9.627  -1.651   8.642  1.00  0.00     0.073 C 
ATOM      8  O   UNL     1      -8.713  -1.804   7.788  1.00  0.00    -0.545 OA
ATOM      9  O   UNL     1     -10.377  -2.756   9.030  1.00  0.00    -0.545 OA
ENDBRANCH   1   7
TORSDOF 1
ENDMDL
MODEL 9
REMARK VINA RESULT:    -3.845      1.611      2.297
REMARK INTER + INTRA:          -4.089
REMARK INTER:                  -4.065
REMARK INTRA:                  -0.024
REMARK UNBOUND:                -0.019
REMARK SMILES O=C([O-])c1cccnc1
REMARK SMILES IDX 4 1 5 2 9 3 6 4 8 5 7 6 2 7 1 8 3 9
REMARK H PARENT
REMARK Flexibility Score: inf
ROOT
ATOM      1  C   UNL     1      -1.242   2.184  12.850  1.00  0.00     0.016 A 
ATOM      2  C   UNL     1      -1.057   1.530  14.079  1.00  0.00     0.013 A 
ATOM      3  C   UNL     1      -1.411   3.579  12.853  1.00  0.00     0.120 A 
ATOM      4  C   UNL     1      -1.042   2.263  15.267  1.00  0.00     0.021 A 
ATOM      5  N   UNL     1      -1.393   4.270  14.026  1.00  0.00    -0.264 NA
ATOM      6  C   UNL     1      -1.214   3.647  15.220  1.00  0.00     0.111 A 
ENDROOT
BRANCH   1   7
ATOM      7  C   UNL     1      -1.259   1.418  11.585  1.00  0.00     0.073 C 
ATOM      8  O   UNL     1      -1.040   0.177  11.585  1.00  0.00    -0.545 OA
ATOM      9  O   UNL     1      -1.516   2.057  10.377  1.00  0.00    -0.545 OA
ENDBRANCH   1   7
TORSDOF 1
ENDMDL
