MODEL 1
REMARK VINA RESULT:    -2.719      0.000      0.000
REMARK INTER + INTRA:          -2.719
REMARK INTER:                  -2.719
REMARK INTRA:                   0.000
REMARK UNBOUND:                 0.000
REMARK SMILES CC1=CC[C@@H]2C[C@H]1C2(C)C
REMARK SMILES IDX 1 1 2 2 3 3 4 4 5 5 6 6 7 7 8 8 9 9 10 10
REMARK H PARENT
REMARK Flexibility Score: inf
ROOT
ATOM      1  C   UNL     1      19.392  -1.092  -9.169  1.00  0.00     0.039 C 
ATOM      2  C   UNL     1      20.713  -1.687  -8.784  1.00  0.00    -0.074 C 
ATOM      3  C   UNL     1      21.526  -2.306  -9.690  1.00  0.00    -0.027 C 
ATOM      4  C   UNL     1      22.866  -2.893  -9.203  1.00  0.00     0.031 C 
ATOM      5  C   UNL     1      23.008  -2.694  -7.655  1.00  0.00    -0.000 C 
ATOM      6  C   UNL     1      21.657  -3.125  -7.051  1.00  0.00     0.013 C 
ATOM      7  C   UNL     1      21.182  -1.683  -7.324  1.00  0.00     0.021 C 
ATOM      8  C   UNL     1      22.666  -1.230  -7.265  1.00  0.00    -0.026 C 
ATOM      9  C   UNL     1      23.118  -0.886  -5.823  1.00  0.00     0.012 C 
ATOM     10  C   UNL     1      23.125  -0.080  -8.206  1.00  0.00     0.012 C 
ENDROOT
TORSDOF 0
ENDMDL
MODEL 2
REMARK VINA RESULT:    -2.706      1.626      2.515
REMARK INTER + INTRA:          -2.706
REMARK INTER:                  -2.706
REMARK INTRA:                   0.000
REMARK UNBOUND:                 0.000
REMARK SMILES CC1=CC[C@@H]2C[C@H]1C2(C)C
REMARK SMILES IDX 1 1 2 2 3 3 4 4 5 5 6 6 7 7 8 8 9 9 10 10
REMARK H PARENT
REMARK Flexibility Score: inf
ROOT
ATOM      1  C   UNL     1      17.950   0.156 -10.038  1.00  0.00     0.039 C 
ATOM      2  C   UNL     1      18.890  -1.004  -9.910  1.00  0.00    -0.074 C 
ATOM      3  C   UNL     1      19.441  -1.621 -10.997  1.00  0.00    -0.027 C 
ATOM      4  C   UNL     1      20.394  -2.811 -10.770  1.00  0.00     0.031 C 
ATOM      5  C   UNL     1      20.505  -3.125  -9.238  1.00  0.00    -0.000 C 
ATOM      6  C   UNL     1      19.059  -3.121  -8.704  1.00  0.00     0.013 C 
ATOM      7  C   UNL     1      19.226  -1.597  -8.535  1.00  0.00     0.021 C 
ATOM      8  C   UNL     1      20.759  -1.819  -8.435  1.00  0.00    -0.026 C 
ATOM      9  C   UNL     1      21.217  -2.105  -6.982  1.00  0.00     0.012 C 
ATOM     10  C   UNL     1      21.703  -0.743  -9.041  1.00  0.00     0.012 C 
ENDROOT
TORSDOF 0
ENDMDL
MODEL 3
REMARK VINA RESULT:    -2.619      2.419      3.780
REMARK INTER + INTRA:          -2.619
REMARK INTER:                  -2.619
REMARK INTRA:                   0.000
REMARK UNBOUND:                 0.000
REMARK SMILES CC1=CC[C@@H]2C[C@H]1C2(C)C
REMARK SMILES IDX 1 1 2 2 3 3 4 4 5 5 6 6 7 7 8 8 9 9 10 10
REMARK H PARENT
REMARK Flexibility Score: inf
ROOT
ATOM      1  C   UNL     1      19.128  -3.070  -7.322  1.00  0.00     0.039 C 
ATOM      2  C   UNL     1      19.491  -2.446  -8.636  1.00  0.00    -0.074 C 
ATOM      3  C   UNL     1      19.346  -3.108  -9.822  1.00  0.00    -0.027 C 
ATOM      4  C   UNL     1      19.750  -2.389 -11.125  1.00  0.00     0.031 C 
ATOM      5  C   UNL     1      20.333  -0.971 -10.797  1.00  0.00    -0.000 C 
ATOM      6  C   UNL     1      21.326  -1.184  -9.637  1.00  0.00     0.013 C 
ATOM      7  C   UNL     1      20.111  -1.045  -8.697  1.00  0.00     0.021 C 
ATOM      8  C   UNL     1      19.403  -0.220  -9.805  1.00  0.00    -0.026 C 
ATOM      9  C   UNL     1      19.737   1.291  -9.718  1.00  0.00     0.012 C 
ATOM     10  C   UNL     1      17.864  -0.370  -9.968  1.00  0.00     0.012 C 
ENDROOT
TORSDOF 0
ENDMDL
MODEL 4
REMARK VINA RESULT:    -2.605      1.729      3.057
REMARK INTER + INTRA:          -2.605
REMARK INTER:                  -2.605
REMARK INTRA:                   0.000
REMARK UNBOUND:                 0.000
REMARK SMILES CC1=CC[C@@H]2C[C@H]1C2(C)C
REMARK SMILES IDX 1 1 2 2 3 3 4 4 5 5 6 6 7 7 8 8 9 9 10 10
REMARK H PARENT
REMARK Flexibility Score: inf
ROOT
ATOM      1  C   UNL     1      19.584  -2.730  -6.272  1.00  0.00     0.039 C 
ATOM      2  C   UNL     1      19.865  -2.573  -7.736  1.00  0.00    -0.074 C 
ATOM      3  C   UNL     1      19.065  -3.125  -8.696  1.00  0.00    -0.027 C 
ATOM      4  C   UNL     1      19.435  -2.915 -10.178  1.00  0.00     0.031 C 
ATOM      5  C   UNL     1      20.770  -2.101 -10.289  1.00  0.00    -0.000 C 
ATOM      6  C   UNL     1      21.743  -2.754  -9.287  1.00  0.00     0.013 C 
ATOM      7  C   UNL     1      21.116  -1.830  -8.222  1.00  0.00     0.021 C 
ATOM      8  C   UNL     1      20.721  -0.855  -9.363  1.00  0.00    -0.026 C 
ATOM      9  C   UNL     1      21.848   0.159  -9.686  1.00  0.00     0.012 C 
ATOM     10  C   UNL     1      19.384  -0.072  -9.236  1.00  0.00     0.012 C 
ENDROOT
TORSDOF 0
ENDMDL
MODEL 5
REMARK VINA RESULT:    -2.520      1.826      3.166
REMARK INTER + INTRA:          -2.520
REMARK INTER:                  -2.520
REMARK INTRA:                   0.000
REMARK UNBOUND:                 0.000
REMARK SMILES CC1=CC[C@@H]2C[C@H]1C2(C)C
REMARK SMILES IDX 1 1 2 2 3 3 4 4 5 5 6 6 7 7 8 8 9 9 10 10
REMARK H PARENT
REMARK Flexibility Score: inf
ROOT
ATOM      1  C   UNL     1      18.678   1.009  -9.625  1.00  0.00     0.039 C 
ATOM      2  C   UNL     1      19.019  -0.433  -9.854  1.00  0.00    -0.074 C 
ATOM      3  C   UNL     1      18.617  -1.109 -10.971  1.00  0.00    -0.027 C 
ATOM      4  C   UNL     1      19.009  -2.593 -11.119  1.00  0.00     0.031 C 
ATOM      5  C   UNL     1      19.798  -3.069  -9.851  1.00  0.00    -0.000 C 
ATOM      6  C   UNL     1      18.996  -2.551  -8.640  1.00  0.00     0.013 C 
ATOM      7  C   UNL     1      19.788  -1.237  -8.798  1.00  0.00     0.021 C 
ATOM      8  C   UNL     1      20.913  -2.049  -9.493  1.00  0.00    -0.026 C 
ATOM      9  C   UNL     1      21.933  -2.627  -8.479  1.00  0.00     0.012 C 
ATOM     10  C   UNL     1      21.705  -1.374 -10.649  1.00  0.00     0.012 C 
ENDROOT
TORSDOF 0
ENDMDL
MODEL 6
REMARK VINA RESULT:    -2.447      1.235      3.512
REMARK INTER + INTRA:          -2.447
REMARK INTER:                  -2.447
REMARK INTRA:                   0.000
REMARK UNBOUND:                 0.000
REMARK SMILES CC1=CC[C@@H]2C[C@H]1C2(C)C
REMARK SMILES IDX 1 1 2 2 3 3 4 4 5 5 6 6 7 7 8 8 9 9 10 10
REMARK H PARENT
REMARK Flexibility Score: inf
ROOT
ATOM      1  C   UNL     1      22.358  -1.605  -6.457  1.00  0.00     0.039 C 
ATOM      2  C   UNL     1      21.801  -1.831  -7.830  1.00  0.00    -0.074 C 
ATOM      3  C   UNL     1      22.029  -2.982  -8.530  1.00  0.00    -0.027 C 
ATOM      4  C   UNL     1      21.420  -3.125  -9.939  1.00  0.00     0.031 C 
ATOM      5  C   UNL     1      20.654  -1.813 -10.329  1.00  0.00    -0.000 C 
ATOM      6  C   UNL     1      21.598  -0.652  -9.958  1.00  0.00     0.013 C 
ATOM      7  C   UNL     1      20.994  -0.738  -8.542  1.00  0.00     0.021 C 
ATOM      8  C   UNL     1      19.721  -1.367  -9.169  1.00  0.00    -0.026 C 
ATOM      9  C   UNL     1      18.697  -0.295  -9.620  1.00  0.00     0.012 C 
ATOM     10  C   UNL     1      18.961  -2.457  -8.362  1.00  0.00     0.012 C 
ENDROOT
TORSDOF 0
ENDMDL
MODEL 7
REMARK VINA RESULT:    -2.312      2.104      4.252
REMARK INTER + INTRA:          -2.312
REMARK INTER:                  -2.312
REMARK INTRA:                   0.000
REMARK UNBOUND:                 0.000
REMARK SMILES CC1=CC[C@@H]2C[C@H]1C2(C)C
REMARK SMILES IDX 1 1 2 2 3 3 4 4 5 5 6 6 7 7 8 8 9 9 10 10
REMARK H PARENT
REMARK Flexibility Score: inf
ROOT
ATOM      1  C   UNL     1      22.672  -0.389 -10.496  1.00  0.00     0.039 C 
ATOM      2  C   UNL     1      21.369  -0.896  -9.955  1.00  0.00    -0.074 C 
ATOM      3  C   UNL     1      21.222  -1.291  -8.655  1.00  0.00    -0.027 C 
ATOM      4  C   UNL     1      19.846  -1.803  -8.188  1.00  0.00     0.031 C 
ATOM      5  C   UNL     1      18.840  -1.815  -9.391  1.00  0.00    -0.000 C 
ATOM      6  C   UNL     1      19.600  -2.464 -10.565  1.00  0.00     0.013 C 
ATOM      7  C   UNL     1      20.146  -1.054 -10.867  1.00  0.00     0.021 C 
ATOM      8  C   UNL     1      18.898  -0.465 -10.157  1.00  0.00    -0.026 C 
ATOM      9  C   UNL     1      17.700  -0.289 -11.125  1.00  0.00     0.012 C 
ATOM     10  C   UNL     1      19.063   0.848  -9.342  1.00  0.00     0.012 C 
ENDROOT
TORSDOF 0
ENDMDL
MODEL 8
REMARK VINA RESULT:    -1.951     16.733     18.282
REMARK INTER + INTRA:          -1.951
REMARK INTER:                  -1.951
REMARK INTRA:                   0.000
REMARK UNBOUND:                 0.000
REMARK SMILES CC1=CC[C@@H]2C[C@H]1C2(C)C
REMARK SMILES IDX 1 1 2 2 3 3 4 4 5 5 6 6 7 7 8 8 9 9 10 10
REMARK H PARENT
REMARK Flexibility Score: inf
ROOT
ATOM      1  C   UNL     1      16.729  17.019 -10.832  1.00  0.00     0.039 C 
ATOM      2  C   UNL     1      18.045  16.736 -10.171  1.00  0.00    -0.074 C 
ATOM      3  C   UNL     1      18.276  17.022  -8.856  1.00  0.00    -0.027 C 
ATOM      4  C   UNL     1      19.662  16.701  -8.261  1.00  0.00     0.031 C 
ATOM      5  C   UNL     1      20.602  16.120  -9.373  1.00  0.00    -0.000 C 
ATOM      6  C   UNL     1      20.429  17.046 -10.593  1.00  0.00     0.013 C 
ATOM      7  C   UNL     1      19.222  16.165 -10.972  1.00  0.00     0.021 C 
ATOM      8  C   UNL     1      19.871  15.005 -10.171  1.00  0.00    -0.026 C 
ATOM      9  C   UNL     1      20.847  14.168 -11.036  1.00  0.00     0.012 C 
ATOM     10  C   UNL     1      18.940  14.026  -9.402  1.00  0.00     0.012 C 
ENDROOT
TORSDOF 0
ENDMDL
