MODEL 1
REMARK VINA RESULT:    -5.824      0.000      0.000
REMARK INTER + INTRA:          -6.198
REMARK INTER:                  -6.165
REMARK INTRA:                  -0.033
REMARK UNBOUND:                -0.033
REMARK SMILES COc1ccc2ccc(=O)oc2c1
REMARK SMILES IDX 3 1 13 2 12 3 6 4 5 5 4 6 7 7 8 8 9 9 10 10 11 11 2 12 1 13
REMARK H PARENT
REMARK Flexibility Score: inf
ROOT
ATOM      1  C   UNL     1     -37.073  -4.351 -13.281  1.00  0.00     0.122 A 
ATOM      2  C   UNL     1     -38.309  -5.002 -13.207  1.00  0.00     0.094 A 
ATOM      3  C   UNL     1     -38.392  -6.391 -13.354  1.00  0.00     0.142 A 
ATOM      4  C   UNL     1     -37.219  -7.143 -13.579  1.00  0.00     0.018 A 
ATOM      5  C   UNL     1     -35.980  -6.496 -13.653  1.00  0.00     0.016 A 
ATOM      6  C   UNL     1     -35.905  -5.107 -13.507  1.00  0.00     0.047 A 
ATOM      7  C   UNL     1     -37.333  -8.530 -13.721  1.00  0.00     0.019 A 
ATOM      8  C   UNL     1     -38.591  -9.125 -13.637  1.00  0.00     0.094 A 
ATOM      9  C   UNL     1     -39.710  -8.316 -13.412  1.00  0.00     0.336 A 
ATOM     10  O   UNL     1     -40.854  -8.835 -13.333  1.00  0.00    -0.246 OA
ATOM     11  O   UNL     1     -39.574  -6.998 -13.280  1.00  0.00    -0.423 OA
ENDROOT
BRANCH   1  12
ATOM     12  O   UNL     1     -37.046  -2.956 -13.128  1.00  0.00    -0.497 OA
ATOM     13  C   UNL     1     -36.815  -2.287 -11.892  1.00  0.00     0.278 C 
ENDBRANCH   1  12
TORSDOF 1
ENDMDL
MODEL 2
REMARK VINA RESULT:    -5.773      3.060      5.441
REMARK INTER + INTRA:          -6.143
REMARK INTER:                  -6.113
REMARK INTRA:                  -0.030
REMARK UNBOUND:                -0.033
REMARK SMILES COc1ccc2ccc(=O)oc2c1
REMARK SMILES IDX 3 1 13 2 12 3 6 4 5 5 4 6 7 7 8 8 9 9 10 10 11 11 2 12 1 13
REMARK H PARENT
REMARK Flexibility Score: inf
ROOT
ATOM      1  C   UNL     1     -36.958  -7.949 -14.303  1.00  0.00     0.122 A 
ATOM      2  C   UNL     1     -36.699  -7.558 -15.622  1.00  0.00     0.094 A 
ATOM      3  C   UNL     1     -35.929  -6.421 -15.889  1.00  0.00     0.142 A 
ATOM      4  C   UNL     1     -35.407  -5.661 -14.820  1.00  0.00     0.018 A 
ATOM      5  C   UNL     1     -35.663  -6.048 -13.499  1.00  0.00     0.016 A 
ATOM      6  C   UNL     1     -36.435  -7.185 -13.241  1.00  0.00     0.047 A 
ATOM      7  C   UNL     1     -34.640  -4.530 -15.118  1.00  0.00     0.019 A 
ATOM      8  C   UNL     1     -34.415  -4.188 -16.451  1.00  0.00     0.094 A 
ATOM      9  C   UNL     1     -34.963  -4.989 -17.459  1.00  0.00     0.336 A 
ATOM     10  O   UNL     1     -34.770  -4.696 -18.668  1.00  0.00    -0.246 OA
ATOM     11  O   UNL     1     -35.689  -6.060 -17.148  1.00  0.00    -0.423 OA
ENDROOT
BRANCH   1  12
ATOM     12  O   UNL     1     -37.737  -9.096 -14.091  1.00  0.00    -0.497 OA
ATOM     13  C   UNL     1     -39.040  -9.089 -13.517  1.00  0.00     0.278 C 
ENDBRANCH   1  12
TORSDOF 1
ENDMDL
MODEL 3
REMARK VINA RESULT:    -5.626      6.596      7.863
REMARK INTER + INTRA:          -5.988
REMARK INTER:                  -5.955
REMARK INTRA:                  -0.033
REMARK UNBOUND:                -0.033
REMARK SMILES COc1ccc2ccc(=O)oc2c1
REMARK SMILES IDX 3 1 13 2 12 3 6 4 5 5 4 6 7 7 8 8 9 9 10 10 11 11 2 12 1 13
REMARK H PARENT
REMARK Flexibility Score: inf
ROOT
ATOM      1  C   UNL     1     -31.519  -2.367 -19.235  1.00  0.00     0.122 A 
ATOM      2  C   UNL     1     -32.820  -2.848 -19.421  1.00  0.00     0.094 A 
ATOM      3  C   UNL     1     -33.397  -3.720 -18.490  1.00  0.00     0.142 A 
ATOM      4  C   UNL     1     -32.660  -4.117 -17.353  1.00  0.00     0.018 A 
ATOM      5  C   UNL     1     -31.359  -3.638 -17.163  1.00  0.00     0.016 A 
ATOM      6  C   UNL     1     -30.789  -2.769 -18.098  1.00  0.00     0.047 A 
ATOM      7  C   UNL     1     -33.263  -4.989 -16.440  1.00  0.00     0.019 A 
ATOM      8  C   UNL     1     -34.562  -5.436 -16.677  1.00  0.00     0.094 A 
ATOM      9  C   UNL     1     -35.231  -4.999 -17.825  1.00  0.00     0.336 A 
ATOM     10  O   UNL     1     -36.405  -5.392 -18.055  1.00  0.00    -0.246 OA
ATOM     11  O   UNL     1     -34.635  -4.170 -18.678  1.00  0.00    -0.423 OA
ENDROOT
BRANCH   1  12
ATOM     12  O   UNL     1     -30.989  -1.497 -20.199  1.00  0.00    -0.497 OA
ATOM     13  C   UNL     1     -30.025  -1.872 -21.179  1.00  0.00     0.278 C 
ENDBRANCH   1  12
TORSDOF 1
ENDMDL
MODEL 4
REMARK VINA RESULT:    -5.583      1.430      4.696
REMARK INTER + INTRA:          -5.942
REMARK INTER:                  -5.900
REMARK INTRA:                  -0.042
REMARK UNBOUND:                -0.033
REMARK SMILES COc1ccc2ccc(=O)oc2c1
REMARK SMILES IDX 3 1 13 2 12 3 6 4 5 5 4 6 7 7 8 8 9 9 10 10 11 11 2 12 1 13
REMARK H PARENT
REMARK Flexibility Score: inf
ROOT
ATOM      1  C   UNL     1     -38.609  -7.983 -14.586  1.00  0.00     0.122 A 
ATOM      2  C   UNL     1     -38.597  -6.904 -13.694  1.00  0.00     0.094 A 
ATOM      3  C   UNL     1     -37.495  -6.043 -13.633  1.00  0.00     0.142 A 
ATOM      4  C   UNL     1     -36.387  -6.263 -14.479  1.00  0.00     0.018 A 
ATOM      5  C   UNL     1     -36.395  -7.340 -15.373  1.00  0.00     0.016 A 
ATOM      6  C   UNL     1     -37.498  -8.197 -15.427  1.00  0.00     0.047 A 
ATOM      7  C   UNL     1     -35.301  -5.386 -14.397  1.00  0.00     0.019 A 
ATOM      8  C   UNL     1     -35.344  -4.328 -13.489  1.00  0.00     0.094 A 
ATOM      9  C   UNL     1     -36.476  -4.172 -12.683  1.00  0.00     0.336 A 
ATOM     10  O   UNL     1     -36.533  -3.222 -11.858  1.00  0.00    -0.246 OA
ATOM     11  O   UNL     1     -37.496  -5.021 -12.781  1.00  0.00    -0.423 OA
ENDROOT
BRANCH   1  12
ATOM     12  O   UNL     1     -39.737  -8.816 -14.605  1.00  0.00    -0.497 OA
ATOM     13  C   UNL     1     -40.667  -8.937 -13.533  1.00  0.00     0.278 C 
ENDBRANCH   1  12
TORSDOF 1
ENDMDL
MODEL 5
REMARK VINA RESULT:    -5.526      1.728      2.668
REMARK INTER + INTRA:          -5.881
REMARK INTER:                  -5.839
REMARK INTRA:                  -0.043
REMARK UNBOUND:                -0.033
REMARK SMILES COc1ccc2ccc(=O)oc2c1
REMARK SMILES IDX 3 1 13 2 12 3 6 4 5 5 4 6 7 7 8 8 9 9 10 10 11 11 2 12 1 13
REMARK H PARENT
REMARK Flexibility Score: inf
ROOT
ATOM      1  C   UNL     1     -38.836  -4.006 -12.328  1.00  0.00     0.122 A 
ATOM      2  C   UNL     1     -37.947  -4.830 -13.028  1.00  0.00     0.094 A 
ATOM      3  C   UNL     1     -38.300  -6.144 -13.354  1.00  0.00     0.142 A 
ATOM      4  C   UNL     1     -39.565  -6.644 -12.974  1.00  0.00     0.018 A 
ATOM      5  C   UNL     1     -40.458  -5.824 -12.275  1.00  0.00     0.016 A 
ATOM      6  C   UNL     1     -40.096  -4.512 -11.952  1.00  0.00     0.047 A 
ATOM      7  C   UNL     1     -39.891  -7.961 -13.315  1.00  0.00     0.019 A 
ATOM      8  C   UNL     1     -38.965  -8.736 -14.013  1.00  0.00     0.094 A 
ATOM      9  C   UNL     1     -37.731  -8.173 -14.356  1.00  0.00     0.336 A 
ATOM     10  O   UNL     1     -36.883  -8.858 -14.987  1.00  0.00    -0.246 OA
ATOM     11  O   UNL     1     -37.446  -6.918 -14.020  1.00  0.00    -0.423 OA
ENDROOT
BRANCH   1  12
ATOM     12  O   UNL     1     -38.431  -2.698 -12.026  1.00  0.00    -0.497 OA
ATOM     13  C   UNL     1     -37.099  -2.214 -12.172  1.00  0.00     0.278 C 
ENDBRANCH   1  12
TORSDOF 1
ENDMDL
MODEL 6
REMARK VINA RESULT:    -5.491      5.680      7.990
REMARK INTER + INTRA:          -5.845
REMARK INTER:                  -5.807
REMARK INTRA:                  -0.038
REMARK UNBOUND:                -0.033
REMARK SMILES COc1ccc2ccc(=O)oc2c1
REMARK SMILES IDX 3 1 13 2 12 3 6 4 5 5 4 6 7 7 8 8 9 9 10 10 11 11 2 12 1 13
REMARK H PARENT
REMARK Flexibility Score: inf
ROOT
ATOM      1  C   UNL     1     -35.208  -5.615 -17.104  1.00  0.00     0.122 A 
ATOM      2  C   UNL     1     -33.911  -5.249 -16.725  1.00  0.00     0.094 A 
ATOM      3  C   UNL     1     -33.183  -4.323 -17.481  1.00  0.00     0.142 A 
ATOM      4  C   UNL     1     -33.762  -3.752 -18.635  1.00  0.00     0.018 A 
ATOM      5  C   UNL     1     -35.059  -4.114 -19.017  1.00  0.00     0.016 A 
ATOM      6  C   UNL     1     -35.779  -5.041 -18.257  1.00  0.00     0.047 A 
ATOM      7  C   UNL     1     -33.011  -2.828 -19.370  1.00  0.00     0.019 A 
ATOM      8  C   UNL     1     -31.723  -2.502 -18.946  1.00  0.00     0.094 A 
ATOM      9  C   UNL     1     -31.215  -3.108 -17.792  1.00  0.00     0.336 A 
ATOM     10  O   UNL     1     -30.055  -2.825 -17.393  1.00  0.00    -0.246 OA
ATOM     11  O   UNL     1     -31.951  -3.983 -17.111  1.00  0.00    -0.423 OA
ENDROOT
BRANCH   1  12
ATOM     12  O   UNL     1     -35.892  -6.548 -16.311  1.00  0.00    -0.497 OA
ATOM     13  C   UNL     1     -36.047  -6.445 -14.899  1.00  0.00     0.278 C 
ENDBRANCH   1  12
TORSDOF 1
ENDMDL
MODEL 7
REMARK VINA RESULT:    -5.383      2.508      3.494
REMARK INTER + INTRA:          -5.731
REMARK INTER:                  -5.698
REMARK INTRA:                  -0.033
REMARK UNBOUND:                -0.033
REMARK SMILES COc1ccc2ccc(=O)oc2c1
REMARK SMILES IDX 3 1 13 2 12 3 6 4 5 5 4 6 7 7 8 8 9 9 10 10 11 11 2 12 1 13
REMARK H PARENT
REMARK Flexibility Score: inf
ROOT
ATOM      1  C   UNL     1     -39.760  -4.983 -12.319  1.00  0.00     0.122 A 
ATOM      2  C   UNL     1     -38.622  -4.923 -13.131  1.00  0.00     0.094 A 
ATOM      3  C   UNL     1     -38.271  -6.004 -13.946  1.00  0.00     0.142 A 
ATOM      4  C   UNL     1     -39.072  -7.166 -13.951  1.00  0.00     0.018 A 
ATOM      5  C   UNL     1     -40.212  -7.231 -13.141  1.00  0.00     0.016 A 
ATOM      6  C   UNL     1     -40.555  -6.146 -12.328  1.00  0.00     0.047 A 
ATOM      7  C   UNL     1     -38.698  -8.231 -14.777  1.00  0.00     0.019 A 
ATOM      8  C   UNL     1     -37.553  -8.115 -15.565  1.00  0.00     0.094 A 
ATOM      9  C   UNL     1     -36.808  -6.933 -15.509  1.00  0.00     0.336 A 
ATOM     10  O   UNL     1     -35.772  -6.809 -16.214  1.00  0.00    -0.246 OA
ATOM     11  O   UNL     1     -37.186  -5.934 -14.714  1.00  0.00    -0.423 OA
ENDROOT
BRANCH   1  12
ATOM     12  O   UNL     1     -40.065  -3.871 -11.519  1.00  0.00    -0.497 OA
ATOM     13  C   UNL     1     -40.578  -3.950 -10.193  1.00  0.00     0.278 C 
ENDBRANCH   1  12
TORSDOF 1
ENDMDL
MODEL 8
REMARK VINA RESULT:    -5.367      3.451      4.320
REMARK INTER + INTRA:          -5.714
REMARK INTER:                  -5.680
REMARK INTRA:                  -0.034
REMARK UNBOUND:                -0.033
REMARK SMILES COc1ccc2ccc(=O)oc2c1
REMARK SMILES IDX 3 1 13 2 12 3 6 4 5 5 4 6 7 7 8 8 9 9 10 10 11 11 2 12 1 13
REMARK H PARENT
REMARK Flexibility Score: inf
ROOT
ATOM      1  C   UNL     1     -35.175  -4.564 -17.381  1.00  0.00     0.122 A 
ATOM      2  C   UNL     1     -35.835  -5.784 -17.189  1.00  0.00     0.094 A 
ATOM      3  C   UNL     1     -36.023  -6.297 -15.901  1.00  0.00     0.142 A 
ATOM      4  C   UNL     1     -35.544  -5.578 -14.785  1.00  0.00     0.018 A 
ATOM      5  C   UNL     1     -34.884  -4.357 -14.971  1.00  0.00     0.016 A 
ATOM      6  C   UNL     1     -34.699  -3.853 -16.262  1.00  0.00     0.047 A 
ATOM      7  C   UNL     1     -35.747  -6.115 -13.509  1.00  0.00     0.019 A 
ATOM      8  C   UNL     1     -36.411  -7.334 -13.378  1.00  0.00     0.094 A 
ATOM      9  C   UNL     1     -36.858  -7.990 -14.530  1.00  0.00     0.336 A 
ATOM     10  O   UNL     1     -37.460  -9.092 -14.432  1.00  0.00    -0.246 OA
ATOM     11  O   UNL     1     -36.652  -7.457 -15.732  1.00  0.00    -0.423 OA
ENDROOT
BRANCH   1  12
ATOM     12  O   UNL     1     -35.012  -4.096 -18.694  1.00  0.00    -0.497 OA
ATOM     13  C   UNL     1     -34.056  -4.608 -19.617  1.00  0.00     0.278 C 
ENDBRANCH   1  12
TORSDOF 1
ENDMDL
MODEL 9
REMARK VINA RESULT:    -5.320      2.996      3.223
REMARK INTER + INTRA:          -5.664
REMARK INTER:                  -5.628
REMARK INTRA:                  -0.036
REMARK UNBOUND:                -0.033
REMARK SMILES COc1ccc2ccc(=O)oc2c1
REMARK SMILES IDX 3 1 13 2 12 3 6 4 5 5 4 6 7 7 8 8 9 9 10 10 11 11 2 12 1 13
REMARK H PARENT
REMARK Flexibility Score: inf
ROOT
ATOM      1  C   UNL     1     -37.419  -4.911 -17.147  1.00  0.00     0.122 A 
ATOM      2  C   UNL     1     -38.452  -5.451 -16.371  1.00  0.00     0.094 A 
ATOM      3  C   UNL     1     -38.214  -6.544 -15.531  1.00  0.00     0.142 A 
ATOM      4  C   UNL     1     -36.922  -7.109 -15.465  1.00  0.00     0.018 A 
ATOM      5  C   UNL     1     -35.886  -6.573 -16.238  1.00  0.00     0.016 A 
ATOM      6  C   UNL     1     -36.132  -5.480 -17.076  1.00  0.00     0.047 A 
ATOM      7  C   UNL     1     -36.715  -8.201 -14.616  1.00  0.00     0.019 A 
ATOM      8  C   UNL     1     -37.781  -8.697 -13.866  1.00  0.00     0.094 A 
ATOM      9  C   UNL     1     -39.034  -8.086 -13.983  1.00  0.00     0.336 A 
ATOM     10  O   UNL     1     -40.009  -8.519 -13.313  1.00  0.00    -0.246 OA
ATOM     11  O   UNL     1     -39.205  -7.048 -14.798  1.00  0.00    -0.423 OA
ENDROOT
BRANCH   1  12
ATOM     12  O   UNL     1     -37.711  -3.815 -17.973  1.00  0.00    -0.497 OA
ATOM     13  C   UNL     1     -36.807  -3.261 -18.924  1.00  0.00     0.278 C 
ENDBRANCH   1  12
TORSDOF 1
ENDMDL
