MODEL 1
REMARK VINA RESULT:    80.575      0.000      0.000
REMARK INTER + INTRA:         211.092
REMARK INTER:                 191.269
REMARK INTRA:                  19.823
REMARK UNBOUND:                19.823
REMARK SMILES O=C(OC[C@H]1O[C@H](OC(=O)c2cc(O)c(O)c(O)c2)[C@H](OC(=O)c2cc(O)c(O)c(O)c2)[C@@H](OC(=O)c2cc(O)c(O)c(O)c2)[C@H]1OC(=O)c1cc(O)c(O)c(O)c1)c1cc(O)c(O)c(O)c1
REMARK SMILES IDX 5 1 46 2 33 3 20 4 7 5 6 6 4 7 3 8 2 9 1 10 59 11 60 12
REMARK SMILES IDX 61 13 67 14 63 15 65 16 62 17 64 19 66 21 47 23 48 24 49 25
REMARK SMILES IDX 50 26 58 27 51 28 56 29 52 30 54 31 57 32 53 34 55 36 34 38
REMARK SMILES IDX 35 39 36 40 37 41 45 42 38 43 43 44 39 45 41 46 44 47 40 49
REMARK SMILES IDX 42 51 8 53 9 54 10 55 11 56 19 57 12 58 17 59 13 60 15 61
REMARK SMILES IDX 18 62 14 64 16 66 21 68 22 69 23 70 24 71 32 72 25 73 30 74
REMARK SMILES IDX 26 75 28 76 31 77 27 79 29 81
REMARK H PARENT 62 18 64 20 66 22 57 33 53 35 55 37 44 48 40 50 42 52 18 63
REMARK H PARENT 14 65 16 67 31 78 27 80 29 82
REMARK Flexibility Score: inf
ROOT
ATOM      1  C   UNL     1      24.726  31.501   0.919  1.00  0.00     0.205 C 
ATOM      2  C   UNL     1      24.339  30.874   2.271  1.00  0.00     0.254 C 
ATOM      3  C   UNL     1      25.302  29.711   2.530  1.00  0.00     0.267 C 
ATOM      4  C   UNL     1      26.753  30.226   2.508  1.00  0.00     0.290 C 
ATOM      5  C   UNL     1      27.006  31.007   1.198  1.00  0.00     0.357 C 
ATOM      6  O   UNL     1      26.043  32.031   0.986  1.00  0.00    -0.329 OA
ENDROOT
BRANCH   1   7
ATOM      7  C   UNL     1      23.753  32.616   0.491  1.00  0.00     0.269 C 
BRANCH   7   8
ATOM      8  O   UNL     1      22.420  32.230   0.809  1.00  0.00    -0.459 OA
BRANCH   8   9
ATOM      9  C   UNL     1      21.311  33.021   0.479  1.00  0.00     0.338 C 
ATOM     10  O   UNL     1      21.479  34.124  -0.118  1.00  0.00    -0.246 OA
BRANCH   9  11
ATOM     11  C   UNL     1      19.952  32.582   0.857  1.00  0.00     0.067 A 
ATOM     12  C   UNL     1      18.864  33.454   0.718  1.00  0.00     0.066 A 
ATOM     13  C   UNL     1      17.582  33.072   1.120  1.00  0.00     0.162 A 
ATOM     14  C   UNL     1      19.742  31.300   1.402  1.00  0.00     0.066 A 
ATOM     15  C   UNL     1      17.379  31.799   1.701  1.00  0.00     0.200 A 
ATOM     16  C   UNL     1      18.466  30.916   1.832  1.00  0.00     0.162 A 
BRANCH  13  17
ATOM     17  O   UNL     1      16.542  33.980   0.914  1.00  0.00    -0.504 OA
ATOM     18  H   UNL     1      15.650  33.920   1.374  1.00  0.00     0.293 HD
ENDBRANCH  13  17
BRANCH  15  19
ATOM     19  O   UNL     1      16.124  31.384   2.160  1.00  0.00    -0.502 OA
ATOM     20  H   UNL     1      15.900  30.441   2.435  1.00  0.00     0.293 HD
ENDBRANCH  15  19
BRANCH  16  21
ATOM     21  O   UNL     1      18.303  29.649   2.391  1.00  0.00    -0.504 OA
ATOM     22  H   UNL     1      18.594  28.807   1.909  1.00  0.00     0.293 HD
ENDBRANCH  16  21
ENDBRANCH   9  11
ENDBRANCH   8   9
ENDBRANCH   7   8
ENDBRANCH   1   7
BRANCH   2  23
ATOM     23  O   UNL     1      24.478  31.834   3.320  1.00  0.00    -0.452 OA
BRANCH  23  24
ATOM     24  C   UNL     1      23.526  32.043   4.327  1.00  0.00     0.338 C 
ATOM     25  O   UNL     1      22.379  32.466   4.027  1.00  0.00    -0.246 OA
BRANCH  24  26
ATOM     26  C   UNL     1      23.875  31.745   5.734  1.00  0.00     0.067 A 
ATOM     27  C   UNL     1      24.649  30.616   6.061  1.00  0.00     0.066 A 
ATOM     28  C   UNL     1      23.388  32.561   6.768  1.00  0.00     0.066 A 
ATOM     29  C   UNL     1      24.919  30.300   7.403  1.00  0.00     0.162 A 
ATOM     30  C   UNL     1      23.664  32.256   8.105  1.00  0.00     0.162 A 
ATOM     31  C   UNL     1      24.428  31.125   8.428  1.00  0.00     0.200 A 
BRANCH  29  32
ATOM     32  O   UNL     1      25.667  29.169   7.719  1.00  0.00    -0.504 OA
ATOM     33  H   UNL     1      26.325  28.768   7.060  1.00  0.00     0.293 HD
ENDBRANCH  29  32
BRANCH  30  34
ATOM     34  O   UNL     1      23.161  33.089   9.101  1.00  0.00    -0.504 OA
ATOM     35  H   UNL     1      22.697  33.967   8.888  1.00  0.00     0.293 HD
ENDBRANCH  30  34
BRANCH  31  36
ATOM     36  O   UNL     1      24.680  30.833   9.767  1.00  0.00    -0.502 OA
ATOM     37  H   UNL     1      25.201  31.458  10.369  1.00  0.00     0.293 HD
ENDBRANCH  31  36
ENDBRANCH  24  26
ENDBRANCH  23  24
ENDBRANCH   2  23
BRANCH   3  38
ATOM     38  O   UNL     1      24.997  29.079   3.773  1.00  0.00    -0.450 OA
BRANCH  38  39
ATOM     39  C   UNL     1      25.648  27.917   4.210  1.00  0.00     0.338 C 
ATOM     40  O   UNL     1      26.190  27.887   5.348  1.00  0.00    -0.246 OA
BRANCH  39  41
ATOM     41  C   UNL     1      25.683  26.715   3.346  1.00  0.00     0.067 A 
ATOM     42  C   UNL     1      24.971  26.690   2.135  1.00  0.00     0.066 A 
ATOM     43  C   UNL     1      26.432  25.589   3.726  1.00  0.00     0.066 A 
ATOM     44  C   UNL     1      25.000  25.557   1.317  1.00  0.00     0.162 A 
ATOM     45  C   UNL     1      26.466  24.448   2.919  1.00  0.00     0.162 A 
ATOM     46  C   UNL     1      25.734  24.424   1.703  1.00  0.00     0.200 A 
BRANCH  44  47
ATOM     47  O   UNL     1      24.297  25.556   0.111  1.00  0.00    -0.504 OA
ATOM     48  H   UNL     1      23.401  26.027   0.015  1.00  0.00     0.293 HD
ENDBRANCH  44  47
BRANCH  45  49
ATOM     49  O   UNL     1      27.230  23.368   3.361  1.00  0.00    -0.504 OA
ATOM     50  H   UNL     1      27.754  22.758   2.751  1.00  0.00     0.293 HD
ENDBRANCH  45  49
BRANCH  46  51
ATOM     51  O   UNL     1      25.705  23.310   0.859  1.00  0.00    -0.502 OA
ATOM     52  H   UNL     1      26.474  23.042   0.256  1.00  0.00     0.293 HD
ENDBRANCH  46  51
ENDBRANCH  39  41
ENDBRANCH  38  39
ENDBRANCH   3  38
BRANCH   5  53
ATOM     53  O   UNL     1      27.053  30.114   0.086  1.00  0.00    -0.428 OA
BRANCH  53  54
ATOM     54  C   UNL     1      26.771  28.747   0.185  1.00  0.00     0.340 C 
ATOM     55  O   UNL     1      25.636  28.302  -0.123  1.00  0.00    -0.246 OA
BRANCH  54  56
ATOM     56  C   UNL     1      27.821  27.826   0.649  1.00  0.00     0.067 A 
ATOM     57  C   UNL     1      27.493  26.571   1.176  1.00  0.00     0.066 A 
ATOM     58  C   UNL     1      29.167  28.197   0.551  1.00  0.00     0.066 A 
ATOM     59  C   UNL     1      28.491  25.673   1.575  1.00  0.00     0.162 A 
ATOM     60  C   UNL     1      30.177  27.330   0.970  1.00  0.00     0.162 A 
ATOM     61  C   UNL     1      29.854  26.052   1.471  1.00  0.00     0.200 A 
BRANCH  59  62
ATOM     62  O   UNL     1      28.082  24.426   2.058  1.00  0.00    -0.504 OA
ATOM     63  H   UNL     1      28.479  23.977   2.876  1.00  0.00     0.293 HD
ENDBRANCH  59  62
BRANCH  60  64
ATOM     64  O   UNL     1      31.501  27.761   0.886  1.00  0.00    -0.504 OA
ATOM     65  H   UNL     1      32.219  27.419   1.516  1.00  0.00     0.293 HD
ENDBRANCH  60  64
BRANCH  61  66
ATOM     66  O   UNL     1      30.898  25.194   1.846  1.00  0.00    -0.502 OA
ATOM     67  H   UNL     1      31.123  24.958   2.803  1.00  0.00     0.293 HD
ENDBRANCH  61  66
ENDBRANCH  54  56
ENDBRANCH  53  54
ENDBRANCH   5  53
BRANCH   4  68
ATOM     68  O   UNL     1      27.665  29.130   2.555  1.00  0.00    -0.448 OA
BRANCH  68  69
ATOM     69  C   UNL     1      29.042  29.260   2.754  1.00  0.00     0.339 C 
ATOM     70  O   UNL     1      29.773  29.750   1.847  1.00  0.00    -0.246 OA
BRANCH  69  71
ATOM     71  C   UNL     1      29.640  28.808   4.027  1.00  0.00     0.067 A 
ATOM     72  C   UNL     1      30.932  29.201   4.397  1.00  0.00     0.066 A 
ATOM     73  C   UNL     1      28.911  27.977   4.893  1.00  0.00     0.066 A 
ATOM     74  C   UNL     1      31.488  28.787   5.617  1.00  0.00     0.162 A 
ATOM     75  C   UNL     1      29.453  27.561   6.113  1.00  0.00     0.162 A 
ATOM     76  C   UNL     1      30.745  27.966   6.481  1.00  0.00     0.200 A 
BRANCH  74  77
ATOM     77  O   UNL     1      32.771  29.198   5.979  1.00  0.00    -0.504 OA
ATOM     78  H   UNL     1      33.168  28.963   6.883  1.00  0.00     0.293 HD
ENDBRANCH  74  77
BRANCH  75  79
ATOM     79  O   UNL     1      28.690  26.746   6.951  1.00  0.00    -0.504 OA
ATOM     80  H   UNL     1      28.003  27.121   7.590  1.00  0.00     0.293 HD
ENDBRANCH  75  79
BRANCH  76  81
ATOM     81  O   UNL     1      31.279  27.547   7.701  1.00  0.00    -0.502 OA
ATOM     82  H   UNL     1      30.703  27.219   8.462  1.00  0.00     0.293 HD
ENDBRANCH  76  81
ENDBRANCH  69  71
ENDBRANCH  68  69
ENDBRANCH   4  68
TORSDOF 31
ENDMDL
