MODEL 1
REMARK VINA RESULT:    -3.695      0.000      0.000
REMARK INTER + INTRA:          -4.917
REMARK INTER:                  -4.775
REMARK INTRA:                  -0.142
REMARK UNBOUND:                -0.142
REMARK SMILES CCCCCCC(=O)[O-]
REMARK SMILES IDX 5 1 6 2 7 3 8 4 9 5 4 6 3 7 2 8 1 9
REMARK H PARENT
REMARK Flexibility Score: inf
ROOT
ATOM      1  C   UNL     1      46.065  26.711   6.104  1.00  0.00     0.006 C 
ENDROOT
BRANCH   1   2
ATOM      2  C   UNL     1      45.648  27.372   4.784  1.00  0.00     0.053 C 
BRANCH   2   3
ATOM      3  C   UNL     1      45.102  26.349   3.838  1.00  0.00     0.041 C 
ATOM      4  O   UNL     1      45.486  25.152   3.910  1.00  0.00    -0.550 OA
ATOM      5  O   UNL     1      44.207  26.726   2.845  1.00  0.00    -0.550 OA
ENDBRANCH   2   3
ENDBRANCH   1   2
BRANCH   1   6
ATOM      6  C   UNL     1      45.865  27.635   7.316  1.00  0.00     0.000 C 
BRANCH   6   7
ATOM      7  C   UNL     1      45.520  26.864   8.598  1.00  0.00    -0.000 C 
BRANCH   7   8
ATOM      8  C   UNL     1      45.011  27.814   9.689  1.00  0.00    -0.003 C 
ATOM      9  C   UNL     1      44.901  29.244   9.167  1.00  0.00     0.004 C 
ENDBRANCH   7   8
ENDBRANCH   6   7
ENDBRANCH   1   6
TORSDOF 5
ENDMDL
MODEL 2
REMARK VINA RESULT:    -3.476      3.181      5.092
REMARK INTER + INTRA:          -4.634
REMARK INTER:                  -4.500
REMARK INTRA:                  -0.134
REMARK UNBOUND:                -0.142
REMARK SMILES CCCCCCC(=O)[O-]
REMARK SMILES IDX 5 1 6 2 7 3 8 4 9 5 4 6 3 7 2 8 1 9
REMARK H PARENT
REMARK Flexibility Score: inf
ROOT
ATOM      1  C   UNL     1      45.983  27.012   7.057  1.00  0.00     0.006 C 
ENDROOT
BRANCH   1   2
ATOM      2  C   UNL     1      45.530  28.146   7.986  1.00  0.00     0.053 C 
BRANCH   2   3
ATOM      3  C   UNL     1      45.091  27.595   9.306  1.00  0.00     0.041 C 
ATOM      4  O   UNL     1      45.109  26.353   9.511  1.00  0.00    -0.550 OA
ATOM      5  O   UNL     1      44.615  28.449  10.292  1.00  0.00    -0.550 OA
ENDBRANCH   2   3
ENDBRANCH   1   2
BRANCH   1   6
ATOM      6  C   UNL     1      46.020  27.437   5.580  1.00  0.00     0.000 C 
BRANCH   6   7
ATOM      7  C   UNL     1      46.209  26.249   4.627  1.00  0.00    -0.000 C 
BRANCH   7   8
ATOM      8  C   UNL     1      44.893  25.896   3.924  1.00  0.00    -0.003 C 
ATOM      9  C   UNL     1      44.379  27.070   3.095  1.00  0.00     0.004 C 
ENDBRANCH   7   8
ENDBRANCH   6   7
ENDBRANCH   1   6
TORSDOF 5
ENDMDL
MODEL 3
REMARK VINA RESULT:    -3.414      0.870      1.378
REMARK INTER + INTRA:          -4.553
REMARK INTER:                  -4.336
REMARK INTRA:                  -0.217
REMARK UNBOUND:                -0.142
REMARK SMILES CCCCCCC(=O)[O-]
REMARK SMILES IDX 5 1 6 2 7 3 8 4 9 5 4 6 3 7 2 8 1 9
REMARK H PARENT
REMARK Flexibility Score: inf
ROOT
ATOM      1  C   UNL     1      45.980  28.095   5.974  1.00  0.00     0.006 C 
ENDROOT
BRANCH   1   2
ATOM      2  C   UNL     1      46.104  26.625   5.554  1.00  0.00     0.053 C 
BRANCH   2   3
ATOM      3  C   UNL     1      45.340  26.376   4.292  1.00  0.00     0.041 C 
ATOM      4  O   UNL     1      45.213  25.205   3.848  1.00  0.00    -0.550 OA
ATOM      5  O   UNL     1      44.808  27.444   3.580  1.00  0.00    -0.550 OA
ENDBRANCH   2   3
ENDBRANCH   1   2
BRANCH   1   6
ATOM      6  C   UNL     1      46.347  28.322   7.449  1.00  0.00     0.000 C 
BRANCH   6   7
ATOM      7  C   UNL     1      45.243  29.051   8.229  1.00  0.00    -0.000 C 
BRANCH   7   8
ATOM      8  C   UNL     1      44.907  28.308   9.527  1.00  0.00    -0.003 C 
ATOM      9  C   UNL     1      45.315  26.839   9.443  1.00  0.00     0.004 C 
ENDBRANCH   7   8
ENDBRANCH   6   7
ENDBRANCH   1   6
TORSDOF 5
ENDMDL
MODEL 4
REMARK VINA RESULT:    -3.122      3.735      5.109
REMARK INTER + INTRA:          -4.175
REMARK INTER:                  -3.924
REMARK INTRA:                  -0.252
REMARK UNBOUND:                -0.142
REMARK SMILES CCCCCCC(=O)[O-]
REMARK SMILES IDX 5 1 6 2 7 3 8 4 9 5 4 6 3 7 2 8 1 9
REMARK H PARENT
REMARK Flexibility Score: inf
ROOT
ATOM      1  C   UNL     1      45.224  28.984   1.820  1.00  0.00     0.006 C 
ENDROOT
BRANCH   1   2
ATOM      2  C   UNL     1      45.772  27.861   0.929  1.00  0.00     0.053 C 
BRANCH   2   3
ATOM      3  C   UNL     1      45.510  28.164  -0.513  1.00  0.00     0.041 C 
ATOM      4  O   UNL     1      45.273  29.346  -0.878  1.00  0.00    -0.550 OA
ATOM      5  O   UNL     1      45.478  27.135  -1.446  1.00  0.00    -0.550 OA
ENDBRANCH   2   3
ENDBRANCH   1   2
BRANCH   1   6
ATOM      6  C   UNL     1      44.658  28.460   3.149  1.00  0.00     0.000 C 
BRANCH   6   7
ATOM      7  C   UNL     1      44.166  27.009   3.053  1.00  0.00    -0.000 C 
BRANCH   7   8
ATOM      8  C   UNL     1      44.953  26.100   4.005  1.00  0.00    -0.003 C 
ATOM      9  C   UNL     1      45.925  26.907   4.861  1.00  0.00     0.004 C 
ENDBRANCH   7   8
ENDBRANCH   6   7
ENDBRANCH   1   6
TORSDOF 5
ENDMDL
MODEL 5
REMARK VINA RESULT:    -3.082      3.669      6.307
REMARK INTER + INTRA:          -4.125
REMARK INTER:                  -3.955
REMARK INTRA:                  -0.170
REMARK UNBOUND:                -0.142
REMARK SMILES CCCCCCC(=O)[O-]
REMARK SMILES IDX 5 1 6 2 7 3 8 4 9 5 4 6 3 7 2 8 1 9
REMARK H PARENT
REMARK Flexibility Score: inf
ROOT
ATOM      1  C   UNL     1      44.316  28.552   2.877  1.00  0.00     0.006 C 
ENDROOT
BRANCH   1   2
ATOM      2  C   UNL     1      44.168  27.025   2.869  1.00  0.00     0.053 C 
BRANCH   2   3
ATOM      3  C   UNL     1      45.083  26.407   3.879  1.00  0.00     0.041 C 
ATOM      4  O   UNL     1      45.317  25.170   3.849  1.00  0.00    -0.550 OA
ATOM      5  O   UNL     1      45.640  27.189   4.883  1.00  0.00    -0.550 OA
ENDBRANCH   2   3
ENDBRANCH   1   2
BRANCH   1   6
ATOM      6  C   UNL     1      45.273  29.059   1.786  1.00  0.00     0.000 C 
BRANCH   6   7
ATOM      7  C   UNL     1      45.523  28.017   0.686  1.00  0.00    -0.000 C 
BRANCH   7   8
ATOM      8  C   UNL     1      45.618  28.686  -0.690  1.00  0.00    -0.003 C 
ATOM      9  C   UNL     1      45.284  27.700  -1.807  1.00  0.00     0.004 C 
ENDBRANCH   7   8
ENDBRANCH   6   7
ENDBRANCH   1   6
TORSDOF 5
ENDMDL
MODEL 6
REMARK VINA RESULT:    -2.985      3.911      5.479
REMARK INTER + INTRA:          -3.999
REMARK INTER:                  -3.862
REMARK INTRA:                  -0.137
REMARK UNBOUND:                -0.142
REMARK SMILES CCCCCCC(=O)[O-]
REMARK SMILES IDX 5 1 6 2 7 3 8 4 9 5 4 6 3 7 2 8 1 9
REMARK H PARENT
REMARK Flexibility Score: inf
ROOT
ATOM      1  C   UNL     1      45.347  28.951   7.831  1.00  0.00     0.006 C 
ENDROOT
BRANCH   1   2
ATOM      2  C   UNL     1      45.242  27.916   8.959  1.00  0.00     0.053 C 
BRANCH   2   3
ATOM      3  C   UNL     1      45.220  28.597  10.291  1.00  0.00     0.041 C 
ATOM      4  O   UNL     1      46.116  28.355  11.142  1.00  0.00    -0.550 OA
ATOM      5  O   UNL     1      44.181  29.462  10.613  1.00  0.00    -0.550 OA
ENDBRANCH   2   3
ENDBRANCH   1   2
BRANCH   1   6
ATOM      6  C   UNL     1      46.066  28.400   6.589  1.00  0.00     0.000 C 
BRANCH   6   7
ATOM      7  C   UNL     1      45.951  26.874   6.466  1.00  0.00    -0.000 C 
BRANCH   7   8
ATOM      8  C   UNL     1      46.403  26.401   5.079  1.00  0.00    -0.003 C 
ATOM      9  C   UNL     1      45.210  25.982   4.224  1.00  0.00     0.004 C 
ENDBRANCH   7   8
ENDBRANCH   6   7
ENDBRANCH   1   6
TORSDOF 5
ENDMDL
MODEL 7
REMARK VINA RESULT:    -2.935      8.208     11.076
REMARK INTER + INTRA:          -3.934
REMARK INTER:                  -3.739
REMARK INTRA:                  -0.195
REMARK UNBOUND:                -0.142
REMARK SMILES CCCCCCC(=O)[O-]
REMARK SMILES IDX 5 1 6 2 7 3 8 4 9 5 4 6 3 7 2 8 1 9
REMARK H PARENT
REMARK Flexibility Score: inf
ROOT
ATOM      1  C   UNL     1      44.226  27.398  -3.720  1.00  0.00     0.006 C 
ENDROOT
BRANCH   1   2
ATOM      2  C   UNL     1      44.722  28.308  -2.589  1.00  0.00     0.053 C 
BRANCH   2   3
ATOM      3  C   UNL     1      45.624  27.549  -1.667  1.00  0.00     0.041 C 
ATOM      4  O   UNL     1      46.778  27.213  -2.044  1.00  0.00    -0.550 OA
ATOM      5  O   UNL     1      45.173  27.169  -0.409  1.00  0.00    -0.550 OA
ENDBRANCH   2   3
ENDBRANCH   1   2
BRANCH   1   6
ATOM      6  C   UNL     1      44.636  27.907  -5.111  1.00  0.00     0.000 C 
BRANCH   6   7
ATOM      7  C   UNL     1      43.447  28.012  -6.078  1.00  0.00    -0.000 C 
BRANCH   7   8
ATOM      8  C   UNL     1      42.213  28.580  -5.369  1.00  0.00    -0.003 C 
ATOM      9  C   UNL     1      41.455  29.550  -6.272  1.00  0.00     0.004 C 
ENDBRANCH   7   8
ENDBRANCH   6   7
ENDBRANCH   1   6
TORSDOF 5
ENDMDL
MODEL 8
REMARK VINA RESULT:    -2.908      8.922     11.103
REMARK INTER + INTRA:          -3.899
REMARK INTER:                  -3.621
REMARK INTRA:                  -0.278
REMARK UNBOUND:                -0.142
REMARK SMILES CCCCCCC(=O)[O-]
REMARK SMILES IDX 5 1 6 2 7 3 8 4 9 5 4 6 3 7 2 8 1 9
REMARK H PARENT
REMARK Flexibility Score: inf
ROOT
ATOM      1  C   UNL     1      44.644  28.642  -5.333  1.00  0.00     0.006 C 
ENDROOT
BRANCH   1   2
ATOM      2  C   UNL     1      43.373  28.151  -6.039  1.00  0.00     0.053 C 
BRANCH   2   3
ATOM      3  C   UNL     1      42.157  28.575  -5.277  1.00  0.00     0.041 C 
ATOM      4  O   UNL     1      41.418  29.492  -5.722  1.00  0.00    -0.550 OA
ATOM      5  O   UNL     1      41.867  27.990  -4.051  1.00  0.00    -0.550 OA
ENDBRANCH   2   3
ENDBRANCH   1   2
BRANCH   1   6
ATOM      6  C   UNL     1      45.639  27.505  -5.049  1.00  0.00     0.000 C 
BRANCH   6   7
ATOM      7  C   UNL     1      46.213  27.563  -3.626  1.00  0.00    -0.000 C 
BRANCH   7   8
ATOM      8  C   UNL     1      45.091  27.571  -2.582  1.00  0.00    -0.003 C 
ATOM      9  C   UNL     1      45.246  28.741  -1.614  1.00  0.00     0.004 C 
ENDBRANCH   7   8
ENDBRANCH   6   7
ENDBRANCH   1   6
TORSDOF 5
ENDMDL
MODEL 9
REMARK VINA RESULT:    -2.898      8.026      9.883
REMARK INTER + INTRA:          -3.887
REMARK INTER:                  -3.547
REMARK INTRA:                  -0.339
REMARK UNBOUND:                -0.142
REMARK SMILES CCCCCCC(=O)[O-]
REMARK SMILES IDX 5 1 6 2 7 3 8 4 9 5 4 6 3 7 2 8 1 9
REMARK H PARENT
REMARK Flexibility Score: inf
ROOT
ATOM      1  C   UNL     1      44.639  29.922  -2.050  1.00  0.00     0.006 C 
ENDROOT
BRANCH   1   2
ATOM      2  C   UNL     1      45.987  29.412  -1.524  1.00  0.00     0.053 C 
BRANCH   2   3
ATOM      3  C   UNL     1      45.966  27.922  -1.394  1.00  0.00     0.041 C 
ATOM      4  O   UNL     1      45.234  27.372  -0.529  1.00  0.00    -0.550 OA
ATOM      5  O   UNL     1      46.790  27.142  -2.195  1.00  0.00    -0.550 OA
ENDBRANCH   2   3
ENDBRANCH   1   2
BRANCH   1   6
ATOM      6  C   UNL     1      44.331  29.422  -3.470  1.00  0.00     0.000 C 
BRANCH   6   7
ATOM      7  C   UNL     1      42.825  29.269  -3.730  1.00  0.00    -0.000 C 
BRANCH   7   8
ATOM      8  C   UNL     1      42.520  27.925  -4.403  1.00  0.00    -0.003 C 
ATOM      9  C   UNL     1      43.379  26.807  -3.818  1.00  0.00     0.004 C 
ENDBRANCH   7   8
ENDBRANCH   6   7
ENDBRANCH   1   6
TORSDOF 5
ENDMDL
