MODEL 1
REMARK VINA RESULT:    -4.491      0.000      0.000
REMARK INTER + INTRA:          -5.032
REMARK INTER:                  -5.147
REMARK INTRA:                   0.115
REMARK UNBOUND:                 0.115
REMARK SMILES CC(C)[C@H]([NH3+])C(=O)[O-]
REMARK SMILES IDX 4 1 5 2 6 6 7 7 8 8 2 9 1 10 3 11
REMARK H PARENT 5 3 5 4 5 5
REMARK Flexibility Score: inf
ROOT
ATOM      1  C   UNL     1     -19.560  27.189  -9.695  1.00  0.00     0.230 C 
ENDROOT
BRANCH   1   2
ATOM      2  N   UNL     1     -19.098  27.986  -8.548  1.00  0.00    -0.350 N 
ATOM      3  H   UNL     1     -19.908  28.241  -7.936  1.00  0.00     0.345 HD
ATOM      4  H   UNL     1     -18.669  28.880  -8.878  1.00  0.00     0.345 HD
ATOM      5  H   UNL     1     -18.400  27.450  -7.981  1.00  0.00     0.345 HD
ENDBRANCH   1   2
BRANCH   1   6
ATOM      6  C   UNL     1     -20.126  28.108 -10.749  1.00  0.00     0.099 C 
ATOM      7  O   UNL     1     -19.651  28.110 -11.916  1.00  0.00    -0.544 OA
ATOM      8  O   UNL     1     -21.172  28.966 -10.435  1.00  0.00    -0.544 OA
ENDBRANCH   1   6
BRANCH   1   9
ATOM      9  C   UNL     1     -20.609  26.116  -9.272  1.00  0.00     0.047 C 
ATOM     10  C   UNL     1     -21.432  25.614 -10.471  1.00  0.00     0.014 C 
ATOM     11  C   UNL     1     -21.565  26.664  -8.199  1.00  0.00     0.014 C 
ENDBRANCH   1   9
TORSDOF 3
ENDMDL
MODEL 2
REMARK VINA RESULT:    -4.389      1.934      2.413
REMARK INTER + INTRA:          -4.915
REMARK INTER:                  -5.028
REMARK INTRA:                   0.113
REMARK UNBOUND:                 0.115
REMARK SMILES CC(C)[C@H]([NH3+])C(=O)[O-]
REMARK SMILES IDX 4 1 5 2 6 6 7 7 8 8 2 9 1 10 3 11
REMARK H PARENT 5 3 5 4 5 5
REMARK Flexibility Score: inf
ROOT
ATOM      1  C   UNL     1     -21.368  28.458  -9.120  1.00  0.00     0.230 C 
ENDROOT
BRANCH   1   2
ATOM      2  N   UNL     1     -22.471  27.951  -8.290  1.00  0.00    -0.350 N 
ATOM      3  H   UNL     1     -22.091  27.460  -7.447  1.00  0.00     0.345 HD
ATOM      4  H   UNL     1     -23.034  27.250  -8.824  1.00  0.00     0.345 HD
ATOM      5  H   UNL     1     -23.090  28.734  -7.977  1.00  0.00     0.345 HD
ENDBRANCH   1   2
BRANCH   1   6
ATOM      6  C   UNL     1     -21.738  28.330 -10.578  1.00  0.00     0.099 C 
ATOM      7  O   UNL     1     -21.761  29.346 -11.322  1.00  0.00    -0.544 OA
ATOM      8  O   UNL     1     -22.063  27.087 -11.106  1.00  0.00    -0.544 OA
ENDBRANCH   1   6
BRANCH   1   9
ATOM      9  C   UNL     1     -20.027  27.721  -8.820  1.00  0.00     0.047 C 
ATOM     10  C   UNL     1     -19.027  27.854  -9.981  1.00  0.00     0.014 C 
ATOM     11  C   UNL     1     -20.265  26.229  -8.530  1.00  0.00     0.014 C 
ENDBRANCH   1   9
TORSDOF 3
ENDMDL
MODEL 3
REMARK VINA RESULT:    -4.381      2.296      2.900
REMARK INTER + INTRA:          -4.906
REMARK INTER:                  -4.874
REMARK INTRA:                  -0.032
REMARK UNBOUND:                 0.115
REMARK SMILES CC(C)[C@H]([NH3+])C(=O)[O-]
REMARK SMILES IDX 4 1 5 2 6 6 7 7 8 8 2 9 1 10 3 11
REMARK H PARENT 5 3 5 4 5 5
REMARK Flexibility Score: inf
ROOT
ATOM      1  C   UNL     1     -20.394  26.528 -10.050  1.00  0.00     0.230 C 
ENDROOT
BRANCH   1   2
ATOM      2  N   UNL     1     -21.237  25.405  -9.613  1.00  0.00    -0.350 N 
ATOM      3  H   UNL     1     -22.232  25.715  -9.521  1.00  0.00     0.345 HD
ATOM      4  H   UNL     1     -20.933  25.069  -8.671  1.00  0.00     0.345 HD
ATOM      5  H   UNL     1     -21.189  24.615 -10.299  1.00  0.00     0.345 HD
ENDBRANCH   1   2
BRANCH   1   6
ATOM      6  C   UNL     1     -20.039  27.382  -8.857  1.00  0.00     0.099 C 
ATOM      7  O   UNL     1     -19.075  28.191  -8.917  1.00  0.00    -0.544 OA
ATOM      8  O   UNL     1     -20.770  27.274  -7.682  1.00  0.00    -0.544 OA
ENDBRANCH   1   6
BRANCH   1   9
ATOM      9  C   UNL     1     -21.088  27.379 -11.156  1.00  0.00     0.047 C 
ATOM     10  C   UNL     1     -22.219  28.251 -10.585  1.00  0.00     0.014 C 
ATOM     11  C   UNL     1     -21.657  26.485 -12.272  1.00  0.00     0.014 C 
ENDBRANCH   1   9
TORSDOF 3
ENDMDL
MODEL 4
REMARK VINA RESULT:    -4.332      2.282      3.196
REMARK INTER + INTRA:          -4.850
REMARK INTER:                  -4.950
REMARK INTRA:                   0.100
REMARK UNBOUND:                 0.115
REMARK SMILES CC(C)[C@H]([NH3+])C(=O)[O-]
REMARK SMILES IDX 4 1 5 2 6 6 7 7 8 8 2 9 1 10 3 11
REMARK H PARENT 5 3 5 4 5 5
REMARK Flexibility Score: inf
ROOT
ATOM      1  C   UNL     1     -21.581  27.773  -9.977  1.00  0.00     0.230 C 
ENDROOT
BRANCH   1   2
ATOM      2  N   UNL     1     -22.151  28.652  -8.944  1.00  0.00    -0.350 N 
ATOM      3  H   UNL     1     -21.613  29.548  -8.895  1.00  0.00     0.345 HD
ATOM      4  H   UNL     1     -22.078  28.200  -8.004  1.00  0.00     0.345 HD
ATOM      5  H   UNL     1     -23.154  28.868  -9.152  1.00  0.00     0.345 HD
ENDBRANCH   1   2
BRANCH   1   6
ATOM      6  C   UNL     1     -21.345  26.401  -9.394  1.00  0.00     0.099 C 
ATOM      7  O   UNL     1     -21.286  26.240  -8.146  1.00  0.00    -0.544 OA
ATOM      8  O   UNL     1     -21.182  25.308 -10.235  1.00  0.00    -0.544 OA
ENDBRANCH   1   6
BRANCH   1   9
ATOM      9  C   UNL     1     -20.265  28.357 -10.574  1.00  0.00     0.047 C 
ATOM     10  C   UNL     1     -20.103  28.002 -12.062  1.00  0.00     0.014 C 
ATOM     11  C   UNL     1     -19.032  27.857  -9.801  1.00  0.00     0.014 C 
ENDBRANCH   1   9
TORSDOF 3
ENDMDL
MODEL 5
REMARK VINA RESULT:    -4.294      2.064      3.174
REMARK INTER + INTRA:          -4.807
REMARK INTER:                  -4.753
REMARK INTRA:                  -0.054
REMARK UNBOUND:                 0.115
REMARK SMILES CC(C)[C@H]([NH3+])C(=O)[O-]
REMARK SMILES IDX 4 1 5 2 6 6 7 7 8 8 2 9 1 10 3 11
REMARK H PARENT 5 3 5 4 5 5
REMARK Flexibility Score: inf
ROOT
ATOM      1  C   UNL     1     -20.355  27.783  -9.271  1.00  0.00     0.230 C 
ENDROOT
BRANCH   1   2
ATOM      2  N   UNL     1     -18.956  27.794  -8.816  1.00  0.00    -0.350 N 
ATOM      3  H   UNL     1     -18.905  28.096  -7.815  1.00  0.00     0.345 HD
ATOM      4  H   UNL     1     -18.400  28.483  -9.372  1.00  0.00     0.345 HD
ATOM      5  H   UNL     1     -18.529  26.843  -8.907  1.00  0.00     0.345 HD
ENDBRANCH   1   2
BRANCH   1   6
ATOM      6  C   UNL     1     -20.998  26.473  -8.885  1.00  0.00     0.099 C 
ATOM      7  O   UNL     1     -21.642  26.372  -7.807  1.00  0.00    -0.544 OA
ATOM      8  O   UNL     1     -20.874  25.367  -9.715  1.00  0.00    -0.544 OA
ENDBRANCH   1   6
BRANCH   1   9
ATOM      9  C   UNL     1     -20.469  28.026 -10.806  1.00  0.00     0.047 C 
ATOM     10  C   UNL     1     -19.204  28.689 -11.378  1.00  0.00     0.014 C 
ATOM     11  C   UNL     1     -21.690  28.900 -11.143  1.00  0.00     0.014 C 
ENDBRANCH   1   9
TORSDOF 3
ENDMDL
MODEL 6
REMARK VINA RESULT:    -4.289      1.876      2.413
REMARK INTER + INTRA:          -4.802
REMARK INTER:                  -4.898
REMARK INTRA:                   0.096
REMARK UNBOUND:                 0.115
REMARK SMILES CC(C)[C@H]([NH3+])C(=O)[O-]
REMARK SMILES IDX 4 1 5 2 6 6 7 7 8 8 2 9 1 10 3 11
REMARK H PARENT 5 3 5 4 5 5
REMARK Flexibility Score: inf
ROOT
ATOM      1  C   UNL     1     -20.301  27.839 -10.023  1.00  0.00     0.230 C 
ENDROOT
BRANCH   1   2
ATOM      2  N   UNL     1     -18.927  27.619  -9.547  1.00  0.00    -0.350 N 
ATOM      3  H   UNL     1     -18.552  28.493  -9.111  1.00  0.00     0.345 HD
ATOM      4  H   UNL     1     -18.300  27.382 -10.349  1.00  0.00     0.345 HD
ATOM      5  H   UNL     1     -18.898  26.847  -8.840  1.00  0.00     0.345 HD
ENDBRANCH   1   2
BRANCH   1   6
ATOM      6  C   UNL     1     -21.246  27.841  -8.846  1.00  0.00     0.099 C 
ATOM      7  O   UNL     1     -20.886  27.360  -7.738  1.00  0.00    -0.544 OA
ATOM      8  O   UNL     1     -22.523  28.369  -8.980  1.00  0.00    -0.544 OA
ENDBRANCH   1   6
BRANCH   1   9
ATOM      9  C   UNL     1     -20.729  26.773 -11.077  1.00  0.00     0.047 C 
ATOM     10  C   UNL     1     -21.755  27.334 -12.077  1.00  0.00     0.014 C 
ATOM     11  C   UNL     1     -21.320  25.525 -10.398  1.00  0.00     0.014 C 
ENDBRANCH   1   9
TORSDOF 3
ENDMDL
MODEL 7
REMARK VINA RESULT:    -4.010      2.120      2.445
REMARK INTER + INTRA:          -4.481
REMARK INTER:                  -4.593
REMARK INTRA:                   0.112
REMARK UNBOUND:                 0.115
REMARK SMILES CC(C)[C@H]([NH3+])C(=O)[O-]
REMARK SMILES IDX 4 1 5 2 6 6 7 7 8 8 2 9 1 10 3 11
REMARK H PARENT 5 3 5 4 5 5
REMARK Flexibility Score: inf
ROOT
ATOM      1  C   UNL     1     -20.106  27.369 -10.280  1.00  0.00     0.230 C 
ENDROOT
BRANCH   1   2
ATOM      2  N   UNL     1     -19.520  28.383 -11.169  1.00  0.00    -0.350 N 
ATOM      3  H   UNL     1     -18.697  27.983 -11.678  1.00  0.00     0.345 HD
ATOM      4  H   UNL     1     -19.170  29.195 -10.611  1.00  0.00     0.345 HD
ATOM      5  H   UNL     1     -20.224  28.715 -11.868  1.00  0.00     0.345 HD
ENDBRANCH   1   2
BRANCH   1   6
ATOM      6  C   UNL     1     -21.078  26.518 -11.061  1.00  0.00     0.099 C 
ATOM      7  O   UNL     1     -21.480  26.889 -12.196  1.00  0.00    -0.544 OA
ATOM      8  O   UNL     1     -21.542  25.323 -10.527  1.00  0.00    -0.544 OA
ENDBRANCH   1   6
BRANCH   1   9
ATOM      9  C   UNL     1     -20.802  28.013  -9.042  1.00  0.00     0.047 C 
ATOM     10  C   UNL     1     -20.888  27.035  -7.858  1.00  0.00     0.014 C 
ATOM     11  C   UNL     1     -22.218  28.503  -9.392  1.00  0.00     0.014 C 
ENDBRANCH   1   9
TORSDOF 3
ENDMDL
MODEL 8
REMARK VINA RESULT:    -3.996      1.794      2.361
REMARK INTER + INTRA:          -4.466
REMARK INTER:                  -4.561
REMARK INTRA:                   0.095
REMARK UNBOUND:                 0.115
REMARK SMILES CC(C)[C@H]([NH3+])C(=O)[O-]
REMARK SMILES IDX 4 1 5 2 6 6 7 7 8 8 2 9 1 10 3 11
REMARK H PARENT 5 3 5 4 5 5
REMARK Flexibility Score: inf
ROOT
ATOM      1  C   UNL     1     -21.099  28.226 -10.110  1.00  0.00     0.230 C 
ENDROOT
BRANCH   1   2
ATOM      2  N   UNL     1     -22.001  28.832 -11.100  1.00  0.00    -0.350 N 
ATOM      3  H   UNL     1     -22.976  28.478 -10.964  1.00  0.00     0.345 HD
ATOM      4  H   UNL     1     -21.710  28.563 -12.068  1.00  0.00     0.345 HD
ATOM      5  H   UNL     1     -22.003  29.875 -11.012  1.00  0.00     0.345 HD
ENDBRANCH   1   2
BRANCH   1   6
ATOM      6  C   UNL     1     -19.734  28.035 -10.725  1.00  0.00     0.099 C 
ATOM      7  O   UNL     1     -18.727  27.836  -9.994  1.00  0.00    -0.544 OA
ATOM      8  O   UNL     1     -19.580  28.086 -12.104  1.00  0.00    -0.544 OA
ENDBRANCH   1   6
BRANCH   1   9
ATOM      9  C   UNL     1     -21.656  26.877  -9.564  1.00  0.00     0.047 C 
ATOM     10  C   UNL     1     -21.153  26.581  -8.141  1.00  0.00     0.014 C 
ATOM     11  C   UNL     1     -21.277  25.704 -10.486  1.00  0.00     0.014 C 
ENDBRANCH   1   9
TORSDOF 3
ENDMDL
MODEL 9
REMARK VINA RESULT:    -3.984      2.277      3.286
REMARK INTER + INTRA:          -4.452
REMARK INTER:                  -4.569
REMARK INTRA:                   0.118
REMARK UNBOUND:                 0.115
REMARK SMILES CC(C)[C@H]([NH3+])C(=O)[O-]
REMARK SMILES IDX 4 1 5 2 6 6 7 7 8 8 2 9 1 10 3 11
REMARK H PARENT 5 3 5 4 5 5
REMARK Flexibility Score: inf
ROOT
ATOM      1  C   UNL     1     -21.012  26.919 -10.394  1.00  0.00     0.230 C 
ENDROOT
BRANCH   1   2
ATOM      2  N   UNL     1     -21.834  27.128 -11.595  1.00  0.00    -0.350 N 
ATOM      3  H   UNL     1     -21.412  27.875 -12.195  1.00  0.00     0.345 HD
ATOM      4  H   UNL     1     -22.791  27.453 -11.328  1.00  0.00     0.345 HD
ATOM      5  H   UNL     1     -21.907  26.245 -12.153  1.00  0.00     0.345 HD
ENDBRANCH   1   2
BRANCH   1   6
ATOM      6  C   UNL     1     -21.717  27.507  -9.195  1.00  0.00     0.099 C 
ATOM      7  O   UNL     1     -21.844  26.835  -8.137  1.00  0.00    -0.544 OA
ATOM      8  O   UNL     1     -22.238  28.793  -9.257  1.00  0.00    -0.544 OA
ENDBRANCH   1   6
BRANCH   1   9
ATOM      9  C   UNL     1     -19.585  27.526 -10.552  1.00  0.00     0.047 C 
ATOM     10  C   UNL     1     -19.052  28.094  -9.225  1.00  0.00     0.014 C 
ATOM     11  C   UNL     1     -19.567  28.636 -11.618  1.00  0.00     0.014 C 
ENDBRANCH   1   9
TORSDOF 3
ENDMDL
