MODEL 1
REMARK VINA RESULT:    -5.139      0.000      0.000
REMARK INTER + INTRA:         -11.372
REMARK INTER:                  -9.646
REMARK INTRA:                  -1.726
REMARK UNBOUND:                -1.726
REMARK SMILES CCCCCCCCC=CCCCCCCCC(=O)[O-]
REMARK SMILES IDX 10 1 9 2 11 3 12 4 13 5 14 6 15 7 16 8 17 9 18 10 19 11
REMARK SMILES IDX 20 12 8 13 7 14 6 15 5 16 4 17 3 18 2 19 1 20
REMARK H PARENT
REMARK Flexibility Score: inf
ROOT
ATOM      1  C   UNL     1      -5.056  21.780  47.538  1.00  0.00    -0.031 C 
ATOM      2  C   UNL     1      -5.431  22.803  48.329  1.00  0.00    -0.031 C 
ENDROOT
BRANCH   1   3
ATOM      3  C   UNL     1      -3.650  21.235  47.453  1.00  0.00     0.027 C 
BRANCH   3   4
ATOM      4  C   UNL     1      -3.352  20.221  48.576  1.00  0.00     0.004 C 
BRANCH   4   5
ATOM      5  C   UNL     1      -4.373  19.073  48.663  1.00  0.00     0.000 C 
BRANCH   5   6
ATOM      6  C   UNL     1      -4.041  17.904  47.723  1.00  0.00     0.000 C 
BRANCH   6   7
ATOM      7  C   UNL     1      -2.798  17.122  48.181  1.00  0.00     0.000 C 
BRANCH   7   8
ATOM      8  C   UNL     1      -1.763  16.899  47.054  1.00  0.00     0.006 C 
BRANCH   8   9
ATOM      9  C   UNL     1      -2.145  17.594  45.737  1.00  0.00     0.053 C 
BRANCH   9  10
ATOM     10  C   UNL     1      -2.457  16.617  44.642  1.00  0.00     0.041 C 
ATOM     11  O   UNL     1      -3.632  16.195  44.477  1.00  0.00    -0.550 OA
ATOM     12  O   UNL     1      -1.435  16.137  43.829  1.00  0.00    -0.550 OA
ENDBRANCH   9  10
ENDBRANCH   8   9
ENDBRANCH   7   8
ENDBRANCH   6   7
ENDBRANCH   5   6
ENDBRANCH   4   5
ENDBRANCH   3   4
ENDBRANCH   1   3
BRANCH   2  13
ATOM     13  C   UNL     1      -4.485  23.623  49.171  1.00  0.00     0.027 C 
BRANCH  13  14
ATOM     14  C   UNL     1      -5.238  24.281  50.334  1.00  0.00     0.004 C 
BRANCH  14  15
ATOM     15  C   UNL     1      -5.496  25.769  50.054  1.00  0.00     0.000 C 
BRANCH  15  16
ATOM     16  C   UNL     1      -6.888  26.023  49.451  1.00  0.00     0.000 C 
BRANCH  16  17
ATOM     17  C   UNL     1      -6.939  27.294  48.589  1.00  0.00    -0.000 C 
BRANCH  17  18
ATOM     18  C   UNL     1      -5.730  27.368  47.646  1.00  0.00    -0.000 C 
BRANCH  18  19
ATOM     19  C   UNL     1      -5.983  26.656  46.308  1.00  0.00    -0.003 C 
ATOM     20  C   UNL     1      -4.933  25.592  45.994  1.00  0.00     0.004 C 
ENDBRANCH  18  19
ENDBRANCH  17  18
ENDBRANCH  16  17
ENDBRANCH  15  16
ENDBRANCH  14  15
ENDBRANCH  13  14
ENDBRANCH   2  13
TORSDOF 15
ENDMDL
MODEL 2
REMARK VINA RESULT:    -5.117      2.567      4.380
REMARK INTER + INTRA:         -11.330
REMARK INTER:                  -8.814
REMARK INTRA:                  -2.516
REMARK UNBOUND:                -1.726
REMARK SMILES CCCCCCCCC=CCCCCCCCC(=O)[O-]
REMARK SMILES IDX 10 1 9 2 11 3 12 4 13 5 14 6 15 7 16 8 17 9 18 10 19 11
REMARK SMILES IDX 20 12 8 13 7 14 6 15 5 16 4 17 3 18 2 19 1 20
REMARK H PARENT
REMARK Flexibility Score: inf
ROOT
ATOM      1  C   UNL     1      -5.153  23.858  49.845  1.00  0.00    -0.031 C 
ATOM      2  C   UNL     1      -4.676  24.278  51.032  1.00  0.00    -0.031 C 
ENDROOT
BRANCH   1   3
ATOM      3  C   UNL     1      -4.827  24.501  48.517  1.00  0.00     0.027 C 
BRANCH   3   4
ATOM      4  C   UNL     1      -4.777  23.472  47.370  1.00  0.00     0.004 C 
BRANCH   4   5
ATOM      5  C   UNL     1      -5.341  22.091  47.750  1.00  0.00     0.000 C 
BRANCH   5   6
ATOM      6  C   UNL     1      -4.384  20.939  47.408  1.00  0.00     0.000 C 
BRANCH   6   7
ATOM      7  C   UNL     1      -3.994  20.117  48.648  1.00  0.00     0.000 C 
BRANCH   7   8
ATOM      8  C   UNL     1      -4.313  18.610  48.510  1.00  0.00     0.006 C 
BRANCH   8   9
ATOM      9  C   UNL     1      -3.083  17.710  48.716  1.00  0.00     0.053 C 
BRANCH   9  10
ATOM     10  C   UNL     1      -2.662  17.019  47.453  1.00  0.00     0.041 C 
ATOM     11  O   UNL     1      -3.142  17.365  46.343  1.00  0.00    -0.550 OA
ATOM     12  O   UNL     1      -1.766  15.956  47.512  1.00  0.00    -0.550 OA
ENDBRANCH   9  10
ENDBRANCH   8   9
ENDBRANCH   7   8
ENDBRANCH   6   7
ENDBRANCH   5   6
ENDBRANCH   4   5
ENDBRANCH   3   4
ENDBRANCH   1   3
BRANCH   2  13
ATOM     13  C   UNL     1      -3.829  25.511  51.226  1.00  0.00     0.027 C 
BRANCH  13  14
ATOM     14  C   UNL     1      -3.175  25.498  52.613  1.00  0.00     0.004 C 
BRANCH  14  15
ATOM     15  C   UNL     1      -1.668  25.214  52.511  1.00  0.00     0.000 C 
BRANCH  15  16
ATOM     16  C   UNL     1      -1.352  23.709  52.487  1.00  0.00     0.000 C 
BRANCH  16  17
ATOM     17  C   UNL     1      -0.593  23.281  51.221  1.00  0.00    -0.000 C 
BRANCH  17  18
ATOM     18  C   UNL     1      -1.547  22.661  50.191  1.00  0.00    -0.000 C 
BRANCH  18  19
ATOM     19  C   UNL     1      -1.291  23.176  48.766  1.00  0.00    -0.003 C 
ATOM     20  C   UNL     1      -1.122  24.694  48.706  1.00  0.00     0.004 C 
ENDBRANCH  18  19
ENDBRANCH  17  18
ENDBRANCH  16  17
ENDBRANCH  15  16
ENDBRANCH  14  15
ENDBRANCH  13  14
ENDBRANCH   2  13
TORSDOF 15
ENDMDL
MODEL 3
REMARK VINA RESULT:    -5.111      2.152      3.165
REMARK INTER + INTRA:         -11.318
REMARK INTER:                  -9.244
REMARK INTRA:                  -2.074
REMARK UNBOUND:                -1.726
REMARK SMILES CCCCCCCCC=CCCCCCCCC(=O)[O-]
REMARK SMILES IDX 10 1 9 2 11 3 12 4 13 5 14 6 15 7 16 8 17 9 18 10 19 11
REMARK SMILES IDX 20 12 8 13 7 14 6 15 5 16 4 17 3 18 2 19 1 20
REMARK H PARENT
REMARK Flexibility Score: inf
ROOT
ATOM      1  C   UNL     1      -5.187  24.089  49.943  1.00  0.00    -0.031 C 
ATOM      2  C   UNL     1      -4.627  24.202  51.162  1.00  0.00    -0.031 C 
ENDROOT
BRANCH   1   3
ATOM      3  C   UNL     1      -4.485  23.534  48.727  1.00  0.00     0.027 C 
BRANCH   3   4
ATOM      4  C   UNL     1      -5.394  22.595  47.909  1.00  0.00     0.004 C 
BRANCH   4   5
ATOM      5  C   UNL     1      -4.859  21.156  47.796  1.00  0.00     0.000 C 
BRANCH   5   6
ATOM      6  C   UNL     1      -3.727  20.859  48.792  1.00  0.00     0.000 C 
BRANCH   6   7
ATOM      7  C   UNL     1      -3.388  19.360  48.859  1.00  0.00     0.000 C 
BRANCH   7   8
ATOM      8  C   UNL     1      -4.181  18.505  47.844  1.00  0.00     0.006 C 
BRANCH   8   9
ATOM      9  C   UNL     1      -3.292  17.540  47.041  1.00  0.00     0.053 C 
BRANCH   9  10
ATOM     10  C   UNL     1      -2.953  18.071  45.679  1.00  0.00     0.041 C 
ATOM     11  O   UNL     1      -2.583  17.291  44.763  1.00  0.00    -0.550 OA
ATOM     12  O   UNL     1      -3.005  19.440  45.437  1.00  0.00    -0.550 OA
ENDBRANCH   9  10
ENDBRANCH   8   9
ENDBRANCH   7   8
ENDBRANCH   6   7
ENDBRANCH   5   6
ENDBRANCH   4   5
ENDBRANCH   3   4
ENDBRANCH   1   3
BRANCH   2  13
ATOM     13  C   UNL     1      -3.185  23.885  51.473  1.00  0.00     0.027 C 
BRANCH  13  14
ATOM     14  C   UNL     1      -2.570  24.991  52.340  1.00  0.00     0.004 C 
BRANCH  14  15
ATOM     15  C   UNL     1      -3.639  25.995  52.797  1.00  0.00     0.000 C 
BRANCH  15  16
ATOM     16  C   UNL     1      -3.314  27.437  52.372  1.00  0.00     0.000 C 
BRANCH  16  17
ATOM     17  C   UNL     1      -3.837  27.774  50.966  1.00  0.00    -0.000 C 
BRANCH  17  18
ATOM     18  C   UNL     1      -2.688  27.829  49.950  1.00  0.00    -0.000 C 
BRANCH  18  19
ATOM     19  C   UNL     1      -2.944  26.941  48.723  1.00  0.00    -0.003 C 
ATOM     20  C   UNL     1      -4.317  27.179  48.096  1.00  0.00     0.004 C 
ENDBRANCH  18  19
ENDBRANCH  17  18
ENDBRANCH  16  17
ENDBRANCH  15  16
ENDBRANCH  14  15
ENDBRANCH  13  14
ENDBRANCH   2  13
TORSDOF 15
ENDMDL
MODEL 4
REMARK VINA RESULT:    -5.109      2.439      4.112
REMARK INTER + INTRA:         -11.315
REMARK INTER:                  -9.460
REMARK INTRA:                  -1.855
REMARK UNBOUND:                -1.726
REMARK SMILES CCCCCCCCC=CCCCCCCCC(=O)[O-]
REMARK SMILES IDX 10 1 9 2 11 3 12 4 13 5 14 6 15 7 16 8 17 9 18 10 19 11
REMARK SMILES IDX 20 12 8 13 7 14 6 15 5 16 4 17 3 18 2 19 1 20
REMARK H PARENT
REMARK Flexibility Score: inf
ROOT
ATOM      1  C   UNL     1      -4.593  23.245  47.517  1.00  0.00    -0.031 C 
ATOM      2  C   UNL     1      -4.810  24.445  48.089  1.00  0.00    -0.031 C 
ENDROOT
BRANCH   1   3
ATOM      3  C   UNL     1      -5.498  22.047  47.675  1.00  0.00     0.027 C 
BRANCH   3   4
ATOM      4  C   UNL     1      -4.702  20.737  47.849  1.00  0.00     0.004 C 
BRANCH   4   5
ATOM      5  C   UNL     1      -3.363  20.918  48.586  1.00  0.00     0.000 C 
BRANCH   5   6
ATOM      6  C   UNL     1      -2.791  19.596  49.120  1.00  0.00     0.000 C 
BRANCH   6   7
ATOM      7  C   UNL     1      -3.774  18.425  48.953  1.00  0.00     0.000 C 
BRANCH   7   8
ATOM      8  C   UNL     1      -3.193  17.246  48.139  1.00  0.00     0.006 C 
BRANCH   8   9
ATOM      9  C   UNL     1      -3.208  17.494  46.622  1.00  0.00     0.053 C 
BRANCH   9  10
ATOM     10  C   UNL     1      -1.848  17.350  46.003  1.00  0.00     0.041 C 
ATOM     11  O   UNL     1      -1.697  16.700  44.937  1.00  0.00    -0.550 OA
ATOM     12  O   UNL     1      -0.739  17.902  46.635  1.00  0.00    -0.550 OA
ENDBRANCH   9  10
ENDBRANCH   8   9
ENDBRANCH   7   8
ENDBRANCH   6   7
ENDBRANCH   5   6
ENDBRANCH   4   5
ENDBRANCH   3   4
ENDBRANCH   1   3
BRANCH   2  13
ATOM     13  C   UNL     1      -5.931  24.741  49.054  1.00  0.00     0.027 C 
BRANCH  13  14
ATOM     14  C   UNL     1      -5.367  25.127  50.427  1.00  0.00     0.004 C 
BRANCH  14  15
ATOM     15  C   UNL     1      -4.690  23.926  51.104  1.00  0.00     0.000 C 
BRANCH  15  16
ATOM     16  C   UNL     1      -3.279  24.257  51.619  1.00  0.00     0.000 C 
BRANCH  16  17
ATOM     17  C   UNL     1      -2.176  23.873  50.619  1.00  0.00    -0.000 C 
BRANCH  17  18
ATOM     18  C   UNL     1      -0.984  23.226  51.337  1.00  0.00    -0.000 C 
BRANCH  18  19
ATOM     19  C   UNL     1      -0.896  23.633  52.816  1.00  0.00    -0.003 C 
ATOM     20  C   UNL     1      -0.555  22.461  53.735  1.00  0.00     0.004 C 
ENDBRANCH  18  19
ENDBRANCH  17  18
ENDBRANCH  16  17
ENDBRANCH  15  16
ENDBRANCH  14  15
ENDBRANCH  13  14
ENDBRANCH   2  13
TORSDOF 15
ENDMDL
MODEL 5
REMARK VINA RESULT:    -5.026      1.131      2.006
REMARK INTER + INTRA:         -11.158
REMARK INTER:                  -9.409
REMARK INTRA:                  -1.749
REMARK UNBOUND:                -1.726
REMARK SMILES CCCCCCCCC=CCCCCCCCC(=O)[O-]
REMARK SMILES IDX 10 1 9 2 11 3 12 4 13 5 14 6 15 7 16 8 17 9 18 10 19 11
REMARK SMILES IDX 20 12 8 13 7 14 6 15 5 16 4 17 3 18 2 19 1 20
REMARK H PARENT
REMARK Flexibility Score: inf
ROOT
ATOM      1  C   UNL     1      -5.117  21.855  47.706  1.00  0.00    -0.031 C 
ATOM      2  C   UNL     1      -4.959  22.793  48.658  1.00  0.00    -0.031 C 
ENDROOT
BRANCH   1   3
ATOM      3  C   UNL     1      -4.032  21.415  46.750  1.00  0.00     0.027 C 
BRANCH   3   4
ATOM      4  C   UNL     1      -3.541  19.985  47.048  1.00  0.00     0.004 C 
BRANCH   4   5
ATOM      5  C   UNL     1      -4.313  19.287  48.182  1.00  0.00     0.000 C 
BRANCH   5   6
ATOM      6  C   UNL     1      -3.954  17.799  48.322  1.00  0.00     0.000 C 
BRANCH   6   7
ATOM      7  C   UNL     1      -2.438  17.573  48.440  1.00  0.00     0.000 C 
BRANCH   7   8
ATOM      8  C   UNL     1      -1.892  16.530  47.437  1.00  0.00     0.006 C 
BRANCH   8   9
ATOM      9  C   UNL     1      -1.455  17.150  46.100  1.00  0.00     0.053 C 
BRANCH   9  10
ATOM     10  C   UNL     1      -2.294  16.681  44.948  1.00  0.00     0.041 C 
ATOM     11  O   UNL     1      -1.777  16.028  44.004  1.00  0.00    -0.550 OA
ATOM     12  O   UNL     1      -3.645  17.007  44.898  1.00  0.00    -0.550 OA
ENDBRANCH   9  10
ENDBRANCH   8   9
ENDBRANCH   7   8
ENDBRANCH   6   7
ENDBRANCH   5   6
ENDBRANCH   4   5
ENDBRANCH   3   4
ENDBRANCH   1   3
BRANCH   2  13
ATOM     13  C   UNL     1      -3.710  23.617  48.847  1.00  0.00     0.027 C 
BRANCH  13  14
ATOM     14  C   UNL     1      -3.265  23.585  50.315  1.00  0.00     0.004 C 
BRANCH  14  15
ATOM     15  C   UNL     1      -4.329  24.208  51.230  1.00  0.00     0.000 C 
BRANCH  15  16
ATOM     16  C   UNL     1      -3.808  25.441  51.987  1.00  0.00     0.000 C 
BRANCH  16  17
ATOM     17  C   UNL     1      -4.442  26.752  51.495  1.00  0.00    -0.000 C 
BRANCH  17  18
ATOM     18  C   UNL     1      -5.539  26.476  50.457  1.00  0.00    -0.000 C 
BRANCH  18  19
ATOM     19  C   UNL     1      -5.221  27.094  49.087  1.00  0.00    -0.003 C 
ATOM     20  C   UNL     1      -5.969  26.414  47.941  1.00  0.00     0.004 C 
ENDBRANCH  18  19
ENDBRANCH  17  18
ENDBRANCH  16  17
ENDBRANCH  15  16
ENDBRANCH  14  15
ENDBRANCH  13  14
ENDBRANCH   2  13
TORSDOF 15
ENDMDL
MODEL 6
REMARK VINA RESULT:    -5.021      1.453      2.646
REMARK INTER + INTRA:         -11.149
REMARK INTER:                  -9.776
REMARK INTRA:                  -1.373
REMARK UNBOUND:                -1.726
REMARK SMILES CCCCCCCCC=CCCCCCCCC(=O)[O-]
REMARK SMILES IDX 10 1 9 2 11 3 12 4 13 5 14 6 15 7 16 8 17 9 18 10 19 11
REMARK SMILES IDX 20 12 8 13 7 14 6 15 5 16 4 17 3 18 2 19 1 20
REMARK H PARENT
REMARK Flexibility Score: inf
ROOT
ATOM      1  C   UNL     1      -4.948  21.745  47.862  1.00  0.00    -0.031 C 
ATOM      2  C   UNL     1      -5.528  22.957  47.952  1.00  0.00    -0.031 C 
ENDROOT
BRANCH   1   3
ATOM      3  C   UNL     1      -3.973  21.187  48.872  1.00  0.00     0.027 C 
BRANCH   3   4
ATOM      4  C   UNL     1      -3.274  19.911  48.360  1.00  0.00     0.004 C 
BRANCH   4   5
ATOM      5  C   UNL     1      -4.164  18.656  48.401  1.00  0.00     0.000 C 
BRANCH   5   6
ATOM      6  C   UNL     1      -3.404  17.398  48.849  1.00  0.00     0.000 C 
BRANCH   6   7
ATOM      7  C   UNL     1      -1.952  17.382  48.343  1.00  0.00     0.000 C 
BRANCH   7   8
ATOM      8  C   UNL     1      -1.697  16.327  47.242  1.00  0.00     0.006 C 
BRANCH   8   9
ATOM      9  C   UNL     1      -1.416  16.948  45.864  1.00  0.00     0.053 C 
BRANCH   9  10
ATOM     10  C   UNL     1      -2.668  17.169  45.068  1.00  0.00     0.041 C 
ATOM     11  O   UNL     1      -3.224  18.298  45.051  1.00  0.00    -0.550 OA
ATOM     12  O   UNL     1      -3.246  16.108  44.378  1.00  0.00    -0.550 OA
ENDBRANCH   9  10
ENDBRANCH   8   9
ENDBRANCH   7   8
ENDBRANCH   6   7
ENDBRANCH   5   6
ENDBRANCH   4   5
ENDBRANCH   3   4
ENDBRANCH   1   3
BRANCH   2  13
ATOM     13  C   UNL     1      -5.215  23.977  49.018  1.00  0.00     0.027 C 
BRANCH  13  14
ATOM     14  C   UNL     1      -6.470  24.790  49.365  1.00  0.00     0.004 C 
BRANCH  14  15
ATOM     15  C   UNL     1      -6.211  26.296  49.217  1.00  0.00     0.000 C 
BRANCH  15  16
ATOM     16  C   UNL     1      -5.542  26.905  50.461  1.00  0.00     0.000 C 
BRANCH  16  17
ATOM     17  C   UNL     1      -4.022  27.067  50.299  1.00  0.00    -0.000 C 
BRANCH  17  18
ATOM     18  C   UNL     1      -3.286  26.674  51.588  1.00  0.00    -0.000 C 
BRANCH  18  19
ATOM     19  C   UNL     1      -3.760  25.325  52.148  1.00  0.00    -0.003 C 
ATOM     20  C   UNL     1      -2.772  24.191  51.880  1.00  0.00     0.004 C 
ENDBRANCH  18  19
ENDBRANCH  17  18
ENDBRANCH  16  17
ENDBRANCH  15  16
ENDBRANCH  14  15
ENDBRANCH  13  14
ENDBRANCH   2  13
TORSDOF 15
ENDMDL
MODEL 7
REMARK VINA RESULT:    -5.006      2.015      3.527
REMARK INTER + INTRA:         -11.122
REMARK INTER:                  -8.340
REMARK INTRA:                  -2.782
REMARK UNBOUND:                -1.726
REMARK SMILES CCCCCCCCC=CCCCCCCCC(=O)[O-]
REMARK SMILES IDX 10 1 9 2 11 3 12 4 13 5 14 6 15 7 16 8 17 9 18 10 19 11
REMARK SMILES IDX 20 12 8 13 7 14 6 15 5 16 4 17 3 18 2 19 1 20
REMARK H PARENT
REMARK Flexibility Score: inf
ROOT
ATOM      1  C   UNL     1      -2.586  24.501  47.236  1.00  0.00    -0.031 C 
ATOM      2  C   UNL     1      -1.717  24.431  48.262  1.00  0.00    -0.031 C 
ENDROOT
BRANCH   1   3
ATOM      3  C   UNL     1      -3.281  23.309  46.621  1.00  0.00     0.027 C 
BRANCH   3   4
ATOM      4  C   UNL     1      -4.783  23.271  46.968  1.00  0.00     0.004 C 
BRANCH   4   5
ATOM      5  C   UNL     1      -5.187  22.072  47.845  1.00  0.00     0.000 C 
BRANCH   5   6
ATOM      6  C   UNL     1      -4.533  20.756  47.396  1.00  0.00     0.000 C 
BRANCH   6   7
ATOM      7  C   UNL     1      -4.008  19.930  48.583  1.00  0.00     0.000 C 
BRANCH   7   8
ATOM      8  C   UNL     1      -4.427  18.443  48.529  1.00  0.00     0.006 C 
BRANCH   8   9
ATOM      9  C   UNL     1      -3.233  17.476  48.595  1.00  0.00     0.053 C 
BRANCH   9  10
ATOM     10  C   UNL     1      -2.734  17.087  47.234  1.00  0.00     0.041 C 
ATOM     11  O   UNL     1      -1.592  16.576  47.094  1.00  0.00    -0.550 OA
ATOM     12  O   UNL     1      -3.518  17.334  46.112  1.00  0.00    -0.550 OA
ENDBRANCH   9  10
ENDBRANCH   8   9
ENDBRANCH   7   8
ENDBRANCH   6   7
ENDBRANCH   5   6
ENDBRANCH   4   5
ENDBRANCH   3   4
ENDBRANCH   1   3
BRANCH   2  13
ATOM     13  C   UNL     1      -1.232  23.145  48.885  1.00  0.00     0.027 C 
BRANCH  13  14
ATOM     14  C   UNL     1      -2.125  22.754  50.070  1.00  0.00     0.004 C 
BRANCH  14  15
ATOM     15  C   UNL     1      -1.958  23.738  51.237  1.00  0.00     0.000 C 
BRANCH  15  16
ATOM     16  C   UNL     1      -3.214  24.595  51.471  1.00  0.00     0.000 C 
BRANCH  16  17
ATOM     17  C   UNL     1      -4.513  23.853  51.121  1.00  0.00    -0.000 C 
BRANCH  17  18
ATOM     18  C   UNL     1      -5.464  24.756  50.322  1.00  0.00    -0.000 C 
BRANCH  18  19
ATOM     19  C   UNL     1      -4.799  26.069  49.884  1.00  0.00    -0.003 C 
ATOM     20  C   UNL     1      -5.345  26.597  48.558  1.00  0.00     0.004 C 
ENDBRANCH  18  19
ENDBRANCH  17  18
ENDBRANCH  16  17
ENDBRANCH  15  16
ENDBRANCH  14  15
ENDBRANCH  13  14
ENDBRANCH   2  13
TORSDOF 15
ENDMDL
MODEL 8
REMARK VINA RESULT:    -4.979      4.245      7.611
REMARK INTER + INTRA:         -11.071
REMARK INTER:                  -8.143
REMARK INTRA:                  -2.928
REMARK UNBOUND:                -1.726
REMARK SMILES CCCCCCCCC=CCCCCCCCC(=O)[O-]
REMARK SMILES IDX 10 1 9 2 11 3 12 4 13 5 14 6 15 7 16 8 17 9 18 10 19 11
REMARK SMILES IDX 20 12 8 13 7 14 6 15 5 16 4 17 3 18 2 19 1 20
REMARK H PARENT
REMARK Flexibility Score: inf
ROOT
ATOM      1  C   UNL     1      -1.648  24.232  48.133  1.00  0.00    -0.031 C 
ATOM      2  C   UNL     1      -2.613  24.221  47.194  1.00  0.00    -0.031 C 
ENDROOT
BRANCH   1   3
ATOM      3  C   UNL     1      -1.026  22.994  48.734  1.00  0.00     0.027 C 
BRANCH   3   4
ATOM      4  C   UNL     1      -1.419  22.807  50.213  1.00  0.00     0.004 C 
BRANCH   4   5
ATOM      5  C   UNL     1      -1.574  24.128  50.986  1.00  0.00     0.000 C 
BRANCH   5   6
ATOM      6  C   UNL     1      -2.818  24.150  51.889  1.00  0.00     0.000 C 
BRANCH   6   7
ATOM      7  C   UNL     1      -4.104  23.811  51.118  1.00  0.00     0.000 C 
BRANCH   7   8
ATOM      8  C   UNL     1      -4.614  24.972  50.233  1.00  0.00     0.006 C 
BRANCH   8   9
ATOM      9  C   UNL     1      -6.125  24.903  49.957  1.00  0.00     0.053 C 
BRANCH   9  10
ATOM     10  C   UNL     1      -6.617  26.076  49.162  1.00  0.00     0.041 C 
ATOM     11  O   UNL     1      -6.226  26.257  47.980  1.00  0.00    -0.550 OA
ATOM     12  O   UNL     1      -7.478  26.998  49.749  1.00  0.00    -0.550 OA
ENDBRANCH   9  10
ENDBRANCH   8   9
ENDBRANCH   7   8
ENDBRANCH   6   7
ENDBRANCH   5   6
ENDBRANCH   4   5
ENDBRANCH   3   4
ENDBRANCH   1   3
BRANCH   2  13
ATOM     13  C   UNL     1      -3.288  22.975  46.677  1.00  0.00     0.027 C 
BRANCH  13  14
ATOM     14  C   UNL     1      -4.767  22.960  47.084  1.00  0.00     0.004 C 
BRANCH  14  15
ATOM     15  C   UNL     1      -5.176  21.585  47.633  1.00  0.00     0.000 C 
BRANCH  15  16
ATOM     16  C   UNL     1      -4.122  20.993  48.583  1.00  0.00     0.000 C 
BRANCH  16  17
ATOM     17  C   UNL     1      -4.064  19.458  48.524  1.00  0.00    -0.000 C 
BRANCH  17  18
ATOM     18  C   UNL     1      -2.623  18.969  48.321  1.00  0.00    -0.000 C 
BRANCH  18  19
ATOM     19  C   UNL     1      -2.044  19.393  46.963  1.00  0.00    -0.003 C 
ATOM     20  C   UNL     1      -2.895  18.926  45.783  1.00  0.00     0.004 C 
ENDBRANCH  18  19
ENDBRANCH  17  18
ENDBRANCH  16  17
ENDBRANCH  15  16
ENDBRANCH  14  15
ENDBRANCH  13  14
ENDBRANCH   2  13
TORSDOF 15
ENDMDL
MODEL 9
REMARK VINA RESULT:    -4.965      4.470      8.353
REMARK INTER + INTRA:         -11.044
REMARK INTER:                  -8.432
REMARK INTRA:                  -2.613
REMARK UNBOUND:                -1.726
REMARK SMILES CCCCCCCCC=CCCCCCCCC(=O)[O-]
REMARK SMILES IDX 10 1 9 2 11 3 12 4 13 5 14 6 15 7 16 8 17 9 18 10 19 11
REMARK SMILES IDX 20 12 8 13 7 14 6 15 5 16 4 17 3 18 2 19 1 20
REMARK H PARENT
REMARK Flexibility Score: inf
ROOT
ATOM      1  C   UNL     1      -1.945  22.965  46.975  1.00  0.00    -0.031 C 
ATOM      2  C   UNL     1      -2.338  21.677  46.980  1.00  0.00    -0.031 C 
ENDROOT
BRANCH   1   3
ATOM      3  C   UNL     1      -2.769  24.108  46.433  1.00  0.00     0.027 C 
BRANCH   3   4
ATOM      4  C   UNL     1      -3.534  24.853  47.546  1.00  0.00     0.004 C 
BRANCH   4   5
ATOM      5  C   UNL     1      -5.041  24.541  47.579  1.00  0.00     0.000 C 
BRANCH   5   6
ATOM      6  C   UNL     1      -5.520  24.053  48.955  1.00  0.00     0.000 C 
BRANCH   6   7
ATOM      7  C   UNL     1      -4.362  23.554  49.834  1.00  0.00     0.000 C 
BRANCH   7   8
ATOM      8  C   UNL     1      -4.418  24.085  51.285  1.00  0.00     0.006 C 
BRANCH   8   9
ATOM      9  C   UNL     1      -3.411  25.215  51.554  1.00  0.00     0.053 C 
BRANCH   9  10
ATOM     10  C   UNL     1      -4.078  26.550  51.716  1.00  0.00     0.041 C 
ATOM     11  O   UNL     1      -5.021  26.890  50.956  1.00  0.00    -0.550 OA
ATOM     12  O   UNL     1      -3.622  27.438  52.684  1.00  0.00    -0.550 OA
ENDBRANCH   9  10
ENDBRANCH   8   9
ENDBRANCH   7   8
ENDBRANCH   6   7
ENDBRANCH   5   6
ENDBRANCH   4   5
ENDBRANCH   3   4
ENDBRANCH   1   3
BRANCH   2  13
ATOM     13  C   UNL     1      -3.614  21.171  46.354  1.00  0.00     0.027 C 
BRANCH  13  14
ATOM     14  C   UNL     1      -4.638  20.815  47.440  1.00  0.00     0.004 C 
BRANCH  14  15
ATOM     15  C   UNL     1      -3.990  19.992  48.563  1.00  0.00     0.000 C 
BRANCH  15  16
ATOM     16  C   UNL     1      -4.350  18.499  48.483  1.00  0.00     0.000 C 
BRANCH  16  17
ATOM     17  C   UNL     1      -3.116  17.585  48.553  1.00  0.00    -0.000 C 
BRANCH  17  18
ATOM     18  C   UNL     1      -2.751  17.046  47.163  1.00  0.00    -0.000 C 
BRANCH  18  19
ATOM     19  C   UNL     1      -1.687  17.903  46.461  1.00  0.00    -0.003 C 
ATOM     20  C   UNL     1      -0.626  18.437  47.422  1.00  0.00     0.004 C 
ENDBRANCH  18  19
ENDBRANCH  17  18
ENDBRANCH  16  17
ENDBRANCH  15  16
ENDBRANCH  14  15
ENDBRANCH  13  14
ENDBRANCH   2  13
TORSDOF 15
ENDMDL
