MODEL 1
REMARK VINA RESULT:    -4.731      0.000      0.000
REMARK INTER + INTRA:          -5.228
REMARK INTER:                  -5.008
REMARK INTRA:                  -0.220
REMARK UNBOUND:                -0.220
REMARK SMILES CC1=CC[C@H]2[C@H]3[C@@H]1[C@]2(C)CC[C@H]3C(C)C
REMARK SMILES IDX 1 1 2 2 3 3 4 4 5 5 6 6 7 7 8 8 10 9 11 10 12 11 9 12 13 13
REMARK SMILES IDX 14 14 15 15
REMARK H PARENT
REMARK Flexibility Score: inf
ROOT
ATOM      1  C   UNL     1      24.883  60.921  16.897  1.00  0.00     0.039 C 
ATOM      2  C   UNL     1      24.203  62.257  16.863  1.00  0.00    -0.073 C 
ATOM      3  C   UNL     1      24.873  63.378  16.487  1.00  0.00    -0.027 C 
ATOM      4  C   UNL     1      24.133  64.720  16.498  1.00  0.00     0.031 C 
ATOM      5  C   UNL     1      22.646  64.519  16.934  1.00  0.00     0.003 C 
ATOM      6  C   UNL     1      22.087  63.307  16.141  1.00  0.00     0.004 C 
ATOM      7  C   UNL     1      22.726  62.419  17.233  1.00  0.00     0.024 C 
ATOM      8  C   UNL     1      22.537  63.618  18.191  1.00  0.00    -0.022 C 
ATOM      9  C   UNL     1      21.075  63.612  18.734  1.00  0.00     0.008 C 
ATOM     10  C   UNL     1      20.019  63.746  17.604  1.00  0.00     0.005 C 
ATOM     11  C   UNL     1      20.535  63.207  16.234  1.00  0.00    -0.005 C 
ATOM     12  C   UNL     1      23.553  63.809  19.343  1.00  0.00     0.012 C 
ENDROOT
BRANCH  11  13
ATOM     13  C   UNL     1      19.827  63.827  14.991  1.00  0.00    -0.014 C 
ATOM     14  C   UNL     1      18.584  64.668  15.327  1.00  0.00     0.007 C 
ATOM     15  C   UNL     1      19.480  62.756  13.946  1.00  0.00     0.007 C 
ENDBRANCH  11  13
TORSDOF 1
ENDMDL
MODEL 2
REMARK VINA RESULT:    -4.611      1.341      4.139
REMARK INTER + INTRA:          -5.100
REMARK INTER:                  -4.739
REMARK INTRA:                  -0.362
REMARK UNBOUND:                -0.220
REMARK SMILES CC1=CC[C@H]2[C@H]3[C@@H]1[C@]2(C)CC[C@H]3C(C)C
REMARK SMILES IDX 1 1 2 2 3 3 4 4 5 5 6 6 7 7 8 8 10 9 11 10 12 11 9 12 13 13
REMARK SMILES IDX 14 14 15 15
REMARK H PARENT
REMARK Flexibility Score: inf
ROOT
ATOM      1  C   UNL     1      19.136  62.831  13.891  1.00  0.00     0.039 C 
ATOM      2  C   UNL     1      20.128  63.625  14.687  1.00  0.00    -0.073 C 
ATOM      3  C   UNL     1      20.462  64.893  14.333  1.00  0.00    -0.027 C 
ATOM      4  C   UNL     1      21.502  65.645  15.170  1.00  0.00     0.031 C 
ATOM      5  C   UNL     1      21.981  64.761  16.366  1.00  0.00     0.003 C 
ATOM      6  C   UNL     1      20.720  64.147  17.028  1.00  0.00     0.004 C 
ATOM      7  C   UNL     1      20.798  63.052  15.940  1.00  0.00     0.024 C 
ATOM      8  C   UNL     1      22.321  63.318  15.909  1.00  0.00    -0.022 C 
ATOM      9  C   UNL     1      23.001  62.524  17.066  1.00  0.00     0.008 C 
ATOM     10  C   UNL     1      22.482  62.947  18.466  1.00  0.00     0.005 C 
ATOM     11  C   UNL     1      21.030  63.518  18.419  1.00  0.00    -0.005 C 
ATOM     12  C   UNL     1      23.078  63.111  14.576  1.00  0.00     0.012 C 
ENDROOT
BRANCH  11  13
ATOM     13  C   UNL     1      20.680  64.480  19.595  1.00  0.00    -0.014 C 
ATOM     14  C   UNL     1      20.040  65.808  19.154  1.00  0.00     0.007 C 
ATOM     15  C   UNL     1      21.899  64.746  20.490  1.00  0.00     0.007 C 
ENDBRANCH  11  13
TORSDOF 1
ENDMDL
MODEL 3
REMARK VINA RESULT:    -4.579      1.387      4.727
REMARK INTER + INTRA:          -5.067
REMARK INTER:                  -4.771
REMARK INTRA:                  -0.296
REMARK UNBOUND:                -0.220
REMARK SMILES CC1=CC[C@H]2[C@H]3[C@@H]1[C@]2(C)CC[C@H]3C(C)C
REMARK SMILES IDX 1 1 2 2 3 3 4 4 5 5 6 6 7 7 8 8 10 9 11 10 12 11 9 12 13 13
REMARK SMILES IDX 14 14 15 15
REMARK H PARENT
REMARK Flexibility Score: inf
ROOT
ATOM      1  C   UNL     1      21.107  66.119  12.856  1.00  0.00     0.039 C 
ATOM      2  C   UNL     1      20.659  64.966  13.704  1.00  0.00    -0.073 C 
ATOM      3  C   UNL     1      20.312  63.776  13.148  1.00  0.00    -0.027 C 
ATOM      4  C   UNL     1      19.836  62.644  14.064  1.00  0.00     0.031 C 
ATOM      5  C   UNL     1      19.879  63.097  15.559  1.00  0.00     0.003 C 
ATOM      6  C   UNL     1      21.246  63.792  15.796  1.00  0.00     0.004 C 
ATOM      7  C   UNL     1      20.586  65.070  15.230  1.00  0.00     0.024 C 
ATOM      8  C   UNL     1      19.246  64.499  15.748  1.00  0.00    -0.022 C 
ATOM      9  C   UNL     1      19.101  64.834  17.264  1.00  0.00     0.008 C 
ATOM     10  C   UNL     1      20.235  64.213  18.123  1.00  0.00     0.005 C 
ATOM     11  C   UNL     1      21.550  63.993  17.311  1.00  0.00    -0.005 C 
ATOM     12  C   UNL     1      17.950  64.848  14.979  1.00  0.00     0.012 C 
ENDROOT
BRANCH  11  13
ATOM     13  C   UNL     1      22.479  62.879  17.881  1.00  0.00    -0.014 C 
ATOM     14  C   UNL     1      23.267  63.294  19.135  1.00  0.00     0.007 C 
ATOM     15  C   UNL     1      23.433  62.334  16.808  1.00  0.00     0.007 C 
ENDBRANCH  11  13
TORSDOF 1
ENDMDL
MODEL 4
REMARK VINA RESULT:    -4.521      1.379      2.009
REMARK INTER + INTRA:          -5.005
REMARK INTER:                  -4.621
REMARK INTRA:                  -0.384
REMARK UNBOUND:                -0.220
REMARK SMILES CC1=CC[C@H]2[C@H]3[C@@H]1[C@]2(C)CC[C@H]3C(C)C
REMARK SMILES IDX 1 1 2 2 3 3 4 4 5 5 6 6 7 7 8 8 10 9 11 10 12 11 9 12 13 13
REMARK SMILES IDX 14 14 15 15
REMARK H PARENT
REMARK Flexibility Score: inf
ROOT
ATOM      1  C   UNL     1      24.436  61.041  16.954  1.00  0.00     0.039 C 
ATOM      2  C   UNL     1      23.874  62.135  16.096  1.00  0.00    -0.073 C 
ATOM      3  C   UNL     1      24.289  62.308  14.814  1.00  0.00    -0.027 C 
ATOM      4  C   UNL     1      23.699  63.461  13.995  1.00  0.00     0.031 C 
ATOM      5  C   UNL     1      22.639  64.241  14.837  1.00  0.00     0.003 C 
ATOM      6  C   UNL     1      21.719  63.193  15.516  1.00  0.00     0.004 C 
ATOM      7  C   UNL     1      22.800  63.095  16.616  1.00  0.00     0.024 C 
ATOM      8  C   UNL     1      23.163  64.556  16.262  1.00  0.00    -0.022 C 
ATOM      9  C   UNL     1      22.185  65.519  17.004  1.00  0.00     0.008 C 
ATOM     10  C   UNL     1      20.704  65.294  16.598  1.00  0.00     0.005 C 
ATOM     11  C   UNL     1      20.430  63.836  16.112  1.00  0.00    -0.005 C 
ATOM     12  C   UNL     1      24.630  65.015  16.439  1.00  0.00     0.012 C 
ENDROOT
BRANCH  11  13
ATOM     13  C   UNL     1      19.204  63.696  15.159  1.00  0.00    -0.014 C 
ATOM     14  C   UNL     1      19.459  62.807  13.929  1.00  0.00     0.007 C 
ATOM     15  C   UNL     1      18.666  65.067  14.724  1.00  0.00     0.007 C 
ENDBRANCH  11  13
TORSDOF 1
ENDMDL
MODEL 5
REMARK VINA RESULT:    -4.472      1.264      2.902
REMARK INTER + INTRA:          -4.953
REMARK INTER:                  -4.547
REMARK INTRA:                  -0.407
REMARK UNBOUND:                -0.220
REMARK SMILES CC1=CC[C@H]2[C@H]3[C@@H]1[C@]2(C)CC[C@H]3C(C)C
REMARK SMILES IDX 1 1 2 2 3 3 4 4 5 5 6 6 7 7 8 8 10 9 11 10 12 11 9 12 13 13
REMARK SMILES IDX 14 14 15 15
REMARK H PARENT
REMARK Flexibility Score: inf
ROOT
ATOM      1  C   UNL     1      24.104  66.125  18.495  1.00  0.00     0.039 C 
ATOM      2  C   UNL     1      23.255  64.945  18.124  1.00  0.00    -0.073 C 
ATOM      3  C   UNL     1      22.506  64.297  19.053  1.00  0.00    -0.027 C 
ATOM      4  C   UNL     1      21.680  63.081  18.619  1.00  0.00     0.031 C 
ATOM      5  C   UNL     1      21.845  62.829  17.086  1.00  0.00     0.003 C 
ATOM      6  C   UNL     1      21.687  64.196  16.369  1.00  0.00     0.004 C 
ATOM      7  C   UNL     1      23.182  64.427  16.685  1.00  0.00     0.024 C 
ATOM      8  C   UNL     1      23.333  62.889  16.655  1.00  0.00    -0.022 C 
ATOM      9  C   UNL     1      23.493  62.420  15.176  1.00  0.00     0.008 C 
ATOM     10  C   UNL     1      22.266  62.786  14.298  1.00  0.00     0.005 C 
ATOM     11  C   UNL     1      21.500  64.038  14.830  1.00  0.00    -0.005 C 
ATOM     12  C   UNL     1      24.404  62.235  17.560  1.00  0.00     0.012 C 
ENDROOT
BRANCH  11  13
ATOM     13  C   UNL     1      20.002  64.102  14.406  1.00  0.00    -0.014 C 
ATOM     14  C   UNL     1      19.057  64.625  15.503  1.00  0.00     0.007 C 
ATOM     15  C   UNL     1      19.505  62.750  13.875  1.00  0.00     0.007 C 
ENDBRANCH  11  13
TORSDOF 1
ENDMDL
MODEL 6
REMARK VINA RESULT:    -4.226      1.963      4.321
REMARK INTER + INTRA:          -4.693
REMARK INTER:                  -4.390
REMARK INTRA:                  -0.303
REMARK UNBOUND:                -0.220
REMARK SMILES CC1=CC[C@H]2[C@H]3[C@@H]1[C@]2(C)CC[C@H]3C(C)C
REMARK SMILES IDX 1 1 2 2 3 3 4 4 5 5 6 6 7 7 8 8 10 9 11 10 12 11 9 12 13 13
REMARK SMILES IDX 14 14 15 15
REMARK H PARENT
REMARK Flexibility Score: inf
ROOT
ATOM      1  C   UNL     1      20.262  63.106  18.006  1.00  0.00     0.039 C 
ATOM      2  C   UNL     1      21.629  63.461  17.504  1.00  0.00    -0.073 C 
ATOM      3  C   UNL     1      22.621  63.826  18.358  1.00  0.00    -0.027 C 
ATOM      4  C   UNL     1      23.989  64.205  17.784  1.00  0.00     0.031 C 
ATOM      5  C   UNL     1      23.989  64.054  16.228  1.00  0.00     0.003 C 
ATOM      6  C   UNL     1      23.334  62.688  15.892  1.00  0.00     0.004 C 
ATOM      7  C   UNL     1      21.976  63.416  16.013  1.00  0.00     0.024 C 
ATOM      8  C   UNL     1      22.730  64.699  15.593  1.00  0.00    -0.022 C 
ATOM      9  C   UNL     1      22.857  64.732  14.039  1.00  0.00     0.008 C 
ATOM     10  C   UNL     1      23.651  63.520  13.480  1.00  0.00     0.005 C 
ATOM     11  C   UNL     1      23.569  62.269  14.410  1.00  0.00    -0.005 C 
ATOM     12  C   UNL     1      22.229  66.059  16.135  1.00  0.00     0.012 C 
ENDROOT
BRANCH  11  13
ATOM     13  C   UNL     1      24.760  61.276  14.257  1.00  0.00    -0.014 C 
ATOM     14  C   UNL     1      24.553  60.204  13.173  1.00  0.00     0.007 C 
ATOM     15  C   UNL     1      25.122  60.617  15.596  1.00  0.00     0.007 C 
ENDBRANCH  11  13
TORSDOF 1
ENDMDL
MODEL 7
REMARK VINA RESULT:    -4.183      1.706      3.520
REMARK INTER + INTRA:          -4.648
REMARK INTER:                  -4.414
REMARK INTRA:                  -0.234
REMARK UNBOUND:                -0.220
REMARK SMILES CC1=CC[C@H]2[C@H]3[C@@H]1[C@]2(C)CC[C@H]3C(C)C
REMARK SMILES IDX 1 1 2 2 3 3 4 4 5 5 6 6 7 7 8 8 10 9 11 10 12 11 9 12 13 13
REMARK SMILES IDX 14 14 15 15
REMARK H PARENT
REMARK Flexibility Score: inf
ROOT
ATOM      1  C   UNL     1      24.964  60.758  14.336  1.00  0.00     0.039 C 
ATOM      2  C   UNL     1      24.108  61.932  14.707  1.00  0.00    -0.073 C 
ATOM      3  C   UNL     1      23.144  62.393  13.869  1.00  0.00    -0.027 C 
ATOM      4  C   UNL     1      22.320  63.614  14.291  1.00  0.00     0.031 C 
ATOM      5  C   UNL     1      22.754  64.101  15.711  1.00  0.00     0.003 C 
ATOM      6  C   UNL     1      22.850  62.850  16.624  1.00  0.00     0.004 C 
ATOM      7  C   UNL     1      24.271  62.655  16.048  1.00  0.00     0.024 C 
ATOM      8  C   UNL     1      24.297  64.187  15.837  1.00  0.00    -0.022 C 
ATOM      9  C   UNL     1      24.699  64.878  17.176  1.00  0.00     0.008 C 
ATOM     10  C   UNL     1      23.698  64.583  18.324  1.00  0.00     0.005 C 
ATOM     11  C   UNL     1      22.949  63.227  18.133  1.00  0.00    -0.005 C 
ATOM     12  C   UNL     1      25.117  64.754  14.654  1.00  0.00     0.012 C 
ENDROOT
BRANCH  11  13
ATOM     13  C   UNL     1      21.570  63.145  18.855  1.00  0.00    -0.014 C 
ATOM     14  C   UNL     1      20.359  63.148  17.906  1.00  0.00     0.007 C 
ATOM     15  C   UNL     1      21.421  64.248  19.914  1.00  0.00     0.007 C 
ENDBRANCH  11  13
TORSDOF 1
ENDMDL
MODEL 8
REMARK VINA RESULT:    -4.155      1.877      3.812
REMARK INTER + INTRA:          -4.618
REMARK INTER:                  -4.211
REMARK INTRA:                  -0.407
REMARK UNBOUND:                -0.220
REMARK SMILES CC1=CC[C@H]2[C@H]3[C@@H]1[C@]2(C)CC[C@H]3C(C)C
REMARK SMILES IDX 1 1 2 2 3 3 4 4 5 5 6 6 7 7 8 8 10 9 11 10 12 11 9 12 13 13
REMARK SMILES IDX 14 14 15 15
REMARK H PARENT
REMARK Flexibility Score: inf
ROOT
ATOM      1  C   UNL     1      22.302  65.890  19.264  1.00  0.00     0.039 C 
ATOM      2  C   UNL     1      21.453  64.960  18.449  1.00  0.00    -0.073 C 
ATOM      3  C   UNL     1      21.133  63.720  18.901  1.00  0.00    -0.027 C 
ATOM      4  C   UNL     1      20.286  62.805  18.010  1.00  0.00     0.031 C 
ATOM      5  C   UNL     1      19.900  63.538  16.685  1.00  0.00     0.003 C 
ATOM      6  C   UNL     1      19.408  64.960  17.064  1.00  0.00     0.004 C 
ATOM      7  C   UNL     1      20.899  65.369  17.081  1.00  0.00     0.024 C 
ATOM      8  C   UNL     1      21.126  64.242  16.046  1.00  0.00    -0.022 C 
ATOM      9  C   UNL     1      20.770  64.776  14.625  1.00  0.00     0.008 C 
ATOM     10  C   UNL     1      19.288  65.223  14.509  1.00  0.00     0.005 C 
ATOM     11  C   UNL     1      18.688  65.670  15.879  1.00  0.00    -0.005 C 
ATOM     12  C   UNL     1      22.491  63.514  16.038  1.00  0.00     0.012 C 
ENDROOT
BRANCH  11  13
ATOM     13  C   UNL     1      17.137  65.551  15.971  1.00  0.00    -0.014 C 
ATOM     14  C   UNL     1      16.622  65.056  17.334  1.00  0.00     0.007 C 
ATOM     15  C   UNL     1      16.569  64.683  14.839  1.00  0.00     0.007 C 
ENDBRANCH  11  13
TORSDOF 1
ENDMDL
MODEL 9
REMARK VINA RESULT:    -2.630      2.203      5.152
REMARK INTER + INTRA:          -3.004
REMARK INTER:                  -2.846
REMARK INTRA:                  -0.158
REMARK UNBOUND:                -0.220
REMARK SMILES CC1=CC[C@H]2[C@H]3[C@@H]1[C@]2(C)CC[C@H]3C(C)C
REMARK SMILES IDX 1 1 2 2 3 3 4 4 5 5 6 6 7 7 8 8 10 9 11 10 12 11 9 12 13 13
REMARK SMILES IDX 14 14 15 15
REMARK H PARENT
REMARK Flexibility Score: inf
ROOT
ATOM      1  C   UNL     1      19.239  62.776  14.000  1.00  0.00     0.039 C 
ATOM      2  C   UNL     1      20.543  63.125  14.652  1.00  0.00    -0.073 C 
ATOM      3  C   UNL     1      20.608  63.443  15.972  1.00  0.00    -0.027 C 
ATOM      4  C   UNL     1      21.965  63.819  16.576  1.00  0.00     0.031 C 
ATOM      5  C   UNL     1      23.089  63.720  15.495  1.00  0.00     0.003 C 
ATOM      6  C   UNL     1      22.896  62.378  14.741  1.00  0.00     0.004 C 
ATOM      7  C   UNL     1      21.860  63.125  13.871  1.00  0.00     0.024 C 
ATOM      8  C   UNL     1      22.668  64.409  14.171  1.00  0.00    -0.022 C 
ATOM      9  C   UNL     1      23.877  64.492  13.189  1.00  0.00     0.008 C 
ATOM     10  C   UNL     1      24.845  63.288  13.332  1.00  0.00     0.005 C 
ATOM     11  C   UNL     1      24.134  62.007  13.871  1.00  0.00    -0.005 C 
ATOM     12  C   UNL     1      21.912  65.757  14.232  1.00  0.00     0.012 C 
ENDROOT
BRANCH  11  13
ATOM     13  C   UNL     1      25.081  60.999  14.589  1.00  0.00    -0.014 C 
ATOM     14  C   UNL     1      25.125  59.603  13.943  1.00  0.00     0.007 C 
ATOM     15  C   UNL     1      24.755  60.884  16.085  1.00  0.00     0.007 C 
ENDBRANCH  11  13
TORSDOF 1
ENDMDL
