MODEL 1
REMARK VINA RESULT:    -3.842      0.000      0.000
REMARK INTER + INTRA:          -5.221
REMARK INTER:                  -4.965
REMARK INTRA:                  -0.256
REMARK UNBOUND:                -0.256
REMARK SMILES CCO[C@@H]1O[C@@H](CO)[C@H](O)[C@H](O)[C@H]1O
REMARK SMILES IDX 4 1 13 2 11 3 9 4 6 5 5 6 3 7 2 8 1 9 14 10 12 12 7 14 8 15
REMARK SMILES IDX 10 17
REMARK H PARENT 14 11 12 13 8 16 10 18
REMARK Flexibility Score: inf
ROOT
ATOM      1  C   UNL     1      14.153  43.328  19.641  1.00  0.00     0.281 C 
ATOM      2  C   UNL     1      12.977  43.122  18.666  1.00  0.00     0.202 C 
ATOM      3  C   UNL     1      12.599  41.630  18.574  1.00  0.00     0.179 C 
ATOM      4  C   UNL     1      12.426  41.035  19.980  1.00  0.00     0.177 C 
ATOM      5  C   UNL     1      13.664  41.367  20.851  1.00  0.00     0.178 C 
ATOM      6  O   UNL     1      13.858  42.773  20.917  1.00  0.00    -0.341 OA
ENDROOT
BRANCH   1   7
ATOM      7  O   UNL     1      15.343  42.783  19.094  1.00  0.00    -0.350 OA
BRANCH   7   8
ATOM      8  C   UNL     1      16.341  43.778  19.002  1.00  0.00     0.160 C 
ATOM      9  C   UNL     1      15.675  45.143  18.921  1.00  0.00     0.035 C 
ENDBRANCH   7   8
ENDBRANCH   1   7
BRANCH   2  10
ATOM     10  O   UNL     1      11.875  43.869  19.113  1.00  0.00    -0.385 OA
ATOM     11  H   UNL     1      12.024  44.806  18.819  1.00  0.00     0.211 HD
ENDBRANCH   2  10
BRANCH   3  12
ATOM     12  O   UNL     1      13.590  40.918  17.875  1.00  0.00    -0.387 OA
ATOM     13  H   UNL     1      13.811  40.120  18.423  1.00  0.00     0.211 HD
ENDBRANCH   3  12
BRANCH   5  14
ATOM     14  C   UNL     1      13.496  40.851  22.291  1.00  0.00     0.191 C 
BRANCH  14  15
ATOM     15  O   UNL     1      12.150  40.872  22.686  1.00  0.00    -0.394 OA
ATOM     16  H   UNL     1      12.022  40.103  23.302  1.00  0.00     0.210 HD
ENDBRANCH  14  15
ENDBRANCH   5  14
BRANCH   4  17
ATOM     17  O   UNL     1      12.255  39.643  19.870  1.00  0.00    -0.387 OA
ATOM     18  H   UNL     1      12.963  39.215  20.418  1.00  0.00     0.211 HD
ENDBRANCH   4  17
TORSDOF 7
ENDMDL
MODEL 2
REMARK VINA RESULT:    -3.781      1.102      1.165
REMARK INTER + INTRA:          -5.142
REMARK INTER:                  -4.855
REMARK INTRA:                  -0.287
REMARK UNBOUND:                -0.256
REMARK SMILES CCO[C@@H]1O[C@@H](CO)[C@H](O)[C@H](O)[C@H]1O
REMARK SMILES IDX 4 1 13 2 11 3 9 4 6 5 5 6 3 7 2 8 1 9 14 10 12 12 7 14 8 15
REMARK SMILES IDX 10 17
REMARK H PARENT 14 11 12 13 8 16 10 18
REMARK Flexibility Score: inf
ROOT
ATOM      1  C   UNL     1      13.664  43.267  20.229  1.00  0.00     0.281 C 
ATOM      2  C   UNL     1      13.066  43.397  18.815  1.00  0.00     0.202 C 
ATOM      3  C   UNL     1      12.783  42.005  18.212  1.00  0.00     0.179 C 
ATOM      4  C   UNL     1      11.991  41.143  19.209  1.00  0.00     0.177 C 
ATOM      5  C   UNL     1      12.691  41.153  20.590  1.00  0.00     0.178 C 
ATOM      6  O   UNL     1      12.823  42.485  21.068  1.00  0.00    -0.341 OA
ENDROOT
BRANCH   1   7
ATOM      7  O   UNL     1      14.977  42.734  20.158  1.00  0.00    -0.350 OA
BRANCH   7   8
ATOM      8  C   UNL     1      15.933  43.763  20.304  1.00  0.00     0.160 C 
ATOM      9  C   UNL     1      16.377  44.227  18.926  1.00  0.00     0.035 C 
ENDBRANCH   7   8
ENDBRANCH   1   7
BRANCH   2  10
ATOM     10  O   UNL     1      11.875  44.138  18.887  1.00  0.00    -0.385 OA
ATOM     11  H   UNL     1      11.584  44.306  17.953  1.00  0.00     0.211 HD
ENDBRANCH   2  10
BRANCH   3  12
ATOM     12  O   UNL     1      13.989  41.363  17.882  1.00  0.00    -0.387 OA
ATOM     13  H   UNL     1      14.554  42.034  17.416  1.00  0.00     0.211 HD
ENDBRANCH   3  12
BRANCH   5  14
ATOM     14  C   UNL     1      11.889  40.360  21.636  1.00  0.00     0.191 C 
BRANCH  14  15
ATOM     15  O   UNL     1      11.972  38.979  21.402  1.00  0.00    -0.394 OA
ATOM     16  H   UNL     1      12.812  38.826  20.895  1.00  0.00     0.210 HD
ENDBRANCH  14  15
ENDBRANCH   5  14
BRANCH   4  17
ATOM     17  O   UNL     1      11.899  39.833  18.707  1.00  0.00    -0.387 OA
ATOM     18  H   UNL     1      11.951  39.891  17.717  1.00  0.00     0.211 HD
ENDBRANCH   4  17
TORSDOF 7
ENDMDL
MODEL 3
REMARK VINA RESULT:    -3.613      1.435      4.193
REMARK INTER + INTRA:          -4.925
REMARK INTER:                  -4.530
REMARK INTRA:                  -0.394
REMARK UNBOUND:                -0.256
REMARK SMILES CCO[C@@H]1O[C@@H](CO)[C@H](O)[C@H](O)[C@H]1O
REMARK SMILES IDX 4 1 13 2 11 3 9 4 6 5 5 6 3 7 2 8 1 9 14 10 12 12 7 14 8 15
REMARK SMILES IDX 10 17
REMARK H PARENT 14 11 12 13 8 16 10 18
REMARK Flexibility Score: inf
ROOT
ATOM      1  C   UNL     1      13.103  41.481  20.106  1.00  0.00     0.281 C 
ATOM      2  C   UNL     1      12.812  41.632  18.600  1.00  0.00     0.202 C 
ATOM      3  C   UNL     1      12.947  43.105  18.163  1.00  0.00     0.179 C 
ATOM      4  C   UNL     1      14.280  43.688  18.659  1.00  0.00     0.177 C 
ATOM      5  C   UNL     1      14.447  43.414  20.174  1.00  0.00     0.178 C 
ATOM      6  O   UNL     1      14.378  42.019  20.434  1.00  0.00    -0.341 OA
ENDROOT
BRANCH   1   7
ATOM      7  O   UNL     1      12.068  42.082  20.867  1.00  0.00    -0.350 OA
BRANCH   7   8
ATOM      8  C   UNL     1      11.880  41.383  22.079  1.00  0.00     0.160 C 
ATOM      9  C   UNL     1      11.878  39.889  21.795  1.00  0.00     0.035 C 
ENDBRANCH   7   8
ENDBRANCH   1   7
BRANCH   2  10
ATOM     10  O   UNL     1      13.713  40.833  17.877  1.00  0.00    -0.385 OA
ATOM     11  H   UNL     1      14.442  40.583  18.503  1.00  0.00     0.211 HD
ENDBRANCH   2  10
BRANCH   3  12
ATOM     12  O   UNL     1      11.878  43.864  18.670  1.00  0.00    -0.387 OA
ATOM     13  H   UNL     1      11.944  44.765  18.257  1.00  0.00     0.211 HD
ENDBRANCH   3  12
BRANCH   5  14
ATOM     14  C   UNL     1      15.804  43.919  20.694  1.00  0.00     0.191 C 
BRANCH  14  15
ATOM     15  O   UNL     1      16.803  43.789  19.718  1.00  0.00    -0.394 OA
ATOM     16  H   UNL     1      16.366  43.948  18.840  1.00  0.00     0.210 HD
ENDBRANCH  14  15
ENDBRANCH   5  14
BRANCH   4  17
ATOM     17  O   UNL     1      14.299  45.070  18.399  1.00  0.00    -0.387 OA
ATOM     18  H   UNL     1      13.404  45.317  18.046  1.00  0.00     0.211 HD
ENDBRANCH   4  17
TORSDOF 7
ENDMDL
MODEL 4
REMARK VINA RESULT:    -2.126      1.520      4.175
REMARK INTER + INTRA:          -3.003
REMARK INTER:                  -3.154
REMARK INTRA:                   0.151
REMARK UNBOUND:                -0.256
REMARK SMILES CCO[C@@H]1O[C@@H](CO)[C@H](O)[C@H](O)[C@H]1O
REMARK SMILES IDX 4 1 13 2 11 3 9 4 6 5 5 6 3 7 2 8 1 9 14 10 12 12 7 14 8 15
REMARK SMILES IDX 10 17
REMARK H PARENT 14 11 12 13 8 16 10 18
REMARK Flexibility Score: inf
ROOT
ATOM      1  C   UNL     1      12.962  42.173  18.312  1.00  0.00     0.281 C 
ATOM      2  C   UNL     1      12.243  42.938  19.440  1.00  0.00     0.202 C 
ATOM      3  C   UNL     1      13.158  43.079  20.674  1.00  0.00     0.179 C 
ATOM      4  C   UNL     1      14.535  43.619  20.258  1.00  0.00     0.177 C 
ATOM      5  C   UNL     1      15.102  42.777  19.087  1.00  0.00     0.178 C 
ATOM      6  O   UNL     1      14.201  42.791  17.988  1.00  0.00    -0.341 OA
ENDROOT
BRANCH   1   7
ATOM      7  O   UNL     1      13.132  40.813  18.676  1.00  0.00    -0.350 OA
BRANCH   7   8
ATOM      8  C   UNL     1      11.876  40.185  18.828  1.00  0.00     0.160 C 
ATOM      9  C   UNL     1      11.876  39.381  20.119  1.00  0.00     0.035 C 
ENDBRANCH   7   8
ENDBRANCH   1   7
BRANCH   2  10
ATOM     10  O   UNL     1      11.875  44.209  18.969  1.00  0.00    -0.385 OA
ATOM     11  H   UNL     1      11.202  44.569  19.606  1.00  0.00     0.211 HD
ENDBRANCH   2  10
BRANCH   3  12
ATOM     12  O   UNL     1      13.308  41.836  21.314  1.00  0.00    -0.387 OA
ATOM     13  H   UNL     1      13.920  41.294  20.750  1.00  0.00     0.211 HD
ENDBRANCH   3  12
BRANCH   5  14
ATOM     14  C   UNL     1      16.449  43.333  18.593  1.00  0.00     0.191 C 
BRANCH  14  15
ATOM     15  O   UNL     1      17.031  44.180  19.547  1.00  0.00    -0.394 OA
ATOM     16  H   UNL     1      16.446  44.151  20.349  1.00  0.00     0.210 HD
ENDBRANCH  14  15
ENDBRANCH   5  14
BRANCH   4  17
ATOM     17  O   UNL     1      15.399  43.571  21.367  1.00  0.00    -0.387 OA
ATOM     18  H   UNL     1      15.026  42.906  22.003  1.00  0.00     0.211 HD
ENDBRANCH   4  17
TORSDOF 7
ENDMDL
MODEL 5
REMARK VINA RESULT:    -1.850      1.775      4.491
REMARK INTER + INTRA:          -2.646
REMARK INTER:                  -2.421
REMARK INTRA:                  -0.225
REMARK UNBOUND:                -0.256
REMARK SMILES CCO[C@@H]1O[C@@H](CO)[C@H](O)[C@H](O)[C@H]1O
REMARK SMILES IDX 4 1 13 2 11 3 9 4 6 5 5 6 3 7 2 8 1 9 14 10 12 12 7 14 8 15
REMARK SMILES IDX 10 17
REMARK H PARENT 14 11 12 13 8 16 10 18
REMARK Flexibility Score: inf
ROOT
ATOM      1  C   UNL     1      14.080  42.445  20.853  1.00  0.00     0.281 C 
ATOM      2  C   UNL     1      15.362  43.224  21.206  1.00  0.00     0.202 C 
ATOM      3  C   UNL     1      16.011  43.811  19.936  1.00  0.00     0.179 C 
ATOM      4  C   UNL     1      14.964  44.568  19.103  1.00  0.00     0.177 C 
ATOM      5  C   UNL     1      13.722  43.672  18.875  1.00  0.00     0.178 C 
ATOM      6  O   UNL     1      13.175  43.260  20.120  1.00  0.00    -0.341 OA
ENDROOT
BRANCH   1   7
ATOM      7  O   UNL     1      14.409  41.259  20.147  1.00  0.00    -0.350 OA
BRANCH   7   8
ATOM      8  C   UNL     1      13.408  40.281  20.339  1.00  0.00     0.160 C 
ATOM      9  C   UNL     1      12.760  40.494  21.698  1.00  0.00     0.035 C 
ENDBRANCH   7   8
ENDBRANCH   1   7
BRANCH   2  10
ATOM     10  O   UNL     1      15.038  44.258  22.100  1.00  0.00    -0.385 OA
ATOM     11  H   UNL     1      14.756  45.036  21.551  1.00  0.00     0.211 HD
ENDBRANCH   2  10
BRANCH   3  12
ATOM     12  O   UNL     1      16.585  42.787  19.163  1.00  0.00    -0.387 OA
ATOM     13  H   UNL     1      16.062  42.735  18.321  1.00  0.00     0.211 HD
ENDBRANCH   3  12
BRANCH   5  14
ATOM     14  C   UNL     1      12.619  44.420  18.106  1.00  0.00     0.191 C 
BRANCH  14  15
ATOM     15  O   UNL     1      12.977  45.757  17.875  1.00  0.00    -0.394 OA
ATOM     16  H   UNL     1      13.348  45.797  16.954  1.00  0.00     0.210 HD
ENDBRANCH  14  15
ENDBRANCH   5  14
BRANCH   4  17
ATOM     17  O   UNL     1      15.540  44.940  17.875  1.00  0.00    -0.387 OA
ATOM     18  H   UNL     1      14.913  44.662  17.158  1.00  0.00     0.211 HD
ENDBRANCH   4  17
TORSDOF 7
ENDMDL
