MODEL 1
REMARK VINA RESULT:    35.236      0.000      0.000
REMARK INTER + INTRA:          50.629
REMARK INTER:                  46.565
REMARK INTRA:                   4.064
REMARK UNBOUND:                 4.064
REMARK SMILES CC[C@H](C=C[C@H](C)[C@@H]1CC[C@H]2C3=CC[C@H]4C[C@H](O)CC[C@]4(C)[C@H]3CC[C@@]21C)C(C)C
REMARK SMILES IDX 6 1 7 2 5 3 4 4 3 5 2 6 1 7 28 8 29 9 30 10 8 11 9 12 26 13
REMARK SMILES IDX 10 14 11 15 25 16 27 17 12 18 24 19 23 20 13 21 21 22 14 23
REMARK SMILES IDX 15 24 20 25 22 26 16 27 19 28 17 29 18 30
REMARK H PARENT 18 31
REMARK Flexibility Score: inf
ROOT
ATOM      1  C   UNL     1      -1.053  46.856  48.756  1.00  0.00     0.012 C 
ATOM      2  C   UNL     1      -0.697  48.125  49.571  1.00  0.00     0.012 C 
ENDROOT
BRANCH   1   3
ATOM      3  C   UNL     1      -0.103  46.694  47.576  1.00  0.00    -0.028 C 
ATOM      4  C   UNL     1       1.140  47.214  47.484  1.00  0.00    -0.027 C 
BRANCH   4   5
ATOM      5  C   UNL     1       1.889  47.966  48.576  1.00  0.00     0.014 C 
BRANCH   5   6
ATOM      6  C   UNL     1       1.733  47.187  49.907  1.00  0.00     0.004 C 
ATOM      7  C   UNL     1       1.655  48.100  51.139  1.00  0.00     0.004 C 
ENDBRANCH   5   6
BRANCH   5   8
ATOM      8  C   UNL     1       3.395  48.125  48.186  1.00  0.00    -0.011 C 
ATOM      9  C   UNL     1       3.609  48.109  46.660  1.00  0.00     0.008 C 
ATOM     10  C   UNL     1       4.261  47.011  48.809  1.00  0.00     0.008 C 
ENDBRANCH   5   8
ENDBRANCH   4   5
ENDBRANCH   1   3
BRANCH   1  11
ATOM     11  C   UNL     1      -1.125  45.604  49.699  1.00  0.00     0.002 C 
ATOM     12  C   UNL     1      -1.003  45.932  51.214  1.00  0.00     0.005 C 
ATOM     13  C   UNL     1      -0.130  44.416  49.454  1.00  0.00    -0.023 C 
ATOM     14  C   UNL     1      -0.014  44.925  51.807  1.00  0.00     0.009 C 
ATOM     15  C   UNL     1       0.854  44.543  50.619  1.00  0.00     0.021 C 
ATOM     16  C   UNL     1       0.708  44.424  48.151  1.00  0.00     0.008 C 
ATOM     17  C   UNL     1      -0.953  43.090  49.531  1.00  0.00     0.012 C 
ATOM     18  C   UNL     1       1.797  43.360  50.685  1.00  0.00    -0.067 C 
ATOM     19  C   UNL     1       1.681  43.221  48.099  1.00  0.00     0.009 C 
ATOM     20  C   UNL     1       2.565  43.064  49.388  1.00  0.00     0.021 C 
ATOM     21  C   UNL     1       2.205  42.868  51.876  1.00  0.00    -0.027 C 
ATOM     22  C   UNL     1       3.364  41.706  49.440  1.00  0.00    -0.023 C 
ATOM     23  C   UNL     1       3.240  41.787  52.007  1.00  0.00     0.031 C 
ATOM     24  C   UNL     1       4.169  41.696  50.781  1.00  0.00     0.002 C 
ATOM     25  C   UNL     1       4.354  41.632  48.219  1.00  0.00     0.010 C 
ATOM     26  C   UNL     1       2.386  40.491  49.391  1.00  0.00     0.012 C 
ATOM     27  C   UNL     1       5.131  40.486  50.923  1.00  0.00     0.036 C 
ATOM     28  C   UNL     1       5.771  41.130  48.558  1.00  0.00     0.032 C 
ATOM     29  C   UNL     1       5.735  40.001  49.584  1.00  0.00     0.114 C 
BRANCH  29  30
ATOM     30  O   UNL     1       7.039  39.520  49.781  1.00  0.00    -0.393 OA
ATOM     31  H   UNL     1       6.965  38.735  50.401  1.00  0.00     0.210 HD
ENDBRANCH  29  30
ENDBRANCH   1  11
TORSDOF 6
ENDMDL
MODEL 2
REMARK VINA RESULT:    37.162      1.292      1.998
REMARK INTER + INTRA:          53.175
REMARK INTER:                  46.933
REMARK INTRA:                   6.242
REMARK UNBOUND:                 4.064
REMARK SMILES CC[C@H](C=C[C@H](C)[C@@H]1CC[C@H]2C3=CC[C@H]4C[C@H](O)CC[C@]4(C)[C@H]3CC[C@@]21C)C(C)C
REMARK SMILES IDX 6 1 7 2 5 3 4 4 3 5 2 6 1 7 28 8 29 9 30 10 8 11 9 12 26 13
REMARK SMILES IDX 10 14 11 15 25 16 27 17 12 18 24 19 23 20 13 21 21 22 14 23
REMARK SMILES IDX 15 24 20 25 22 26 16 27 19 28 17 29 18 30
REMARK H PARENT 18 31
REMARK Flexibility Score: inf
ROOT
ATOM      1  C   UNL     1      -1.123  46.375  48.947  1.00  0.00     0.012 C 
ATOM      2  C   UNL     1      -0.739  47.848  48.652  1.00  0.00     0.012 C 
ENDROOT
BRANCH   1   3
ATOM      3  C   UNL     1      -0.792  45.486  47.755  1.00  0.00    -0.028 C 
ATOM      4  C   UNL     1       0.428  45.334  47.197  1.00  0.00    -0.027 C 
BRANCH   4   5
ATOM      5  C   UNL     1       1.737  45.923  47.708  1.00  0.00     0.014 C 
BRANCH   5   6
ATOM      6  C   UNL     1       2.899  45.358  46.853  1.00  0.00     0.004 C 
ATOM      7  C   UNL     1       2.669  43.908  46.399  1.00  0.00     0.004 C 
ENDBRANCH   5   6
BRANCH   5   8
ATOM      8  C   UNL     1       1.690  47.484  47.640  1.00  0.00    -0.011 C 
ATOM      9  C   UNL     1       2.774  48.061  46.709  1.00  0.00     0.008 C 
ATOM     10  C   UNL     1       1.863  48.116  49.037  1.00  0.00     0.008 C 
ENDBRANCH   5   8
ENDBRANCH   4   5
ENDBRANCH   1   3
BRANCH   1  11
ATOM     11  C   UNL     1      -0.480  45.905  50.298  1.00  0.00     0.002 C 
ATOM     12  C   UNL     1       0.379  46.986  51.013  1.00  0.00     0.005 C 
ATOM     13  C   UNL     1       0.402  44.607  50.303  1.00  0.00    -0.023 C 
ATOM     14  C   UNL     1       1.676  46.301  51.451  1.00  0.00     0.009 C 
ATOM     15  C   UNL     1       1.823  45.156  50.461  1.00  0.00     0.021 C 
ATOM     16  C   UNL     1       0.400  43.720  49.033  1.00  0.00     0.008 C 
ATOM     17  C   UNL     1      -0.029  43.749  51.535  1.00  0.00     0.012 C 
ATOM     18  C   UNL     1       2.828  44.047  50.688  1.00  0.00    -0.067 C 
ATOM     19  C   UNL     1       1.370  42.522  49.181  1.00  0.00     0.009 C 
ATOM     20  C   UNL     1       2.818  42.931  49.632  1.00  0.00     0.021 C 
ATOM     21  C   UNL     1       3.881  44.229  51.515  1.00  0.00    -0.027 C 
ATOM     22  C   UNL     1       3.724  41.702  50.024  1.00  0.00    -0.023 C 
ATOM     23  C   UNL     1       4.982  43.218  51.677  1.00  0.00     0.031 C 
ATOM     24  C   UNL     1       5.111  42.275  50.466  1.00  0.00     0.002 C 
ATOM     25  C   UNL     1       3.904  40.763  48.775  1.00  0.00     0.010 C 
ATOM     26  C   UNL     1       3.079  40.895  51.193  1.00  0.00     0.012 C 
ATOM     27  C   UNL     1       6.178  41.182  50.747  1.00  0.00     0.036 C 
ATOM     28  C   UNL     1       5.342  40.258  48.541  1.00  0.00     0.032 C 
ATOM     29  C   UNL     1       6.040  39.924  49.857  1.00  0.00     0.114 C 
BRANCH  29  30
ATOM     30  O   UNL     1       7.304  39.380  49.579  1.00  0.00    -0.393 OA
ATOM     31  H   UNL     1       7.145  38.464  49.203  1.00  0.00     0.210 HD
ENDBRANCH  29  30
ENDBRANCH   1  11
TORSDOF 6
ENDMDL
MODEL 3
REMARK VINA RESULT:    37.760      1.307      3.601
REMARK INTER + INTRA:          53.964
REMARK INTER:                  53.714
REMARK INTRA:                   0.250
REMARK UNBOUND:                 4.064
REMARK SMILES CC[C@H](C=C[C@H](C)[C@@H]1CC[C@H]2C3=CC[C@H]4C[C@H](O)CC[C@]4(C)[C@H]3CC[C@@]21C)C(C)C
REMARK SMILES IDX 6 1 7 2 5 3 4 4 3 5 2 6 1 7 28 8 29 9 30 10 8 11 9 12 26 13
REMARK SMILES IDX 10 14 11 15 25 16 27 17 12 18 24 19 23 20 13 21 21 22 14 23
REMARK SMILES IDX 15 24 20 25 22 26 16 27 19 28 17 29 18 30
REMARK H PARENT 18 31
REMARK Flexibility Score: inf
ROOT
ATOM      1  C   UNL     1      -0.434  44.297  49.869  1.00  0.00     0.012 C 
ATOM      2  C   UNL     1      -0.387  43.216  50.979  1.00  0.00     0.012 C 
ENDROOT
BRANCH   1   3
ATOM      3  C   UNL     1      -1.026  45.593  50.409  1.00  0.00    -0.028 C 
ATOM      4  C   UNL     1      -0.706  46.839  49.999  1.00  0.00    -0.027 C 
BRANCH   4   5
ATOM      5  C   UNL     1       0.217  47.203  48.843  1.00  0.00     0.014 C 
BRANCH   5   6
ATOM      6  C   UNL     1      -0.604  47.980  47.783  1.00  0.00     0.004 C 
ATOM      7  C   UNL     1      -1.044  47.108  46.598  1.00  0.00     0.004 C 
ENDBRANCH   5   6
BRANCH   5   8
ATOM      8  C   UNL     1       1.423  48.053  49.362  1.00  0.00    -0.011 C 
ATOM      9  C   UNL     1       2.646  47.960  48.430  1.00  0.00     0.008 C 
ATOM     10  C   UNL     1       1.855  47.616  50.776  1.00  0.00     0.008 C 
ENDBRANCH   5   8
ENDBRANCH   4   5
ENDBRANCH   1   3
BRANCH   1  11
ATOM     11  C   UNL     1       0.980  44.462  49.210  1.00  0.00     0.002 C 
ATOM     12  C   UNL     1       1.018  44.163  47.684  1.00  0.00     0.005 C 
ATOM     13  C   UNL     1       2.192  43.669  49.814  1.00  0.00    -0.023 C 
ATOM     14  C   UNL     1       2.242  43.278  47.436  1.00  0.00     0.009 C 
ATOM     15  C   UNL     1       2.447  42.579  48.770  1.00  0.00     0.021 C 
ATOM     16  C   UNL     1       1.990  42.955  51.174  1.00  0.00     0.008 C 
ATOM     17  C   UNL     1       3.395  44.661  49.924  1.00  0.00     0.012 C 
ATOM     18  C   UNL     1       3.718  41.809  49.066  1.00  0.00    -0.067 C 
ATOM     19  C   UNL     1       3.258  42.169  51.591  1.00  0.00     0.009 C 
ATOM     20  C   UNL     1       3.804  41.207  50.476  1.00  0.00     0.021 C 
ATOM     21  C   UNL     1       4.509  41.373  48.061  1.00  0.00    -0.027 C 
ATOM     22  C   UNL     1       5.223  40.606  50.805  1.00  0.00    -0.023 C 
ATOM     23  C   UNL     1       5.707  40.493  48.282  1.00  0.00     0.031 C 
ATOM     24  C   UNL     1       5.629  39.696  49.599  1.00  0.00     0.002 C 
ATOM     25  C   UNL     1       5.137  39.746  52.120  1.00  0.00     0.010 C 
ATOM     26  C   UNL     1       6.272  41.745  50.996  1.00  0.00     0.012 C 
ATOM     27  C   UNL     1       6.945  38.905  49.827  1.00  0.00     0.036 C 
ATOM     28  C   UNL     1       5.866  38.390  52.061  1.00  0.00     0.032 C 
ATOM     29  C   UNL     1       7.184  38.494  51.299  1.00  0.00     0.114 C 
BRANCH  29  30
ATOM     30  O   UNL     1       7.848  37.258  51.361  1.00  0.00    -0.393 OA
ATOM     31  H   UNL     1       8.050  36.994  50.415  1.00  0.00     0.210 HD
ENDBRANCH  29  30
ENDBRANCH   1  11
TORSDOF 6
ENDMDL
MODEL 4
REMARK VINA RESULT:    37.763      1.092      1.398
REMARK INTER + INTRA:          53.969
REMARK INTER:                  51.821
REMARK INTRA:                   2.148
REMARK UNBOUND:                 4.064
REMARK SMILES CC[C@H](C=C[C@H](C)[C@@H]1CC[C@H]2C3=CC[C@H]4C[C@H](O)CC[C@]4(C)[C@H]3CC[C@@]21C)C(C)C
REMARK SMILES IDX 6 1 7 2 5 3 4 4 3 5 2 6 1 7 28 8 29 9 30 10 8 11 9 12 26 13
REMARK SMILES IDX 10 14 11 15 25 16 27 17 12 18 24 19 23 20 13 21 21 22 14 23
REMARK SMILES IDX 15 24 20 25 22 26 16 27 19 28 17 29 18 30
REMARK H PARENT 18 31
REMARK Flexibility Score: inf
ROOT
ATOM      1  C   UNL     1      -0.043  46.592  48.010  1.00  0.00     0.012 C 
ATOM      2  C   UNL     1      -1.125  46.968  46.965  1.00  0.00     0.012 C 
ENDROOT
BRANCH   1   3
ATOM      3  C   UNL     1       0.236  47.766  48.939  1.00  0.00    -0.028 C 
ATOM      4  C   UNL     1       1.445  48.125  49.419  1.00  0.00    -0.027 C 
BRANCH   4   5
ATOM      5  C   UNL     1       2.787  47.508  49.044  1.00  0.00     0.014 C 
BRANCH   5   6
ATOM      6  C   UNL     1       2.818  46.047  49.559  1.00  0.00     0.004 C 
ATOM      7  C   UNL     1       3.396  45.915  50.976  1.00  0.00     0.004 C 
ENDBRANCH   5   6
BRANCH   5   8
ATOM      8  C   UNL     1       2.995  47.568  47.495  1.00  0.00    -0.011 C 
ATOM      9  C   UNL     1       2.818  46.191  46.828  1.00  0.00     0.008 C 
ATOM     10  C   UNL     1       4.394  48.107  47.134  1.00  0.00     0.008 C 
ENDBRANCH   5   8
ENDBRANCH   4   5
ENDBRANCH   1   3
BRANCH   1  11
ATOM     11  C   UNL     1      -0.439  45.267  48.750  1.00  0.00     0.002 C 
ATOM     12  C   UNL     1      -0.832  45.456  50.243  1.00  0.00     0.005 C 
ATOM     13  C   UNL     1       0.570  44.065  48.740  1.00  0.00    -0.023 C 
ATOM     14  C   UNL     1      -0.110  44.363  51.033  1.00  0.00     0.009 C 
ATOM     15  C   UNL     1       1.105  44.051  50.174  1.00  0.00     0.021 C 
ATOM     16  C   UNL     1       1.799  44.154  47.800  1.00  0.00     0.008 C 
ATOM     17  C   UNL     1      -0.242  42.772  48.410  1.00  0.00     0.012 C 
ATOM     18  C   UNL     1       1.962  42.830  50.438  1.00  0.00    -0.067 C 
ATOM     19  C   UNL     1       2.722  42.922  47.961  1.00  0.00     0.009 C 
ATOM     20  C   UNL     1       3.119  42.618  49.451  1.00  0.00     0.021 C 
ATOM     21  C   UNL     1       1.939  42.221  51.644  1.00  0.00    -0.027 C 
ATOM     22  C   UNL     1       3.842  41.230  49.637  1.00  0.00    -0.023 C 
ATOM     23  C   UNL     1       2.861  41.092  52.010  1.00  0.00     0.031 C 
ATOM     24  C   UNL     1       4.148  41.071  51.163  1.00  0.00     0.002 C 
ATOM     25  C   UNL     1       5.185  41.224  48.817  1.00  0.00     0.010 C 
ATOM     26  C   UNL     1       2.928  40.064  49.148  1.00  0.00     0.012 C 
ATOM     27  C   UNL     1       4.996  39.816  51.503  1.00  0.00     0.036 C 
ATOM     28  C   UNL     1       6.401  40.638  49.562  1.00  0.00     0.032 C 
ATOM     29  C   UNL     1       6.012  39.426  50.404  1.00  0.00     0.114 C 
BRANCH  29  30
ATOM     30  O   UNL     1       7.170  38.878  50.979  1.00  0.00    -0.393 OA
ATOM     31  H   UNL     1       6.894  38.019  51.415  1.00  0.00     0.210 HD
ENDBRANCH  29  30
ENDBRANCH   1  11
TORSDOF 6
ENDMDL
