MODEL 1
REMARK VINA RESULT:    -4.802      0.000      0.000
REMARK INTER + INTRA:          -5.285
REMARK INTER:                  -5.924
REMARK INTRA:                   0.640
REMARK UNBOUND:                 0.640
REMARK SMILES C=C1[C@@H]2CC[C@H]3[C@@H]2C(C)(C)CCC[C@@]13C
REMARK SMILES IDX 14 1 6 2 7 3 3 4 2 5 1 6 4 7 5 8 15 9 8 10 9 11 10 12 11 13
REMARK SMILES IDX 13 15 12 16
REMARK H PARENT
REMARK Flexibility Score: 80.00
ROOT
ATOM      1  C   UNL     1     144.340 143.140 162.234  1.00  0.00    -0.008 C 
ATOM      2  C   UNL     1     143.100 142.162 162.220  1.00  0.00     0.003 C 
ATOM      3  C   UNL     1     143.557 140.942 163.047  1.00  0.00     0.006 C 
ATOM      4  C   UNL     1     144.840 140.749 162.238  1.00  0.00     0.019 C 
ATOM      5  C   UNL     1     145.451 142.122 162.286  1.00  0.00    -0.068 C 
ATOM      6  C   UNL     1     146.764 142.379 162.284  1.00  0.00     0.009 C 
ATOM      7  C   UNL     1     144.264 140.574 160.812  1.00  0.00     0.008 C 
ATOM      8  C   UNL     1     143.000 141.470 160.832  1.00  0.00     0.005 C 
ATOM      9  C   UNL     1     144.455 144.011 160.952  1.00  0.00     0.016 C 
ENDROOT
BRANCH   3  10
ATOM     10  C   UNL     1     143.628 141.041 164.632  1.00  0.00    -0.032 C 
ATOM     11  C   UNL     1     142.421 140.253 165.213  1.00  0.00     0.011 C 
ATOM     12  C   UNL     1     144.900 140.350 165.187  1.00  0.00     0.011 C 
BRANCH  10  13
ATOM     13  C   UNL     1     143.493 142.480 165.206  1.00  0.00     0.007 CG0
ATOM     14  G   UNL     1     144.594 143.460 164.811  1.00  0.00     0.000 G0
ENDBRANCH  10  13
ENDBRANCH   3  10
BRANCH   1  15
ATOM     15  C   UNL     1     144.333 144.104 163.449  1.00  0.00     0.011 C 
BRANCH  15  16
ATOM     16  C   UNL     1     144.586 143.463 164.811  1.00  0.00     0.001 CG0
ATOM     17  G   UNL     1     143.489 142.478 165.205  1.00  0.00     0.000 G0
ENDBRANCH  15  16
ENDBRANCH   1  15
TORSDOF 0
ENDMDL
MODEL 2
REMARK VINA RESULT:    -4.775      5.415      7.639
REMARK INTER + INTRA:          -5.251
REMARK INTER:                  -5.887
REMARK INTRA:                   0.635
REMARK UNBOUND:                 0.640
REMARK SMILES C=C1[C@@H]2CC[C@H]3[C@@H]2C(C)(C)CCC[C@@]13C
REMARK SMILES IDX 14 1 6 2 7 3 3 4 2 5 1 6 4 7 5 8 15 9 8 10 9 11 10 12 11 13
REMARK SMILES IDX 13 15 12 16
REMARK H PARENT
REMARK Flexibility Score: 80.00
ROOT
ATOM      1  C   UNL     1     146.346 147.537 162.305  1.00  0.00    -0.008 C 
ATOM      2  C   UNL     1     147.563 148.544 162.269  1.00  0.00     0.003 C 
ATOM      3  C   UNL     1     147.088 149.758 163.095  1.00  0.00     0.006 C 
ATOM      4  C   UNL     1     145.791 149.916 162.302  1.00  0.00     0.019 C 
ATOM      5  C   UNL     1     145.213 148.530 162.366  1.00  0.00    -0.068 C 
ATOM      6  C   UNL     1     143.906 148.242 162.381  1.00  0.00     0.009 C 
ATOM      7  C   UNL     1     146.344 150.096 160.867  1.00  0.00     0.008 C 
ATOM      8  C   UNL     1     147.629 149.230 160.876  1.00  0.00     0.005 C 
ATOM      9  C   UNL     1     146.235 146.657 161.030  1.00  0.00     0.016 C 
ENDROOT
BRANCH   3  10
ATOM     10  C   UNL     1     147.039 149.667 164.682  1.00  0.00    -0.032 C 
ATOM     11  C   UNL     1     148.235 150.486 165.242  1.00  0.00     0.011 C 
ATOM     12  C   UNL     1     145.758 150.330 165.249  1.00  0.00     0.011 C 
BRANCH  10  13
ATOM     13  C   UNL     1     147.216 148.235 165.262  1.00  0.00     0.007 CG0
ATOM     14  G   UNL     1     146.139 147.224 164.880  1.00  0.00     0.000 G0
ENDBRANCH  10  13
ENDBRANCH   3  10
BRANCH   1  15
ATOM     15  C   UNL     1     146.392 146.581 163.525  1.00  0.00     0.011 C 
BRANCH  15  16
ATOM     16  C   UNL     1     146.138 147.224 164.886  1.00  0.00     0.001 CG0
ATOM     17  G   UNL     1     147.222 148.229 165.267  1.00  0.00     0.000 G0
ENDBRANCH  15  16
ENDBRANCH   1  15
TORSDOF 0
ENDMDL
MODEL 3
REMARK VINA RESULT:    -4.677      4.938      6.956
REMARK INTER + INTRA:          -5.131
REMARK INTER:                  -5.763
REMARK INTRA:                   0.632
REMARK UNBOUND:                 0.640
REMARK SMILES C=C1[C@@H]2CC[C@H]3[C@@H]2C(C)(C)CCC[C@@]13C
REMARK SMILES IDX 14 1 6 2 7 3 3 4 2 5 1 6 4 7 5 8 15 9 8 10 9 11 10 12 11 13
REMARK SMILES IDX 13 15 12 16
REMARK H PARENT
REMARK Flexibility Score: 80.00
ROOT
ATOM      1  C   UNL     1     146.966 148.906 164.303  1.00  0.00    -0.008 C 
ATOM      2  C   UNL     1     145.565 149.621 164.445  1.00  0.00     0.003 C 
ATOM      3  C   UNL     1     144.649 148.889 163.442  1.00  0.00     0.006 C 
ATOM      4  C   UNL     1     145.617 149.072 162.273  1.00  0.00     0.019 C 
ATOM      5  C   UNL     1     146.902 148.538 162.842  1.00  0.00    -0.068 C 
ATOM      6  C   UNL     1     147.858 147.922 162.136  1.00  0.00     0.009 C 
ATOM      7  C   UNL     1     145.756 150.613 162.246  1.00  0.00     0.008 C 
ATOM      8  C   UNL     1     145.613 151.004 163.738  1.00  0.00     0.005 C 
ATOM      9  C   UNL     1     148.171 149.846 164.579  1.00  0.00     0.016 C 
ENDROOT
BRANCH   3  10
ATOM     10  C   UNL     1     144.093 147.440 163.788  1.00  0.00    -0.032 C 
ATOM     11  C   UNL     1     142.593 147.585 164.170  1.00  0.00     0.011 C 
ATOM     12  C   UNL     1     144.135 146.505 162.553  1.00  0.00     0.011 C 
BRANCH  10  13
ATOM     13  C   UNL     1     144.762 146.757 165.015  1.00  0.00     0.007 CG0
ATOM     14  G   UNL     1     146.255 146.467 164.882  1.00  0.00     0.000 G0
ENDBRANCH  10  13
ENDBRANCH   3  10
BRANCH   1  15
ATOM     15  C   UNL     1     147.112 147.678 165.240  1.00  0.00     0.011 C 
BRANCH  15  16
ATOM     16  C   UNL     1     146.254 146.465 164.889  1.00  0.00     0.001 CG0
ATOM     17  G   UNL     1     144.761 146.749 165.022  1.00  0.00     0.000 G0
ENDBRANCH  15  16
ENDBRANCH   1  15
TORSDOF 0
ENDMDL
MODEL 4
REMARK VINA RESULT:    -4.626      3.892      5.989
REMARK INTER + INTRA:          -5.068
REMARK INTER:                  -5.708
REMARK INTRA:                   0.640
REMARK UNBOUND:                 0.640
REMARK SMILES C=C1[C@@H]2CC[C@H]3[C@@H]2C(C)(C)CCC[C@@]13C
REMARK SMILES IDX 14 1 6 2 7 3 3 4 2 5 1 6 4 7 5 8 15 9 8 10 9 11 10 12 11 13
REMARK SMILES IDX 13 15 12 16
REMARK H PARENT
REMARK Flexibility Score: 80.00
ROOT
ATOM      1  C   UNL     1     141.598 146.436 162.302  1.00  0.00    -0.008 C 
ATOM      2  C   UNL     1     141.632 147.592 163.377  1.00  0.00     0.003 C 
ATOM      3  C   UNL     1     142.827 147.241 164.289  1.00  0.00     0.006 C 
ATOM      4  C   UNL     1     142.341 145.815 164.544  1.00  0.00     0.019 C 
ATOM      5  C   UNL     1     142.121 145.302 163.148  1.00  0.00    -0.068 C 
ATOM      6  C   UNL     1     142.280 144.031 162.762  1.00  0.00     0.009 C 
ATOM      7  C   UNL     1     140.938 146.085 165.140  1.00  0.00     0.008 C 
ATOM      8  C   UNL     1     140.490 147.376 164.409  1.00  0.00     0.005 C 
ATOM      9  C   UNL     1     140.169 146.117 161.782  1.00  0.00     0.016 C 
ENDROOT
BRANCH   3  10
ATOM     10  C   UNL     1     144.312 147.491 163.780  1.00  0.00    -0.032 C 
ATOM     11  C   UNL     1     144.863 148.744 164.517  1.00  0.00     0.011 C 
ATOM     12  C   UNL     1     145.250 146.318 164.164  1.00  0.00     0.011 C 
BRANCH  10  13
ATOM     13  C   UNL     1     144.440 147.819 162.265  1.00  0.00     0.007 CG0
ATOM     14  G   UNL     1     143.985 146.722 161.306  1.00  0.00     0.000 G0
ENDBRANCH  10  13
ENDBRANCH   3  10
BRANCH   1  15
ATOM     15  C   UNL     1     142.484 146.738 161.065  1.00  0.00     0.011 C 
BRANCH  15  16
ATOM     16  C   UNL     1     143.991 146.724 161.305  1.00  0.00     0.001 CG0
ATOM     17  G   UNL     1     144.438 147.816 162.273  1.00  0.00     0.000 G0
ENDBRANCH  15  16
ENDBRANCH   1  15
TORSDOF 0
ENDMDL
MODEL 5
REMARK VINA RESULT:    -4.618      3.271      5.334
REMARK INTER + INTRA:          -5.058
REMARK INTER:                  -5.691
REMARK INTRA:                   0.632
REMARK UNBOUND:                 0.640
REMARK SMILES C=C1[C@@H]2CC[C@H]3[C@@H]2C(C)(C)CCC[C@@]13C
REMARK SMILES IDX 14 1 6 2 7 3 3 4 2 5 1 6 4 7 5 8 15 9 8 10 9 11 10 12 11 13
REMARK SMILES IDX 13 15 12 16
REMARK H PARENT
REMARK Flexibility Score: 80.00
ROOT
ATOM      1  C   UNL     1     149.188 144.303 162.352  1.00  0.00    -0.008 C 
ATOM      2  C   UNL     1     149.146 143.152 163.433  1.00  0.00     0.003 C 
ATOM      3  C   UNL     1     147.931 143.497 164.321  1.00  0.00     0.006 C 
ATOM      4  C   UNL     1     148.399 144.929 164.577  1.00  0.00     0.019 C 
ATOM      5  C   UNL     1     148.639 145.436 163.181  1.00  0.00    -0.068 C 
ATOM      6  C   UNL     1     148.475 146.703 162.785  1.00  0.00     0.009 C 
ATOM      7  C   UNL     1     149.794 144.676 165.199  1.00  0.00     0.008 C 
ATOM      8  C   UNL     1     150.267 143.385 164.484  1.00  0.00     0.005 C 
ATOM      9  C   UNL     1     150.623 144.632 161.855  1.00  0.00     0.016 C 
ENDROOT
BRANCH   3  10
ATOM     10  C   UNL     1     146.458 143.229 163.787  1.00  0.00    -0.032 C 
ATOM     11  C   UNL     1     145.908 141.973 164.517  1.00  0.00     0.011 C 
ATOM     12  C   UNL     1     145.501 144.393 164.151  1.00  0.00     0.011 C 
BRANCH  10  13
ATOM     13  C   UNL     1     146.360 142.897 162.271  1.00  0.00     0.007 CG0
ATOM     14  G   UNL     1     146.813 143.998 161.317  1.00  0.00     0.000 G0
ENDBRANCH  10  13
ENDBRANCH   3  10
BRANCH   1  15
ATOM     15  C   UNL     1     148.327 143.985 161.101  1.00  0.00     0.011 C 
BRANCH  15  16
ATOM     16  C   UNL     1     146.815 143.993 161.312  1.00  0.00     0.001 CG0
ATOM     17  G   UNL     1     146.353 142.894 162.264  1.00  0.00     0.000 G0
ENDBRANCH  15  16
ENDBRANCH   1  15
TORSDOF 0
ENDMDL
MODEL 6
REMARK VINA RESULT:    -4.589      3.954      6.228
REMARK INTER + INTRA:          -5.022
REMARK INTER:                  -5.658
REMARK INTRA:                   0.635
REMARK UNBOUND:                 0.640
REMARK SMILES C=C1[C@@H]2CC[C@H]3[C@@H]2C(C)(C)CCC[C@@]13C
REMARK SMILES IDX 14 1 6 2 7 3 3 4 2 5 1 6 4 7 5 8 15 9 8 10 9 11 10 12 11 13
REMARK SMILES IDX 13 15 12 16
REMARK H PARENT
REMARK Flexibility Score: 80.00
ROOT
ATOM      1  C   UNL     1     148.307 145.549 163.453  1.00  0.00    -0.008 C 
ATOM      2  C   UNL     1     149.723 145.037 162.974  1.00  0.00     0.003 C 
ATOM      3  C   UNL     1     149.448 143.643 162.370  1.00  0.00     0.006 C 
ATOM      4  C   UNL     1     148.703 143.144 163.608  1.00  0.00     0.019 C 
ATOM      5  C   UNL     1     147.681 144.227 163.818  1.00  0.00    -0.068 C 
ATOM      6  C   UNL     1     146.459 144.042 164.330  1.00  0.00     0.009 C 
ATOM      7  C   UNL     1     149.782 143.340 164.699  1.00  0.00     0.008 C 
ATOM      8  C   UNL     1     150.557 144.588 164.207  1.00  0.00     0.005 C 
ATOM      9  C   UNL     1     148.375 146.484 164.692  1.00  0.00     0.016 C 
ENDROOT
BRANCH   3  10
ATOM     10  C   UNL     1     148.773 143.520 160.936  1.00  0.00    -0.032 C 
ATOM     11  C   UNL     1     149.876 143.105 159.924  1.00  0.00     0.011 C 
ATOM     12  C   UNL     1     147.711 142.392 160.904  1.00  0.00     0.011 C 
BRANCH  10  13
ATOM     13  C   UNL     1     148.180 144.844 160.375  1.00  0.00     0.007 CG0
ATOM     14  G   UNL     1     147.032 145.452 161.176  1.00  0.00     0.000 G0
ENDBRANCH  10  13
ENDBRANCH   3  10
BRANCH   1  15
ATOM     15  C   UNL     1     147.536 146.308 162.342  1.00  0.00     0.011 C 
BRANCH  15  16
ATOM     16  C   UNL     1     147.038 145.459 161.175  1.00  0.00     0.001 CG0
ATOM     17  G   UNL     1     148.181 144.844 160.373  1.00  0.00     0.000 G0
ENDBRANCH  15  16
ENDBRANCH   1  15
TORSDOF 0
ENDMDL
MODEL 7
REMARK VINA RESULT:    -4.585      5.618      7.965
REMARK INTER + INTRA:          -5.017
REMARK INTER:                  -5.652
REMARK INTRA:                   0.635
REMARK UNBOUND:                 0.640
REMARK SMILES C=C1[C@@H]2CC[C@H]3[C@@H]2C(C)(C)CCC[C@@]13C
REMARK SMILES IDX 14 1 6 2 7 3 3 4 2 5 1 6 4 7 5 8 15 9 8 10 9 11 10 12 11 13
REMARK SMILES IDX 13 15 12 16
REMARK H PARENT
REMARK Flexibility Score: 80.00
ROOT
ATOM      1  C   UNL     1     145.220 148.377 163.320  1.00  0.00    -0.008 C 
ATOM      2  C   UNL     1     145.706 149.785 162.795  1.00  0.00     0.003 C 
ATOM      3  C   UNL     1     147.102 149.516 162.194  1.00  0.00     0.006 C 
ATOM      4  C   UNL     1     147.619 148.819 163.452  1.00  0.00     0.019 C 
ATOM      5  C   UNL     1     146.554 147.786 163.699  1.00  0.00    -0.068 C 
ATOM      6  C   UNL     1     146.763 146.583 164.249  1.00  0.00     0.009 C 
ATOM      7  C   UNL     1     147.408 149.929 164.510  1.00  0.00     0.008 C 
ATOM      8  C   UNL     1     146.145 150.665 163.998  1.00  0.00     0.005 C 
ATOM      9  C   UNL     1     144.289 148.467 164.560  1.00  0.00     0.016 C 
ENDROOT
BRANCH   3  10
ATOM     10  C   UNL     1     147.231 148.797 160.782  1.00  0.00    -0.032 C 
ATOM     11  C   UNL     1     147.625 149.875 159.733  1.00  0.00     0.011 C 
ATOM     12  C   UNL     1     148.378 147.753 160.778  1.00  0.00     0.011 C 
BRANCH  10  13
ATOM     13  C   UNL     1     145.916 148.165 160.244  1.00  0.00     0.007 CG0
ATOM     14  G   UNL     1     145.324 147.041 161.089  1.00  0.00     0.000 G0
ENDBRANCH  10  13
ENDBRANCH   3  10
BRANCH   1  15
ATOM     15  C   UNL     1     144.471 147.557 162.237  1.00  0.00     0.011 C 
BRANCH  15  16
ATOM     16  C   UNL     1     145.325 147.036 161.084  1.00  0.00     0.001 CG0
ATOM     17  G   UNL     1     145.915 148.163 160.241  1.00  0.00     0.000 G0
ENDBRANCH  15  16
ENDBRANCH   1  15
TORSDOF 0
ENDMDL
MODEL 8
REMARK VINA RESULT:    -4.580      3.811      6.194
REMARK INTER + INTRA:          -5.011
REMARK INTER:                  -5.652
REMARK INTRA:                   0.640
REMARK UNBOUND:                 0.640
REMARK SMILES C=C1[C@@H]2CC[C@H]3[C@@H]2C(C)(C)CCC[C@@]13C
REMARK SMILES IDX 14 1 6 2 7 3 3 4 2 5 1 6 4 7 5 8 15 9 8 10 9 11 10 12 11 13
REMARK SMILES IDX 13 15 12 16
REMARK H PARENT
REMARK Flexibility Score: 80.00
ROOT
ATOM      1  C   UNL     1     142.413 145.225 163.540  1.00  0.00    -0.008 C 
ATOM      2  C   UNL     1     140.997 145.699 163.023  1.00  0.00     0.003 C 
ATOM      3  C   UNL     1     141.251 147.097 162.420  1.00  0.00     0.006 C 
ATOM      4  C   UNL     1     141.952 147.619 163.674  1.00  0.00     0.019 C 
ATOM      5  C   UNL     1     142.995 146.564 163.915  1.00  0.00    -0.068 C 
ATOM      6  C   UNL     1     144.199 146.782 164.457  1.00  0.00     0.009 C 
ATOM      7  C   UNL     1     140.850 147.400 164.739  1.00  0.00     0.008 C 
ATOM      8  C   UNL     1     140.121 146.131 164.232  1.00  0.00     0.005 C 
ATOM      9  C   UNL     1     142.338 144.293 164.781  1.00  0.00     0.016 C 
ENDROOT
BRANCH   3  10
ATOM     10  C   UNL     1     141.960 147.232 161.004  1.00  0.00    -0.032 C 
ATOM     11  C   UNL     1     140.873 147.620 159.963  1.00  0.00     0.011 C 
ATOM     12  C   UNL     1     142.997 148.384 160.995  1.00  0.00     0.011 C 
BRANCH  10  13
ATOM     13  C   UNL     1     142.596 145.920 160.461  1.00  0.00     0.007 CG0
ATOM     14  G   UNL     1     143.736 145.339 161.294  1.00  0.00     0.000 G0
ENDBRANCH  10  13
ENDBRANCH   3  10
BRANCH   1  15
ATOM     15  C   UNL     1     143.232 144.482 162.452  1.00  0.00     0.011 C 
BRANCH  15  16
ATOM     16  C   UNL     1     143.736 145.339 161.294  1.00  0.00     0.001 CG0
ATOM     17  G   UNL     1     142.597 145.925 160.465  1.00  0.00     0.000 G0
ENDBRANCH  15  16
ENDBRANCH   1  15
TORSDOF 0
ENDMDL
MODEL 9
REMARK VINA RESULT:    -4.579      1.786      3.794
REMARK INTER + INTRA:          -5.009
REMARK INTER:                  -5.647
REMARK INTRA:                   0.638
REMARK UNBOUND:                 0.640
REMARK SMILES C=C1[C@@H]2CC[C@H]3[C@@H]2C(C)(C)CCC[C@@]13C
REMARK SMILES IDX 14 1 6 2 7 3 3 4 2 5 1 6 4 7 5 8 15 9 8 10 9 11 10 12 11 13
REMARK SMILES IDX 13 15 12 16
REMARK H PARENT
REMARK Flexibility Score: 80.00
ROOT
ATOM      1  C   UNL     1     145.524 142.394 163.555  1.00  0.00    -0.008 C 
ATOM      2  C   UNL     1     145.039 140.982 163.037  1.00  0.00     0.003 C 
ATOM      3  C   UNL     1     143.644 141.248 162.431  1.00  0.00     0.006 C 
ATOM      4  C   UNL     1     143.125 141.953 163.684  1.00  0.00     0.019 C 
ATOM      5  C   UNL     1     144.189 142.987 163.927  1.00  0.00    -0.068 C 
ATOM      6  C   UNL     1     143.979 144.193 164.469  1.00  0.00     0.009 C 
ATOM      7  C   UNL     1     143.333 140.849 164.749  1.00  0.00     0.008 C 
ATOM      8  C   UNL     1     144.597 140.109 164.244  1.00  0.00     0.005 C 
ATOM      9  C   UNL     1     146.452 142.310 164.797  1.00  0.00     0.016 C 
ENDROOT
BRANCH   3  10
ATOM     10  C   UNL     1     143.518 141.959 161.014  1.00  0.00    -0.032 C 
ATOM     11  C   UNL     1     143.126 140.875 159.972  1.00  0.00     0.011 C 
ATOM     12  C   UNL     1     142.373 143.003 161.002  1.00  0.00     0.011 C 
BRANCH  10  13
ATOM     13  C   UNL     1     144.835 142.587 160.476  1.00  0.00     0.007 CG0
ATOM     14  G   UNL     1     145.423 143.720 161.312  1.00  0.00     0.000 G0
ENDBRANCH  10  13
ENDBRANCH   3  10
BRANCH   1  15
ATOM     15  C   UNL     1     146.276 143.207 162.469  1.00  0.00     0.011 C 
BRANCH  15  16
ATOM     16  C   UNL     1     145.424 143.724 161.313  1.00  0.00     0.001 CG0
ATOM     17  G   UNL     1     144.837 142.595 160.470  1.00  0.00     0.000 G0
ENDBRANCH  15  16
ENDBRANCH   1  15
TORSDOF 0
ENDMDL
