MODEL 1
REMARK VINA RESULT:    -3.171      0.000      0.000
REMARK INTER + INTRA:          -9.197
REMARK INTER:                  -6.137
REMARK INTRA:                  -3.060
REMARK UNBOUND:                -3.060
REMARK SMILES CCCCCCCCCCCCCCCCCC(=O)[O-]
REMARK SMILES IDX 10 1 11 2 12 3 13 4 14 5 15 6 16 7 17 8 18 9 19 10 20 11
REMARK SMILES IDX 9 12 8 13 7 14 6 15 5 16 4 17 3 18 2 19 1 20
REMARK H PARENT
REMARK Flexibility Score: inf
ROOT
ATOM      1  C   UNL     1     -15.068 -73.650  -9.680  1.00  0.00     0.000 C 
ENDROOT
BRANCH   1   2
ATOM      2  C   UNL     1     -15.481 -72.412 -10.495  1.00  0.00     0.000 C 
BRANCH   2   3
ATOM      3  C   UNL     1     -14.690 -72.267 -11.802  1.00  0.00     0.000 C 
BRANCH   3   4
ATOM      4  C   UNL     1     -14.612 -73.604 -12.549  1.00  0.00     0.000 C 
BRANCH   4   5
ATOM      5  C   UNL     1     -13.167 -73.926 -12.958  1.00  0.00     0.000 C 
BRANCH   5   6
ATOM      6  C   UNL     1     -12.134 -73.196 -12.075  1.00  0.00     0.000 C 
BRANCH   6   7
ATOM      7  C   UNL     1     -11.466 -74.106 -11.028  1.00  0.00     0.006 C 
BRANCH   7   8
ATOM      8  C   UNL     1     -11.372 -73.454  -9.643  1.00  0.00     0.053 C 
BRANCH   8   9
ATOM      9  C   UNL     1     -10.001 -72.902  -9.418  1.00  0.00     0.041 C 
ATOM     10  O   UNL     1      -8.989 -73.634  -9.574  1.00  0.00    -0.550 OA
ATOM     11  O   UNL     1      -9.841 -71.590  -8.990  1.00  0.00    -0.550 OA
ENDBRANCH   8   9
ENDBRANCH   7   8
ENDBRANCH   6   7
ENDBRANCH   5   6
ENDBRANCH   4   5
ENDBRANCH   3   4
ENDBRANCH   2   3
ENDBRANCH   1   2
BRANCH   1  12
ATOM     12  C   UNL     1     -16.077 -74.087  -8.600  1.00  0.00     0.000 C 
BRANCH  12  13
ATOM     13  C   UNL     1     -17.015 -75.240  -9.012  1.00  0.00    -0.000 C 
BRANCH  13  14
ATOM     14  C   UNL     1     -16.836 -75.735 -10.460  1.00  0.00    -0.000 C 
BRANCH  14  15
ATOM     15  C   UNL     1     -16.196 -77.130 -10.601  1.00  0.00    -0.000 C 
BRANCH  15  16
ATOM     16  C   UNL     1     -14.764 -77.141 -11.166  1.00  0.00    -0.000 C 
BRANCH  16  17
ATOM     17  C   UNL     1     -13.694 -76.918 -10.083  1.00  0.00    -0.000 C 
BRANCH  17  18
ATOM     18  C   UNL     1     -13.968 -77.732  -8.808  1.00  0.00    -0.000 C 
BRANCH  18  19
ATOM     19  C   UNL     1     -13.789 -76.904  -7.526  1.00  0.00    -0.003 C 
ATOM     20  C   UNL     1     -14.928 -77.161  -6.543  1.00  0.00     0.004 C 
ENDBRANCH  18  19
ENDBRANCH  17  18
ENDBRANCH  16  17
ENDBRANCH  15  16
ENDBRANCH  14  15
ENDBRANCH  13  14
ENDBRANCH  12  13
ENDBRANCH   1  12
TORSDOF 16
ENDMDL
MODEL 2
REMARK VINA RESULT:    -3.124     11.091     13.126
REMARK INTER + INTRA:          -9.106
REMARK INTER:                  -6.249
REMARK INTRA:                  -2.857
REMARK UNBOUND:                -3.060
REMARK SMILES CCCCCCCCCCCCCCCCCC(=O)[O-]
REMARK SMILES IDX 10 1 11 2 12 3 13 4 14 5 15 6 16 7 17 8 18 9 19 10 20 11
REMARK SMILES IDX 9 12 8 13 7 14 6 15 5 16 4 17 3 18 2 19 1 20
REMARK H PARENT
REMARK Flexibility Score: inf
ROOT
ATOM      1  C   UNL     1      -3.253 -65.364  -9.564  1.00  0.00     0.000 C 
ENDROOT
BRANCH   1   2
ATOM      2  C   UNL     1      -3.244 -65.847 -11.025  1.00  0.00     0.000 C 
BRANCH   2   3
ATOM      3  C   UNL     1      -3.168 -67.375 -11.148  1.00  0.00     0.000 C 
BRANCH   3   4
ATOM      4  C   UNL     1      -4.533 -68.017 -10.871  1.00  0.00     0.000 C 
BRANCH   4   5
ATOM      5  C   UNL     1      -4.451 -69.010  -9.702  1.00  0.00     0.000 C 
BRANCH   5   6
ATOM      6  C   UNL     1      -5.264 -68.539  -8.478  1.00  0.00     0.000 C 
BRANCH   6   7
ATOM      7  C   UNL     1      -4.441 -68.480  -7.179  1.00  0.00     0.006 C 
BRANCH   7   8
ATOM      8  C   UNL     1      -4.660 -67.181  -6.393  1.00  0.00     0.053 C 
BRANCH   8   9
ATOM      9  C   UNL     1      -3.435 -66.831  -5.609  1.00  0.00     0.041 C 
ATOM     10  O   UNL     1      -3.290 -67.260  -4.435  1.00  0.00    -0.550 OA
ATOM     11  O   UNL     1      -2.473 -65.993  -6.160  1.00  0.00    -0.550 OA
ENDBRANCH   8   9
ENDBRANCH   7   8
ENDBRANCH   6   7
ENDBRANCH   5   6
ENDBRANCH   4   5
ENDBRANCH   3   4
ENDBRANCH   2   3
ENDBRANCH   1   2
BRANCH   1  12
ATOM     12  C   UNL     1      -4.543 -64.645  -9.121  1.00  0.00     0.000 C 
BRANCH  12  13
ATOM     13  C   UNL     1      -5.504 -64.267 -10.266  1.00  0.00    -0.000 C 
BRANCH  13  14
ATOM     14  C   UNL     1      -6.830 -65.053 -10.286  1.00  0.00    -0.000 C 
BRANCH  14  15
ATOM     15  C   UNL     1      -7.301 -65.574  -8.914  1.00  0.00    -0.000 C 
BRANCH  15  16
ATOM     16  C   UNL     1      -8.740 -65.186  -8.524  1.00  0.00    -0.000 C 
BRANCH  16  17
ATOM     17  C   UNL     1      -8.811 -64.423  -7.191  1.00  0.00    -0.000 C 
BRANCH  17  18
ATOM     18  C   UNL     1      -7.433 -63.935  -6.716  1.00  0.00    -0.000 C 
BRANCH  18  19
ATOM     19  C   UNL     1      -7.370 -62.411  -6.543  1.00  0.00    -0.003 C 
ATOM     20  C   UNL     1      -6.423 -61.781  -7.561  1.00  0.00     0.004 C 
ENDBRANCH  18  19
ENDBRANCH  17  18
ENDBRANCH  16  17
ENDBRANCH  15  16
ENDBRANCH  14  15
ENDBRANCH  13  14
ENDBRANCH  12  13
ENDBRANCH   1  12
TORSDOF 16
ENDMDL
MODEL 3
REMARK VINA RESULT:    -3.104     11.991     14.647
REMARK INTER + INTRA:          -9.068
REMARK INTER:                  -6.886
REMARK INTRA:                  -2.182
REMARK UNBOUND:                -3.060
REMARK SMILES CCCCCCCCCCCCCCCCCC(=O)[O-]
REMARK SMILES IDX 10 1 11 2 12 3 13 4 14 5 15 6 16 7 17 8 18 9 19 10 20 11
REMARK SMILES IDX 9 12 8 13 7 14 6 15 5 16 4 17 3 18 2 19 1 20
REMARK H PARENT
REMARK Flexibility Score: inf
ROOT
ATOM      1  C   UNL     1      -4.851 -66.364  -6.845  1.00  0.00     0.000 C 
ENDROOT
BRANCH   1   2
ATOM      2  C   UNL     1      -3.814 -66.291  -5.711  1.00  0.00     0.000 C 
BRANCH   2   3
ATOM      3  C   UNL     1      -4.145 -67.222  -4.537  1.00  0.00     0.000 C 
BRANCH   3   4
ATOM      4  C   UNL     1      -4.563 -66.419  -3.299  1.00  0.00     0.000 C 
BRANCH   4   5
ATOM      5  C   UNL     1      -4.010 -64.987  -3.356  1.00  0.00     0.000 C 
BRANCH   5   6
ATOM      6  C   UNL     1      -4.872 -63.997  -2.546  1.00  0.00     0.000 C 
BRANCH   6   7
ATOM      7  C   UNL     1      -6.182 -64.609  -2.018  1.00  0.00     0.006 C 
BRANCH   7   8
ATOM      8  C   UNL     1      -7.363 -63.632  -2.075  1.00  0.00     0.053 C 
BRANCH   8   9
ATOM      9  C   UNL     1      -8.435 -64.051  -1.121  1.00  0.00     0.041 C 
ATOM     10  O   UNL     1      -9.050 -63.190  -0.440  1.00  0.00    -0.550 OA
ATOM     11  O   UNL     1      -8.724 -65.400  -0.948  1.00  0.00    -0.550 OA
ENDBRANCH   8   9
ENDBRANCH   7   8
ENDBRANCH   6   7
ENDBRANCH   5   6
ENDBRANCH   4   5
ENDBRANCH   3   4
ENDBRANCH   2   3
ENDBRANCH   1   2
BRANCH   1  12
ATOM     12  C   UNL     1      -5.631 -65.059  -7.102  1.00  0.00     0.000 C 
BRANCH  12  13
ATOM     13  C   UNL     1      -4.951 -63.779  -6.577  1.00  0.00    -0.000 C 
BRANCH  13  14
ATOM     14  C   UNL     1      -5.912 -62.614  -6.270  1.00  0.00    -0.000 C 
BRANCH  14  15
ATOM     15  C   UNL     1      -7.238 -63.020  -5.596  1.00  0.00    -0.000 C 
BRANCH  15  16
ATOM     16  C   UNL     1      -8.496 -62.850  -6.469  1.00  0.00    -0.000 C 
BRANCH  16  17
ATOM     17  C   UNL     1      -9.162 -64.190  -6.823  1.00  0.00    -0.000 C 
BRANCH  17  18
ATOM     18  C   UNL     1      -8.890 -64.619  -8.274  1.00  0.00    -0.000 C 
BRANCH  18  19
ATOM     19  C   UNL     1      -8.423 -63.453  -9.159  1.00  0.00    -0.003 C 
ATOM     20  C   UNL     1      -9.554 -62.957 -10.056  1.00  0.00     0.004 C 
ENDBRANCH  18  19
ENDBRANCH  17  18
ENDBRANCH  16  17
ENDBRANCH  15  16
ENDBRANCH  14  15
ENDBRANCH  13  14
ENDBRANCH  12  13
ENDBRANCH   1  12
TORSDOF 16
ENDMDL
MODEL 4
REMARK VINA RESULT:    -3.103      1.614      3.829
REMARK INTER + INTRA:          -9.065
REMARK INTER:                  -6.809
REMARK INTRA:                  -2.256
REMARK UNBOUND:                -3.060
REMARK SMILES CCCCCCCCCCCCCCCCCC(=O)[O-]
REMARK SMILES IDX 10 1 11 2 12 3 13 4 14 5 15 6 16 7 17 8 18 9 19 10 20 11
REMARK SMILES IDX 9 12 8 13 7 14 6 15 5 16 4 17 3 18 2 19 1 20
REMARK H PARENT
REMARK Flexibility Score: inf
ROOT
ATOM      1  C   UNL     1     -14.539 -77.648 -10.877  1.00  0.00     0.000 C 
ENDROOT
BRANCH   1   2
ATOM      2  C   UNL     1     -14.276 -76.172 -11.227  1.00  0.00     0.000 C 
BRANCH   2   3
ATOM      3  C   UNL     1     -15.532 -75.445 -11.729  1.00  0.00     0.000 C 
BRANCH   3   4
ATOM      4  C   UNL     1     -15.357 -73.924 -11.642  1.00  0.00     0.000 C 
BRANCH   4   5
ATOM      5  C   UNL     1     -15.899 -73.380 -10.312  1.00  0.00     0.000 C 
BRANCH   5   6
ATOM      6  C   UNL     1     -14.769 -72.954  -9.352  1.00  0.00     0.000 C 
BRANCH   6   7
ATOM      7  C   UNL     1     -13.422 -72.713 -10.056  1.00  0.00     0.006 C 
BRANCH   7   8
ATOM      8  C   UNL     1     -12.230 -73.283  -9.277  1.00  0.00     0.053 C 
BRANCH   8   9
ATOM      9  C   UNL     1     -11.080 -73.544 -10.196  1.00  0.00     0.041 C 
ATOM     10  O   UNL     1     -11.288 -73.897 -11.386  1.00  0.00    -0.550 OA
ATOM     11  O   UNL     1      -9.776 -73.441  -9.727  1.00  0.00    -0.550 OA
ENDBRANCH   8   9
ENDBRANCH   7   8
ENDBRANCH   6   7
ENDBRANCH   5   6
ENDBRANCH   4   5
ENDBRANCH   3   4
ENDBRANCH   2   3
ENDBRANCH   1   2
BRANCH   1  12
ATOM     12  C   UNL     1     -13.972 -78.108  -9.520  1.00  0.00     0.000 C 
BRANCH  12  13
ATOM     13  C   UNL     1     -13.511 -76.971  -8.586  1.00  0.00    -0.000 C 
BRANCH  13  14
ATOM     14  C   UNL     1     -14.082 -77.035  -7.156  1.00  0.00    -0.000 C 
BRANCH  14  15
ATOM     15  C   UNL     1     -15.417 -77.794  -7.018  1.00  0.00    -0.000 C 
BRANCH  15  16
ATOM     16  C   UNL     1     -16.652 -76.908  -6.767  1.00  0.00    -0.000 C 
BRANCH  16  17
ATOM     17  C   UNL     1     -16.568 -75.551  -7.487  1.00  0.00    -0.000 C 
BRANCH  17  18
ATOM     18  C   UNL     1     -17.816 -74.683  -7.256  1.00  0.00    -0.000 C 
BRANCH  18  19
ATOM     19  C   UNL     1     -17.603 -73.615  -6.173  1.00  0.00    -0.003 C 
ATOM     20  C   UNL     1     -17.476 -72.224  -6.791  1.00  0.00     0.004 C 
ENDBRANCH  18  19
ENDBRANCH  17  18
ENDBRANCH  16  17
ENDBRANCH  15  16
ENDBRANCH  14  15
ENDBRANCH  13  14
ENDBRANCH  12  13
ENDBRANCH   1  12
TORSDOF 16
ENDMDL
MODEL 5
REMARK VINA RESULT:    -3.096      1.584      2.805
REMARK INTER + INTRA:          -9.053
REMARK INTER:                  -6.787
REMARK INTRA:                  -2.266
REMARK UNBOUND:                -3.060
REMARK SMILES CCCCCCCCCCCCCCCCCC(=O)[O-]
REMARK SMILES IDX 10 1 11 2 12 3 13 4 14 5 15 6 16 7 17 8 18 9 19 10 20 11
REMARK SMILES IDX 9 12 8 13 7 14 6 15 5 16 4 17 3 18 2 19 1 20
REMARK H PARENT
REMARK Flexibility Score: inf
ROOT
ATOM      1  C   UNL     1     -15.536 -73.754  -9.170  1.00  0.00     0.000 C 
ENDROOT
BRANCH   1   2
ATOM      2  C   UNL     1     -15.861 -74.818 -10.233  1.00  0.00     0.000 C 
BRANCH   2   3
ATOM      3  C   UNL     1     -14.650 -75.179 -11.106  1.00  0.00     0.000 C 
BRANCH   3   4
ATOM      4  C   UNL     1     -14.283 -74.022 -12.043  1.00  0.00     0.000 C 
BRANCH   4   5
ATOM      5  C   UNL     1     -12.955 -73.372 -11.627  1.00  0.00     0.000 C 
BRANCH   5   6
ATOM      6  C   UNL     1     -12.126 -74.281 -10.696  1.00  0.00     0.000 C 
BRANCH   6   7
ATOM      7  C   UNL     1     -11.774 -73.626  -9.349  1.00  0.00     0.006 C 
BRANCH   7   8
ATOM      8  C   UNL     1     -11.330 -72.165  -9.496  1.00  0.00     0.053 C 
BRANCH   8   9
ATOM      9  C   UNL     1      -9.889 -72.016  -9.121  1.00  0.00     0.041 C 
ATOM     10  O   UNL     1      -9.034 -72.831  -9.556  1.00  0.00    -0.550 OA
ATOM     11  O   UNL     1      -9.496 -71.004  -8.254  1.00  0.00    -0.550 OA
ENDBRANCH   8   9
ENDBRANCH   7   8
ENDBRANCH   6   7
ENDBRANCH   5   6
ENDBRANCH   4   5
ENDBRANCH   3   4
ENDBRANCH   2   3
ENDBRANCH   1   2
BRANCH   1  12
ATOM     12  C   UNL     1     -16.616 -72.671  -8.979  1.00  0.00     0.000 C 
BRANCH  12  13
ATOM     13  C   UNL     1     -16.993 -72.376  -7.513  1.00  0.00    -0.000 C 
BRANCH  13  14
ATOM     14  C   UNL     1     -18.016 -73.350  -6.898  1.00  0.00    -0.000 C 
BRANCH  14  15
ATOM     15  C   UNL     1     -17.412 -74.463  -6.019  1.00  0.00    -0.000 C 
BRANCH  15  16
ATOM     16  C   UNL     1     -17.874 -75.892  -6.360  1.00  0.00    -0.000 C 
BRANCH  16  17
ATOM     17  C   UNL     1     -16.848 -76.665  -7.206  1.00  0.00    -0.000 C 
BRANCH  17  18
ATOM     18  C   UNL     1     -15.499 -76.832  -6.488  1.00  0.00    -0.000 C 
BRANCH  18  19
ATOM     19  C   UNL     1     -14.460 -77.574  -7.343  1.00  0.00    -0.003 C 
ATOM     20  C   UNL     1     -13.433 -76.605  -7.924  1.00  0.00     0.004 C 
ENDBRANCH  18  19
ENDBRANCH  17  18
ENDBRANCH  16  17
ENDBRANCH  15  16
ENDBRANCH  14  15
ENDBRANCH  13  14
ENDBRANCH  12  13
ENDBRANCH   1  12
TORSDOF 16
ENDMDL
MODEL 6
REMARK VINA RESULT:    -3.011     11.654     14.415
REMARK INTER + INTRA:          -8.887
REMARK INTER:                  -5.728
REMARK INTRA:                  -3.159
REMARK UNBOUND:                -3.060
REMARK SMILES CCCCCCCCCCCCCCCCCC(=O)[O-]
REMARK SMILES IDX 10 1 11 2 12 3 13 4 14 5 15 6 16 7 17 8 18 9 19 10 20 11
REMARK SMILES IDX 9 12 8 13 7 14 6 15 5 16 4 17 3 18 2 19 1 20
REMARK H PARENT
REMARK Flexibility Score: inf
ROOT
ATOM      1  C   UNL     1      -4.556 -63.829  -9.051  1.00  0.00     0.000 C 
ENDROOT
BRANCH   1   2
ATOM      2  C   UNL     1      -5.074 -65.271  -9.199  1.00  0.00     0.000 C 
BRANCH   2   3
ATOM      3  C   UNL     1      -4.381 -66.254  -8.245  1.00  0.00     0.000 C 
BRANCH   3   4
ATOM      4  C   UNL     1      -5.173 -66.405  -6.940  1.00  0.00     0.000 C 
BRANCH   4   5
ATOM      5  C   UNL     1      -4.414 -65.786  -5.757  1.00  0.00     0.000 C 
BRANCH   5   6
ATOM      6  C   UNL     1      -2.975 -65.381  -6.135  1.00  0.00     0.000 C 
BRANCH   6   7
ATOM      7  C   UNL     1      -2.674 -63.889  -5.903  1.00  0.00     0.006 C 
BRANCH   7   8
ATOM      8  C   UNL     1      -1.607 -63.340  -6.858  1.00  0.00     0.053 C 
BRANCH   8   9
ATOM      9  C   UNL     1      -0.316 -64.073  -6.675  1.00  0.00     0.041 C 
ATOM     10  O   UNL     1       0.362 -63.909  -5.627  1.00  0.00    -0.550 OA
ATOM     11  O   UNL     1       0.162 -64.903  -7.682  1.00  0.00    -0.550 OA
ENDBRANCH   8   9
ENDBRANCH   7   8
ENDBRANCH   6   7
ENDBRANCH   5   6
ENDBRANCH   4   5
ENDBRANCH   3   4
ENDBRANCH   2   3
ENDBRANCH   1   2
BRANCH   1  12
ATOM     12  C   UNL     1      -5.644 -62.769  -8.787  1.00  0.00     0.000 C 
BRANCH  12  13
ATOM     13  C   UNL     1      -5.698 -62.236  -7.341  1.00  0.00    -0.000 C 
BRANCH  13  14
ATOM     14  C   UNL     1      -6.674 -62.983  -6.412  1.00  0.00    -0.000 C 
BRANCH  14  15
ATOM     15  C   UNL     1      -8.144 -62.529  -6.505  1.00  0.00    -0.000 C 
BRANCH  15  16
ATOM     16  C   UNL     1      -9.133 -63.605  -6.990  1.00  0.00    -0.000 C 
BRANCH  16  17
ATOM     17  C   UNL     1      -8.429 -64.857  -7.541  1.00  0.00    -0.000 C 
BRANCH  17  18
ATOM     18  C   UNL     1      -8.826 -65.166  -8.993  1.00  0.00    -0.000 C 
BRANCH  18  19
ATOM     19  C   UNL     1      -9.159 -63.902  -9.799  1.00  0.00    -0.003 C 
ATOM     20  C   UNL     1      -8.302 -63.811 -11.059  1.00  0.00     0.004 C 
ENDBRANCH  18  19
ENDBRANCH  17  18
ENDBRANCH  16  17
ENDBRANCH  15  16
ENDBRANCH  14  15
ENDBRANCH  13  14
ENDBRANCH  12  13
ENDBRANCH   1  12
TORSDOF 16
ENDMDL
MODEL 7
REMARK VINA RESULT:    -2.997     11.727     14.085
REMARK INTER + INTRA:          -8.861
REMARK INTER:                  -6.576
REMARK INTRA:                  -2.285
REMARK UNBOUND:                -3.060
REMARK SMILES CCCCCCCCCCCCCCCCCC(=O)[O-]
REMARK SMILES IDX 10 1 11 2 12 3 13 4 14 5 15 6 16 7 17 8 18 9 19 10 20 11
REMARK SMILES IDX 9 12 8 13 7 14 6 15 5 16 4 17 3 18 2 19 1 20
REMARK H PARENT
REMARK Flexibility Score: inf
ROOT
ATOM      1  C   UNL     1      -8.456 -63.149  -7.770  1.00  0.00     0.000 C 
ENDROOT
BRANCH   1   2
ATOM      2  C   UNL     1      -7.849 -62.589  -6.472  1.00  0.00     0.000 C 
BRANCH   2   3
ATOM      3  C   UNL     1      -6.317 -62.502  -6.517  1.00  0.00     0.000 C 
BRANCH   3   4
ATOM      4  C   UNL     1      -5.688 -63.270  -5.348  1.00  0.00     0.000 C 
BRANCH   4   5
ATOM      5  C   UNL     1      -4.183 -63.480  -5.570  1.00  0.00     0.000 C 
BRANCH   5   6
ATOM      6  C   UNL     1      -3.689 -62.828  -6.877  1.00  0.00     0.000 C 
BRANCH   6   7
ATOM      7  C   UNL     1      -2.465 -63.531  -7.491  1.00  0.00     0.006 C 
BRANCH   7   8
ATOM      8  C   UNL     1      -1.134 -62.948  -6.999  1.00  0.00     0.053 C 
BRANCH   8   9
ATOM      9  C   UNL     1      -0.157 -64.044  -6.715  1.00  0.00     0.041 C 
ATOM     10  O   UNL     1       0.499 -64.045  -5.640  1.00  0.00    -0.550 OA
ATOM     11  O   UNL     1       0.065 -65.041  -7.657  1.00  0.00    -0.550 OA
ENDBRANCH   8   9
ENDBRANCH   7   8
ENDBRANCH   6   7
ENDBRANCH   5   6
ENDBRANCH   4   5
ENDBRANCH   3   4
ENDBRANCH   2   3
ENDBRANCH   1   2
BRANCH   1  12
ATOM     12  C   UNL     1      -8.768 -64.658  -7.748  1.00  0.00     0.000 C 
BRANCH  12  13
ATOM     13  C   UNL     1      -8.128 -65.474  -8.889  1.00  0.00    -0.000 C 
BRANCH  13  14
ATOM     14  C   UNL     1      -6.787 -64.919  -9.409  1.00  0.00    -0.000 C 
BRANCH  14  15
ATOM     15  C   UNL     1      -5.550 -65.776  -9.073  1.00  0.00    -0.000 C 
BRANCH  15  16
ATOM     16  C   UNL     1      -5.416 -66.179  -7.593  1.00  0.00    -0.000 C 
BRANCH  16  17
ATOM     17  C   UNL     1      -4.625 -67.485  -7.400  1.00  0.00    -0.000 C 
BRANCH  17  18
ATOM     18  C   UNL     1      -4.609 -67.954  -5.936  1.00  0.00    -0.000 C 
BRANCH  18  19
ATOM     19  C   UNL     1      -3.608 -67.171  -5.073  1.00  0.00    -0.003 C 
ATOM     20  C   UNL     1      -4.255 -66.700  -3.773  1.00  0.00     0.004 C 
ENDBRANCH  18  19
ENDBRANCH  17  18
ENDBRANCH  16  17
ENDBRANCH  15  16
ENDBRANCH  14  15
ENDBRANCH  13  14
ENDBRANCH  12  13
ENDBRANCH   1  12
TORSDOF 16
ENDMDL
MODEL 8
REMARK VINA RESULT:    -2.977      1.475      2.706
REMARK INTER + INTRA:          -8.823
REMARK INTER:                  -6.900
REMARK INTRA:                  -1.923
REMARK UNBOUND:                -3.060
REMARK SMILES CCCCCCCCCCCCCCCCCC(=O)[O-]
REMARK SMILES IDX 10 1 11 2 12 3 13 4 14 5 15 6 16 7 17 8 18 9 19 10 20 11
REMARK SMILES IDX 9 12 8 13 7 14 6 15 5 16 4 17 3 18 2 19 1 20
REMARK H PARENT
REMARK Flexibility Score: inf
ROOT
ATOM      1  C   UNL     1     -16.779 -72.764  -7.909  1.00  0.00     0.000 C 
ENDROOT
BRANCH   1   2
ATOM      2  C   UNL     1     -17.359 -72.426  -9.293  1.00  0.00     0.000 C 
BRANCH   2   3
ATOM      3  C   UNL     1     -16.281 -72.032 -10.313  1.00  0.00     0.000 C 
BRANCH   3   4
ATOM      4  C   UNL     1     -15.226 -73.137 -10.451  1.00  0.00     0.000 C 
BRANCH   4   5
ATOM      5  C   UNL     1     -13.888 -72.705  -9.834  1.00  0.00     0.000 C 
BRANCH   5   6
ATOM      6  C   UNL     1     -13.035 -73.910  -9.387  1.00  0.00     0.000 C 
BRANCH   6   7
ATOM      7  C   UNL     1     -11.520 -73.682  -9.539  1.00  0.00     0.006 C 
BRANCH   7   8
ATOM      8  C   UNL     1     -11.141 -72.196  -9.570  1.00  0.00     0.053 C 
BRANCH   8   9
ATOM      9  C   UNL     1      -9.756 -71.999  -9.041  1.00  0.00     0.041 C 
ATOM     10  O   UNL     1      -9.506 -71.044  -8.260  1.00  0.00    -0.550 OA
ATOM     11  O   UNL     1      -8.730 -72.844  -9.445  1.00  0.00    -0.550 OA
ENDBRANCH   8   9
ENDBRANCH   7   8
ENDBRANCH   6   7
ENDBRANCH   5   6
ENDBRANCH   4   5
ENDBRANCH   3   4
ENDBRANCH   2   3
ENDBRANCH   1   2
BRANCH   1  12
ATOM     12  C   UNL     1     -17.723 -73.553  -6.980  1.00  0.00     0.000 C 
BRANCH  12  13
ATOM     13  C   UNL     1     -17.573 -75.086  -7.048  1.00  0.00    -0.000 C 
BRANCH  13  14
ATOM     14  C   UNL     1     -16.293 -75.582  -7.748  1.00  0.00    -0.000 C 
BRANCH  14  15
ATOM     15  C   UNL     1     -15.492 -76.646  -6.972  1.00  0.00    -0.000 C 
BRANCH  15  16
ATOM     16  C   UNL     1     -14.083 -76.935  -7.520  1.00  0.00    -0.000 C 
BRANCH  16  17
ATOM     17  C   UNL     1     -14.072 -78.056  -8.574  1.00  0.00    -0.000 C 
BRANCH  17  18
ATOM     18  C   UNL     1     -13.676 -77.548  -9.970  1.00  0.00    -0.000 C 
BRANCH  18  19
ATOM     19  C   UNL     1     -14.723 -77.884 -11.043  1.00  0.00    -0.003 C 
ATOM     20  C   UNL     1     -15.671 -76.710 -11.273  1.00  0.00     0.004 C 
ENDBRANCH  18  19
ENDBRANCH  17  18
ENDBRANCH  16  17
ENDBRANCH  15  16
ENDBRANCH  14  15
ENDBRANCH  13  14
ENDBRANCH  12  13
ENDBRANCH   1  12
TORSDOF 16
ENDMDL
MODEL 9
REMARK VINA RESULT:    -2.911     12.866     15.052
REMARK INTER + INTRA:          -8.694
REMARK INTER:                  -6.490
REMARK INTRA:                  -2.204
REMARK UNBOUND:                -3.060
REMARK SMILES CCCCCCCCCCCCCCCCCC(=O)[O-]
REMARK SMILES IDX 10 1 11 2 12 3 13 4 14 5 15 6 16 7 17 8 18 9 19 10 20 11
REMARK SMILES IDX 9 12 8 13 7 14 6 15 5 16 4 17 3 18 2 19 1 20
REMARK H PARENT
REMARK Flexibility Score: inf
ROOT
ATOM      1  C   UNL     1      -6.585 -64.676  -7.145  1.00  0.00     0.000 C 
ENDROOT
BRANCH   1   2
ATOM      2  C   UNL     1      -6.638 -63.293  -7.817  1.00  0.00     0.000 C 
BRANCH   2   3
ATOM      3  C   UNL     1      -6.514 -62.137  -6.815  1.00  0.00     0.000 C 
BRANCH   3   4
ATOM      4  C   UNL     1      -5.256 -61.304  -7.090  1.00  0.00     0.000 C 
BRANCH   4   5
ATOM      5  C   UNL     1      -3.986 -62.069  -6.690  1.00  0.00     0.000 C 
BRANCH   5   6
ATOM      6  C   UNL     1      -3.047 -62.310  -7.889  1.00  0.00     0.000 C 
BRANCH   6   7
ATOM      7  C   UNL     1      -2.041 -63.453  -7.663  1.00  0.00     0.006 C 
BRANCH   7   8
ATOM      8  C   UNL     1      -0.820 -63.020  -6.843  1.00  0.00     0.053 C 
BRANCH   8   9
ATOM      9  C   UNL     1       0.153 -64.148  -6.717  1.00  0.00     0.041 C 
ATOM     10  O   UNL     1       0.225 -65.026  -7.616  1.00  0.00    -0.550 OA
ATOM     11  O   UNL     1       0.949 -64.258  -5.584  1.00  0.00    -0.550 OA
ENDBRANCH   8   9
ENDBRANCH   7   8
ENDBRANCH   6   7
ENDBRANCH   5   6
ENDBRANCH   4   5
ENDBRANCH   3   4
ENDBRANCH   2   3
ENDBRANCH   1   2
BRANCH   1  12
ATOM     12  C   UNL     1      -5.770 -65.741  -7.906  1.00  0.00     0.000 C 
BRANCH  12  13
ATOM     13  C   UNL     1      -4.432 -66.131  -7.248  1.00  0.00    -0.000 C 
BRANCH  13  14
ATOM     14  C   UNL     1      -4.501 -67.355  -6.314  1.00  0.00    -0.000 C 
BRANCH  14  15
ATOM     15  C   UNL     1      -3.683 -67.232  -5.013  1.00  0.00    -0.000 C 
BRANCH  15  16
ATOM     16  C   UNL     1      -4.513 -67.004  -3.736  1.00  0.00    -0.000 C 
BRANCH  16  17
ATOM     17  C   UNL     1      -4.250 -65.632  -3.091  1.00  0.00    -0.000 C 
BRANCH  17  18
ATOM     18  C   UNL     1      -4.617 -64.464  -4.020  1.00  0.00    -0.000 C 
BRANCH  18  19
ATOM     19  C   UNL     1      -5.689 -63.542  -3.419  1.00  0.00    -0.003 C 
ATOM     20  C   UNL     1      -6.294 -64.153  -2.158  1.00  0.00     0.004 C 
ENDBRANCH  18  19
ENDBRANCH  17  18
ENDBRANCH  16  17
ENDBRANCH  15  16
ENDBRANCH  14  15
ENDBRANCH  13  14
ENDBRANCH  12  13
ENDBRANCH   1  12
TORSDOF 16
ENDMDL
