MODEL 1
REMARK VINA RESULT:    -5.496      0.000      0.000
REMARK INTER + INTRA:          -6.232
REMARK INTER:                  -5.978
REMARK INTRA:                  -0.255
REMARK UNBOUND:                -0.255
REMARK SMILES O=C([O-])c1ccccc1O
REMARK SMILES IDX 4 1 9 2 5 3 8 4 6 5 7 6 2 7 1 8 3 9 10 10
REMARK H PARENT 10 11
REMARK Flexibility Score: inf
ROOT
ATOM      1  C   UNL     1      48.721 -47.624 164.753  1.00  0.00     0.039 A 
ATOM      2  C   UNL     1      49.309 -46.362 164.499  1.00  0.00     0.124 A 
ATOM      3  C   UNL     1      49.490 -48.612 165.402  1.00  0.00     0.014 A 
ATOM      4  C   UNL     1      50.633 -46.114 164.895  1.00  0.00     0.047 A 
ATOM      5  C   UNL     1      50.806 -48.351 165.790  1.00  0.00     0.001 A 
ATOM      6  C   UNL     1      51.377 -47.104 165.536  1.00  0.00     0.004 A 
ENDROOT
BRANCH   1   7
ATOM      7  C   UNL     1      47.324 -47.930 164.352  1.00  0.00     0.075 C 
ATOM      8  O   UNL     1      47.053 -49.006 163.756  1.00  0.00    -0.545 OA
ATOM      9  O   UNL     1      46.288 -47.043 164.624  1.00  0.00    -0.545 OA
ENDBRANCH   1   7
BRANCH   2  10
ATOM     10  O   UNL     1      48.588 -45.354 163.860  1.00  0.00    -0.507 OA
ATOM     11  H   UNL     1      48.692 -44.379 164.116  1.00  0.00     0.293 HD
ENDBRANCH   2  10
TORSDOF 2
ENDMDL
MODEL 2
REMARK VINA RESULT:    -5.450      0.901      2.172
REMARK INTER + INTRA:          -6.183
REMARK INTER:                  -5.932
REMARK INTRA:                  -0.251
REMARK UNBOUND:                -0.255
REMARK SMILES O=C([O-])c1ccccc1O
REMARK SMILES IDX 4 1 9 2 5 3 8 4 6 5 7 6 2 7 1 8 3 9 10 10
REMARK H PARENT 10 11
REMARK Flexibility Score: inf
ROOT
ATOM      1  C   UNL     1      48.700 -47.553 164.811  1.00  0.00     0.039 A 
ATOM      2  C   UNL     1      49.394 -48.581 165.493  1.00  0.00     0.124 A 
ATOM      3  C   UNL     1      49.378 -46.350 164.527  1.00  0.00     0.014 A 
ATOM      4  C   UNL     1      50.733 -48.390 165.870  1.00  0.00     0.047 A 
ATOM      5  C   UNL     1      50.710 -46.175 164.908  1.00  0.00     0.001 A 
ATOM      6  C   UNL     1      51.386 -47.193 165.579  1.00  0.00     0.004 A 
ENDROOT
BRANCH   1   7
ATOM      7  C   UNL     1      47.283 -47.711 164.393  1.00  0.00     0.075 C 
ATOM      8  O   UNL     1      46.923 -48.721 163.731  1.00  0.00    -0.545 OA
ATOM      9  O   UNL     1      46.327 -46.756 164.719  1.00  0.00    -0.545 OA
ENDBRANCH   1   7
BRANCH   2  10
ATOM     10  O   UNL     1      48.765 -49.788 165.796  1.00  0.00    -0.507 OA
ATOM     11  H   UNL     1      48.533 -50.044 166.749  1.00  0.00     0.293 HD
ENDBRANCH   2  10
TORSDOF 2
ENDMDL
MODEL 3
REMARK VINA RESULT:    -5.395      6.839      9.087
REMARK INTER + INTRA:          -6.122
REMARK INTER:                  -5.869
REMARK INTRA:                  -0.254
REMARK UNBOUND:                -0.255
REMARK SMILES O=C([O-])c1ccccc1O
REMARK SMILES IDX 4 1 9 2 5 3 8 4 6 5 7 6 2 7 1 8 3 9 10 10
REMARK H PARENT 10 11
REMARK Flexibility Score: inf
ROOT
ATOM      1  C   UNL     1      41.074 -48.327 162.896  1.00  0.00     0.039 A 
ATOM      2  C   UNL     1      40.645 -47.301 162.021  1.00  0.00     0.124 A 
ATOM      3  C   UNL     1      40.185 -49.379 163.195  1.00  0.00     0.014 A 
ATOM      4  C   UNL     1      39.355 -47.346 161.468  1.00  0.00     0.047 A 
ATOM      5  C   UNL     1      38.904 -49.411 162.638  1.00  0.00     0.001 A 
ATOM      6  C   UNL     1      38.490 -48.397 161.776  1.00  0.00     0.004 A 
ENDROOT
BRANCH   1   7
ATOM      7  C   UNL     1      42.430 -48.319 163.503  1.00  0.00     0.075 C 
ATOM      8  O   UNL     1      42.574 -48.499 164.742  1.00  0.00    -0.545 OA
ATOM      9  O   UNL     1      43.564 -48.115 162.725  1.00  0.00    -0.545 OA
ENDBRANCH   1   7
BRANCH   2  10
ATOM     10  O   UNL     1      41.488 -46.239 161.696  1.00  0.00    -0.507 OA
ATOM     11  H   UNL     1      41.352 -45.312 162.082  1.00  0.00     0.293 HD
ENDBRANCH   2  10
TORSDOF 2
ENDMDL
MODEL 4
REMARK VINA RESULT:    -5.284      6.866      9.330
REMARK INTER + INTRA:          -6.003
REMARK INTER:                  -5.751
REMARK INTRA:                  -0.252
REMARK UNBOUND:                -0.255
REMARK SMILES O=C([O-])c1ccccc1O
REMARK SMILES IDX 4 1 9 2 5 3 8 4 6 5 7 6 2 7 1 8 3 9 10 10
REMARK H PARENT 10 11
REMARK Flexibility Score: inf
ROOT
ATOM      1  C   UNL     1      41.157 -48.267 162.522  1.00  0.00     0.039 A 
ATOM      2  C   UNL     1      40.541 -49.416 163.071  1.00  0.00     0.124 A 
ATOM      3  C   UNL     1      40.375 -47.378 161.756  1.00  0.00     0.014 A 
ATOM      4  C   UNL     1      39.175 -49.651 162.849  1.00  0.00     0.047 A 
ATOM      5  C   UNL     1      39.017 -47.625 161.544  1.00  0.00     0.001 A 
ATOM      6  C   UNL     1      38.417 -48.760 162.089  1.00  0.00     0.004 A 
ENDROOT
BRANCH   1   7
ATOM      7  C   UNL     1      42.599 -47.979 162.731  1.00  0.00     0.075 C 
ATOM      8  O   UNL     1      43.345 -47.716 161.750  1.00  0.00    -0.545 OA
ATOM      9  O   UNL     1      43.157 -47.992 164.004  1.00  0.00    -0.545 OA
ENDBRANCH   1   7
BRANCH   2  10
ATOM     10  O   UNL     1      41.274 -50.325 163.835  1.00  0.00    -0.507 OA
ATOM     11  H   UNL     1      41.116 -51.324 163.772  1.00  0.00     0.293 HD
ENDBRANCH   2  10
TORSDOF 2
ENDMDL
MODEL 5
REMARK VINA RESULT:    -5.232      2.891      4.719
REMARK INTER + INTRA:          -5.945
REMARK INTER:                  -5.706
REMARK INTRA:                  -0.240
REMARK UNBOUND:                -0.255
REMARK SMILES O=C([O-])c1ccccc1O
REMARK SMILES IDX 4 1 9 2 5 3 8 4 6 5 7 6 2 7 1 8 3 9 10 10
REMARK H PARENT 10 11
REMARK Flexibility Score: inf
ROOT
ATOM      1  C   UNL     1      46.318 -46.975 164.153  1.00  0.00     0.039 A 
ATOM      2  C   UNL     1      46.490 -48.375 164.031  1.00  0.00     0.124 A 
ATOM      3  C   UNL     1      45.442 -46.320 163.264  1.00  0.00     0.014 A 
ATOM      4  C   UNL     1      45.791 -49.082 163.040  1.00  0.00     0.047 A 
ATOM      5  C   UNL     1      44.754 -47.036 162.283  1.00  0.00     0.001 A 
ATOM      6  C   UNL     1      44.928 -48.415 162.170  1.00  0.00     0.004 A 
ENDROOT
BRANCH   1   7
ATOM      7  C   UNL     1      47.037 -46.187 165.187  1.00  0.00     0.075 C 
ATOM      8  O   UNL     1      48.296 -46.173 165.216  1.00  0.00    -0.545 OA
ATOM      9  O   UNL     1      46.342 -45.453 166.141  1.00  0.00    -0.545 OA
ENDBRANCH   1   7
BRANCH   2  10
ATOM     10  O   UNL     1      47.346 -49.067 164.887  1.00  0.00    -0.507 OA
ATOM     11  H   UNL     1      47.961 -49.799 164.550  1.00  0.00     0.293 HD
ENDBRANCH   2  10
TORSDOF 2
ENDMDL
MODEL 6
REMARK VINA RESULT:    -5.125      3.026      4.354
REMARK INTER + INTRA:          -5.829
REMARK INTER:                  -5.583
REMARK INTRA:                  -0.246
REMARK UNBOUND:                -0.255
REMARK SMILES O=C([O-])c1ccccc1O
REMARK SMILES IDX 4 1 9 2 5 3 8 4 6 5 7 6 2 7 1 8 3 9 10 10
REMARK H PARENT 10 11
REMARK Flexibility Score: inf
ROOT
ATOM      1  C   UNL     1      46.329 -48.561 164.044  1.00  0.00     0.039 A 
ATOM      2  C   UNL     1      46.158 -47.168 164.224  1.00  0.00     0.124 A 
ATOM      3  C   UNL     1      45.275 -49.426 164.404  1.00  0.00     0.014 A 
ATOM      4  C   UNL     1      44.955 -46.673 164.750  1.00  0.00     0.047 A 
ATOM      5  C   UNL     1      44.083 -48.918 164.927  1.00  0.00     0.001 A 
ATOM      6  C   UNL     1      43.923 -47.544 165.100  1.00  0.00     0.004 A 
ENDROOT
BRANCH   1   7
ATOM      7  C   UNL     1      47.585 -49.130 163.491  1.00  0.00     0.075 C 
ATOM      8  O   UNL     1      47.551 -49.897 162.492  1.00  0.00    -0.545 OA
ATOM      9  O   UNL     1      48.819 -48.831 164.056  1.00  0.00    -0.545 OA
ENDBRANCH   1   7
BRANCH   2  10
ATOM     10  O   UNL     1      47.172 -46.274 163.882  1.00  0.00    -0.507 OA
ATOM     11  H   UNL     1      47.470 -45.538 164.513  1.00  0.00     0.293 HD
ENDBRANCH   2  10
TORSDOF 2
ENDMDL
MODEL 7
REMARK VINA RESULT:    -5.055      4.903      5.877
REMARK INTER + INTRA:          -5.753
REMARK INTER:                  -5.503
REMARK INTRA:                  -0.251
REMARK UNBOUND:                -0.255
REMARK SMILES O=C([O-])c1ccccc1O
REMARK SMILES IDX 4 1 9 2 5 3 8 4 6 5 7 6 2 7 1 8 3 9 10 10
REMARK H PARENT 10 11
REMARK Flexibility Score: inf
ROOT
ATOM      1  C   UNL     1      43.257 -48.505 163.752  1.00  0.00     0.039 A 
ATOM      2  C   UNL     1      43.677 -47.574 162.772  1.00  0.00     0.124 A 
ATOM      3  C   UNL     1      44.195 -49.427 164.258  1.00  0.00     0.014 A 
ATOM      4  C   UNL     1      45.009 -47.581 162.326  1.00  0.00     0.047 A 
ATOM      5  C   UNL     1      45.517 -49.422 163.805  1.00  0.00     0.001 A 
ATOM      6  C   UNL     1      45.923 -48.501 162.840  1.00  0.00     0.004 A 
ENDROOT
BRANCH   1   7
ATOM      7  C   UNL     1      41.859 -48.533 164.253  1.00  0.00     0.075 C 
ATOM      8  O   UNL     1      41.625 -48.503 165.491  1.00  0.00    -0.545 OA
ATOM      9  O   UNL     1      40.782 -48.595 163.376  1.00  0.00    -0.545 OA
ENDBRANCH   1   7
BRANCH   2  10
ATOM     10  O   UNL     1      42.785 -46.643 162.241  1.00  0.00    -0.507 OA
ATOM     11  H   UNL     1      41.914 -46.413 162.706  1.00  0.00     0.293 HD
ENDBRANCH   2  10
TORSDOF 2
ENDMDL
MODEL 8
REMARK VINA RESULT:    -4.977      4.379      5.831
REMARK INTER + INTRA:          -5.668
REMARK INTER:                  -5.420
REMARK INTRA:                  -0.248
REMARK UNBOUND:                -0.255
REMARK SMILES O=C([O-])c1ccccc1O
REMARK SMILES IDX 4 1 9 2 5 3 8 4 6 5 7 6 2 7 1 8 3 9 10 10
REMARK H PARENT 10 11
REMARK Flexibility Score: inf
ROOT
ATOM      1  C   UNL     1      43.645 -47.768 163.021  1.00  0.00     0.039 A 
ATOM      2  C   UNL     1      44.102 -48.841 163.823  1.00  0.00     0.124 A 
ATOM      3  C   UNL     1      44.458 -46.624 162.890  1.00  0.00     0.014 A 
ATOM      4  C   UNL     1      45.346 -48.752 164.468  1.00  0.00     0.047 A 
ATOM      5  C   UNL     1      45.693 -46.550 163.538  1.00  0.00     0.001 A 
ATOM      6  C   UNL     1      46.136 -47.611 164.326  1.00  0.00     0.004 A 
ENDROOT
BRANCH   1   7
ATOM      7  C   UNL     1      42.336 -47.820 162.320  1.00  0.00     0.075 C 
ATOM      8  O   UNL     1      41.278 -48.054 162.962  1.00  0.00    -0.545 OA
ATOM      9  O   UNL     1      42.248 -47.612 160.948  1.00  0.00    -0.545 OA
ENDBRANCH   1   7
BRANCH   2  10
ATOM     10  O   UNL     1      43.332 -49.993 163.982  1.00  0.00    -0.507 OA
ATOM     11  H   UNL     1      42.901 -50.228 164.869  1.00  0.00     0.293 HD
ENDBRANCH   2  10
TORSDOF 2
ENDMDL
MODEL 9
REMARK VINA RESULT:    -4.858      3.935      6.249
REMARK INTER + INTRA:          -5.539
REMARK INTER:                  -5.284
REMARK INTRA:                  -0.255
REMARK UNBOUND:                -0.255
REMARK SMILES O=C([O-])c1ccccc1O
REMARK SMILES IDX 4 1 9 2 5 3 8 4 6 5 7 6 2 7 1 8 3 9 10 10
REMARK H PARENT 10 11
REMARK Flexibility Score: inf
ROOT
ATOM      1  C   UNL     1      44.340 -48.341 164.062  1.00  0.00     0.039 A 
ATOM      2  C   UNL     1      43.291 -48.375 163.112  1.00  0.00     0.124 A 
ATOM      3  C   UNL     1      44.014 -48.352 165.433  1.00  0.00     0.014 A 
ATOM      4  C   UNL     1      41.956 -48.421 163.545  1.00  0.00     0.047 A 
ATOM      5  C   UNL     1      42.681 -48.398 165.849  1.00  0.00     0.001 A 
ATOM      6  C   UNL     1      41.654 -48.432 164.906  1.00  0.00     0.004 A 
ENDROOT
BRANCH   1   7
ATOM      7  C   UNL     1      45.766 -48.293 163.649  1.00  0.00     0.075 C 
ATOM      8  O   UNL     1      46.553 -47.461 164.175  1.00  0.00    -0.545 OA
ATOM      9  O   UNL     1      46.263 -49.157 162.680  1.00  0.00    -0.545 OA
ENDBRANCH   1   7
BRANCH   2  10
ATOM     10  O   UNL     1      43.565 -48.366 161.744  1.00  0.00    -0.507 OA
ATOM     11  H   UNL     1      43.181 -47.659 161.128  1.00  0.00     0.293 HD
ENDBRANCH   2  10
TORSDOF 2
ENDMDL
