MODEL 1
REMARK VINA RESULT:    -3.062      0.000      0.000
REMARK INTER + INTRA:          -3.583
REMARK INTER:                  -3.509
REMARK INTRA:                  -0.074
REMARK UNBOUND:                -0.074
REMARK SMILES COc1cc(C=O)ccc1O
REMARK SMILES IDX 3 1 10 2 9 3 8 4 5 5 4 6 2 7 1 8 11 9 6 11 7 12
REMARK H PARENT 11 10
REMARK Flexibility Score: inf
ROOT
ATOM      1  C   UNL     1     142.750 137.266 143.099  1.00  0.00     0.161 A 
ATOM      2  C   UNL     1     142.935 137.286 141.704  1.00  0.00     0.157 A 
ATOM      3  C   UNL     1     143.558 138.381 141.096  1.00  0.00     0.051 A 
ATOM      4  C   UNL     1     144.000 139.460 141.864  1.00  0.00     0.015 A 
ATOM      5  C   UNL     1     143.824 139.457 143.256  1.00  0.00     0.018 A 
ATOM      6  C   UNL     1     143.199 138.360 143.868  1.00  0.00     0.062 A 
ENDROOT
BRANCH   1   7
ATOM      7  O   UNL     1     142.122 136.154 143.682  1.00  0.00    -0.493 OA
ATOM      8  C   UNL     1     140.768 136.131 144.125  1.00  0.00     0.278 C 
ENDBRANCH   1   7
BRANCH   2   9
ATOM      9  O   UNL     1     142.506 136.227 140.905  1.00  0.00    -0.504 OA
ATOM     10  H   UNL     1     141.638 135.736 141.080  1.00  0.00     0.293 HD
ENDBRANCH   2   9
BRANCH   5  11
ATOM     11  C   UNL     1     144.285 140.588 144.084  1.00  0.00     0.260 C 
ATOM     12  O   UNL     1     145.498 140.930 144.101  1.00  0.00    -0.298 OA
ENDBRANCH   5  11
TORSDOF 3
ENDMDL
MODEL 2
REMARK VINA RESULT:    -3.051      2.150      5.105
REMARK INTER + INTRA:          -3.571
REMARK INTER:                  -3.505
REMARK INTRA:                  -0.066
REMARK UNBOUND:                -0.074
REMARK SMILES COc1cc(C=O)ccc1O
REMARK SMILES IDX 3 1 10 2 9 3 8 4 5 5 4 6 2 7 1 8 11 9 6 11 7 12
REMARK H PARENT 11 10
REMARK Flexibility Score: inf
ROOT
ATOM      1  C   UNL     1     144.590 141.004 141.485  1.00  0.00     0.161 A 
ATOM      2  C   UNL     1     145.255 141.711 142.505  1.00  0.00     0.157 A 
ATOM      3  C   UNL     1     145.308 141.186 143.800  1.00  0.00     0.051 A 
ATOM      4  C   UNL     1     144.706 139.961 144.093  1.00  0.00     0.015 A 
ATOM      5  C   UNL     1     144.039 139.242 143.089  1.00  0.00     0.018 A 
ATOM      6  C   UNL     1     143.984 139.768 141.788  1.00  0.00     0.062 A 
ENDROOT
BRANCH   1   7
ATOM      7  O   UNL     1     144.552 141.555 140.194  1.00  0.00    -0.493 OA
ATOM      8  C   UNL     1     145.518 141.303 139.179  1.00  0.00     0.278 C 
ENDBRANCH   1   7
BRANCH   2   9
ATOM      9  O   UNL     1     145.868 142.937 142.249  1.00  0.00    -0.504 OA
ATOM     10  H   UNL     1     146.868 143.024 142.112  1.00  0.00     0.293 HD
ENDBRANCH   2   9
BRANCH   5  11
ATOM     11  C   UNL     1     143.398 137.947 143.379  1.00  0.00     0.260 C 
ATOM     12  O   UNL     1     143.141 137.126 142.457  1.00  0.00    -0.298 OA
ENDBRANCH   5  11
TORSDOF 3
ENDMDL
MODEL 3
REMARK VINA RESULT:    -3.050      5.931      7.569
REMARK INTER + INTRA:          -3.570
REMARK INTER:                  -3.495
REMARK INTRA:                  -0.076
REMARK UNBOUND:                -0.074
REMARK SMILES COc1cc(C=O)ccc1O
REMARK SMILES IDX 3 1 10 2 9 3 8 4 5 5 4 6 2 7 1 8 11 9 6 11 7 12
REMARK H PARENT 11 10
REMARK Flexibility Score: inf
ROOT
ATOM      1  C   UNL     1     140.661 144.666 141.479  1.00  0.00     0.161 A 
ATOM      2  C   UNL     1     139.920 145.280 142.506  1.00  0.00     0.157 A 
ATOM      3  C   UNL     1     140.398 145.261 143.821  1.00  0.00     0.051 A 
ATOM      4  C   UNL     1     141.608 144.636 144.125  1.00  0.00     0.015 A 
ATOM      5  C   UNL     1     142.360 144.019 143.113  1.00  0.00     0.018 A 
ATOM      6  C   UNL     1     141.882 144.036 141.794  1.00  0.00     0.062 A 
ENDROOT
BRANCH   1   7
ATOM      7  O   UNL     1     140.157 144.700 140.169  1.00  0.00    -0.493 OA
ATOM      8  C   UNL     1     140.546 145.645 139.177  1.00  0.00     0.278 C 
ENDBRANCH   1   7
BRANCH   2   9
ATOM      9  O   UNL     1     138.707 145.914 142.240  1.00  0.00    -0.504 OA
ATOM     10  H   UNL     1     138.403 146.736 142.748  1.00  0.00     0.293 HD
ENDBRANCH   2   9
BRANCH   5  11
ATOM     11  C   UNL     1     143.641 143.354 143.415  1.00  0.00     0.260 C 
ATOM     12  O   UNL     1     144.476 143.105 142.504  1.00  0.00    -0.298 OA
ENDBRANCH   5  11
TORSDOF 3
ENDMDL
MODEL 4
REMARK VINA RESULT:    -3.041      4.597      5.807
REMARK INTER + INTRA:          -3.560
REMARK INTER:                  -3.484
REMARK INTRA:                  -0.075
REMARK UNBOUND:                -0.074
REMARK SMILES COc1cc(C=O)ccc1O
REMARK SMILES IDX 3 1 10 2 9 3 8 4 5 5 4 6 2 7 1 8 11 9 6 11 7 12
REMARK H PARENT 11 10
REMARK Flexibility Score: inf
ROOT
ATOM      1  C   UNL     1     144.368 142.765 143.021  1.00  0.00     0.161 A 
ATOM      2  C   UNL     1     144.276 142.900 141.624  1.00  0.00     0.157 A 
ATOM      3  C   UNL     1     143.161 143.522 141.053  1.00  0.00     0.051 A 
ATOM      4  C   UNL     1     142.133 144.012 141.860  1.00  0.00     0.015 A 
ATOM      5  C   UNL     1     142.209 143.886 143.256  1.00  0.00     0.018 A 
ATOM      6  C   UNL     1     143.327 143.263 143.831  1.00  0.00     0.062 A 
ENDROOT
BRANCH   1   7
ATOM      7  O   UNL     1     145.499 142.136 143.567  1.00  0.00    -0.493 OA
ATOM      8  C   UNL     1     145.506 140.826 144.125  1.00  0.00     0.278 C 
ENDBRANCH   1   7
BRANCH   2   9
ATOM      9  O   UNL     1     145.283 142.422 140.786  1.00  0.00    -0.504 OA
ATOM     10  H   UNL     1     145.435 141.432 140.634  1.00  0.00     0.293 HD
ENDBRANCH   2   9
BRANCH   5  11
ATOM     11  C   UNL     1     141.133 144.399 144.125  1.00  0.00     0.260 C 
ATOM     12  O   UNL     1     140.507 145.453 143.833  1.00  0.00    -0.298 OA
ENDBRANCH   5  11
TORSDOF 3
ENDMDL
MODEL 5
REMARK VINA RESULT:    -3.027      3.355      4.833
REMARK INTER + INTRA:          -3.543
REMARK INTER:                  -3.467
REMARK INTRA:                  -0.076
REMARK UNBOUND:                -0.074
REMARK SMILES COc1cc(C=O)ccc1O
REMARK SMILES IDX 3 1 10 2 9 3 8 4 5 5 4 6 2 7 1 8 11 9 6 11 7 12
REMARK H PARENT 11 10
REMARK Flexibility Score: inf
ROOT
ATOM      1  C   UNL     1     140.962 136.962 141.455  1.00  0.00     0.161 A 
ATOM      2  C   UNL     1     141.712 136.317 142.456  1.00  0.00     0.157 A 
ATOM      3  C   UNL     1     141.256 136.311 143.778  1.00  0.00     0.051 A 
ATOM      4  C   UNL     1     140.058 136.941 144.116  1.00  0.00     0.015 A 
ATOM      5  C   UNL     1     139.297 137.589 143.131  1.00  0.00     0.018 A 
ATOM      6  C   UNL     1     139.753 137.597 141.804  1.00  0.00     0.062 A 
ENDROOT
BRANCH   1   7
ATOM      7  O   UNL     1     141.445 136.953 140.136  1.00  0.00    -0.493 OA
ATOM      8  C   UNL     1     141.018 136.045 139.126  1.00  0.00     0.278 C 
ENDBRANCH   1   7
BRANCH   2   9
ATOM      9  O   UNL     1     142.915 135.677 142.155  1.00  0.00    -0.504 OA
ATOM     10  H   UNL     1     143.764 136.190 141.952  1.00  0.00     0.293 HD
ENDBRANCH   2   9
BRANCH   5  11
ATOM     11  C   UNL     1     138.028 138.261 143.470  1.00  0.00     0.260 C 
ATOM     12  O   UNL     1     137.157 138.488 142.588  1.00  0.00    -0.298 OA
ENDBRANCH   5  11
TORSDOF 3
ENDMDL
MODEL 6
REMARK VINA RESULT:    -3.022      5.368      6.137
REMARK INTER + INTRA:          -3.538
REMARK INTER:                  -3.461
REMARK INTRA:                  -0.077
REMARK UNBOUND:                -0.074
REMARK SMILES COc1cc(C=O)ccc1O
REMARK SMILES IDX 3 1 10 2 9 3 8 4 5 5 4 6 2 7 1 8 11 9 6 11 7 12
REMARK H PARENT 11 10
REMARK Flexibility Score: inf
ROOT
ATOM      1  C   UNL     1     138.877 139.577 144.083  1.00  0.00     0.161 A 
ATOM      2  C   UNL     1     137.676 138.843 144.090  1.00  0.00     0.157 A 
ATOM      3  C   UNL     1     136.447 139.511 144.063  1.00  0.00     0.051 A 
ATOM      4  C   UNL     1     136.401 140.906 144.029  1.00  0.00     0.015 A 
ATOM      5  C   UNL     1     137.588 141.653 144.021  1.00  0.00     0.018 A 
ATOM      6  C   UNL     1     138.822 140.985 144.049  1.00  0.00     0.062 A 
ENDROOT
BRANCH   1   7
ATOM      7  O   UNL     1     140.096 138.880 144.111  1.00  0.00    -0.493 OA
ATOM      8  C   UNL     1     140.893 138.599 142.964  1.00  0.00     0.278 C 
ENDBRANCH   1   7
BRANCH   2   9
ATOM      9  O   UNL     1     137.684 137.449 144.124  1.00  0.00    -0.504 OA
ATOM     10  H   UNL     1     137.921 136.930 144.961  1.00  0.00     0.293 HD
ENDBRANCH   2   9
BRANCH   5  11
ATOM     11  C   UNL     1     137.559 143.128 143.985  1.00  0.00     0.260 C 
ATOM     12  O   UNL     1     138.614 143.803 144.124  1.00  0.00    -0.298 OA
ENDBRANCH   5  11
TORSDOF 3
ENDMDL
MODEL 7
REMARK VINA RESULT:    -3.021      3.484      5.305
REMARK INTER + INTRA:          -3.537
REMARK INTER:                  -3.480
REMARK INTRA:                  -0.056
REMARK UNBOUND:                -0.074
REMARK SMILES COc1cc(C=O)ccc1O
REMARK SMILES IDX 3 1 10 2 9 3 8 4 5 5 4 6 2 7 1 8 11 9 6 11 7 12
REMARK H PARENT 11 10
REMARK Flexibility Score: inf
ROOT
ATOM      1  C   UNL     1     138.737 137.939 141.742  1.00  0.00     0.161 A 
ATOM      2  C   UNL     1     138.035 137.946 142.961  1.00  0.00     0.157 A 
ATOM      3  C   UNL     1     138.649 137.472 144.125  1.00  0.00     0.051 A 
ATOM      4  C   UNL     1     139.958 136.989 144.088  1.00  0.00     0.015 A 
ATOM      5  C   UNL     1     140.673 136.975 142.881  1.00  0.00     0.018 A 
ATOM      6  C   UNL     1     140.059 137.450 141.712  1.00  0.00     0.062 A 
ENDROOT
BRANCH   1   7
ATOM      7  O   UNL     1     138.096 138.421 140.589  1.00  0.00    -0.493 OA
ATOM      8  C   UNL     1     138.178 137.812 139.304  1.00  0.00     0.278 C 
ENDBRANCH   1   7
BRANCH   2   9
ATOM      9  O   UNL     1     136.726 138.421 143.036  1.00  0.00    -0.504 OA
ATOM     10  H   UNL     1     136.001 137.928 143.544  1.00  0.00     0.293 HD
ENDBRANCH   2   9
BRANCH   5  11
ATOM     11  C   UNL     1     142.057 136.469 142.823  1.00  0.00     0.260 C 
ATOM     12  O   UNL     1     142.415 135.651 141.933  1.00  0.00    -0.298 OA
ENDBRANCH   5  11
TORSDOF 3
ENDMDL
MODEL 8
REMARK VINA RESULT:    -3.008      1.733      3.028
REMARK INTER + INTRA:          -3.521
REMARK INTER:                  -3.468
REMARK INTRA:                  -0.053
REMARK UNBOUND:                -0.074
REMARK SMILES COc1cc(C=O)ccc1O
REMARK SMILES IDX 3 1 10 2 9 3 8 4 5 5 4 6 2 7 1 8 11 9 6 11 7 12
REMARK H PARENT 11 10
REMARK Flexibility Score: inf
ROOT
ATOM      1  C   UNL     1     143.673 138.679 141.727  1.00  0.00     0.161 A 
ATOM      2  C   UNL     1     143.643 138.031 142.976  1.00  0.00     0.157 A 
ATOM      3  C   UNL     1     144.070 138.705 144.125  1.00  0.00     0.051 A 
ATOM      4  C   UNL     1     144.526 140.022 144.044  1.00  0.00     0.015 A 
ATOM      5  C   UNL     1     144.562 140.684 142.807  1.00  0.00     0.018 A 
ATOM      6  C   UNL     1     144.136 140.009 141.653  1.00  0.00     0.062 A 
ENDROOT
BRANCH   1   7
ATOM      7  O   UNL     1     143.239 137.978 140.590  1.00  0.00    -0.493 OA
ATOM      8  C   UNL     1     143.761 138.164 139.278  1.00  0.00     0.278 C 
ENDBRANCH   1   7
BRANCH   2   9
ATOM      9  O   UNL     1     143.194 136.716 143.094  1.00  0.00    -0.504 OA
ATOM     10  H   UNL     1     142.686 136.390 143.908  1.00  0.00     0.293 HD
ENDBRANCH   2   9
BRANCH   5  11
ATOM     11  C   UNL     1     145.041 142.075 142.703  1.00  0.00     0.260 C 
ATOM     12  O   UNL     1     146.024 142.372 141.972  1.00  0.00    -0.298 OA
ENDBRANCH   5  11
TORSDOF 3
ENDMDL
MODEL 9
REMARK VINA RESULT:    -2.997      2.519      5.064
REMARK INTER + INTRA:          -3.509
REMARK INTER:                  -3.433
REMARK INTRA:                  -0.076
REMARK UNBOUND:                -0.074
REMARK SMILES COc1cc(C=O)ccc1O
REMARK SMILES IDX 3 1 10 2 9 3 8 4 5 5 4 6 2 7 1 8 11 9 6 11 7 12
REMARK H PARENT 11 10
REMARK Flexibility Score: inf
ROOT
ATOM      1  C   UNL     1     142.722 141.944 143.967  1.00  0.00     0.161 A 
ATOM      2  C   UNL     1     143.927 142.664 144.069  1.00  0.00     0.157 A 
ATOM      3  C   UNL     1     145.147 141.982 144.117  1.00  0.00     0.051 A 
ATOM      4  C   UNL     1     145.181 140.587 144.064  1.00  0.00     0.015 A 
ATOM      5  C   UNL     1     143.989 139.854 143.963  1.00  0.00     0.018 A 
ATOM      6  C   UNL     1     142.764 140.536 143.915  1.00  0.00     0.062 A 
ENDROOT
BRANCH   1   7
ATOM      7  O   UNL     1     141.512 142.655 143.921  1.00  0.00    -0.493 OA
ATOM      8  C   UNL     1     140.769 142.911 142.733  1.00  0.00     0.278 C 
ENDBRANCH   1   7
BRANCH   2   9
ATOM      9  O   UNL     1     143.932 144.057 144.125  1.00  0.00    -0.504 OA
ATOM     10  H   UNL     1     143.218 144.619 143.676  1.00  0.00     0.293 HD
ENDBRANCH   2   9
BRANCH   5  11
ATOM     11  C   UNL     1     144.006 138.380 143.905  1.00  0.00     0.260 C 
ATOM     12  O   UNL     1     142.944 137.712 144.032  1.00  0.00    -0.298 OA
ENDBRANCH   5  11
TORSDOF 3
ENDMDL
