MODEL 1
REMARK VINA RESULT:    -5.207      0.000      0.000
REMARK INTER + INTRA:          -5.792
REMARK INTER:                  -5.664
REMARK INTRA:                  -0.128
REMARK UNBOUND:                -0.128
REMARK SMILES Cc1ccc(C(C)C)cc1O
REMARK SMILES IDX 1 1 2 2 10 3 9 4 5 5 4 6 3 7 11 8 6 10 7 11 8 12
REMARK H PARENT 11 9
REMARK Flexibility Score: inf
ROOT
ATOM      1  C   UNL     1     159.673 169.978 170.165  1.00  0.00     0.048 C 
ATOM      2  C   UNL     1     159.415 168.852 171.128  1.00  0.00    -0.009 A 
ATOM      3  C   UNL     1     160.175 168.711 172.310  1.00  0.00     0.118 A 
ATOM      4  C   UNL     1     159.911 167.653 173.185  1.00  0.00     0.050 A 
ATOM      5  C   UNL     1     158.894 166.721 172.906  1.00  0.00    -0.042 A 
ATOM      6  C   UNL     1     158.143 166.868 171.730  1.00  0.00     0.004 A 
ATOM      7  C   UNL     1     158.400 167.923 170.851  1.00  0.00     0.007 A 
ENDROOT
BRANCH   3   8
ATOM      8  O   UNL     1     161.198 169.603 172.641  1.00  0.00    -0.508 OA
ATOM      9  H   UNL     1     162.163 169.320 172.755  1.00  0.00     0.293 HD
ENDBRANCH   3   8
BRANCH   5  10
ATOM     10  C   UNL     1     158.603 165.570 173.853  1.00  0.00     0.013 C 
ATOM     11  C   UNL     1     158.228 164.301 173.080  1.00  0.00     0.012 C 
ATOM     12  C   UNL     1     157.511 165.946 174.861  1.00  0.00     0.012 C 
ENDBRANCH   5  10
TORSDOF 2
ENDMDL
MODEL 2
REMARK VINA RESULT:    -5.152      3.082      4.116
REMARK INTER + INTRA:          -5.732
REMARK INTER:                  -5.618
REMARK INTRA:                  -0.114
REMARK UNBOUND:                -0.128
REMARK SMILES Cc1ccc(C(C)C)cc1O
REMARK SMILES IDX 1 1 2 2 10 3 9 4 5 5 4 6 3 7 11 8 6 10 7 11 8 12
REMARK H PARENT 11 9
REMARK Flexibility Score: inf
ROOT
ATOM      1  C   UNL     1     156.692 164.848 168.207  1.00  0.00     0.048 C 
ATOM      2  C   UNL     1     157.134 165.400 169.534  1.00  0.00    -0.009 A 
ATOM      3  C   UNL     1     157.271 164.564 170.665  1.00  0.00     0.118 A 
ATOM      4  C   UNL     1     157.685 165.107 171.886  1.00  0.00     0.050 A 
ATOM      5  C   UNL     1     157.969 166.480 172.007  1.00  0.00    -0.042 A 
ATOM      6  C   UNL     1     157.830 167.303 170.879  1.00  0.00     0.004 A 
ATOM      7  C   UNL     1     157.418 166.769 169.656  1.00  0.00     0.007 A 
ENDROOT
BRANCH   3   8
ATOM      8  O   UNL     1     157.005 163.194 170.607  1.00  0.00    -0.508 OA
ATOM      9  H   UNL     1     157.729 162.494 170.506  1.00  0.00     0.293 HD
ENDBRANCH   3   8
BRANCH   5  10
ATOM     10  C   UNL     1     158.418 167.074 173.330  1.00  0.00     0.013 C 
ATOM     11  C   UNL     1     159.852 167.606 173.237  1.00  0.00     0.012 C 
ATOM     12  C   UNL     1     158.279 166.056 174.468  1.00  0.00     0.012 C 
ENDBRANCH   5  10
TORSDOF 2
ENDMDL
MODEL 3
REMARK VINA RESULT:    -5.102      1.880      4.833
REMARK INTER + INTRA:          -5.678
REMARK INTER:                  -5.552
REMARK INTRA:                  -0.125
REMARK UNBOUND:                -0.128
REMARK SMILES Cc1ccc(C(C)C)cc1O
REMARK SMILES IDX 1 1 2 2 10 3 9 4 5 5 4 6 3 7 11 8 6 10 7 11 8 12
REMARK H PARENT 11 9
REMARK Flexibility Score: inf
ROOT
ATOM      1  C   UNL     1     158.405 165.918 173.535  1.00  0.00     0.048 C 
ATOM      2  C   UNL     1     158.997 167.094 172.808  1.00  0.00    -0.009 A 
ATOM      3  C   UNL     1     158.546 167.461 171.521  1.00  0.00     0.118 A 
ATOM      4  C   UNL     1     159.116 168.560 170.871  1.00  0.00     0.050 A 
ATOM      5  C   UNL     1     160.137 169.311 171.482  1.00  0.00    -0.042 A 
ATOM      6  C   UNL     1     160.580 168.940 172.761  1.00  0.00     0.004 A 
ATOM      7  C   UNL     1     160.016 167.844 173.417  1.00  0.00     0.007 A 
ENDROOT
BRANCH   3   8
ATOM      8  O   UNL     1     157.535 166.755 170.864  1.00  0.00    -0.508 OA
ATOM      9  H   UNL     1     157.686 165.856 170.424  1.00  0.00     0.293 HD
ENDBRANCH   3   8
BRANCH   5  10
ATOM     10  C   UNL     1     160.760 170.505 170.780  1.00  0.00     0.013 C 
ATOM     11  C   UNL     1     160.552 170.423 169.263  1.00  0.00     0.012 C 
ATOM     12  C   UNL     1     162.247 170.636 171.127  1.00  0.00     0.012 C 
ENDBRANCH   5  10
TORSDOF 2
ENDMDL
MODEL 4
REMARK VINA RESULT:    -5.079      1.402      2.023
REMARK INTER + INTRA:          -5.652
REMARK INTER:                  -5.547
REMARK INTRA:                  -0.104
REMARK UNBOUND:                -0.128
REMARK SMILES Cc1ccc(C(C)C)cc1O
REMARK SMILES IDX 1 1 2 2 10 3 9 4 5 5 4 6 3 7 11 8 6 10 7 11 8 12
REMARK H PARENT 11 9
REMARK Flexibility Score: inf
ROOT
ATOM      1  C   UNL     1     160.160 170.252 170.402  1.00  0.00     0.048 C 
ATOM      2  C   UNL     1     159.756 169.098 171.278  1.00  0.00    -0.009 A 
ATOM      3  C   UNL     1     158.758 168.185 170.871  1.00  0.00     0.118 A 
ATOM      4  C   UNL     1     158.404 167.121 171.707  1.00  0.00     0.050 A 
ATOM      5  C   UNL     1     159.029 166.945 172.955  1.00  0.00    -0.042 A 
ATOM      6  C   UNL     1     160.020 167.856 173.353  1.00  0.00     0.004 A 
ATOM      7  C   UNL     1     160.380 168.920 172.523  1.00  0.00     0.007 A 
ENDROOT
BRANCH   3   8
ATOM      8  O   UNL     1     158.101 168.308 169.644  1.00  0.00    -0.508 OA
ATOM      9  H   UNL     1     157.506 169.093 169.411  1.00  0.00     0.293 HD
ENDBRANCH   3   8
BRANCH   5  10
ATOM     10  C   UNL     1     158.649 165.792 173.867  1.00  0.00     0.013 C 
ATOM     11  C   UNL     1     158.233 164.560 173.055  1.00  0.00     0.012 C 
ATOM     12  C   UNL     1     157.546 166.205 174.848  1.00  0.00     0.012 C 
ENDBRANCH   5  10
TORSDOF 2
ENDMDL
MODEL 5
REMARK VINA RESULT:    -5.059      1.451      2.327
REMARK INTER + INTRA:          -5.631
REMARK INTER:                  -5.507
REMARK INTRA:                  -0.124
REMARK UNBOUND:                -0.128
REMARK SMILES Cc1ccc(C(C)C)cc1O
REMARK SMILES IDX 1 1 2 2 10 3 9 4 5 5 4 6 3 7 11 8 6 10 7 11 8 12
REMARK H PARENT 11 9
REMARK Flexibility Score: inf
ROOT
ATOM      1  C   UNL     1     161.095 170.116 172.354  1.00  0.00     0.048 C 
ATOM      2  C   UNL     1     160.186 168.918 172.361  1.00  0.00    -0.009 A 
ATOM      3  C   UNL     1     159.376 168.608 171.246  1.00  0.00     0.118 A 
ATOM      4  C   UNL     1     158.541 167.486 171.283  1.00  0.00     0.050 A 
ATOM      5  C   UNL     1     158.494 166.657 172.419  1.00  0.00    -0.042 A 
ATOM      6  C   UNL     1     159.303 166.972 173.523  1.00  0.00     0.004 A 
ATOM      7  C   UNL     1     160.140 168.090 173.493  1.00  0.00     0.007 A 
ENDROOT
BRANCH   3   8
ATOM      8  O   UNL     1     159.378 169.392 170.091  1.00  0.00    -0.508 OA
ATOM      9  H   UNL     1     159.076 169.047 169.188  1.00  0.00     0.293 HD
ENDBRANCH   3   8
BRANCH   5  10
ATOM     10  C   UNL     1     157.589 165.439 172.465  1.00  0.00     0.013 C 
ATOM     11  C   UNL     1     158.273 164.271 173.185  1.00  0.00     0.012 C 
ATOM     12  C   UNL     1     157.139 165.032 171.057  1.00  0.00     0.012 C 
ENDBRANCH   5  10
TORSDOF 2
ENDMDL
MODEL 6
REMARK VINA RESULT:    -5.042     16.273     18.440
REMARK INTER + INTRA:          -5.611
REMARK INTER:                  -5.512
REMARK INTRA:                  -0.099
REMARK UNBOUND:                -0.128
REMARK SMILES Cc1ccc(C(C)C)cc1O
REMARK SMILES IDX 1 1 2 2 10 3 9 4 5 5 4 6 3 7 11 8 6 10 7 11 8 12
REMARK H PARENT 11 9
REMARK Flexibility Score: inf
ROOT
ATOM      1  C   UNL     1     175.077 172.657 159.255  1.00  0.00     0.048 C 
ATOM      2  C   UNL     1     174.432 172.637 160.614  1.00  0.00    -0.009 A 
ATOM      3  C   UNL     1     173.380 171.743 160.911  1.00  0.00     0.118 A 
ATOM      4  C   UNL     1     172.801 171.749 162.184  1.00  0.00     0.050 A 
ATOM      5  C   UNL     1     173.251 172.636 163.179  1.00  0.00    -0.042 A 
ATOM      6  C   UNL     1     174.297 173.522 162.876  1.00  0.00     0.004 A 
ATOM      7  C   UNL     1     174.882 173.522 161.607  1.00  0.00     0.007 A 
ENDROOT
BRANCH   3   8
ATOM      8  O   UNL     1     172.890 170.839 159.966  1.00  0.00    -0.508 OA
ATOM      9  H   UNL     1     172.914 171.014 158.969  1.00  0.00     0.293 HD
ENDBRANCH   3   8
BRANCH   5  10
ATOM     10  C   UNL     1     172.626 172.647 164.562  1.00  0.00     0.013 C 
ATOM     11  C   UNL     1     173.103 171.450 165.393  1.00  0.00     0.012 C 
ATOM     12  C   UNL     1     171.096 172.684 164.477  1.00  0.00     0.012 C 
ENDBRANCH   5  10
TORSDOF 2
ENDMDL
MODEL 7
REMARK VINA RESULT:    -5.010      2.591      3.853
REMARK INTER + INTRA:          -5.577
REMARK INTER:                  -5.450
REMARK INTRA:                  -0.128
REMARK UNBOUND:                -0.128
REMARK SMILES Cc1ccc(C(C)C)cc1O
REMARK SMILES IDX 1 1 2 2 10 3 9 4 5 5 4 6 3 7 11 8 6 10 7 11 8 12
REMARK H PARENT 11 9
REMARK Flexibility Score: inf
ROOT
ATOM      1  C   UNL     1     156.128 166.587 168.626  1.00  0.00     0.048 C 
ATOM      2  C   UNL     1     157.041 166.864 169.789  1.00  0.00    -0.009 A 
ATOM      3  C   UNL     1     157.064 166.016 170.919  1.00  0.00     0.118 A 
ATOM      4  C   UNL     1     157.924 166.300 171.985  1.00  0.00     0.050 A 
ATOM      5  C   UNL     1     158.772 167.423 171.950  1.00  0.00    -0.042 A 
ATOM      6  C   UNL     1     158.743 168.260 170.824  1.00  0.00     0.004 A 
ATOM      7  C   UNL     1     157.887 167.983 169.755  1.00  0.00     0.007 A 
ENDROOT
BRANCH   3   8
ATOM      8  O   UNL     1     156.247 164.887 171.012  1.00  0.00    -0.508 OA
ATOM      9  H   UNL     1     156.292 164.116 170.357  1.00  0.00     0.293 HD
ENDBRANCH   3   8
BRANCH   5  10
ATOM     10  C   UNL     1     159.707 167.735 173.104  1.00  0.00     0.013 C 
ATOM     11  C   UNL     1     158.934 167.862 174.422  1.00  0.00     0.012 C 
ATOM     12  C   UNL     1     160.529 168.998 172.823  1.00  0.00     0.012 C 
ENDBRANCH   5  10
TORSDOF 2
ENDMDL
MODEL 8
REMARK VINA RESULT:    -4.963      1.398      2.161
REMARK INTER + INTRA:          -5.526
REMARK INTER:                  -5.399
REMARK INTRA:                  -0.127
REMARK UNBOUND:                -0.128
REMARK SMILES Cc1ccc(C(C)C)cc1O
REMARK SMILES IDX 1 1 2 2 10 3 9 4 5 5 4 6 3 7 11 8 6 10 7 11 8 12
REMARK H PARENT 11 9
REMARK Flexibility Score: inf
ROOT
ATOM      1  C   UNL     1     159.378 170.419 168.420  1.00  0.00     0.048 C 
ATOM      2  C   UNL     1     159.506 169.710 169.740  1.00  0.00    -0.009 A 
ATOM      3  C   UNL     1     160.481 170.097 170.686  1.00  0.00     0.118 A 
ATOM      4  C   UNL     1     160.575 169.418 171.905  1.00  0.00     0.050 A 
ATOM      5  C   UNL     1     159.710 168.350 172.206  1.00  0.00    -0.042 A 
ATOM      6  C   UNL     1     158.745 167.971 171.261  1.00  0.00     0.004 A 
ATOM      7  C   UNL     1     158.643 168.645 170.041  1.00  0.00     0.007 A 
ENDROOT
BRANCH   3   8
ATOM      8  O   UNL     1     161.368 171.149 170.445  1.00  0.00    -0.508 OA
ATOM      9  H   UNL     1     161.696 171.773 171.172  1.00  0.00     0.293 HD
ENDBRANCH   3   8
BRANCH   5  10
ATOM     10  C   UNL     1     159.809 167.609 173.528  1.00  0.00     0.013 C 
ATOM     11  C   UNL     1     158.889 166.383 173.543  1.00  0.00     0.012 C 
ATOM     12  C   UNL     1     159.507 168.540 174.707  1.00  0.00     0.012 C 
ENDBRANCH   5  10
TORSDOF 2
ENDMDL
MODEL 9
REMARK VINA RESULT:    -4.702     16.280     18.426
REMARK INTER + INTRA:          -5.242
REMARK INTER:                  -5.114
REMARK INTRA:                  -0.128
REMARK UNBOUND:                -0.128
REMARK SMILES Cc1ccc(C(C)C)cc1O
REMARK SMILES IDX 1 1 2 2 10 3 9 4 5 5 4 6 3 7 11 8 6 10 7 11 8 12
REMARK H PARENT 11 9
REMARK Flexibility Score: inf
ROOT
ATOM      1  C   UNL     1     175.097 172.691 159.338  1.00  0.00     0.048 C 
ATOM      2  C   UNL     1     174.345 172.748 160.639  1.00  0.00    -0.009 A 
ATOM      3  C   UNL     1     174.388 173.897 161.458  1.00  0.00     0.118 A 
ATOM      4  C   UNL     1     173.677 173.920 162.663  1.00  0.00     0.050 A 
ATOM      5  C   UNL     1     172.916 172.811 163.074  1.00  0.00    -0.042 A 
ATOM      6  C   UNL     1     172.879 171.672 162.254  1.00  0.00     0.004 A 
ATOM      7  C   UNL     1     173.585 171.641 161.049  1.00  0.00     0.007 A 
ENDROOT
BRANCH   3   8
ATOM      8  O   UNL     1     175.125 175.030 161.104  1.00  0.00    -0.508 OA
ATOM      9  H   UNL     1     176.137 175.047 161.088  1.00  0.00     0.293 HD
ENDBRANCH   3   8
BRANCH   5  10
ATOM     10  C   UNL     1     172.144 172.830 164.381  1.00  0.00     0.013 C 
ATOM     11  C   UNL     1     172.554 171.660 165.282  1.00  0.00     0.012 C 
ATOM     12  C   UNL     1     170.632 172.829 164.129  1.00  0.00     0.012 C 
ENDBRANCH   5  10
TORSDOF 2
ENDMDL
