MODEL 1
REMARK VINA RESULT:    -3.302      0.000      0.000
REMARK INTER + INTRA:          -3.783
REMARK INTER:                  -3.784
REMARK INTRA:                   0.001
REMARK UNBOUND:                 0.001
REMARK SMILES COc1cc(C(=O)[O-])ccc1O
REMARK SMILES IDX 5 1 9 2 4 3 10 4 3 5 11 6 6 7 7 8 8 9 2 10 1 11 12 12
REMARK H PARENT 12 13
REMARK Flexibility Score: inf
ROOT
ATOM      1  C   UNL     1      30.922  22.347  34.756  1.00  0.00     0.001 A 
ATOM      2  C   UNL     1      32.081  21.740  34.242  1.00  0.00     0.014 A 
ATOM      3  C   UNL     1      29.677  21.724  34.554  1.00  0.00     0.060 A 
ATOM      4  C   UNL     1      31.996  20.537  33.539  1.00  0.00     0.051 A 
ATOM      5  C   UNL     1      29.588  20.509  33.845  1.00  0.00     0.161 A 
ATOM      6  C   UNL     1      30.754  19.920  33.340  1.00  0.00     0.157 A 
ENDROOT
BRANCH   1   7
ATOM      7  C   UNL     1      31.009  23.622  35.502  1.00  0.00     0.072 C 
ATOM      8  O   UNL     1      32.125  24.069  35.880  1.00  0.00    -0.545 OA
ATOM      9  O   UNL     1      29.860  24.347  35.795  1.00  0.00    -0.545 OA
ENDBRANCH   1   7
BRANCH   5  10
ATOM     10  O   UNL     1      28.362  19.860  33.625  1.00  0.00    -0.493 OA
ATOM     11  C   UNL     1      27.899  18.737  34.367  1.00  0.00     0.278 C 
ENDBRANCH   5  10
BRANCH   6  12
ATOM     12  O   UNL     1      30.672  18.718  32.639  1.00  0.00    -0.504 OA
ATOM     13  H   UNL     1      30.403  18.691  31.663  1.00  0.00     0.293 HD
ENDBRANCH   6  12
TORSDOF 3
ENDMDL
MODEL 2
REMARK VINA RESULT:    -3.104     20.223     21.546
REMARK INTER + INTRA:          -3.556
REMARK INTER:                  -3.456
REMARK INTRA:                  -0.100
REMARK UNBOUND:                 0.001
REMARK SMILES COc1cc(C(=O)[O-])ccc1O
REMARK SMILES IDX 5 1 9 2 4 3 10 4 3 5 11 6 6 7 7 8 8 9 2 10 1 11 12 12
REMARK H PARENT 12 13
REMARK Flexibility Score: inf
ROOT
ATOM      1  C   UNL     1      15.519  36.887  32.960  1.00  0.00     0.001 A 
ATOM      2  C   UNL     1      16.882  37.015  32.644  1.00  0.00     0.014 A 
ATOM      3  C   UNL     1      15.133  36.837  34.312  1.00  0.00     0.060 A 
ATOM      4  C   UNL     1      17.839  37.091  33.658  1.00  0.00     0.051 A 
ATOM      5  C   UNL     1      16.097  36.913  35.338  1.00  0.00     0.161 A 
ATOM      6  C   UNL     1      17.451  37.041  35.002  1.00  0.00     0.157 A 
ENDROOT
BRANCH   1   7
ATOM      7  C   UNL     1      14.503  36.806  31.888  1.00  0.00     0.072 C 
ATOM      8  O   UNL     1      14.833  36.493  30.714  1.00  0.00    -0.545 OA
ATOM      9  O   UNL     1      13.166  37.074  32.162  1.00  0.00    -0.545 OA
ENDBRANCH   1   7
BRANCH   5  10
ATOM     10  O   UNL     1      15.748  36.867  36.698  1.00  0.00    -0.493 OA
ATOM     11  C   UNL     1      15.164  35.739  37.343  1.00  0.00     0.278 C 
ENDBRANCH   5  10
BRANCH   6  12
ATOM     12  O   UNL     1      18.408  37.119  36.013  1.00  0.00    -0.504 OA
ATOM     13  H   UNL     1      19.387  37.277  35.805  1.00  0.00     0.293 HD
ENDBRANCH   6  12
TORSDOF 3
ENDMDL
MODEL 3
REMARK VINA RESULT:    -1.270     10.583     12.056
REMARK INTER + INTRA:          -1.455
REMARK INTER:                  -1.374
REMARK INTRA:                  -0.080
REMARK UNBOUND:                 0.001
REMARK SMILES COc1cc(C(=O)[O-])ccc1O
REMARK SMILES IDX 5 1 9 2 4 3 10 4 3 5 11 6 6 7 7 8 8 9 2 10 1 11 12 12
REMARK H PARENT 12 13
REMARK Flexibility Score: inf
ROOT
ATOM      1  C   UNL     1      19.946  26.089  34.055  1.00  0.00     0.001 A 
ATOM      2  C   UNL     1      18.891  26.933  34.444  1.00  0.00     0.014 A 
ATOM      3  C   UNL     1      20.580  25.295  35.028  1.00  0.00     0.060 A 
ATOM      4  C   UNL     1      18.480  26.982  35.776  1.00  0.00     0.051 A 
ATOM      5  C   UNL     1      20.167  25.343  36.375  1.00  0.00     0.161 A 
ATOM      6  C   UNL     1      19.114  26.191  36.742  1.00  0.00     0.157 A 
ENDROOT
BRANCH   1   7
ATOM      7  C   UNL     1      20.383  26.034  32.643  1.00  0.00     0.072 C 
ATOM      8  O   UNL     1      20.395  27.076  31.934  1.00  0.00    -0.545 OA
ATOM      9  O   UNL     1      20.789  24.831  32.077  1.00  0.00    -0.545 OA
ENDBRANCH   1   7
BRANCH   5  10
ATOM     10  O   UNL     1      20.778  24.565  37.373  1.00  0.00    -0.493 OA
ATOM     11  C   UNL     1      21.536  23.386  37.125  1.00  0.00     0.278 C 
ENDBRANCH   5  10
BRANCH   6  12
ATOM     12  O   UNL     1      18.701  26.241  38.073  1.00  0.00    -0.504 OA
ATOM     13  H   UNL     1      18.259  25.448  38.522  1.00  0.00     0.293 HD
ENDBRANCH   6  12
TORSDOF 3
ENDMDL
MODEL 4
REMARK VINA RESULT:    -0.781     11.312     12.483
REMARK INTER + INTRA:          -0.894
REMARK INTER:                  -1.258
REMARK INTRA:                   0.364
REMARK UNBOUND:                 0.001
REMARK SMILES COc1cc(C(=O)[O-])ccc1O
REMARK SMILES IDX 5 1 9 2 4 3 10 4 3 5 11 6 6 7 7 8 8 9 2 10 1 11 12 12
REMARK H PARENT 12 13
REMARK Flexibility Score: inf
ROOT
ATOM      1  C   UNL     1      18.961  26.419  35.975  1.00  0.00     0.001 A 
ATOM      2  C   UNL     1      17.920  26.993  35.227  1.00  0.00     0.014 A 
ATOM      3  C   UNL     1      20.062  25.862  35.299  1.00  0.00     0.060 A 
ATOM      4  C   UNL     1      17.977  27.009  33.832  1.00  0.00     0.051 A 
ATOM      5  C   UNL     1      20.123  25.876  33.891  1.00  0.00     0.161 A 
ATOM      6  C   UNL     1      19.074  26.453  33.163  1.00  0.00     0.157 A 
ENDROOT
BRANCH   1   7
ATOM      7  C   UNL     1      18.904  26.401  37.454  1.00  0.00     0.072 C 
ATOM      8  O   UNL     1      19.826  25.868  38.125  1.00  0.00    -0.545 OA
ATOM      9  O   UNL     1      17.829  26.975  38.124  1.00  0.00    -0.545 OA
ENDBRANCH   1   7
BRANCH   5  10
ATOM     10  O   UNL     1      21.206  25.329  33.183  1.00  0.00    -0.493 OA
ATOM     11  C   UNL     1      21.083  24.390  32.119  1.00  0.00     0.278 C 
ENDBRANCH   5  10
BRANCH   6  12
ATOM     12  O   UNL     1      19.130  26.470  31.770  1.00  0.00    -0.504 OA
ATOM     13  H   UNL     1      18.412  26.032  31.205  1.00  0.00     0.293 HD
ENDBRANCH   6  12
TORSDOF 3
ENDMDL
MODEL 5
REMARK VINA RESULT:    -0.405     10.885     12.352
REMARK INTER + INTRA:          -0.462
REMARK INTER:                  -0.508
REMARK INTRA:                   0.046
REMARK UNBOUND:                 0.001
REMARK SMILES COc1cc(C(=O)[O-])ccc1O
REMARK SMILES IDX 5 1 9 2 4 3 10 4 3 5 11 6 6 7 7 8 8 9 2 10 1 11 12 12
REMARK H PARENT 12 13
REMARK Flexibility Score: inf
ROOT
ATOM      1  C   UNL     1      20.361  25.378  32.489  1.00  0.00     0.001 A 
ATOM      2  C   UNL     1      19.097  25.354  31.874  1.00  0.00     0.014 A 
ATOM      3  C   UNL     1      20.485  25.934  33.775  1.00  0.00     0.060 A 
ATOM      4  C   UNL     1      17.982  25.877  32.530  1.00  0.00     0.051 A 
ATOM      5  C   UNL     1      19.360  26.464  34.440  1.00  0.00     0.161 A 
ATOM      6  C   UNL     1      18.109  26.431  33.810  1.00  0.00     0.157 A 
ENDROOT
BRANCH   1   7
ATOM      7  C   UNL     1      21.545  24.824  31.796  1.00  0.00     0.072 C 
ATOM      8  O   UNL     1      21.616  23.594  31.532  1.00  0.00    -0.545 OA
ATOM      9  O   UNL     1      22.597  25.653  31.426  1.00  0.00    -0.545 OA
ENDBRANCH   1   7
BRANCH   5  10
ATOM     10  O   UNL     1      19.447  27.028  35.724  1.00  0.00    -0.493 OA
ATOM     11  C   UNL     1      18.987  26.396  36.915  1.00  0.00     0.278 C 
ENDBRANCH   5  10
BRANCH   6  12
ATOM     12  O   UNL     1      16.994  26.952  34.464  1.00  0.00    -0.504 OA
ATOM     13  H   UNL     1      17.036  27.830  34.966  1.00  0.00     0.293 HD
ENDBRANCH   6  12
TORSDOF 3
ENDMDL
