MODEL 1
REMARK VINA RESULT:    -4.118      0.000      0.000
REMARK INTER + INTRA:          -9.437
REMARK INTER:                  -7.488
REMARK INTRA:                  -1.950
REMARK UNBOUND:                -1.950
REMARK SMILES CCCCCCCCCCCCCCCC(=O)[O-]
REMARK SMILES IDX 9 1 10 2 11 3 12 4 13 5 14 6 15 7 16 8 17 9 18 10 8 11 7 12
REMARK SMILES IDX 6 13 5 14 4 15 3 16 2 17 1 18
REMARK H PARENT
REMARK Flexibility Score: inf
ROOT
ATOM      1  C   UNL     1      40.537  25.258 226.756  1.00  0.00     0.000 C 
ENDROOT
BRANCH   1   2
ATOM      2  C   UNL     1      41.357  24.075 226.213  1.00  0.00     0.000 C 
BRANCH   2   3
ATOM      3  C   UNL     1      41.784  24.277 224.750  1.00  0.00     0.000 C 
BRANCH   3   4
ATOM      4  C   UNL     1      41.150  23.246 223.798  1.00  0.00     0.000 C 
BRANCH   4   5
ATOM      5  C   UNL     1      40.768  21.935 224.509  1.00  0.00     0.000 C 
BRANCH   5   6
ATOM      6  C   UNL     1      39.257  21.620 224.522  1.00  0.00     0.006 C 
BRANCH   6   7
ATOM      7  C   UNL     1      38.610  21.659 225.916  1.00  0.00     0.053 C 
BRANCH   7   8
ATOM      8  C   UNL     1      37.127  21.853 225.841  1.00  0.00     0.041 C 
ATOM      9  O   UNL     1      36.596  22.880 226.342  1.00  0.00    -0.550 OA
ATOM     10  O   UNL     1      36.327  20.885 225.248  1.00  0.00    -0.550 OA
ENDBRANCH   7   8
ENDBRANCH   6   7
ENDBRANCH   5   6
ENDBRANCH   4   5
ENDBRANCH   3   4
ENDBRANCH   2   3
ENDBRANCH   1   2
BRANCH   1  11
ATOM     11  C   UNL     1      39.894  26.093 225.638  1.00  0.00     0.000 C 
BRANCH  11  12
ATOM     12  C   UNL     1      38.441  25.681 225.347  1.00  0.00    -0.000 C 
BRANCH  12  13
ATOM     13  C   UNL     1      38.196  25.391 223.858  1.00  0.00    -0.000 C 
BRANCH  13  14
ATOM     14  C   UNL     1      36.788  24.833 223.590  1.00  0.00    -0.000 C 
BRANCH  14  15
ATOM     15  C   UNL     1      36.802  23.607 222.663  1.00  0.00    -0.000 C 
BRANCH  15  16
ATOM     16  C   UNL     1      35.746  23.698 221.549  1.00  0.00    -0.000 C 
BRANCH  16  17
ATOM     17  C   UNL     1      36.300  24.329 220.262  1.00  0.00    -0.003 C 
ATOM     18  C   UNL     1      36.892  23.297 219.302  1.00  0.00     0.004 C 
ENDBRANCH  16  17
ENDBRANCH  15  16
ENDBRANCH  14  15
ENDBRANCH  13  14
ENDBRANCH  12  13
ENDBRANCH  11  12
ENDBRANCH   1  11
TORSDOF 14
ENDMDL
MODEL 2
REMARK VINA RESULT:    -4.114      1.715      2.521
REMARK INTER + INTRA:          -9.431
REMARK INTER:                  -7.338
REMARK INTRA:                  -2.093
REMARK UNBOUND:                -1.950
REMARK SMILES CCCCCCCCCCCCCCCC(=O)[O-]
REMARK SMILES IDX 9 1 10 2 11 3 12 4 13 5 14 6 15 7 16 8 17 9 18 10 8 11 7 12
REMARK SMILES IDX 6 13 5 14 4 15 3 16 2 17 1 18
REMARK H PARENT
REMARK Flexibility Score: inf
ROOT
ATOM      1  C   UNL     1      41.310  23.645 224.418  1.00  0.00     0.000 C 
ENDROOT
BRANCH   1   2
ATOM      2  C   UNL     1      41.607  22.228 224.939  1.00  0.00     0.000 C 
BRANCH   2   3
ATOM      3  C   UNL     1      40.587  21.760 225.989  1.00  0.00     0.000 C 
BRANCH   3   4
ATOM      4  C   UNL     1      39.774  22.924 226.586  1.00  0.00     0.000 C 
BRANCH   4   5
ATOM      5  C   UNL     1      38.273  22.603 226.705  1.00  0.00     0.000 C 
BRANCH   5   6
ATOM      6  C   UNL     1      37.832  21.294 226.017  1.00  0.00     0.006 C 
BRANCH   6   7
ATOM      7  C   UNL     1      36.894  20.415 226.859  1.00  0.00     0.053 C 
BRANCH   7   8
ATOM      8  C   UNL     1      36.342  19.267 226.071  1.00  0.00     0.041 C 
ATOM      9  O   UNL     1      37.118  18.408 225.575  1.00  0.00    -0.550 OA
ATOM     10  O   UNL     1      34.974  19.164 225.856  1.00  0.00    -0.550 OA
ENDBRANCH   7   8
ENDBRANCH   6   7
ENDBRANCH   5   6
ENDBRANCH   4   5
ENDBRANCH   3   4
ENDBRANCH   2   3
ENDBRANCH   1   2
BRANCH   1  11
ATOM     11  C   UNL     1      40.778  23.644 222.977  1.00  0.00     0.000 C 
BRANCH  11  12
ATOM     12  C   UNL     1      39.246  23.521 222.908  1.00  0.00    -0.000 C 
BRANCH  12  13
ATOM     13  C   UNL     1      38.529  24.687 223.607  1.00  0.00    -0.000 C 
BRANCH  13  14
ATOM     14  C   UNL     1      37.015  24.449 223.744  1.00  0.00    -0.000 C 
BRANCH  14  15
ATOM     15  C   UNL     1      36.540  23.198 222.988  1.00  0.00    -0.000 C 
BRANCH  15  16
ATOM     16  C   UNL     1      35.582  23.535 221.833  1.00  0.00    -0.000 C 
BRANCH  16  17
ATOM     17  C   UNL     1      36.291  24.244 220.668  1.00  0.00    -0.003 C 
ATOM     18  C   UNL     1      37.109  23.287 219.801  1.00  0.00     0.004 C 
ENDBRANCH  16  17
ENDBRANCH  15  16
ENDBRANCH  14  15
ENDBRANCH  13  14
ENDBRANCH  12  13
ENDBRANCH  11  12
ENDBRANCH   1  11
TORSDOF 14
ENDMDL
MODEL 3
REMARK VINA RESULT:    -4.070      1.828      4.011
REMARK INTER + INTRA:          -9.351
REMARK INTER:                  -6.963
REMARK INTRA:                  -2.389
REMARK UNBOUND:                -1.950
REMARK SMILES CCCCCCCCCCCCCCCC(=O)[O-]
REMARK SMILES IDX 9 1 10 2 11 3 12 4 13 5 14 6 15 7 16 8 17 9 18 10 8 11 7 12
REMARK SMILES IDX 6 13 5 14 4 15 3 16 2 17 1 18
REMARK H PARENT
REMARK Flexibility Score: inf
ROOT
ATOM      1  C   UNL     1      41.982  25.607 226.640  1.00  0.00     0.000 C 
ENDROOT
BRANCH   1   2
ATOM      2  C   UNL     1      42.443  24.891 225.359  1.00  0.00     0.000 C 
BRANCH   2   3
ATOM      3  C   UNL     1      41.546  23.696 224.996  1.00  0.00     0.000 C 
BRANCH   3   4
ATOM      4  C   UNL     1      40.984  23.790 223.565  1.00  0.00     0.000 C 
BRANCH   4   5
ATOM      5  C   UNL     1      39.528  24.288 223.528  1.00  0.00     0.000 C 
BRANCH   5   6
ATOM      6  C   UNL     1      38.503  23.259 223.006  1.00  0.00     0.006 C 
BRANCH   6   7
ATOM      7  C   UNL     1      37.181  23.869 222.512  1.00  0.00     0.053 C 
BRANCH   7   8
ATOM      8  C   UNL     1      36.563  24.773 223.533  1.00  0.00     0.041 C 
ATOM      9  O   UNL     1      35.700  24.326 224.335  1.00  0.00    -0.550 OA
ATOM     10  O   UNL     1      36.914  26.116 223.577  1.00  0.00    -0.550 OA
ENDBRANCH   7   8
ENDBRANCH   6   7
ENDBRANCH   5   6
ENDBRANCH   4   5
ENDBRANCH   3   4
ENDBRANCH   2   3
ENDBRANCH   1   2
BRANCH   1  11
ATOM     11  C   UNL     1      41.398  27.000 226.359  1.00  0.00     0.000 C 
BRANCH  11  12
ATOM     12  C   UNL     1      39.882  26.969 226.096  1.00  0.00    -0.000 C 
BRANCH  12  13
ATOM     13  C   UNL     1      39.095  26.347 227.261  1.00  0.00    -0.000 C 
BRANCH  13  14
ATOM     14  C   UNL     1      38.247  25.141 226.820  1.00  0.00    -0.000 C 
BRANCH  14  15
ATOM     15  C   UNL     1      38.759  23.813 227.400  1.00  0.00    -0.000 C 
BRANCH  15  16
ATOM     16  C   UNL     1      38.184  22.589 226.668  1.00  0.00    -0.000 C 
BRANCH  16  17
ATOM     17  C   UNL     1      39.142  21.388 226.686  1.00  0.00    -0.003 C 
ATOM     18  C   UNL     1      39.224  20.675 225.336  1.00  0.00     0.004 C 
ENDBRANCH  16  17
ENDBRANCH  15  16
ENDBRANCH  14  15
ENDBRANCH  13  14
ENDBRANCH  12  13
ENDBRANCH  11  12
ENDBRANCH   1  11
TORSDOF 14
ENDMDL
MODEL 4
REMARK VINA RESULT:    -4.061      2.267      4.559
REMARK INTER + INTRA:          -9.335
REMARK INTER:                  -6.798
REMARK INTRA:                  -2.537
REMARK UNBOUND:                -1.950
REMARK SMILES CCCCCCCCCCCCCCCC(=O)[O-]
REMARK SMILES IDX 9 1 10 2 11 3 12 4 13 5 14 6 15 7 16 8 17 9 18 10 8 11 7 12
REMARK SMILES IDX 6 13 5 14 4 15 3 16 2 17 1 18
REMARK H PARENT
REMARK Flexibility Score: inf
ROOT
ATOM      1  C   UNL     1      38.940  24.530 226.954  1.00  0.00     0.000 C 
ENDROOT
BRANCH   1   2
ATOM      2  C   UNL     1      39.295  23.036 226.850  1.00  0.00     0.000 C 
BRANCH   2   3
ATOM      3  C   UNL     1      38.065  22.127 227.007  1.00  0.00     0.000 C 
BRANCH   3   4
ATOM      4  C   UNL     1      37.096  22.228 225.815  1.00  0.00     0.000 C 
BRANCH   4   5
ATOM      5  C   UNL     1      37.817  22.186 224.455  1.00  0.00     0.000 C 
BRANCH   5   6
ATOM      6  C   UNL     1      37.414  23.303 223.471  1.00  0.00     0.006 C 
BRANCH   6   7
ATOM      7  C   UNL     1      36.164  24.097 223.884  1.00  0.00     0.053 C 
BRANCH   7   8
ATOM      8  C   UNL     1      36.504  25.478 224.351  1.00  0.00     0.041 C 
ATOM      9  O   UNL     1      37.317  26.185 223.698  1.00  0.00    -0.550 OA
ATOM     10  O   UNL     1      35.951  25.972 225.525  1.00  0.00    -0.550 OA
ENDBRANCH   7   8
ENDBRANCH   6   7
ENDBRANCH   5   6
ENDBRANCH   4   5
ENDBRANCH   3   4
ENDBRANCH   2   3
ENDBRANCH   1   2
BRANCH   1  11
ATOM     11  C   UNL     1      39.967  25.429 226.249  1.00  0.00     0.000 C 
BRANCH  11  12
ATOM     12  C   UNL     1      40.422  24.863 224.892  1.00  0.00    -0.000 C 
BRANCH  12  13
ATOM     13  C   UNL     1      41.904  24.457 224.890  1.00  0.00    -0.000 C 
BRANCH  13  14
ATOM     14  C   UNL     1      42.107  22.973 224.538  1.00  0.00    -0.000 C 
BRANCH  14  15
ATOM     15  C   UNL     1      41.420  22.577 223.221  1.00  0.00    -0.000 C 
BRANCH  15  16
ATOM     16  C   UNL     1      41.070  21.080 223.165  1.00  0.00    -0.000 C 
BRANCH  16  17
ATOM     17  C   UNL     1      41.179  20.398 224.538  1.00  0.00    -0.003 C 
ATOM     18  C   UNL     1      40.102  19.337 224.760  1.00  0.00     0.004 C 
ENDBRANCH  16  17
ENDBRANCH  15  16
ENDBRANCH  14  15
ENDBRANCH  13  14
ENDBRANCH  12  13
ENDBRANCH  11  12
ENDBRANCH   1  11
TORSDOF 14
ENDMDL
MODEL 5
REMARK VINA RESULT:    -4.060      2.180      4.893
REMARK INTER + INTRA:          -9.333
REMARK INTER:                  -7.171
REMARK INTRA:                  -2.162
REMARK UNBOUND:                -1.950
REMARK SMILES CCCCCCCCCCCCCCCC(=O)[O-]
REMARK SMILES IDX 9 1 10 2 11 3 12 4 13 5 14 6 15 7 16 8 17 9 18 10 8 11 7 12
REMARK SMILES IDX 6 13 5 14 4 15 3 16 2 17 1 18
REMARK H PARENT
REMARK Flexibility Score: inf
ROOT
ATOM      1  C   UNL     1      38.329  25.258 223.640  1.00  0.00     0.000 C 
ENDROOT
BRANCH   1   2
ATOM      2  C   UNL     1      37.303  25.307 224.786  1.00  0.00     0.000 C 
BRANCH   2   3
ATOM      3  C   UNL     1      36.963  23.911 225.332  1.00  0.00     0.000 C 
BRANCH   3   4
ATOM      4  C   UNL     1      37.631  23.627 226.690  1.00  0.00     0.000 C 
BRANCH   4   5
ATOM      5  C   UNL     1      38.088  22.164 226.836  1.00  0.00     0.000 C 
BRANCH   5   6
ATOM      6  C   UNL     1      37.775  21.262 225.624  1.00  0.00     0.006 C 
BRANCH   6   7
ATOM      7  C   UNL     1      37.521  19.788 225.975  1.00  0.00     0.053 C 
BRANCH   7   8
ATOM      8  C   UNL     1      36.068  19.433 225.896  1.00  0.00     0.041 C 
ATOM      9  O   UNL     1      35.677  18.536 225.103  1.00  0.00    -0.550 OA
ATOM     10  O   UNL     1      35.142  20.117 226.673  1.00  0.00    -0.550 OA
ENDBRANCH   7   8
ENDBRANCH   6   7
ENDBRANCH   5   6
ENDBRANCH   4   5
ENDBRANCH   3   4
ENDBRANCH   2   3
ENDBRANCH   1   2
BRANCH   1  11
ATOM     11  C   UNL     1      38.891  23.846 223.412  1.00  0.00     0.000 C 
BRANCH  11  12
ATOM     12  C   UNL     1      40.287  23.859 222.765  1.00  0.00    -0.000 C 
BRANCH  12  13
ATOM     13  C   UNL     1      41.348  23.172 223.639  1.00  0.00    -0.000 C 
BRANCH  13  14
ATOM     14  C   UNL     1      41.128  23.426 225.140  1.00  0.00    -0.000 C 
BRANCH  14  15
ATOM     15  C   UNL     1      42.285  24.206 225.785  1.00  0.00    -0.000 C 
BRANCH  15  16
ATOM     16  C   UNL     1      41.972  25.703 225.943  1.00  0.00    -0.000 C 
BRANCH  16  17
ATOM     17  C   UNL     1      40.534  25.956 226.425  1.00  0.00    -0.003 C 
ATOM     18  C   UNL     1      40.093  27.408 226.238  1.00  0.00     0.004 C 
ENDBRANCH  16  17
ENDBRANCH  15  16
ENDBRANCH  14  15
ENDBRANCH  13  14
ENDBRANCH  12  13
ENDBRANCH  11  12
ENDBRANCH   1  11
TORSDOF 14
ENDMDL
MODEL 6
REMARK VINA RESULT:    -4.036      2.028      5.360
REMARK INTER + INTRA:          -9.289
REMARK INTER:                  -7.006
REMARK INTRA:                  -2.283
REMARK UNBOUND:                -1.950
REMARK SMILES CCCCCCCCCCCCCCCC(=O)[O-]
REMARK SMILES IDX 9 1 10 2 11 3 12 4 13 5 14 6 15 7 16 8 17 9 18 10 8 11 7 12
REMARK SMILES IDX 6 13 5 14 4 15 3 16 2 17 1 18
REMARK H PARENT
REMARK Flexibility Score: inf
ROOT
ATOM      1  C   UNL     1      42.226  20.465 223.230  1.00  0.00     0.000 C 
ENDROOT
BRANCH   1   2
ATOM      2  C   UNL     1      42.010  21.986 223.294  1.00  0.00     0.000 C 
BRANCH   2   3
ATOM      3  C   UNL     1      40.667  22.417 222.682  1.00  0.00     0.000 C 
BRANCH   3   4
ATOM      4  C   UNL     1      40.316  23.884 222.992  1.00  0.00     0.000 C 
BRANCH   4   5
ATOM      5  C   UNL     1      38.950  24.037 223.684  1.00  0.00     0.000 C 
BRANCH   5   6
ATOM      6  C   UNL     1      37.741  23.573 222.845  1.00  0.00     0.006 C 
BRANCH   6   7
ATOM      7  C   UNL     1      36.392  24.157 223.293  1.00  0.00     0.053 C 
BRANCH   7   8
ATOM      8  C   UNL     1      36.418  24.599 224.724  1.00  0.00     0.041 C 
ATOM      9  O   UNL     1      36.311  23.752 225.651  1.00  0.00    -0.550 OA
ATOM     10  O   UNL     1      36.526  25.948 225.034  1.00  0.00    -0.550 OA
ENDBRANCH   7   8
ENDBRANCH   6   7
ENDBRANCH   5   6
ENDBRANCH   4   5
ENDBRANCH   3   4
ENDBRANCH   2   3
ENDBRANCH   1   2
BRANCH   1  11
ATOM     11  C   UNL     1      40.925  19.675 223.438  1.00  0.00     0.000 C 
BRANCH  11  12
ATOM     12  C   UNL     1      40.513  19.585 224.918  1.00  0.00    -0.000 C 
BRANCH  12  13
ATOM     13  C   UNL     1      39.138  20.216 225.187  1.00  0.00    -0.000 C 
BRANCH  13  14
ATOM     14  C   UNL     1      39.206  21.358 226.215  1.00  0.00    -0.000 C 
BRANCH  14  15
ATOM     15  C   UNL     1      40.648  21.734 226.590  1.00  0.00    -0.000 C 
BRANCH  15  16
ATOM     16  C   UNL     1      40.848  23.254 226.719  1.00  0.00    -0.000 C 
BRANCH  16  17
ATOM     17  C   UNL     1      42.328  23.661 226.657  1.00  0.00    -0.003 C 
ATOM     18  C   UNL     1      42.582  24.834 225.710  1.00  0.00     0.004 C 
ENDBRANCH  16  17
ENDBRANCH  15  16
ENDBRANCH  14  15
ENDBRANCH  13  14
ENDBRANCH  12  13
ENDBRANCH  11  12
ENDBRANCH   1  11
TORSDOF 14
ENDMDL
MODEL 7
REMARK VINA RESULT:    -4.029      2.196      4.092
REMARK INTER + INTRA:          -9.276
REMARK INTER:                  -6.908
REMARK INTRA:                  -2.368
REMARK UNBOUND:                -1.950
REMARK SMILES CCCCCCCCCCCCCCCC(=O)[O-]
REMARK SMILES IDX 9 1 10 2 11 3 12 4 13 5 14 6 15 7 16 8 17 9 18 10 8 11 7 12
REMARK SMILES IDX 6 13 5 14 4 15 3 16 2 17 1 18
REMARK H PARENT
REMARK Flexibility Score: inf
ROOT
ATOM      1  C   UNL     1      41.499  21.832 223.277  1.00  0.00     0.000 C 
ENDROOT
BRANCH   1   2
ATOM      2  C   UNL     1      40.980  20.803 224.297  1.00  0.00     0.000 C 
BRANCH   2   3
ATOM      3  C   UNL     1      40.842  21.391 225.710  1.00  0.00     0.000 C 
BRANCH   3   4
ATOM      4  C   UNL     1      39.378  21.463 226.182  1.00  0.00     0.000 C 
BRANCH   4   5
ATOM      5  C   UNL     1      38.431  20.609 225.320  1.00  0.00     0.000 C 
BRANCH   5   6
ATOM      6  C   UNL     1      36.929  20.829 225.594  1.00  0.00     0.006 C 
BRANCH   6   7
ATOM      7  C   UNL     1      36.413  20.177 226.887  1.00  0.00     0.053 C 
BRANCH   7   8
ATOM      8  C   UNL     1      36.108  18.724 226.701  1.00  0.00     0.041 C 
ATOM      9  O   UNL     1      35.771  18.287 225.568  1.00  0.00    -0.550 OA
ATOM     10  O   UNL     1      36.162  17.856 227.784  1.00  0.00    -0.550 OA
ENDBRANCH   7   8
ENDBRANCH   6   7
ENDBRANCH   5   6
ENDBRANCH   4   5
ENDBRANCH   3   4
ENDBRANCH   2   3
ENDBRANCH   1   2
BRANCH   1  11
ATOM     11  C   UNL     1      41.421  23.273 223.804  1.00  0.00     0.000 C 
BRANCH  11  12
ATOM     12  C   UNL     1      40.477  24.160 222.973  1.00  0.00    -0.000 C 
BRANCH  12  13
ATOM     13  C   UNL     1      39.289  23.375 222.394  1.00  0.00    -0.000 C 
BRANCH  13  14
ATOM     14  C   UNL     1      37.994  23.592 223.195  1.00  0.00    -0.000 C 
BRANCH  14  15
ATOM     15  C   UNL     1      38.003  24.907 223.992  1.00  0.00    -0.000 C 
BRANCH  15  16
ATOM     16  C   UNL     1      37.802  24.685 225.500  1.00  0.00    -0.000 C 
BRANCH  16  17
ATOM     17  C   UNL     1      38.992  25.186 226.334  1.00  0.00    -0.003 C 
ATOM     18  C   UNL     1      39.510  26.547 225.868  1.00  0.00     0.004 C 
ENDBRANCH  16  17
ENDBRANCH  15  16
ENDBRANCH  14  15
ENDBRANCH  13  14
ENDBRANCH  12  13
ENDBRANCH  11  12
ENDBRANCH   1  11
TORSDOF 14
ENDMDL
MODEL 8
REMARK VINA RESULT:    -3.988      2.429      5.196
REMARK INTER + INTRA:          -9.201
REMARK INTER:                  -7.208
REMARK INTRA:                  -1.993
REMARK UNBOUND:                -1.950
REMARK SMILES CCCCCCCCCCCCCCCC(=O)[O-]
REMARK SMILES IDX 9 1 10 2 11 3 12 4 13 5 14 6 15 7 16 8 17 9 18 10 8 11 7 12
REMARK SMILES IDX 6 13 5 14 4 15 3 16 2 17 1 18
REMARK H PARENT
REMARK Flexibility Score: inf
ROOT
ATOM      1  C   UNL     1      40.228  21.203 225.501  1.00  0.00     0.000 C 
ENDROOT
BRANCH   1   2
ATOM      2  C   UNL     1      41.367  22.011 224.854  1.00  0.00     0.000 C 
BRANCH   2   3
ATOM      3  C   UNL     1      41.169  22.198 223.341  1.00  0.00     0.000 C 
BRANCH   3   4
ATOM      4  C   UNL     1      40.710  23.621 222.974  1.00  0.00     0.000 C 
BRANCH   4   5
ATOM      5  C   UNL     1      39.189  23.811 223.114  1.00  0.00     0.000 C 
BRANCH   5   6
ATOM      6  C   UNL     1      38.750  24.663 224.323  1.00  0.00     0.006 C 
BRANCH   6   7
ATOM      7  C   UNL     1      37.609  25.651 224.028  1.00  0.00     0.053 C 
BRANCH   7   8
ATOM      8  C   UNL     1      36.292  25.156 224.538  1.00  0.00     0.041 C 
ATOM      9  O   UNL     1      35.642  25.834 225.378  1.00  0.00    -0.550 OA
ATOM     10  O   UNL     1      35.796  23.930 224.114  1.00  0.00    -0.550 OA
ENDBRANCH   7   8
ENDBRANCH   6   7
ENDBRANCH   5   6
ENDBRANCH   4   5
ENDBRANCH   3   4
ENDBRANCH   2   3
ENDBRANCH   1   2
BRANCH   1  11
ATOM     11  C   UNL     1      39.662  21.885 226.757  1.00  0.00     0.000 C 
BRANCH  11  12
ATOM     12  C   UNL     1      38.124  21.937 226.763  1.00  0.00    -0.000 C 
BRANCH  12  13
ATOM     13  C   UNL     1      37.503  21.157 225.594  1.00  0.00    -0.000 C 
BRANCH  13  14
ATOM     14  C   UNL     1      36.362  20.229 226.045  1.00  0.00    -0.000 C 
BRANCH  14  15
ATOM     15  C   UNL     1      36.646  18.749 225.740  1.00  0.00    -0.000 C 
BRANCH  15  16
ATOM     16  C   UNL     1      36.642  17.874 227.005  1.00  0.00    -0.000 C 
BRANCH  16  17
ATOM     17  C   UNL     1      37.570  18.421 228.102  1.00  0.00    -0.003 C 
ATOM     18  C   UNL     1      39.051  18.242 227.769  1.00  0.00     0.004 C 
ENDBRANCH  16  17
ENDBRANCH  15  16
ENDBRANCH  14  15
ENDBRANCH  13  14
ENDBRANCH  12  13
ENDBRANCH  11  12
ENDBRANCH   1  11
TORSDOF 14
ENDMDL
MODEL 9
REMARK VINA RESULT:    -3.978      2.037      4.348
REMARK INTER + INTRA:          -9.184
REMARK INTER:                  -6.664
REMARK INTRA:                  -2.520
REMARK UNBOUND:                -1.950
REMARK SMILES CCCCCCCCCCCCCCCC(=O)[O-]
REMARK SMILES IDX 9 1 10 2 11 3 12 4 13 5 14 6 15 7 16 8 17 9 18 10 8 11 7 12
REMARK SMILES IDX 6 13 5 14 4 15 3 16 2 17 1 18
REMARK H PARENT
REMARK Flexibility Score: inf
ROOT
ATOM      1  C   UNL     1      39.698  24.535 223.878  1.00  0.00     0.000 C 
ENDROOT
BRANCH   1   2
ATOM      2  C   UNL     1      40.147  23.463 222.870  1.00  0.00     0.000 C 
BRANCH   2   3
ATOM      3  C   UNL     1      41.369  22.669 223.360  1.00  0.00     0.000 C 
BRANCH   3   4
ATOM      4  C   UNL     1      40.977  21.404 224.147  1.00  0.00     0.000 C 
BRANCH   4   5
ATOM      5  C   UNL     1      40.871  21.653 225.662  1.00  0.00     0.000 C 
BRANCH   5   6
ATOM      6  C   UNL     1      39.431  21.691 226.215  1.00  0.00     0.006 C 
BRANCH   6   7
ATOM      7  C   UNL     1      38.385  21.013 225.316  1.00  0.00     0.053 C 
BRANCH   7   8
ATOM      8  C   UNL     1      37.057  21.702 225.380  1.00  0.00     0.041 C 
ATOM      9  O   UNL     1      36.504  21.909 226.493  1.00  0.00    -0.550 OA
ATOM     10  O   UNL     1      36.415  22.086 224.210  1.00  0.00    -0.550 OA
ENDBRANCH   7   8
ENDBRANCH   6   7
ENDBRANCH   5   6
ENDBRANCH   4   5
ENDBRANCH   3   4
ENDBRANCH   2   3
ENDBRANCH   1   2
BRANCH   1  11
ATOM     11  C   UNL     1      38.219  24.915 223.715  1.00  0.00     0.000 C 
BRANCH  11  12
ATOM     12  C   UNL     1      37.640  25.605 224.963  1.00  0.00    -0.000 C 
BRANCH  12  13
ATOM     13  C   UNL     1      38.450  25.302 226.233  1.00  0.00    -0.000 C 
BRANCH  13  14
ATOM     14  C   UNL     1      39.099  26.561 226.832  1.00  0.00    -0.000 C 
BRANCH  14  15
ATOM     15  C   UNL     1      40.615  26.407 227.034  1.00  0.00    -0.000 C 
BRANCH  15  16
ATOM     16  C   UNL     1      41.019  24.969 227.402  1.00  0.00    -0.000 C 
BRANCH  16  17
ATOM     17  C   UNL     1      42.460  24.637 226.986  1.00  0.00    -0.003 C 
ATOM     18  C   UNL     1      42.834  25.221 225.623  1.00  0.00     0.004 C 
ENDBRANCH  16  17
ENDBRANCH  15  16
ENDBRANCH  14  15
ENDBRANCH  13  14
ENDBRANCH  12  13
ENDBRANCH  11  12
ENDBRANCH   1  11
TORSDOF 14
ENDMDL
