MODEL 1
REMARK VINA RESULT:    -1.975      0.000      0.000
REMARK INTER + INTRA:          -1.975
REMARK INTER:                  -1.975
REMARK INTRA:                   0.000
REMARK UNBOUND:                 0.000
REMARK SMILES CC(=O)[O-]
REMARK SMILES IDX 1 1 2 2 3 3 4 4
REMARK H PARENT
REMARK Flexibility Score: inf
ROOT
ATOM      1  C   UNL     1     -15.851 -11.155   3.265  1.00  0.00     0.063 C 
ATOM      2  C   UNL     1     -14.924 -10.125   2.712  1.00  0.00     0.038 C 
ATOM      3  O   UNL     1     -15.304  -8.930   2.597  1.00  0.00    -0.550 OA
ATOM      4  O   UNL     1     -13.622 -10.470   2.373  1.00  0.00    -0.550 OA
ENDROOT
TORSDOF 0
ENDMDL
MODEL 2
REMARK VINA RESULT:    -1.892      1.399      1.762
REMARK INTER + INTRA:          -1.892
REMARK INTER:                  -1.892
REMARK INTRA:                   0.000
REMARK UNBOUND:                 0.000
REMARK SMILES CC(=O)[O-]
REMARK SMILES IDX 1 1 2 2 3 3 4 4
REMARK H PARENT
REMARK Flexibility Score: inf
ROOT
ATOM      1  C   UNL     1     -13.672 -10.775   2.340  1.00  0.00     0.063 C 
ATOM      2  C   UNL     1     -14.973 -10.232   2.827  1.00  0.00     0.038 C 
ATOM      3  O   UNL     1     -15.299  -9.044   2.568  1.00  0.00    -0.550 OA
ATOM      4  O   UNL     1     -15.853 -11.052   3.522  1.00  0.00    -0.550 OA
ENDROOT
TORSDOF 0
ENDMDL
MODEL 3
REMARK VINA RESULT:    -1.888     11.780     12.228
REMARK INTER + INTRA:          -1.888
REMARK INTER:                  -1.888
REMARK INTRA:                   0.000
REMARK UNBOUND:                 0.000
REMARK SMILES CC(=O)[O-]
REMARK SMILES IDX 1 1 2 2 3 3 4 4
REMARK H PARENT
REMARK Flexibility Score: inf
ROOT
ATOM      1  C   UNL     1     -22.391   0.756   2.431  1.00  0.00     0.063 C 
ATOM      2  C   UNL     1     -21.344   0.009   1.677  1.00  0.00     0.038 C 
ATOM      3  O   UNL     1     -21.574  -1.156   1.260  1.00  0.00    -0.550 OA
ATOM      4  O   UNL     1     -20.129   0.618   1.385  1.00  0.00    -0.550 OA
ENDROOT
TORSDOF 0
ENDMDL
MODEL 4
REMARK VINA RESULT:    -1.872     11.801     12.247
REMARK INTER + INTRA:          -1.872
REMARK INTER:                  -1.872
REMARK INTRA:                   0.000
REMARK UNBOUND:                 0.000
REMARK SMILES CC(=O)[O-]
REMARK SMILES IDX 1 1 2 2 3 3 4 4
REMARK H PARENT
REMARK Flexibility Score: inf
ROOT
ATOM      1  C   UNL     1     -22.382   0.852   2.385  1.00  0.00     0.063 C 
ATOM      2  C   UNL     1     -21.359   0.059   1.644  1.00  0.00     0.038 C 
ATOM      3  O   UNL     1     -20.217   0.544   1.430  1.00  0.00    -0.550 OA
ATOM      4  O   UNL     1     -21.644  -1.237   1.236  1.00  0.00    -0.550 OA
ENDROOT
TORSDOF 0
ENDMDL
MODEL 5
REMARK VINA RESULT:    -1.776      1.973      2.218
REMARK INTER + INTRA:          -1.776
REMARK INTER:                  -1.776
REMARK INTRA:                   0.000
REMARK UNBOUND:                 0.000
REMARK SMILES CC(=O)[O-]
REMARK SMILES IDX 1 1 2 2 3 3 4 4
REMARK H PARENT
REMARK Flexibility Score: inf
ROOT
ATOM      1  C   UNL     1     -15.303  -9.714   2.732  1.00  0.00     0.063 C 
ATOM      2  C   UNL     1     -15.728 -11.043   3.257  1.00  0.00     0.038 C 
ATOM      3  O   UNL     1     -16.860 -11.507   2.960  1.00  0.00    -0.550 OA
ATOM      4  O   UNL     1     -14.856 -11.798   4.030  1.00  0.00    -0.550 OA
ENDROOT
TORSDOF 0
ENDMDL
MODEL 6
REMARK VINA RESULT:    -1.729     22.273     22.709
REMARK INTER + INTRA:          -1.729
REMARK INTER:                  -1.729
REMARK INTRA:                   0.000
REMARK UNBOUND:                 0.000
REMARK SMILES CC(=O)[O-]
REMARK SMILES IDX 1 1 2 2 3 3 4 4
REMARK H PARENT
REMARK Flexibility Score: inf
ROOT
ATOM      1  C   UNL     1     -20.225   6.012  16.547  1.00  0.00     0.063 C 
ATOM      2  C   UNL     1     -19.418   6.254  17.777  1.00  0.00     0.038 C 
ATOM      3  O   UNL     1     -19.989   6.393  18.890  1.00  0.00    -0.550 OA
ATOM      4  O   UNL     1     -18.031   6.274  17.706  1.00  0.00    -0.550 OA
ENDROOT
TORSDOF 0
ENDMDL
MODEL 7
REMARK VINA RESULT:    -1.689     12.365     12.968
REMARK INTER + INTRA:          -1.689
REMARK INTER:                  -1.689
REMARK INTRA:                   0.000
REMARK UNBOUND:                 0.000
REMARK SMILES CC(=O)[O-]
REMARK SMILES IDX 1 1 2 2 3 3 4 4
REMARK H PARENT
REMARK Flexibility Score: inf
ROOT
ATOM      1  C   UNL     1     -20.505   0.661   1.367  1.00  0.00     0.063 C 
ATOM      2  C   UNL     1     -21.759   0.748   2.169  1.00  0.00     0.038 C 
ATOM      3  O   UNL     1     -22.460   1.793   2.135  1.00  0.00    -0.550 OA
ATOM      4  O   UNL     1     -22.187  -0.344   2.914  1.00  0.00    -0.550 OA
ENDROOT
TORSDOF 0
ENDMDL
MODEL 8
REMARK VINA RESULT:    -1.658     16.014     16.408
REMARK INTER + INTRA:          -1.658
REMARK INTER:                  -1.658
REMARK INTRA:                   0.000
REMARK UNBOUND:                 0.000
REMARK SMILES CC(=O)[O-]
REMARK SMILES IDX 1 1 2 2 3 3 4 4
REMARK H PARENT
REMARK Flexibility Score: inf
ROOT
ATOM      1  C   UNL     1     -21.586  -9.978  18.132  1.00  0.00     0.063 C 
ATOM      2  C   UNL     1     -21.055 -11.328  17.786  1.00  0.00     0.038 C 
ATOM      3  O   UNL     1     -20.304 -11.937  18.592  1.00  0.00    -0.550 OA
ATOM      4  O   UNL     1     -21.431 -11.941  16.597  1.00  0.00    -0.550 OA
ENDROOT
TORSDOF 0
ENDMDL
MODEL 9
REMARK VINA RESULT:    -1.644     16.133     16.431
REMARK INTER + INTRA:          -1.644
REMARK INTER:                  -1.644
REMARK INTRA:                   0.000
REMARK UNBOUND:                 0.000
REMARK SMILES CC(=O)[O-]
REMARK SMILES IDX 1 1 2 2 3 3 4 4
REMARK H PARENT
REMARK Flexibility Score: inf
ROOT
ATOM      1  C   UNL     1     -21.606 -11.980  16.755  1.00  0.00     0.063 C 
ATOM      2  C   UNL     1     -20.983 -11.305  17.929  1.00  0.00     0.038 C 
ATOM      3  O   UNL     1     -21.141 -10.068  18.104  1.00  0.00    -0.550 OA
ATOM      4  O   UNL     1     -20.272 -12.047  18.863  1.00  0.00    -0.550 OA
ENDROOT
TORSDOF 0
ENDMDL
