MODEL 1
REMARK VINA RESULT:    -4.196      0.000      0.000
REMARK INTER + INTRA:          -8.045
REMARK INTER:                  -6.404
REMARK INTRA:                  -1.641
REMARK UNBOUND:                -1.641
REMARK SMILES OC[C@@H]1O[C@H](O[C@@]2(CO)O[C@H](CO)[C@@H](O)[C@@H]2O)[C@@H](O)[C@@H](O)[C@@H]1O
REMARK SMILES IDX 6 1 5 2 3 3 22 4 4 5 20 6 18 7 2 8 1 9 23 11 21 13 19 15
REMARK SMILES IDX 7 17 16 18 10 19 14 20 11 21 8 22 9 23 17 25 15 27 12 29
REMARK SMILES IDX 13 30
REMARK H PARENT 1 10 23 12 21 14 19 16 9 24 17 26 15 28 13 31
REMARK Flexibility Score: inf
ROOT
ATOM      1  O   UNL     1      44.357  19.874  77.199  1.00  0.00    -0.313 OA
ENDROOT
BRANCH   1   2
ATOM      2  C   UNL     1      44.289  20.900  78.183  1.00  0.00     0.285 C 
ATOM      3  C   UNL     1      42.693  22.237  76.996  1.00  0.00     0.178 C 
ATOM      4  C   UNL     1      41.564  21.877  77.997  1.00  0.00     0.177 C 
ATOM      5  O   UNL     1      43.994  22.151  77.574  1.00  0.00    -0.341 OA
ATOM      6  C   UNL     1      41.846  20.531  78.681  1.00  0.00     0.179 C 
ATOM      7  C   UNL     1      43.263  20.529  79.274  1.00  0.00     0.202 C 
BRANCH   3   8
ATOM      8  C   UNL     1      42.590  21.505  75.640  1.00  0.00     0.191 C 
BRANCH   8   9
ATOM      9  O   UNL     1      43.705  21.811  74.848  1.00  0.00    -0.394 OA
ATOM     10  H   UNL     1      44.355  22.259  75.448  1.00  0.00     0.210 HD
ENDBRANCH   8   9
ENDBRANCH   3   8
BRANCH   4  11
ATOM     11  O   UNL     1      40.317  21.823  77.353  1.00  0.00    -0.387 OA
ATOM     12  H   UNL     1      40.091  22.754  77.089  1.00  0.00     0.211 HD
ENDBRANCH   4  11
BRANCH   6  13
ATOM     13  O   UNL     1      40.882  20.242  79.665  1.00  0.00    -0.387 OA
ATOM     14  H   UNL     1      40.508  19.342  79.476  1.00  0.00     0.211 HD
ENDBRANCH   6  13
BRANCH   7  15
ATOM     15  O   UNL     1      43.344  21.446  80.336  1.00  0.00    -0.385 OA
ATOM     16  H   UNL     1      42.413  21.721  80.552  1.00  0.00     0.211 HD
ENDBRANCH   7  15
ENDBRANCH   1   2
BRANCH   1  17
ATOM     17  C   UNL     1      45.672  19.565  76.748  1.00  0.00     0.224 C 
ATOM     18  C   UNL     1      46.630  19.835  77.928  1.00  0.00     0.208 C 
ATOM     19  O   UNL     1      46.061  20.405  75.669  1.00  0.00    -0.337 OA
ATOM     20  C   UNL     1      47.842  20.424  77.255  1.00  0.00     0.180 C 
ATOM     21  C   UNL     1      47.234  21.104  76.031  1.00  0.00     0.179 C 
BRANCH  17  22
ATOM     22  C   UNL     1      45.715  18.088  76.273  1.00  0.00     0.225 C 
BRANCH  22  23
ATOM     23  O   UNL     1      46.040  18.006  74.910  1.00  0.00    -0.391 OA
ATOM     24  H   UNL     1      46.138  18.935  74.574  1.00  0.00     0.210 HD
ENDBRANCH  22  23
ENDBRANCH  17  22
BRANCH  18  25
ATOM     25  O   UNL     1      46.952  18.676  78.655  1.00  0.00    -0.385 OA
ATOM     26  H   UNL     1      46.102  18.177  78.782  1.00  0.00     0.211 HD
ENDBRANCH  18  25
BRANCH  20  27
ATOM     27  O   UNL     1      48.539  21.321  78.087  1.00  0.00    -0.387 OA
ATOM     28  H   UNL     1      49.510  21.243  77.892  1.00  0.00     0.211 HD
ENDBRANCH  20  27
BRANCH  21  29
ATOM     29  C   UNL     1      48.198  21.136  74.839  1.00  0.00     0.191 C 
BRANCH  29  30
ATOM     30  O   UNL     1      47.931  20.078  73.957  1.00  0.00    -0.394 OA
ATOM     31  H   UNL     1      47.627  19.313  74.513  1.00  0.00     0.210 HD
ENDBRANCH  29  30
ENDBRANCH  21  29
ENDBRANCH   1  17
TORSDOF 13
ENDMDL
MODEL 2
REMARK VINA RESULT:    -4.146      2.023      3.631
REMARK INTER + INTRA:          -7.968
REMARK INTER:                  -6.317
REMARK INTRA:                  -1.652
REMARK UNBOUND:                -1.641
REMARK SMILES OC[C@@H]1O[C@H](O[C@@]2(CO)O[C@H](CO)[C@@H](O)[C@@H]2O)[C@@H](O)[C@@H](O)[C@@H]1O
REMARK SMILES IDX 6 1 5 2 3 3 22 4 4 5 20 6 18 7 2 8 1 9 23 11 21 13 19 15
REMARK SMILES IDX 7 17 16 18 10 19 14 20 11 21 8 22 9 23 17 25 15 27 12 29
REMARK SMILES IDX 13 30
REMARK H PARENT 1 10 23 12 21 14 19 16 9 24 17 26 15 28 13 31
REMARK Flexibility Score: inf
ROOT
ATOM      1  O   UNL     1      44.962  20.856  74.999  1.00  0.00    -0.313 OA
ENDROOT
BRANCH   1   2
ATOM      2  C   UNL     1      44.432  21.852  75.866  1.00  0.00     0.285 C 
ATOM      3  C   UNL     1      43.897  23.402  74.117  1.00  0.00     0.178 C 
ATOM      4  C   UNL     1      42.375  23.145  74.279  1.00  0.00     0.177 C 
ATOM      5  O   UNL     1      44.632  23.147  75.312  1.00  0.00    -0.341 OA
ATOM      6  C   UNL     1      42.114  21.756  74.879  1.00  0.00     0.179 C 
ATOM      7  C   UNL     1      42.943  21.570  76.159  1.00  0.00     0.202 C 
BRANCH   3   8
ATOM      8  C   UNL     1      44.520  22.728  72.875  1.00  0.00     0.191 C 
BRANCH   8   9
ATOM      9  O   UNL     1      45.908  22.919  72.877  1.00  0.00    -0.394 OA
ATOM     10  H   UNL     1      46.307  22.037  72.658  1.00  0.00     0.210 HD
ENDBRANCH   8   9
ENDBRANCH   3   8
BRANCH   4  11
ATOM     11  O   UNL     1      41.710  23.257  73.047  1.00  0.00    -0.387 OA
ATOM     12  H   UNL     1      40.837  23.693  73.233  1.00  0.00     0.211 HD
ENDBRANCH   4  11
BRANCH   6  13
ATOM     13  O   UNL     1      40.744  21.550  75.126  1.00  0.00    -0.387 OA
ATOM     14  H   UNL     1      40.522  20.616  74.878  1.00  0.00     0.211 HD
ENDBRANCH   6  13
BRANCH   7  15
ATOM     15  O   UNL     1      42.483  22.439  77.163  1.00  0.00    -0.385 OA
ATOM     16  H   UNL     1      43.215  22.523  77.829  1.00  0.00     0.211 HD
ENDBRANCH   7  15
ENDBRANCH   1   2
BRANCH   1  17
ATOM     17  C   UNL     1      46.012  20.074  75.559  1.00  0.00     0.224 C 
ATOM     18  C   UNL     1      45.578  18.596  75.461  1.00  0.00     0.208 C 
ATOM     19  O   UNL     1      46.210  20.380  76.934  1.00  0.00    -0.337 OA
ATOM     20  C   UNL     1      46.082  18.005  76.752  1.00  0.00     0.180 C 
ATOM     21  C   UNL     1      46.035  19.204  77.696  1.00  0.00     0.179 C 
BRANCH  17  22
ATOM     22  C   UNL     1      47.329  20.359  74.789  1.00  0.00     0.225 C 
BRANCH  22  23
ATOM     23  O   UNL     1      47.122  20.311  73.401  1.00  0.00    -0.391 OA
ATOM     24  H   UNL     1      47.195  21.241  73.060  1.00  0.00     0.210 HD
ENDBRANCH  22  23
ENDBRANCH  17  22
BRANCH  18  25
ATOM     25  O   UNL     1      46.114  17.935  74.342  1.00  0.00    -0.385 OA
ATOM     26  H   UNL     1      45.671  17.048  74.299  1.00  0.00     0.211 HD
ENDBRANCH  18  25
BRANCH  20  27
ATOM     27  O   UNL     1      45.293  16.928  77.198  1.00  0.00    -0.387 OA
ATOM     28  H   UNL     1      45.430  16.161  76.582  1.00  0.00     0.211 HD
ENDBRANCH  20  27
BRANCH  21  29
ATOM     29  C   UNL     1      47.113  19.136  78.785  1.00  0.00     0.191 C 
BRANCH  29  30
ATOM     30  O   UNL     1      47.440  17.803  79.074  1.00  0.00    -0.394 OA
ATOM     31  H   UNL     1      46.586  17.332  79.257  1.00  0.00     0.210 HD
ENDBRANCH  29  30
ENDBRANCH  21  29
ENDBRANCH   1  17
TORSDOF 13
ENDMDL
MODEL 3
REMARK VINA RESULT:    -4.051      2.616      4.976
REMARK INTER + INTRA:          -7.824
REMARK INTER:                  -6.585
REMARK INTRA:                  -1.239
REMARK UNBOUND:                -1.641
REMARK SMILES OC[C@@H]1O[C@H](O[C@@]2(CO)O[C@H](CO)[C@@H](O)[C@@H]2O)[C@@H](O)[C@@H](O)[C@@H]1O
REMARK SMILES IDX 6 1 5 2 3 3 22 4 4 5 20 6 18 7 2 8 1 9 23 11 21 13 19 15
REMARK SMILES IDX 7 17 16 18 10 19 14 20 11 21 8 22 9 23 17 25 15 27 12 29
REMARK SMILES IDX 13 30
REMARK H PARENT 1 10 23 12 21 14 19 16 9 24 17 26 15 28 13 31
REMARK Flexibility Score: inf
ROOT
ATOM      1  O   UNL     1      47.562  20.380  78.044  1.00  0.00    -0.313 OA
ENDROOT
BRANCH   1   2
ATOM      2  C   UNL     1      46.149  20.480  77.910  1.00  0.00     0.285 C 
ATOM      3  C   UNL     1      46.144  20.310  75.519  1.00  0.00     0.178 C 
ATOM      4  C   UNL     1      45.548  18.879  75.566  1.00  0.00     0.177 C 
ATOM      5  O   UNL     1      45.812  21.087  76.668  1.00  0.00    -0.341 OA
ATOM      6  C   UNL     1      45.886  18.187  76.895  1.00  0.00     0.179 C 
ATOM      7  C   UNL     1      45.495  19.091  78.073  1.00  0.00     0.202 C 
BRANCH   3   8
ATOM      8  C   UNL     1      47.649  20.355  75.179  1.00  0.00     0.191 C 
BRANCH   8   9
ATOM      9  O   UNL     1      47.843  20.031  73.830  1.00  0.00    -0.394 OA
ATOM     10  H   UNL     1      48.461  20.718  73.468  1.00  0.00     0.210 HD
ENDBRANCH   8   9
ENDBRANCH   3   8
BRANCH   4  11
ATOM     11  O   UNL     1      46.022  18.099  74.498  1.00  0.00    -0.387 OA
ATOM     12  H   UNL     1      46.925  17.776  74.759  1.00  0.00     0.211 HD
ENDBRANCH   4  11
BRANCH   6  13
ATOM     13  O   UNL     1      45.267  16.927  76.993  1.00  0.00    -0.387 OA
ATOM     14  H   UNL     1      45.224  16.533  76.083  1.00  0.00     0.211 HD
ENDBRANCH   6  13
BRANCH   7  15
ATOM     15  O   UNL     1      44.098  19.227  78.135  1.00  0.00    -0.385 OA
ATOM     16  H   UNL     1      43.719  18.309  78.144  1.00  0.00     0.211 HD
ENDBRANCH   7  15
ENDBRANCH   1   2
BRANCH   1  17
ATOM     17  C   UNL     1      48.137  21.276  78.989  1.00  0.00     0.224 C 
ATOM     18  C   UNL     1      48.728  22.458  78.191  1.00  0.00     0.208 C 
ATOM     19  O   UNL     1      49.199  20.661  79.708  1.00  0.00    -0.337 OA
ATOM     20  C   UNL     1      50.000  22.770  78.935  1.00  0.00     0.180 C 
ATOM     21  C   UNL     1      50.381  21.408  79.510  1.00  0.00     0.179 C 
BRANCH  17  22
ATOM     22  C   UNL     1      47.045  21.726  79.997  1.00  0.00     0.225 C 
BRANCH  22  23
ATOM     23  O   UNL     1      47.244  21.133  81.253  1.00  0.00    -0.391 OA
ATOM     24  H   UNL     1      48.161  20.752  81.258  1.00  0.00     0.210 HD
ENDBRANCH  22  23
ENDBRANCH  17  22
BRANCH  18  25
ATOM     25  O   UNL     1      47.872  23.571  78.136  1.00  0.00    -0.385 OA
ATOM     26  H   UNL     1      47.200  23.448  78.857  1.00  0.00     0.211 HD
ENDBRANCH  18  25
BRANCH  20  27
ATOM     27  O   UNL     1      50.997  23.307  78.099  1.00  0.00    -0.387 OA
ATOM     28  H   UNL     1      51.185  24.238  78.389  1.00  0.00     0.211 HD
ENDBRANCH  20  27
BRANCH  21  29
ATOM     29  C   UNL     1      51.140  21.524  80.838  1.00  0.00     0.191 C 
BRANCH  29  30
ATOM     30  O   UNL     1      52.230  22.397  80.710  1.00  0.00    -0.394 OA
ATOM     31  H   UNL     1      52.515  22.362  79.760  1.00  0.00     0.210 HD
ENDBRANCH  29  30
ENDBRANCH  21  29
ENDBRANCH   1  17
TORSDOF 13
ENDMDL
MODEL 4
REMARK VINA RESULT:    -3.964      2.570      5.143
REMARK INTER + INTRA:          -7.691
REMARK INTER:                  -6.510
REMARK INTRA:                  -1.181
REMARK UNBOUND:                -1.641
REMARK SMILES OC[C@@H]1O[C@H](O[C@@]2(CO)O[C@H](CO)[C@@H](O)[C@@H]2O)[C@@H](O)[C@@H](O)[C@@H]1O
REMARK SMILES IDX 6 1 5 2 3 3 22 4 4 5 20 6 18 7 2 8 1 9 23 11 21 13 19 15
REMARK SMILES IDX 7 17 16 18 10 19 14 20 11 21 8 22 9 23 17 25 15 27 12 29
REMARK SMILES IDX 13 30
REMARK H PARENT 1 10 23 12 21 14 19 16 9 24 17 26 15 28 13 31
REMARK Flexibility Score: inf
ROOT
ATOM      1  O   UNL     1      46.344  20.454  75.354  1.00  0.00    -0.313 OA
ENDROOT
BRANCH   1   2
ATOM      2  C   UNL     1      45.944  21.062  76.576  1.00  0.00     0.285 C 
ATOM      3  C   UNL     1      45.460  19.000  77.699  1.00  0.00     0.178 C 
ATOM      4  C   UNL     1      46.711  19.136  78.606  1.00  0.00     0.177 C 
ATOM      5  O   UNL     1      44.972  20.258  77.235  1.00  0.00    -0.341 OA
ATOM      6  C   UNL     1      47.785  20.003  77.933  1.00  0.00     0.179 C 
ATOM      7  C   UNL     1      47.174  21.333  77.468  1.00  0.00     0.202 C 
BRANCH   3   8
ATOM      8  C   UNL     1      45.614  17.962  76.566  1.00  0.00     0.191 C 
BRANCH   8   9
ATOM      9  O   UNL     1      45.230  16.696  77.026  1.00  0.00    -0.394 OA
ATOM     10  H   UNL     1      45.109  16.134  76.217  1.00  0.00     0.210 HD
ENDBRANCH   8   9
ENDBRANCH   3   8
BRANCH   4  11
ATOM     11  O   UNL     1      47.250  17.877  78.915  1.00  0.00    -0.387 OA
ATOM     12  H   UNL     1      46.493  17.307  79.213  1.00  0.00     0.211 HD
ENDBRANCH   4  11
BRANCH   6  13
ATOM     13  O   UNL     1      48.883  20.219  78.787  1.00  0.00    -0.387 OA
ATOM     14  H   UNL     1      49.409  19.379  78.832  1.00  0.00     0.211 HD
ENDBRANCH   6  13
BRANCH   7  15
ATOM     15  O   UNL     1      46.795  22.106  78.579  1.00  0.00    -0.385 OA
ATOM     16  H   UNL     1      47.135  21.636  79.386  1.00  0.00     0.211 HD
ENDBRANCH   7  15
ENDBRANCH   1   2
BRANCH   1  17
ATOM     17  C   UNL     1      45.723  20.989  74.189  1.00  0.00     0.224 C 
ATOM     18  C   UNL     1      45.733  22.526  74.336  1.00  0.00     0.208 C 
ATOM     19  O   UNL     1      44.367  20.570  74.085  1.00  0.00    -0.337 OA
ATOM     20  C   UNL     1      44.402  22.933  73.760  1.00  0.00     0.180 C 
ATOM     21  C   UNL     1      43.535  21.711  74.055  1.00  0.00     0.179 C 
BRANCH  17  22
ATOM     22  C   UNL     1      46.493  20.506  72.931  1.00  0.00     0.225 C 
BRANCH  22  23
ATOM     23  O   UNL     1      47.497  19.588  73.276  1.00  0.00    -0.391 OA
ATOM     24  H   UNL     1      47.398  18.804  72.677  1.00  0.00     0.210 HD
ENDBRANCH  22  23
ENDBRANCH  17  22
BRANCH  18  25
ATOM     25  O   UNL     1      46.802  23.138  73.658  1.00  0.00    -0.385 OA
ATOM     26  H   UNL     1      47.397  22.406  73.348  1.00  0.00     0.211 HD
ENDBRANCH  18  25
BRANCH  20  27
ATOM     27  O   UNL     1      43.899  24.112  74.343  1.00  0.00    -0.387 OA
ATOM     28  H   UNL     1      42.936  24.189  74.117  1.00  0.00     0.211 HD
ENDBRANCH  20  27
BRANCH  21  29
ATOM     29  C   UNL     1      42.431  21.510  73.009  1.00  0.00     0.191 C 
BRANCH  29  30
ATOM     30  O   UNL     1      41.659  22.673  72.875  1.00  0.00    -0.394 OA
ATOM     31  H   UNL     1      42.192  23.417  73.261  1.00  0.00     0.210 HD
ENDBRANCH  29  30
ENDBRANCH  21  29
ENDBRANCH   1  17
TORSDOF 13
ENDMDL
MODEL 5
REMARK VINA RESULT:    -3.955      1.716      2.921
REMARK INTER + INTRA:          -7.677
REMARK INTER:                  -6.294
REMARK INTRA:                  -1.383
REMARK UNBOUND:                -1.641
REMARK SMILES OC[C@@H]1O[C@H](O[C@@]2(CO)O[C@H](CO)[C@@H](O)[C@@H]2O)[C@@H](O)[C@@H](O)[C@@H]1O
REMARK SMILES IDX 6 1 5 2 3 3 22 4 4 5 20 6 18 7 2 8 1 9 23 11 21 13 19 15
REMARK SMILES IDX 7 17 16 18 10 19 14 20 11 21 8 22 9 23 17 25 15 27 12 29
REMARK SMILES IDX 13 30
REMARK H PARENT 1 10 23 12 21 14 19 16 9 24 17 26 15 28 13 31
REMARK Flexibility Score: inf
ROOT
ATOM      1  O   UNL     1      44.868  21.127  77.054  1.00  0.00    -0.313 OA
ENDROOT
BRANCH   1   2
ATOM      2  C   UNL     1      43.630  20.644  77.562  1.00  0.00     0.285 C 
ATOM      3  C   UNL     1      43.959  21.488  79.781  1.00  0.00     0.178 C 
ATOM      4  C   UNL     1      42.888  22.593  79.580  1.00  0.00     0.177 C 
ATOM      5  O   UNL     1      43.744  20.350  78.949  1.00  0.00    -0.341 OA
ATOM      6  C   UNL     1      42.729  22.938  78.091  1.00  0.00     0.179 C 
ATOM      7  C   UNL     1      42.501  21.657  77.275  1.00  0.00     0.202 C 
BRANCH   3   8
ATOM      8  C   UNL     1      45.413  22.005  79.727  1.00  0.00     0.191 C 
BRANCH   8   9
ATOM      9  O   UNL     1      46.303  20.923  79.731  1.00  0.00    -0.394 OA
ATOM     10  H   UNL     1      46.862  21.029  80.543  1.00  0.00     0.210 HD
ENDBRANCH   8   9
ENDBRANCH   3   8
BRANCH   4  11
ATOM     11  O   UNL     1      43.218  23.754  80.298  1.00  0.00    -0.387 OA
ATOM     12  H   UNL     1      42.388  24.297  80.359  1.00  0.00     0.211 HD
ENDBRANCH   4  11
BRANCH   6  13
ATOM     13  O   UNL     1      41.689  23.864  77.886  1.00  0.00    -0.387 OA
ATOM     14  H   UNL     1      41.498  23.903  76.913  1.00  0.00     0.211 HD
ENDBRANCH   6  13
BRANCH   7  15
ATOM     15  O   UNL     1      41.258  21.090  77.602  1.00  0.00    -0.385 OA
ATOM     16  H   UNL     1      41.359  20.105  77.518  1.00  0.00     0.211 HD
ENDBRANCH   7  15
ENDBRANCH   1   2
BRANCH   1  17
ATOM     17  C   UNL     1      45.610  20.181  76.291  1.00  0.00     0.224 C 
ATOM     18  C   UNL     1      47.075  20.668  76.266  1.00  0.00     0.208 C 
ATOM     19  O   UNL     1      45.147  20.120  74.948  1.00  0.00    -0.337 OA
ATOM     20  C   UNL     1      47.522  20.334  74.867  1.00  0.00     0.180 C 
ATOM     21  C   UNL     1      46.217  20.430  74.079  1.00  0.00     0.179 C 
BRANCH  17  22
ATOM     22  C   UNL     1      45.462  18.776  76.935  1.00  0.00     0.225 C 
BRANCH  22  23
ATOM     23  O   UNL     1      46.053  17.788  76.132  1.00  0.00    -0.391 OA
ATOM     24  H   UNL     1      45.356  17.108  75.940  1.00  0.00     0.210 HD
ENDBRANCH  22  23
ENDBRANCH  17  22
BRANCH  18  25
ATOM     25  O   UNL     1      47.882  20.043  77.233  1.00  0.00    -0.385 OA
ATOM     26  H   UNL     1      48.701  20.598  77.318  1.00  0.00     0.211 HD
ENDBRANCH  18  25
BRANCH  20  27
ATOM     27  O   UNL     1      48.512  21.215  74.391  1.00  0.00    -0.387 OA
ATOM     28  H   UNL     1      49.202  20.684  73.914  1.00  0.00     0.211 HD
ENDBRANCH  20  27
BRANCH  21  29
ATOM     29  C   UNL     1      46.188  19.481  72.875  1.00  0.00     0.191 C 
BRANCH  29  30
ATOM     30  O   UNL     1      46.428  18.159  73.280  1.00  0.00    -0.394 OA
ATOM     31  H   UNL     1      47.286  17.883  72.863  1.00  0.00     0.210 HD
ENDBRANCH  29  30
ENDBRANCH  21  29
ENDBRANCH   1  17
TORSDOF 13
ENDMDL
MODEL 6
REMARK VINA RESULT:    -3.866      2.229      5.099
REMARK INTER + INTRA:          -7.542
REMARK INTER:                  -5.934
REMARK INTRA:                  -1.608
REMARK UNBOUND:                -1.641
REMARK SMILES OC[C@@H]1O[C@H](O[C@@]2(CO)O[C@H](CO)[C@@H](O)[C@@H]2O)[C@@H](O)[C@@H](O)[C@@H]1O
REMARK SMILES IDX 6 1 5 2 3 3 22 4 4 5 20 6 18 7 2 8 1 9 23 11 21 13 19 15
REMARK SMILES IDX 7 17 16 18 10 19 14 20 11 21 8 22 9 23 17 25 15 27 12 29
REMARK SMILES IDX 13 30
REMARK H PARENT 1 10 23 12 21 14 19 16 9 24 17 26 15 28 13 31
REMARK Flexibility Score: inf
ROOT
ATOM      1  O   UNL     1      46.585  21.431  77.657  1.00  0.00    -0.313 OA
ENDROOT
BRANCH   1   2
ATOM      2  C   UNL     1      47.333  20.618  78.554  1.00  0.00     0.285 C 
ATOM      3  C   UNL     1      49.464  21.542  77.963  1.00  0.00     0.178 C 
ATOM      4  C   UNL     1      49.578  22.290  79.317  1.00  0.00     0.177 C 
ATOM      5  O   UNL     1      48.637  20.382  78.038  1.00  0.00    -0.341 OA
ATOM      6  C   UNL     1      48.188  22.561  79.912  1.00  0.00     0.179 C 
ATOM      7  C   UNL     1      47.371  21.262  79.956  1.00  0.00     0.202 C 
BRANCH   3   8
ATOM      8  C   UNL     1      49.109  22.454  76.768  1.00  0.00     0.191 C 
BRANCH   8   9
ATOM      9  O   UNL     1      48.985  21.685  75.603  1.00  0.00    -0.394 OA
ATOM     10  H   UNL     1      48.108  21.227  75.667  1.00  0.00     0.210 HD
ENDBRANCH   8   9
ENDBRANCH   3   8
BRANCH   4  11
ATOM     11  O   UNL     1      50.269  23.504  79.167  1.00  0.00    -0.387 OA
ATOM     12  H   UNL     1      49.656  24.222  79.477  1.00  0.00     0.211 HD
ENDBRANCH   4  11
BRANCH   6  13
ATOM     13  O   UNL     1      48.280  23.148  81.188  1.00  0.00    -0.387 OA
ATOM     14  H   UNL     1      48.359  24.130  81.072  1.00  0.00     0.211 HD
ENDBRANCH   6  13
BRANCH   7  15
ATOM     15  O   UNL     1      47.939  20.365  80.877  1.00  0.00    -0.385 OA
ATOM     16  H   UNL     1      47.398  19.532  80.840  1.00  0.00     0.211 HD
ENDBRANCH   7  15
ENDBRANCH   1   2
BRANCH   1  17
ATOM     17  C   UNL     1      45.733  20.713  76.770  1.00  0.00     0.224 C 
ATOM     18  C   UNL     1      45.617  19.274  77.317  1.00  0.00     0.208 C 
ATOM     19  O   UNL     1      46.290  20.639  75.463  1.00  0.00    -0.337 OA
ATOM     20  C   UNL     1      45.615  18.433  76.068  1.00  0.00     0.180 C 
ATOM     21  C   UNL     1      46.442  19.282  75.105  1.00  0.00     0.179 C 
BRANCH  17  22
ATOM     22  C   UNL     1      44.359  21.431  76.688  1.00  0.00     0.225 C 
BRANCH  22  23
ATOM     23  O   UNL     1      43.996  21.967  77.933  1.00  0.00    -0.391 OA
ATOM     24  H   UNL     1      44.616  22.719  78.122  1.00  0.00     0.210 HD
ENDBRANCH  22  23
ENDBRANCH  17  22
BRANCH  18  25
ATOM     25  O   UNL     1      44.459  19.067  78.086  1.00  0.00    -0.385 OA
ATOM     26  H   UNL     1      44.766  18.833  79.001  1.00  0.00     0.211 HD
ENDBRANCH  18  25
BRANCH  20  27
ATOM     27  O   UNL     1      46.165  17.154  76.277  1.00  0.00    -0.387 OA
ATOM     28  H   UNL     1      45.822  16.800  77.139  1.00  0.00     0.211 HD
ENDBRANCH  20  27
BRANCH  21  29
ATOM     29  C   UNL     1      46.019  19.089  73.643  1.00  0.00     0.191 C 
BRANCH  29  30
ATOM     30  O   UNL     1      46.246  17.767  73.233  1.00  0.00    -0.394 OA
ATOM     31  H   UNL     1      45.357  17.327  73.181  1.00  0.00     0.210 HD
ENDBRANCH  29  30
ENDBRANCH  21  29
ENDBRANCH   1  17
TORSDOF 13
ENDMDL
MODEL 7
REMARK VINA RESULT:    -3.846     15.530     17.185
REMARK INTER + INTRA:          -7.510
REMARK INTER:                  -5.962
REMARK INTRA:                  -1.548
REMARK UNBOUND:                -1.641
REMARK SMILES OC[C@@H]1O[C@H](O[C@@]2(CO)O[C@H](CO)[C@@H](O)[C@@H]2O)[C@@H](O)[C@@H](O)[C@@H]1O
REMARK SMILES IDX 6 1 5 2 3 3 22 4 4 5 20 6 18 7 2 8 1 9 23 11 21 13 19 15
REMARK SMILES IDX 7 17 16 18 10 19 14 20 11 21 8 22 9 23 17 25 15 27 12 29
REMARK SMILES IDX 13 30
REMARK H PARENT 1 10 23 12 21 14 19 16 9 24 17 26 15 28 13 31
REMARK Flexibility Score: inf
ROOT
ATOM      1  O   UNL     1      49.348  33.462  87.687  1.00  0.00    -0.313 OA
ENDROOT
BRANCH   1   2
ATOM      2  C   UNL     1      48.789  32.308  87.069  1.00  0.00     0.285 C 
ATOM      3  C   UNL     1      49.790  30.742  88.583  1.00  0.00     0.178 C 
ATOM      4  C   UNL     1      48.427  30.440  89.259  1.00  0.00     0.177 C 
ATOM      5  O   UNL     1      49.653  31.190  87.236  1.00  0.00    -0.341 OA
ATOM      6  C   UNL     1      47.461  31.623  89.099  1.00  0.00     0.179 C 
ATOM      7  C   UNL     1      47.374  32.036  87.622  1.00  0.00     0.202 C 
BRANCH   3   8
ATOM      8  C   UNL     1      50.723  31.642  89.422  1.00  0.00     0.191 C 
BRANCH   8   9
ATOM      9  O   UNL     1      51.805  32.066  88.639  1.00  0.00    -0.394 OA
ATOM     10  H   UNL     1      52.305  31.246  88.392  1.00  0.00     0.210 HD
ENDBRANCH   8   9
ENDBRANCH   3   8
BRANCH   4  11
ATOM     11  O   UNL     1      48.593  30.152  90.624  1.00  0.00    -0.387 OA
ATOM     12  H   UNL     1      47.885  29.499  90.866  1.00  0.00     0.211 HD
ENDBRANCH   4  11
BRANCH   6  13
ATOM     13  O   UNL     1      46.187  31.323  89.618  1.00  0.00    -0.387 OA
ATOM     14  H   UNL     1      46.301  31.015  90.555  1.00  0.00     0.211 HD
ENDBRANCH   6  13
BRANCH   7  15
ATOM     15  O   UNL     1      46.757  31.020  86.872  1.00  0.00    -0.385 OA
ATOM     16  H   UNL     1      46.139  31.467  86.235  1.00  0.00     0.211 HD
ENDBRANCH   7  15
ENDBRANCH   1   2
BRANCH   1  17
ATOM     17  C   UNL     1      49.981  34.371  86.793  1.00  0.00     0.224 C 
ATOM     18  C   UNL     1      49.070  34.495  85.553  1.00  0.00     0.208 C 
ATOM     19  O   UNL     1      51.243  33.878  86.359  1.00  0.00    -0.337 OA
ATOM     20  C   UNL     1      50.053  34.576  84.414  1.00  0.00     0.180 C 
ATOM     21  C   UNL     1      51.237  33.775  84.951  1.00  0.00     0.179 C 
BRANCH  17  22
ATOM     22  C   UNL     1      50.195  35.730  87.512  1.00  0.00     0.225 C 
BRANCH  22  23
ATOM     23  O   UNL     1      51.541  36.123  87.455  1.00  0.00    -0.391 OA
ATOM     24  H   UNL     1      51.624  36.969  87.969  1.00  0.00     0.210 HD
ENDBRANCH  22  23
ENDBRANCH  17  22
BRANCH  18  25
ATOM     25  O   UNL     1      48.229  35.621  85.595  1.00  0.00    -0.385 OA
ATOM     26  H   UNL     1      47.720  35.625  84.743  1.00  0.00     0.211 HD
ENDBRANCH  18  25
BRANCH  20  27
ATOM     27  O   UNL     1      49.536  34.048  83.216  1.00  0.00    -0.387 OA
ATOM     28  H   UNL     1      48.767  34.607  82.930  1.00  0.00     0.211 HD
ENDBRANCH  20  27
BRANCH  21  29
ATOM     29  C   UNL     1      52.578  34.270  84.397  1.00  0.00     0.191 C 
BRANCH  29  30
ATOM     30  O   UNL     1      53.109  35.280  85.214  1.00  0.00    -0.394 OA
ATOM     31  H   UNL     1      54.083  35.102  85.291  1.00  0.00     0.210 HD
ENDBRANCH  29  30
ENDBRANCH  21  29
ENDBRANCH   1  17
TORSDOF 13
ENDMDL
MODEL 8
REMARK VINA RESULT:    -3.841     17.088     18.926
REMARK INTER + INTRA:          -7.503
REMARK INTER:                  -6.153
REMARK INTRA:                  -1.351
REMARK UNBOUND:                -1.641
REMARK SMILES OC[C@@H]1O[C@H](O[C@@]2(CO)O[C@H](CO)[C@@H](O)[C@@H]2O)[C@@H](O)[C@@H](O)[C@@H]1O
REMARK SMILES IDX 6 1 5 2 3 3 22 4 4 5 20 6 18 7 2 8 1 9 23 11 21 13 19 15
REMARK SMILES IDX 7 17 16 18 10 19 14 20 11 21 8 22 9 23 17 25 15 27 12 29
REMARK SMILES IDX 13 30
REMARK H PARENT 1 10 23 12 21 14 19 16 9 24 17 26 15 28 13 31
REMARK Flexibility Score: inf
ROOT
ATOM      1  O   UNL     1      52.055  33.885  88.610  1.00  0.00    -0.313 OA
ENDROOT
BRANCH   1   2
ATOM      2  C   UNL     1      52.019  32.486  88.356  1.00  0.00     0.285 C 
ATOM      3  C   UNL     1      53.433  31.892  90.197  1.00  0.00     0.178 C 
ATOM      4  C   UNL     1      52.244  31.285  90.987  1.00  0.00     0.177 C 
ATOM      5  O   UNL     1      53.228  31.873  88.786  1.00  0.00    -0.341 OA
ATOM      6  C   UNL     1      50.914  31.917  90.549  1.00  0.00     0.179 C 
ATOM      7  C   UNL     1      50.779  31.852  89.021  1.00  0.00     0.202 C 
BRANCH   3   8
ATOM      8  C   UNL     1      53.896  33.270  90.718  1.00  0.00     0.191 C 
BRANCH   8   9
ATOM      9  O   UNL     1      54.840  33.818  89.840  1.00  0.00    -0.394 OA
ATOM     10  H   UNL     1      54.654  33.419  88.951  1.00  0.00     0.210 HD
ENDBRANCH   8   9
ENDBRANCH   3   8
BRANCH   4  11
ATOM     11  O   UNL     1      52.413  31.461  92.370  1.00  0.00    -0.387 OA
ATOM     12  H   UNL     1      52.369  30.557  92.781  1.00  0.00     0.211 HD
ENDBRANCH   4  11
BRANCH   6  13
ATOM     13  O   UNL     1      49.818  31.304  91.184  1.00  0.00    -0.387 OA
ATOM     14  H   UNL     1      49.054  31.936  91.160  1.00  0.00     0.211 HD
ENDBRANCH   6  13
BRANCH   7  15
ATOM     15  O   UNL     1      50.645  30.517  88.604  1.00  0.00    -0.385 OA
ATOM     16  H   UNL     1      49.696  30.391  88.337  1.00  0.00     0.211 HD
ENDBRANCH   7  15
ENDBRANCH   1   2
BRANCH   1  17
ATOM     17  C   UNL     1      52.199  34.700  87.451  1.00  0.00     0.224 C 
ATOM     18  C   UNL     1      50.786  34.909  86.866  1.00  0.00     0.208 C 
ATOM     19  O   UNL     1      52.990  34.056  86.460  1.00  0.00    -0.337 OA
ATOM     20  C   UNL     1      51.020  34.856  85.379  1.00  0.00     0.180 C 
ATOM     21  C   UNL     1      52.232  33.932  85.275  1.00  0.00     0.179 C 
BRANCH  17  22
ATOM     22  C   UNL     1      52.882  36.036  87.846  1.00  0.00     0.225 C 
BRANCH  22  23
ATOM     23  O   UNL     1      54.280  35.908  87.844  1.00  0.00    -0.391 OA
ATOM     24  H   UNL     1      54.647  36.695  87.364  1.00  0.00     0.210 HD
ENDBRANCH  22  23
ENDBRANCH  17  22
BRANCH  18  25
ATOM     25  O   UNL     1      50.200  36.125  87.257  1.00  0.00    -0.385 OA
ATOM     26  H   UNL     1      50.844  36.840  87.014  1.00  0.00     0.211 HD
ENDBRANCH  18  25
BRANCH  20  27
ATOM     27  O   UNL     1      49.903  34.372  84.672  1.00  0.00    -0.387 OA
ATOM     28  H   UNL     1      49.143  34.994  84.819  1.00  0.00     0.211 HD
ENDBRANCH  20  27
BRANCH  21  29
ATOM     29  C   UNL     1      53.116  34.258  84.066  1.00  0.00     0.191 C 
BRANCH  29  30
ATOM     30  O   UNL     1      52.346  34.339  82.897  1.00  0.00    -0.394 OA
ATOM     31  H   UNL     1      52.477  35.252  82.530  1.00  0.00     0.210 HD
ENDBRANCH  29  30
ENDBRANCH  21  29
ENDBRANCH   1  17
TORSDOF 13
ENDMDL
