MODEL 1
REMARK VINA RESULT:    -3.594      0.000      0.000
REMARK INTER + INTRA:          -4.230
REMARK INTER:                  -4.225
REMARK INTRA:                  -0.006
REMARK UNBOUND:                -0.006
REMARK SMILES [NH3+][C@H](CO)C(=O)[O-]
REMARK SMILES IDX 3 1 2 2 1 3 5 7 6 8 7 9 4 10
REMARK H PARENT 1 4 1 5 1 6 4 11
REMARK Flexibility Score: inf
ROOT
ATOM      1  C   UNL     1     167.070 172.807 196.068  1.00  0.00     0.227 C 
ENDROOT
BRANCH   1   2
ATOM      2  C   UNL     1     167.636 173.757 195.001  1.00  0.00     0.253 C 
BRANCH   2   3
ATOM      3  N   UNL     1     169.062 174.028 195.234  1.00  0.00    -0.348 N 
ATOM      4  H   UNL     1     169.326 174.936 194.787  1.00  0.00     0.345 HD
ATOM      5  H   UNL     1     169.639 173.271 194.802  1.00  0.00     0.345 HD
ATOM      6  H   UNL     1     169.272 174.078 196.258  1.00  0.00     0.345 HD
ENDBRANCH   2   3
BRANCH   2   7
ATOM      7  C   UNL     1     167.416 173.199 193.620  1.00  0.00     0.102 C 
ATOM      8  O   UNL     1     168.321 173.293 192.750  1.00  0.00    -0.544 OA
ATOM      9  O   UNL     1     166.201 172.614 193.281  1.00  0.00    -0.544 OA
ENDBRANCH   2   7
ENDBRANCH   1   2
BRANCH   1  10
ATOM     10  O   UNL     1     167.886 172.795 197.209  1.00  0.00    -0.390 OA
ATOM     11  H   UNL     1     168.769 172.455 196.912  1.00  0.00     0.210 HD
ENDBRANCH   1  10
TORSDOF 4
ENDMDL
MODEL 2
REMARK VINA RESULT:    -3.529      1.731      2.550
REMARK INTER + INTRA:          -4.154
REMARK INTER:                  -3.830
REMARK INTRA:                  -0.323
REMARK UNBOUND:                -0.006
REMARK SMILES [NH3+][C@H](CO)C(=O)[O-]
REMARK SMILES IDX 3 1 2 2 1 3 5 7 6 8 7 9 4 10
REMARK H PARENT 1 4 1 5 1 6 4 11
REMARK Flexibility Score: inf
ROOT
ATOM      1  C   UNL     1     166.878 175.161 194.876  1.00  0.00     0.227 C 
ENDROOT
BRANCH   1   2
ATOM      2  C   UNL     1     167.707 173.867 194.899  1.00  0.00     0.253 C 
BRANCH   2   3
ATOM      3  N   UNL     1     169.085 174.127 195.336  1.00  0.00    -0.348 N 
ATOM      4  H   UNL     1     169.707 174.229 194.501  1.00  0.00     0.345 HD
ATOM      5  H   UNL     1     169.432 173.322 195.906  1.00  0.00     0.345 HD
ATOM      6  H   UNL     1     169.139 175.001 195.910  1.00  0.00     0.345 HD
ENDBRANCH   2   3
BRANCH   2   7
ATOM      7  C   UNL     1     167.054 172.832 195.776  1.00  0.00     0.102 C 
ATOM      8  O   UNL     1     167.563 172.535 196.888  1.00  0.00    -0.544 OA
ATOM      9  O   UNL     1     165.911 172.164 195.348  1.00  0.00    -0.544 OA
ENDBRANCH   2   7
ENDBRANCH   1   2
BRANCH   1  10
ATOM     10  O   UNL     1     166.095 175.272 196.034  1.00  0.00    -0.390 OA
ATOM     11  H   UNL     1     166.018 176.243 196.222  1.00  0.00     0.210 HD
ENDBRANCH   1  10
TORSDOF 4
ENDMDL
MODEL 3
REMARK VINA RESULT:    -3.527      2.140      2.788
REMARK INTER + INTRA:          -4.152
REMARK INTER:                  -4.137
REMARK INTRA:                  -0.015
REMARK UNBOUND:                -0.006
REMARK SMILES [NH3+][C@H](CO)C(=O)[O-]
REMARK SMILES IDX 3 1 2 2 1 3 5 7 6 8 7 9 4 10
REMARK H PARENT 1 4 1 5 1 6 4 11
REMARK Flexibility Score: inf
ROOT
ATOM      1  C   UNL     1     168.190 173.656 194.602  1.00  0.00     0.227 C 
ENDROOT
BRANCH   1   2
ATOM      2  C   UNL     1     167.087 173.130 195.534  1.00  0.00     0.253 C 
BRANCH   2   3
ATOM      3  N   UNL     1     167.570 173.010 196.916  1.00  0.00    -0.348 N 
ATOM      4  H   UNL     1     167.326 173.874 197.452  1.00  0.00     0.345 HD
ATOM      5  H   UNL     1     168.610 172.907 196.917  1.00  0.00     0.345 HD
ATOM      6  H   UNL     1     167.142 172.181 197.392  1.00  0.00     0.345 HD
ENDBRANCH   2   3
BRANCH   2   7
ATOM      7  C   UNL     1     165.869 174.014 195.468  1.00  0.00     0.102 C 
ATOM      8  O   UNL     1     165.129 173.994 194.449  1.00  0.00    -0.544 OA
ATOM      9  O   UNL     1     165.574 174.888 196.509  1.00  0.00    -0.544 OA
ENDBRANCH   2   7
ENDBRANCH   1   2
BRANCH   1  10
ATOM     10  O   UNL     1     169.288 174.119 195.342  1.00  0.00    -0.390 OA
ATOM     11  H   UNL     1     170.066 173.577 195.049  1.00  0.00     0.210 HD
ENDBRANCH   1  10
TORSDOF 4
ENDMDL
MODEL 4
REMARK VINA RESULT:    -3.415      1.647      1.647
REMARK INTER + INTRA:          -4.019
REMARK INTER:                  -3.799
REMARK INTRA:                  -0.220
REMARK UNBOUND:                -0.006
REMARK SMILES [NH3+][C@H](CO)C(=O)[O-]
REMARK SMILES IDX 3 1 2 2 1 3 5 7 6 8 7 9 4 10
REMARK H PARENT 1 4 1 5 1 6 4 11
REMARK Flexibility Score: inf
ROOT
ATOM      1  C   UNL     1     168.173 173.423 195.598  1.00  0.00     0.227 C 
ENDROOT
BRANCH   1   2
ATOM      2  C   UNL     1     166.955 174.080 194.930  1.00  0.00     0.253 C 
BRANCH   2   3
ATOM      3  N   UNL     1     167.048 175.546 194.979  1.00  0.00    -0.348 N 
ATOM      4  H   UNL     1     167.776 175.876 194.303  1.00  0.00     0.345 HD
ATOM      5  H   UNL     1     167.332 175.849 195.939  1.00  0.00     0.345 HD
ATOM      6  H   UNL     1     166.131 175.988 194.736  1.00  0.00     0.345 HD
ENDBRANCH   2   3
BRANCH   2   7
ATOM      7  C   UNL     1     166.802 173.601 193.511  1.00  0.00     0.102 C 
ATOM      8  O   UNL     1     167.800 173.157 192.884  1.00  0.00    -0.544 OA
ATOM      9  O   UNL     1     165.573 173.684 192.866  1.00  0.00    -0.544 OA
ENDBRANCH   2   7
ENDBRANCH   1   2
BRANCH   1  10
ATOM     10  O   UNL     1     169.349 174.121 195.286  1.00  0.00    -0.390 OA
ATOM     11  H   UNL     1     169.214 174.495 194.377  1.00  0.00     0.210 HD
ENDBRANCH   1  10
TORSDOF 4
ENDMDL
MODEL 5
REMARK VINA RESULT:    -3.373      2.568      3.119
REMARK INTER + INTRA:          -3.970
REMARK INTER:                  -3.747
REMARK INTRA:                  -0.223
REMARK UNBOUND:                -0.006
REMARK SMILES [NH3+][C@H](CO)C(=O)[O-]
REMARK SMILES IDX 3 1 2 2 1 3 5 7 6 8 7 9 4 10
REMARK H PARENT 1 4 1 5 1 6 4 11
REMARK Flexibility Score: inf
ROOT
ATOM      1  C   UNL     1     164.895 175.120 196.017  1.00  0.00     0.227 C 
ENDROOT
BRANCH   1   2
ATOM      2  C   UNL     1     166.072 175.028 195.033  1.00  0.00     0.253 C 
BRANCH   2   3
ATOM      3  N   UNL     1     167.066 176.078 195.293  1.00  0.00    -0.348 N 
ATOM      4  H   UNL     1     167.499 176.385 194.392  1.00  0.00     0.345 HD
ATOM      5  H   UNL     1     167.823 175.702 195.909  1.00  0.00     0.345 HD
ATOM      6  H   UNL     1     166.624 176.905 195.759  1.00  0.00     0.345 HD
ENDBRANCH   2   3
BRANCH   2   7
ATOM      7  C   UNL     1     166.708 173.664 195.088  1.00  0.00     0.102 C 
ATOM      8  O   UNL     1     165.986 172.633 195.124  1.00  0.00    -0.544 OA
ATOM      9  O   UNL     1     168.091 173.532 195.144  1.00  0.00    -0.544 OA
ENDBRANCH   2   7
ENDBRANCH   1   2
BRANCH   1  10
ATOM     10  O   UNL     1     163.732 174.575 195.454  1.00  0.00    -0.390 OA
ATOM     11  H   UNL     1     163.537 173.751 195.971  1.00  0.00     0.210 HD
ENDBRANCH   1  10
TORSDOF 4
ENDMDL
MODEL 6
REMARK VINA RESULT:    -3.334      3.089      3.508
REMARK INTER + INTRA:          -3.924
REMARK INTER:                  -3.587
REMARK INTRA:                  -0.337
REMARK UNBOUND:                -0.006
REMARK SMILES [NH3+][C@H](CO)C(=O)[O-]
REMARK SMILES IDX 3 1 2 2 1 3 5 7 6 8 7 9 4 10
REMARK H PARENT 1 4 1 5 1 6 4 11
REMARK Flexibility Score: inf
ROOT
ATOM      1  C   UNL     1     165.852 176.232 195.531  1.00  0.00     0.227 C 
ENDROOT
BRANCH   1   2
ATOM      2  C   UNL     1     165.246 174.870 195.902  1.00  0.00     0.253 C 
BRANCH   2   3
ATOM      3  N   UNL     1     163.820 174.809 195.553  1.00  0.00    -0.348 N 
ATOM      4  H   UNL     1     163.509 173.811 195.510  1.00  0.00     0.345 HD
ATOM      5  H   UNL     1     163.669 175.240 194.613  1.00  0.00     0.345 HD
ATOM      6  H   UNL     1     163.239 175.317 196.261  1.00  0.00     0.345 HD
ENDBRANCH   2   3
BRANCH   2   7
ATOM      7  C   UNL     1     166.006 173.750 195.242  1.00  0.00     0.102 C 
ATOM      8  O   UNL     1     165.771 173.450 194.042  1.00  0.00    -0.544 OA
ATOM      9  O   UNL     1     166.941 173.012 195.959  1.00  0.00    -0.544 OA
ENDBRANCH   2   7
ENDBRANCH   1   2
BRANCH   1  10
ATOM     10  O   UNL     1     167.185 176.089 195.122  1.00  0.00    -0.390 OA
ATOM     11  H   UNL     1     167.487 175.210 195.470  1.00  0.00     0.210 HD
ENDBRANCH   1  10
TORSDOF 4
ENDMDL
MODEL 7
REMARK VINA RESULT:    -3.300      2.594      3.032
REMARK INTER + INTRA:          -3.884
REMARK INTER:                  -3.654
REMARK INTRA:                  -0.230
REMARK UNBOUND:                -0.006
REMARK SMILES [NH3+][C@H](CO)C(=O)[O-]
REMARK SMILES IDX 3 1 2 2 1 3 5 7 6 8 7 9 4 10
REMARK H PARENT 1 4 1 5 1 6 4 11
REMARK Flexibility Score: inf
ROOT
ATOM      1  C   UNL     1     166.137 175.840 195.039  1.00  0.00     0.227 C 
ENDROOT
BRANCH   1   2
ATOM      2  C   UNL     1     166.221 174.588 194.153  1.00  0.00     0.253 C 
BRANCH   2   3
ATOM      3  N   UNL     1     166.888 174.883 192.877  1.00  0.00    -0.348 N 
ATOM      4  H   UNL     1     167.692 175.531 193.041  1.00  0.00     0.345 HD
ATOM      5  H   UNL     1     166.215 175.353 192.229  1.00  0.00     0.345 HD
ATOM      6  H   UNL     1     167.242 174.006 192.428  1.00  0.00     0.345 HD
ENDBRANCH   2   3
BRANCH   2   7
ATOM      7  C   UNL     1     166.923 173.469 194.877  1.00  0.00     0.102 C 
ATOM      8  O   UNL     1     166.274 172.460 195.259  1.00  0.00    -0.544 OA
ATOM      9  O   UNL     1     168.279 173.558 195.168  1.00  0.00    -0.544 OA
ENDBRANCH   2   7
ENDBRANCH   1   2
BRANCH   1  10
ATOM     10  O   UNL     1     167.411 176.385 195.254  1.00  0.00    -0.390 OA
ATOM     11  H   UNL     1     167.555 176.370 196.235  1.00  0.00     0.210 HD
ENDBRANCH   1  10
TORSDOF 4
ENDMDL
MODEL 8
REMARK VINA RESULT:    -3.299      1.630      2.977
REMARK INTER + INTRA:          -3.883
REMARK INTER:                  -3.656
REMARK INTRA:                  -0.227
REMARK UNBOUND:                -0.006
REMARK SMILES [NH3+][C@H](CO)C(=O)[O-]
REMARK SMILES IDX 3 1 2 2 1 3 5 7 6 8 7 9 4 10
REMARK H PARENT 1 4 1 5 1 6 4 11
REMARK Flexibility Score: inf
ROOT
ATOM      1  C   UNL     1     167.152 173.031 193.291  1.00  0.00     0.227 C 
ENDROOT
BRANCH   1   2
ATOM      2  C   UNL     1     167.134 173.313 194.802  1.00  0.00     0.253 C 
BRANCH   2   3
ATOM      3  N   UNL     1     168.363 173.993 195.231  1.00  0.00    -0.348 N 
ATOM      4  H   UNL     1     168.211 175.029 195.232  1.00  0.00     0.345 HD
ATOM      5  H   UNL     1     169.137 173.777 194.562  1.00  0.00     0.345 HD
ATOM      6  H   UNL     1     168.645 173.689 196.192  1.00  0.00     0.345 HD
ENDBRANCH   2   3
BRANCH   2   7
ATOM      7  C   UNL     1     165.918 174.116 195.179  1.00  0.00     0.102 C 
ATOM      8  O   UNL     1     165.826 174.620 196.329  1.00  0.00    -0.544 OA
ATOM      9  O   UNL     1     164.868 174.273 194.280  1.00  0.00    -0.544 OA
ENDBRANCH   2   7
ENDBRANCH   1   2
BRANCH   1  10
ATOM     10  O   UNL     1     166.214 172.044 192.957  1.00  0.00    -0.390 OA
ATOM     11  H   UNL     1     166.493 171.224 193.441  1.00  0.00     0.210 HD
ENDBRANCH   1  10
TORSDOF 4
ENDMDL
MODEL 9
REMARK VINA RESULT:    -3.221      4.065      4.517
REMARK INTER + INTRA:          -3.792
REMARK INTER:                  -3.785
REMARK INTRA:                  -0.007
REMARK UNBOUND:                -0.006
REMARK SMILES [NH3+][C@H](CO)C(=O)[O-]
REMARK SMILES IDX 3 1 2 2 1 3 5 7 6 8 7 9 4 10
REMARK H PARENT 1 4 1 5 1 6 4 11
REMARK Flexibility Score: inf
ROOT
ATOM      1  C   UNL     1     165.989 176.883 195.222  1.00  0.00     0.227 C 
ENDROOT
BRANCH   1   2
ATOM      2  C   UNL     1     165.437 175.452 195.325  1.00  0.00     0.253 C 
BRANCH   2   3
ATOM      3  N   UNL     1     166.093 174.705 196.406  1.00  0.00    -0.348 N 
ATOM      4  H   UNL     1     165.940 175.196 197.317  1.00  0.00     0.345 HD
ATOM      5  H   UNL     1     167.123 174.660 196.228  1.00  0.00     0.345 HD
ATOM      6  H   UNL     1     165.714 173.732 196.474  1.00  0.00     0.345 HD
ENDBRANCH   2   3
BRANCH   2   7
ATOM      7  C   UNL     1     163.944 175.470 195.516  1.00  0.00     0.102 C 
ATOM      8  O   UNL     1     163.215 174.672 194.871  1.00  0.00    -0.544 OA
ATOM      9  O   UNL     1     163.353 176.394 196.372  1.00  0.00    -0.544 OA
ENDBRANCH   2   7
ENDBRANCH   1   2
BRANCH   1  10
ATOM     10  O   UNL     1     167.390 176.882 195.289  1.00  0.00    -0.390 OA
ATOM     11  H   UNL     1     167.655 175.947 195.485  1.00  0.00     0.210 HD
ENDBRANCH   1  10
TORSDOF 4
ENDMDL
