MODEL 1
REMARK VINA RESULT:    -5.155      0.000      0.000
REMARK INTER + INTRA:          -9.477
REMARK INTER:                  -8.772
REMARK INTRA:                  -0.705
REMARK UNBOUND:                -0.705
REMARK SMILES CCCCCCCCCCCCCC(=O)[O-]
REMARK SMILES IDX 8 1 9 2 10 3 11 4 12 5 13 6 14 7 15 8 16 9 7 10 6 11 5 12
REMARK SMILES IDX 4 13 3 14 2 15 1 16
REMARK H PARENT
REMARK Flexibility Score: inf
ROOT
ATOM      1  C   UNL     1       7.639  -0.724  35.797  1.00  0.00     0.000 C 
ENDROOT
BRANCH   1   2
ATOM      2  C   UNL     1       8.222  -0.597  34.382  1.00  0.00     0.000 C 
BRANCH   2   3
ATOM      3  C   UNL     1       9.435   0.342  34.368  1.00  0.00     0.000 C 
BRANCH   3   4
ATOM      4  C   UNL     1       9.182   1.580  35.241  1.00  0.00     0.000 C 
BRANCH   4   5
ATOM      5  C   UNL     1      10.467   2.123  35.892  1.00  0.00     0.006 C 
BRANCH   5   6
ATOM      6  C   UNL     1      11.671   1.170  35.807  1.00  0.00     0.053 C 
BRANCH   6   7
ATOM      7  C   UNL     1      12.903   1.864  35.318  1.00  0.00     0.041 C 
ATOM      8  O   UNL     1      13.378   1.590  34.185  1.00  0.00    -0.550 OA
ATOM      9  O   UNL     1      13.547   2.792  36.128  1.00  0.00    -0.550 OA
ENDBRANCH   6   7
ENDBRANCH   5   6
ENDBRANCH   4   5
ENDBRANCH   3   4
ENDBRANCH   2   3
ENDBRANCH   1   2
BRANCH   1  10
ATOM     10  C   UNL     1       6.666  -1.907  35.945  1.00  0.00     0.000 C 
BRANCH  10  11
ATOM     11  C   UNL     1       5.237  -1.532  36.384  1.00  0.00    -0.000 C 
BRANCH  11  12
ATOM     12  C   UNL     1       5.059  -0.024  36.620  1.00  0.00    -0.000 C 
BRANCH  12  13
ATOM     13  C   UNL     1       3.649   0.342  37.121  1.00  0.00    -0.000 C 
BRANCH  13  14
ATOM     14  C   UNL     1       3.402   0.110  38.626  1.00  0.00    -0.000 C 
BRANCH  14  15
ATOM     15  C   UNL     1       2.444  -1.048  38.956  1.00  0.00    -0.003 C 
ATOM     16  C   UNL     1       2.516  -1.479  40.421  1.00  0.00     0.004 C 
ENDBRANCH  14  15
ENDBRANCH  13  14
ENDBRANCH  12  13
ENDBRANCH  11  12
ENDBRANCH  10  11
ENDBRANCH   1  10
TORSDOF 12
ENDMDL
MODEL 2
REMARK VINA RESULT:    -5.152      1.335      2.022
REMARK INTER + INTRA:          -9.471
REMARK INTER:                  -8.764
REMARK INTRA:                  -0.707
REMARK UNBOUND:                -0.705
REMARK SMILES CCCCCCCCCCCCCC(=O)[O-]
REMARK SMILES IDX 8 1 9 2 10 3 11 4 12 5 13 6 14 7 15 8 16 9 7 10 6 11 5 12
REMARK SMILES IDX 4 13 3 14 2 15 1 16
REMARK H PARENT
REMARK Flexibility Score: inf
ROOT
ATOM      1  C   UNL     1       6.722  -1.869  36.026  1.00  0.00     0.000 C 
ENDROOT
BRANCH   1   2
ATOM      2  C   UNL     1       7.485  -0.626  35.543  1.00  0.00     0.000 C 
BRANCH   2   3
ATOM      3  C   UNL     1       7.899  -0.771  34.074  1.00  0.00     0.000 C 
BRANCH   3   4
ATOM      4  C   UNL     1       8.908   0.317  33.677  1.00  0.00     0.000 C 
BRANCH   4   5
ATOM      5  C   UNL     1      10.368  -0.109  33.916  1.00  0.00     0.006 C 
BRANCH   5   6
ATOM      6  C   UNL     1      11.350   1.063  34.079  1.00  0.00     0.053 C 
BRANCH   6   7
ATOM      7  C   UNL     1      11.483   1.489  35.508  1.00  0.00     0.041 C 
ATOM      8  O   UNL     1      10.610   2.229  36.033  1.00  0.00    -0.550 OA
ATOM      9  O   UNL     1      12.588   1.094  36.252  1.00  0.00    -0.550 OA
ENDBRANCH   6   7
ENDBRANCH   5   6
ENDBRANCH   4   5
ENDBRANCH   3   4
ENDBRANCH   2   3
ENDBRANCH   1   2
BRANCH   1  10
ATOM     10  C   UNL     1       5.259  -1.570  36.401  1.00  0.00     0.000 C 
BRANCH  10  11
ATOM     11  C   UNL     1       4.916  -0.078  36.571  1.00  0.00    -0.000 C 
BRANCH  11  12
ATOM     12  C   UNL     1       3.848   0.172  37.648  1.00  0.00    -0.000 C 
BRANCH  12  13
ATOM     13  C   UNL     1       3.043  -1.092  37.999  1.00  0.00    -0.000 C 
BRANCH  13  14
ATOM     14  C   UNL     1       2.592  -1.202  39.470  1.00  0.00    -0.000 C 
BRANCH  14  15
ATOM     15  C   UNL     1       2.951  -2.528  40.163  1.00  0.00    -0.003 C 
ATOM     16  C   UNL     1       3.050  -3.701  39.188  1.00  0.00     0.004 C 
ENDBRANCH  14  15
ENDBRANCH  13  14
ENDBRANCH  12  13
ENDBRANCH  11  12
ENDBRANCH  10  11
ENDBRANCH   1  10
TORSDOF 12
ENDMDL
MODEL 3
REMARK VINA RESULT:    -5.145      4.611      8.353
REMARK INTER + INTRA:          -9.459
REMARK INTER:                  -8.736
REMARK INTRA:                  -0.724
REMARK UNBOUND:                -0.705
REMARK SMILES CCCCCCCCCCCCCC(=O)[O-]
REMARK SMILES IDX 8 1 9 2 10 3 11 4 12 5 13 6 14 7 15 8 16 9 7 10 6 11 5 12
REMARK SMILES IDX 4 13 3 14 2 15 1 16
REMARK H PARENT
REMARK Flexibility Score: inf
ROOT
ATOM      1  C   UNL     1       6.831  -1.734  35.898  1.00  0.00     0.000 C 
ENDROOT
BRANCH   1   2
ATOM      2  C   UNL     1       5.403  -1.530  36.425  1.00  0.00     0.000 C 
BRANCH   2   3
ATOM      3  C   UNL     1       5.038  -0.041  36.467  1.00  0.00     0.000 C 
BRANCH   3   4
ATOM      4  C   UNL     1       3.855   0.209  37.413  1.00  0.00     0.000 C 
BRANCH   4   5
ATOM      5  C   UNL     1       3.328  -1.083  38.064  1.00  0.00     0.006 C 
BRANCH   5   6
ATOM      6  C   UNL     1       2.604  -0.868  39.403  1.00  0.00     0.053 C 
BRANCH   6   7
ATOM      7  C   UNL     1       2.661  -2.084  40.274  1.00  0.00     0.041 C 
ATOM      8  O   UNL     1       2.251  -2.032  41.463  1.00  0.00    -0.550 OA
ATOM      9  O   UNL     1       3.196  -3.268  39.781  1.00  0.00    -0.550 OA
ENDBRANCH   6   7
ENDBRANCH   5   6
ENDBRANCH   4   5
ENDBRANCH   3   4
ENDBRANCH   2   3
ENDBRANCH   1   2
BRANCH   1  10
ATOM     10  C   UNL     1       7.523  -0.416  35.508  1.00  0.00     0.000 C 
BRANCH  10  11
ATOM     11  C   UNL     1       8.190  -0.410  34.119  1.00  0.00    -0.000 C 
BRANCH  11  12
ATOM     12  C   UNL     1       9.305   0.641  33.994  1.00  0.00    -0.000 C 
BRANCH  12  13
ATOM     13  C   UNL     1       9.230   1.727  35.082  1.00  0.00    -0.000 C 
BRANCH  13  14
ATOM     14  C   UNL     1      10.511   1.913  35.920  1.00  0.00    -0.000 C 
BRANCH  14  15
ATOM     15  C   UNL     1      11.692   1.015  35.511  1.00  0.00    -0.003 C 
ATOM     16  C   UNL     1      13.051   1.635  35.837  1.00  0.00     0.004 C 
ENDBRANCH  14  15
ENDBRANCH  13  14
ENDBRANCH  12  13
ENDBRANCH  11  12
ENDBRANCH  10  11
ENDBRANCH   1  10
TORSDOF 12
ENDMDL
MODEL 4
REMARK VINA RESULT:    -5.140      2.008      3.567
REMARK INTER + INTRA:          -9.452
REMARK INTER:                  -8.247
REMARK INTRA:                  -1.205
REMARK UNBOUND:                -0.705
REMARK SMILES CCCCCCCCCCCCCC(=O)[O-]
REMARK SMILES IDX 8 1 9 2 10 3 11 4 12 5 13 6 14 7 15 8 16 9 7 10 6 11 5 12
REMARK SMILES IDX 4 13 3 14 2 15 1 16
REMARK H PARENT
REMARK Flexibility Score: inf
ROOT
ATOM      1  C   UNL     1       4.867  -2.640  36.721  1.00  0.00     0.000 C 
ENDROOT
BRANCH   1   2
ATOM      2  C   UNL     1       6.346  -2.878  36.383  1.00  0.00     0.000 C 
BRANCH   2   3
ATOM      3  C   UNL     1       6.951  -1.661  35.673  1.00  0.00     0.000 C 
BRANCH   3   4
ATOM      4  C   UNL     1       6.285  -0.361  36.146  1.00  0.00     0.000 C 
BRANCH   4   5
ATOM      5  C   UNL     1       7.276   0.813  36.254  1.00  0.00     0.006 C 
BRANCH   5   6
ATOM      6  C   UNL     1       8.673   0.514  35.686  1.00  0.00     0.053 C 
BRANCH   6   7
ATOM      7  C   UNL     1       9.419   1.766  35.341  1.00  0.00     0.041 C 
ATOM      8  O   UNL     1      10.186   2.300  36.185  1.00  0.00    -0.550 OA
ATOM      9  O   UNL     1       9.241   2.362  34.099  1.00  0.00    -0.550 OA
ENDBRANCH   6   7
ENDBRANCH   5   6
ENDBRANCH   4   5
ENDBRANCH   3   4
ENDBRANCH   2   3
ENDBRANCH   1   2
BRANCH   1  10
ATOM     10  C   UNL     1       4.310  -3.653  37.737  1.00  0.00     0.000 C 
BRANCH  10  11
ATOM     11  C   UNL     1       2.784  -3.862  37.689  1.00  0.00    -0.000 C 
BRANCH  11  12
ATOM     12  C   UNL     1       2.075  -3.404  38.973  1.00  0.00    -0.000 C 
BRANCH  12  13
ATOM     13  C   UNL     1       2.969  -2.531  39.873  1.00  0.00    -0.000 C 
BRANCH  13  14
ATOM     14  C   UNL     1       2.544  -1.053  39.991  1.00  0.00    -0.000 C 
BRANCH  14  15
ATOM     15  C   UNL     1       3.313  -0.080  39.079  1.00  0.00    -0.003 C 
ATOM     16  C   UNL     1       2.672   0.075  37.701  1.00  0.00     0.004 C 
ENDBRANCH  14  15
ENDBRANCH  13  14
ENDBRANCH  12  13
ENDBRANCH  11  12
ENDBRANCH  10  11
ENDBRANCH   1  10
TORSDOF 12
ENDMDL
MODEL 5
REMARK VINA RESULT:    -5.127      1.441      2.183
REMARK INTER + INTRA:          -9.428
REMARK INTER:                  -8.727
REMARK INTRA:                  -0.701
REMARK UNBOUND:                -0.705
REMARK SMILES CCCCCCCCCCCCCC(=O)[O-]
REMARK SMILES IDX 8 1 9 2 10 3 11 4 12 5 13 6 14 7 15 8 16 9 7 10 6 11 5 12
REMARK SMILES IDX 4 13 3 14 2 15 1 16
REMARK H PARENT
REMARK Flexibility Score: inf
ROOT
ATOM      1  C   UNL     1       6.453  -1.210  35.986  1.00  0.00     0.000 C 
ENDROOT
BRANCH   1   2
ATOM      2  C   UNL     1       7.846  -0.706  35.579  1.00  0.00     0.000 C 
BRANCH   2   3
ATOM      3  C   UNL     1       7.941   0.818  35.716  1.00  0.00     0.000 C 
BRANCH   3   4
ATOM      4  C   UNL     1       9.150   1.218  36.574  1.00  0.00     0.000 C 
BRANCH   4   5
ATOM      5  C   UNL     1      10.229   1.969  35.772  1.00  0.00     0.006 C 
BRANCH   5   6
ATOM      6  C   UNL     1      11.625   1.329  35.836  1.00  0.00     0.053 C 
BRANCH   6   7
ATOM      7  C   UNL     1      11.990   0.651  34.552  1.00  0.00     0.041 C 
ATOM      8  O   UNL     1      13.160   0.745  34.096  1.00  0.00    -0.550 OA
ATOM      9  O   UNL     1      11.030  -0.058  33.841  1.00  0.00    -0.550 OA
ENDBRANCH   6   7
ENDBRANCH   5   6
ENDBRANCH   4   5
ENDBRANCH   3   4
ENDBRANCH   2   3
ENDBRANCH   1   2
BRANCH   1  10
ATOM     10  C   UNL     1       6.392  -2.738  36.165  1.00  0.00     0.000 C 
BRANCH  10  11
ATOM     11  C   UNL     1       4.977  -3.326  36.318  1.00  0.00    -0.000 C 
BRANCH  11  12
ATOM     12  C   UNL     1       4.486  -3.338  37.775  1.00  0.00    -0.000 C 
BRANCH  12  13
ATOM     13  C   UNL     1       3.033  -2.851  37.922  1.00  0.00    -0.000 C 
BRANCH  13  14
ATOM     14  C   UNL     1       2.699  -2.160  39.259  1.00  0.00    -0.000 C 
BRANCH  14  15
ATOM     15  C   UNL     1       2.969  -0.645  39.293  1.00  0.00    -0.003 C 
ATOM     16  C   UNL     1       3.023  -0.019  37.900  1.00  0.00     0.004 C 
ENDBRANCH  14  15
ENDBRANCH  13  14
ENDBRANCH  12  13
ENDBRANCH  11  12
ENDBRANCH  10  11
ENDBRANCH   1  10
TORSDOF 12
ENDMDL
MODEL 6
REMARK VINA RESULT:    -5.109      1.659      3.692
REMARK INTER + INTRA:          -9.398
REMARK INTER:                  -8.436
REMARK INTRA:                  -0.962
REMARK UNBOUND:                -0.705
REMARK SMILES CCCCCCCCCCCCCC(=O)[O-]
REMARK SMILES IDX 8 1 9 2 10 3 11 4 12 5 13 6 14 7 15 8 16 9 7 10 6 11 5 12
REMARK SMILES IDX 4 13 3 14 2 15 1 16
REMARK H PARENT
REMARK Flexibility Score: inf
ROOT
ATOM      1  C   UNL     1       3.969   0.482  37.007  1.00  0.00     0.000 C 
ENDROOT
BRANCH   1   2
ATOM      2  C   UNL     1       5.157  -0.378  36.552  1.00  0.00     0.000 C 
BRANCH   2   3
ATOM      3  C   UNL     1       6.381   0.493  36.241  1.00  0.00     0.000 C 
BRANCH   3   4
ATOM      4  C   UNL     1       7.500  -0.341  35.599  1.00  0.00     0.000 C 
BRANCH   4   5
ATOM      5  C   UNL     1       8.673   0.521  35.098  1.00  0.00     0.006 C 
BRANCH   5   6
ATOM      6  C   UNL     1       9.549   1.109  36.217  1.00  0.00     0.053 C 
BRANCH   6   7
ATOM      7  C   UNL     1      10.856   1.620  35.696  1.00  0.00     0.041 C 
ATOM      8  O   UNL     1      11.650   0.843  35.102  1.00  0.00    -0.550 OA
ATOM      9  O   UNL     1      11.214   2.948  35.894  1.00  0.00    -0.550 OA
ENDBRANCH   6   7
ENDBRANCH   5   6
ENDBRANCH   4   5
ENDBRANCH   3   4
ENDBRANCH   2   3
ENDBRANCH   1   2
BRANCH   1  10
ATOM     10  C   UNL     1       3.356   0.009  38.336  1.00  0.00     0.000 C 
BRANCH  10  11
ATOM     11  C   UNL     1       2.440  -1.226  38.235  1.00  0.00    -0.000 C 
BRANCH  11  12
ATOM     12  C   UNL     1       2.816  -2.335  39.231  1.00  0.00    -0.000 C 
BRANCH  12  13
ATOM     13  C   UNL     1       3.154  -3.670  38.542  1.00  0.00    -0.000 C 
BRANCH  13  14
ATOM     14  C   UNL     1       4.511  -3.711  37.810  1.00  0.00    -0.000 C 
BRANCH  14  15
ATOM     15  C   UNL     1       4.426  -3.992  36.299  1.00  0.00    -0.003 C 
ATOM     16  C   UNL     1       5.759  -3.783  35.580  1.00  0.00     0.004 C 
ENDBRANCH  14  15
ENDBRANCH  13  14
ENDBRANCH  12  13
ENDBRANCH  11  12
ENDBRANCH  10  11
ENDBRANCH   1  10
TORSDOF 12
ENDMDL
MODEL 7
REMARK VINA RESULT:    -5.104      1.313      2.301
REMARK INTER + INTRA:          -9.391
REMARK INTER:                  -8.805
REMARK INTRA:                  -0.585
REMARK UNBOUND:                -0.705
REMARK SMILES CCCCCCCCCCCCCC(=O)[O-]
REMARK SMILES IDX 8 1 9 2 10 3 11 4 12 5 13 6 14 7 15 8 16 9 7 10 6 11 5 12
REMARK SMILES IDX 4 13 3 14 2 15 1 16
REMARK H PARENT
REMARK Flexibility Score: inf
ROOT
ATOM      1  C   UNL     1       5.803   0.343  36.364  1.00  0.00     0.000 C 
ENDROOT
BRANCH   1   2
ATOM      2  C   UNL     1       6.927  -0.471  35.704  1.00  0.00     0.000 C 
BRANCH   2   3
ATOM      3  C   UNL     1       8.262   0.280  35.770  1.00  0.00     0.000 C 
BRANCH   3   4
ATOM      4  C   UNL     1       8.847   0.484  34.365  1.00  0.00     0.000 C 
BRANCH   4   5
ATOM      5  C   UNL     1       9.299   1.935  34.112  1.00  0.00     0.006 C 
BRANCH   5   6
ATOM      6  C   UNL     1      10.764   2.072  33.669  1.00  0.00     0.053 C 
BRANCH   6   7
ATOM      7  C   UNL     1      11.704   1.400  34.621  1.00  0.00     0.041 C 
ATOM      8  O   UNL     1      12.464   0.481  34.219  1.00  0.00    -0.550 OA
ATOM      9  O   UNL     1      11.717   1.768  35.961  1.00  0.00    -0.550 OA
ENDBRANCH   6   7
ENDBRANCH   5   6
ENDBRANCH   4   5
ENDBRANCH   3   4
ENDBRANCH   2   3
ENDBRANCH   1   2
BRANCH   1  10
ATOM     10  C   UNL     1       4.605  -0.522  36.794  1.00  0.00     0.000 C 
BRANCH  10  11
ATOM     11  C   UNL     1       3.484   0.231  37.535  1.00  0.00    -0.000 C 
BRANCH  11  12
ATOM     12  C   UNL     1       2.732  -0.653  38.543  1.00  0.00    -0.000 C 
BRANCH  12  13
ATOM     13  C   UNL     1       3.117  -2.141  38.439  1.00  0.00    -0.000 C 
BRANCH  13  14
ATOM     14  C   UNL     1       3.027  -2.940  39.755  1.00  0.00    -0.000 C 
BRANCH  14  15
ATOM     15  C   UNL     1       2.655  -2.110  40.996  1.00  0.00    -0.003 C 
ATOM     16  C   UNL     1       1.209  -2.324  41.443  1.00  0.00     0.004 C 
ENDBRANCH  14  15
ENDBRANCH  13  14
ENDBRANCH  12  13
ENDBRANCH  11  12
ENDBRANCH  10  11
ENDBRANCH   1  10
TORSDOF 12
ENDMDL
MODEL 8
REMARK VINA RESULT:    -5.056      1.585      2.304
REMARK INTER + INTRA:          -9.308
REMARK INTER:                  -8.486
REMARK INTRA:                  -0.823
REMARK UNBOUND:                -0.705
REMARK SMILES CCCCCCCCCCCCCC(=O)[O-]
REMARK SMILES IDX 8 1 9 2 10 3 11 4 12 5 13 6 14 7 15 8 16 9 7 10 6 11 5 12
REMARK SMILES IDX 4 13 3 14 2 15 1 16
REMARK H PARENT
REMARK Flexibility Score: inf
ROOT
ATOM      1  C   UNL     1       6.859   0.745  36.154  1.00  0.00     0.000 C 
ENDROOT
BRANCH   1   2
ATOM      2  C   UNL     1       8.341   0.471  35.860  1.00  0.00     0.000 C 
BRANCH   2   3
ATOM      3  C   UNL     1       8.725   0.962  34.459  1.00  0.00     0.000 C 
BRANCH   3   4
ATOM      4  C   UNL     1       9.582  -0.082  33.727  1.00  0.00     0.000 C 
BRANCH   4   5
ATOM      5  C   UNL     1      11.076   0.014  34.088  1.00  0.00     0.006 C 
BRANCH   5   6
ATOM      6  C   UNL     1      11.677   1.420  33.929  1.00  0.00     0.053 C 
BRANCH   6   7
ATOM      7  C   UNL     1      12.116   1.994  35.240  1.00  0.00     0.041 C 
ATOM      8  O   UNL     1      11.595   3.055  35.674  1.00  0.00    -0.550 OA
ATOM      9  O   UNL     1      13.124   1.374  35.968  1.00  0.00    -0.550 OA
ENDBRANCH   6   7
ENDBRANCH   5   6
ENDBRANCH   4   5
ENDBRANCH   3   4
ENDBRANCH   2   3
ENDBRANCH   1   2
BRANCH   1  10
ATOM     10  C   UNL     1       6.028  -0.541  36.312  1.00  0.00     0.000 C 
BRANCH  10  11
ATOM     11  C   UNL     1       6.729  -1.836  35.862  1.00  0.00    -0.000 C 
BRANCH  11  12
ATOM     12  C   UNL     1       5.966  -3.106  36.273  1.00  0.00    -0.000 C 
BRANCH  12  13
ATOM     13  C   UNL     1       4.593  -2.803  36.901  1.00  0.00    -0.000 C 
BRANCH  13  14
ATOM     14  C   UNL     1       4.126  -3.799  37.982  1.00  0.00    -0.000 C 
BRANCH  14  15
ATOM     15  C   UNL     1       3.284  -3.183  39.113  1.00  0.00    -0.003 C 
ATOM     16  C   UNL     1       2.832  -1.755  38.809  1.00  0.00     0.004 C 
ENDBRANCH  14  15
ENDBRANCH  13  14
ENDBRANCH  12  13
ENDBRANCH  11  12
ENDBRANCH  10  11
ENDBRANCH   1  10
TORSDOF 12
ENDMDL
MODEL 9
REMARK VINA RESULT:    -5.010      4.780      8.501
REMARK INTER + INTRA:          -9.230
REMARK INTER:                  -8.560
REMARK INTRA:                  -0.670
REMARK UNBOUND:                -0.705
REMARK SMILES CCCCCCCCCCCCCC(=O)[O-]
REMARK SMILES IDX 8 1 9 2 10 3 11 4 12 5 13 6 14 7 15 8 16 9 7 10 6 11 5 12
REMARK SMILES IDX 4 13 3 14 2 15 1 16
REMARK H PARENT
REMARK Flexibility Score: inf
ROOT
ATOM      1  C   UNL     1       6.467  -1.125  35.980  1.00  0.00     0.000 C 
ENDROOT
BRANCH   1   2
ATOM      2  C   UNL     1       6.579  -2.633  36.250  1.00  0.00     0.000 C 
BRANCH   2   3
ATOM      3  C   UNL     1       5.197  -3.298  36.236  1.00  0.00     0.000 C 
BRANCH   3   4
ATOM      4  C   UNL     1       4.568  -3.289  37.637  1.00  0.00     0.000 C 
BRANCH   4   5
ATOM      5  C   UNL     1       3.159  -2.669  37.654  1.00  0.00     0.006 C 
BRANCH   5   6
ATOM      6  C   UNL     1       3.001  -1.482  38.618  1.00  0.00     0.053 C 
BRANCH   6   7
ATOM      7  C   UNL     1       2.582  -1.922  39.986  1.00  0.00     0.041 C 
ATOM      8  O   UNL     1       2.597  -1.108  40.946  1.00  0.00    -0.550 OA
ATOM      9  O   UNL     1       2.205  -3.241  40.208  1.00  0.00    -0.550 OA
ENDBRANCH   6   7
ENDBRANCH   5   6
ENDBRANCH   4   5
ENDBRANCH   3   4
ENDBRANCH   2   3
ENDBRANCH   1   2
BRANCH   1  10
ATOM     10  C   UNL     1       7.814  -0.476  35.615  1.00  0.00     0.000 C 
BRANCH  10  11
ATOM     11  C   UNL     1       7.968   0.999  36.033  1.00  0.00    -0.000 C 
BRANCH  11  12
ATOM     12  C   UNL     1       9.332   1.301  36.675  1.00  0.00    -0.000 C 
BRANCH  12  13
ATOM     13  C   UNL     1      10.363   1.840  35.666  1.00  0.00    -0.000 C 
BRANCH  13  14
ATOM     14  C   UNL     1      11.726   1.117  35.664  1.00  0.00    -0.000 C 
BRANCH  14  15
ATOM     15  C   UNL     1      12.006   0.261  34.416  1.00  0.00    -0.003 C 
ATOM     16  C   UNL     1      10.743  -0.047  33.611  1.00  0.00     0.004 C 
ENDBRANCH  14  15
ENDBRANCH  13  14
ENDBRANCH  12  13
ENDBRANCH  11  12
ENDBRANCH  10  11
ENDBRANCH   1  10
TORSDOF 12
ENDMDL
