MODEL 1
REMARK VINA RESULT:    -3.946      0.000      0.000
REMARK INTER + INTRA:          -4.327
REMARK INTER:                  -4.292
REMARK INTRA:                  -0.034
REMARK UNBOUND:                -0.034
REMARK SMILES O=C([O-])c1ccc(O)cc1
REMARK SMILES IDX 4 1 5 2 10 3 6 4 9 5 7 6 2 7 1 8 3 9 8 10
REMARK H PARENT 8 11
REMARK Flexibility Score: inf
ROOT
ATOM      1  C   UNL     1      48.260 -28.747 -31.567  1.00  0.00    -0.003 A 
ATOM      2  C   UNL     1      48.571 -28.144 -32.798  1.00  0.00     0.014 A 
ATOM      3  C   UNL     1      49.305 -29.068 -30.681  1.00  0.00     0.014 A 
ATOM      4  C   UNL     1      49.899 -27.867 -33.137  1.00  0.00     0.047 A 
ATOM      5  C   UNL     1      50.632 -28.790 -31.023  1.00  0.00     0.047 A 
ATOM      6  C   UNL     1      50.933 -28.190 -32.249  1.00  0.00     0.115 A 
ENDROOT
BRANCH   1   7
ATOM      7  C   UNL     1      46.856 -29.043 -31.203  1.00  0.00     0.071 C 
ATOM      8  O   UNL     1      45.909 -28.402 -31.731  1.00  0.00    -0.545 OA
ATOM      9  O   UNL     1      46.563 -30.033 -30.271  1.00  0.00    -0.545 OA
ENDBRANCH   1   7
BRANCH   6  10
ATOM     10  O   UNL     1      52.260 -27.919 -32.575  1.00  0.00    -0.508 OA
ATOM     11  H   UNL     1      52.612 -28.049 -33.516  1.00  0.00     0.293 HD
ENDBRANCH   6  10
TORSDOF 2
ENDMDL
MODEL 2
REMARK VINA RESULT:    -3.945      0.047      1.532
REMARK INTER + INTRA:          -4.325
REMARK INTER:                  -4.290
REMARK INTRA:                  -0.034
REMARK UNBOUND:                -0.034
REMARK SMILES O=C([O-])c1ccc(O)cc1
REMARK SMILES IDX 4 1 5 2 10 3 6 4 9 5 7 6 2 7 1 8 3 9 8 10
REMARK H PARENT 8 11
REMARK Flexibility Score: inf
ROOT
ATOM      1  C   UNL     1      48.224 -28.747 -31.546  1.00  0.00    -0.003 A 
ATOM      2  C   UNL     1      49.262 -29.078 -30.657  1.00  0.00     0.014 A 
ATOM      3  C   UNL     1      48.546 -28.138 -32.773  1.00  0.00     0.014 A 
ATOM      4  C   UNL     1      50.593 -28.805 -30.987  1.00  0.00     0.047 A 
ATOM      5  C   UNL     1      49.878 -27.866 -33.100  1.00  0.00     0.047 A 
ATOM      6  C   UNL     1      50.904 -28.198 -32.211  1.00  0.00     0.115 A 
ENDROOT
BRANCH   1   7
ATOM      7  C   UNL     1      46.813 -29.033 -31.202  1.00  0.00     0.071 C 
ATOM      8  O   UNL     1      45.878 -28.385 -31.743  1.00  0.00    -0.545 OA
ATOM      9  O   UNL     1      46.501 -30.020 -30.274  1.00  0.00    -0.545 OA
ENDBRANCH   1   7
BRANCH   6  10
ATOM     10  O   UNL     1      52.225 -27.921 -32.551  1.00  0.00    -0.508 OA
ATOM     11  H   UNL     1      52.966 -28.594 -32.391  1.00  0.00     0.293 HD
ENDBRANCH   6  10
TORSDOF 2
ENDMDL
MODEL 3
REMARK VINA RESULT:    -3.833      1.304      4.264
REMARK INTER + INTRA:          -4.203
REMARK INTER:                  -4.174
REMARK INTRA:                  -0.029
REMARK UNBOUND:                -0.034
REMARK SMILES O=C([O-])c1ccc(O)cc1
REMARK SMILES IDX 4 1 5 2 10 3 6 4 9 5 7 6 2 7 1 8 3 9 8 10
REMARK H PARENT 8 11
REMARK Flexibility Score: inf
ROOT
ATOM      1  C   UNL     1      50.138 -28.745 -31.374  1.00  0.00    -0.003 A 
ATOM      2  C   UNL     1      49.100 -29.188 -30.536  1.00  0.00     0.014 A 
ATOM      3  C   UNL     1      49.812 -28.047 -32.552  1.00  0.00     0.014 A 
ATOM      4  C   UNL     1      47.765 -28.938 -30.868  1.00  0.00     0.047 A 
ATOM      5  C   UNL     1      48.476 -27.799 -32.881  1.00  0.00     0.047 A 
ATOM      6  C   UNL     1      47.450 -28.243 -32.043  1.00  0.00     0.115 A 
ENDROOT
BRANCH   1   7
ATOM      7  C   UNL     1      51.553 -29.006 -31.028  1.00  0.00     0.071 C 
ATOM      8  O   UNL     1      52.304 -29.626 -31.828  1.00  0.00    -0.545 OA
ATOM      9  O   UNL     1      52.073 -28.573 -29.815  1.00  0.00    -0.545 OA
ENDBRANCH   1   7
BRANCH   6  10
ATOM     10  O   UNL     1      46.124 -27.989 -32.384  1.00  0.00    -0.508 OA
ATOM     11  H   UNL     1      45.387 -27.991 -31.688  1.00  0.00     0.293 HD
ENDBRANCH   6  10
TORSDOF 2
ENDMDL
MODEL 4
REMARK VINA RESULT:    -3.808     14.660     16.450
REMARK INTER + INTRA:          -4.176
REMARK INTER:                  -4.144
REMARK INTRA:                  -0.032
REMARK UNBOUND:                -0.034
REMARK SMILES O=C([O-])c1ccc(O)cc1
REMARK SMILES IDX 4 1 5 2 10 3 6 4 9 5 7 6 2 7 1 8 3 9 8 10
REMARK H PARENT 8 11
REMARK Flexibility Score: inf
ROOT
ATOM      1  C   UNL     1      38.624 -39.968 -28.804  1.00  0.00    -0.003 A 
ATOM      2  C   UNL     1      38.225 -40.848 -27.782  1.00  0.00     0.014 A 
ATOM      3  C   UNL     1      39.023 -40.500 -30.044  1.00  0.00     0.014 A 
ATOM      4  C   UNL     1      38.226 -42.230 -27.995  1.00  0.00     0.047 A 
ATOM      5  C   UNL     1      39.023 -41.883 -30.254  1.00  0.00     0.047 A 
ATOM      6  C   UNL     1      38.625 -42.751 -29.233  1.00  0.00     0.115 A 
ENDROOT
BRANCH   1   7
ATOM      7  C   UNL     1      38.626 -38.505 -28.584  1.00  0.00     0.071 C 
ATOM      8  O   UNL     1      38.270 -37.719 -29.502  1.00  0.00    -0.545 OA
ATOM      9  O   UNL     1      39.022 -37.977 -27.360  1.00  0.00    -0.545 OA
ENDBRANCH   1   7
BRANCH   6  10
ATOM     10  O   UNL     1      38.630 -44.125 -29.458  1.00  0.00    -0.508 OA
ATOM     11  H   UNL     1      39.437 -44.696 -29.234  1.00  0.00     0.293 HD
ENDBRANCH   6  10
TORSDOF 2
ENDMDL
MODEL 5
REMARK VINA RESULT:    -3.798      1.309      4.022
REMARK INTER + INTRA:          -4.166
REMARK INTER:                  -4.136
REMARK INTRA:                  -0.030
REMARK UNBOUND:                -0.034
REMARK SMILES O=C([O-])c1ccc(O)cc1
REMARK SMILES IDX 4 1 5 2 10 3 6 4 9 5 7 6 2 7 1 8 3 9 8 10
REMARK H PARENT 8 11
REMARK Flexibility Score: inf
ROOT
ATOM      1  C   UNL     1      50.143 -28.697 -31.376  1.00  0.00    -0.003 A 
ATOM      2  C   UNL     1      49.846 -28.022 -32.574  1.00  0.00     0.014 A 
ATOM      3  C   UNL     1      49.085 -29.127 -30.556  1.00  0.00     0.014 A 
ATOM      4  C   UNL     1      48.519 -27.781 -32.942  1.00  0.00     0.047 A 
ATOM      5  C   UNL     1      47.758 -28.885 -30.927  1.00  0.00     0.047 A 
ATOM      6  C   UNL     1      47.471 -28.212 -32.118  1.00  0.00     0.115 A 
ENDROOT
BRANCH   1   7
ATOM      7  C   UNL     1      51.546 -28.955 -30.981  1.00  0.00     0.071 C 
ATOM      8  O   UNL     1      52.339 -29.530 -31.773  1.00  0.00    -0.545 OA
ATOM      9  O   UNL     1      52.008 -28.565 -29.730  1.00  0.00    -0.545 OA
ENDBRANCH   1   7
BRANCH   6  10
ATOM     10  O   UNL     1      46.146 -27.978 -32.474  1.00  0.00    -0.508 OA
ATOM     11  H   UNL     1      45.810 -27.046 -32.689  1.00  0.00     0.293 HD
ENDBRANCH   6  10
TORSDOF 2
ENDMDL
MODEL 6
REMARK VINA RESULT:    -3.679      2.503      2.805
REMARK INTER + INTRA:          -4.036
REMARK INTER:                  -4.007
REMARK INTRA:                  -0.030
REMARK UNBOUND:                -0.034
REMARK SMILES O=C([O-])c1ccc(O)cc1
REMARK SMILES IDX 4 1 5 2 10 3 6 4 9 5 7 6 2 7 1 8 3 9 8 10
REMARK H PARENT 8 11
REMARK Flexibility Score: inf
ROOT
ATOM      1  C   UNL     1      48.433 -26.480 -30.985  1.00  0.00    -0.003 A 
ATOM      2  C   UNL     1      47.959 -27.346 -31.987  1.00  0.00     0.014 A 
ATOM      3  C   UNL     1      49.819 -26.375 -30.776  1.00  0.00     0.014 A 
ATOM      4  C   UNL     1      48.853 -28.091 -32.762  1.00  0.00     0.047 A 
ATOM      5  C   UNL     1      50.712 -27.122 -31.551  1.00  0.00     0.047 A 
ATOM      6  C   UNL     1      50.233 -27.981 -32.545  1.00  0.00     0.115 A 
ENDROOT
BRANCH   1   7
ATOM      7  C   UNL     1      47.491 -25.689 -30.162  1.00  0.00     0.071 C 
ATOM      8  O   UNL     1      46.564 -26.257 -29.526  1.00  0.00    -0.545 OA
ATOM      9  O   UNL     1      47.615 -24.307 -30.081  1.00  0.00    -0.545 OA
ENDBRANCH   1   7
BRANCH   6  10
ATOM     10  O   UNL     1      51.133 -28.718 -33.310  1.00  0.00    -0.508 OA
ATOM     11  H   UNL     1      50.822 -29.456 -33.930  1.00  0.00     0.293 HD
ENDBRANCH   6  10
TORSDOF 2
ENDMDL
MODEL 7
REMARK VINA RESULT:    -3.666      1.341      4.096
REMARK INTER + INTRA:          -4.022
REMARK INTER:                  -3.990
REMARK INTRA:                  -0.032
REMARK UNBOUND:                -0.034
REMARK SMILES O=C([O-])c1ccc(O)cc1
REMARK SMILES IDX 4 1 5 2 10 3 6 4 9 5 7 6 2 7 1 8 3 9 8 10
REMARK H PARENT 8 11
REMARK Flexibility Score: inf
ROOT
ATOM      1  C   UNL     1      48.871 -28.451 -31.854  1.00  0.00    -0.003 A 
ATOM      2  C   UNL     1      47.510 -28.398 -32.203  1.00  0.00     0.014 A 
ATOM      3  C   UNL     1      49.245 -29.099 -30.663  1.00  0.00     0.014 A 
ATOM      4  C   UNL     1      46.543 -28.982 -31.379  1.00  0.00     0.047 A 
ATOM      5  C   UNL     1      48.276 -29.682 -29.840  1.00  0.00     0.047 A 
ATOM      6  C   UNL     1      46.925 -29.625 -30.194  1.00  0.00     0.115 A 
ENDROOT
BRANCH   1   7
ATOM      7  C   UNL     1      49.898 -27.834 -32.723  1.00  0.00     0.071 C 
ATOM      8  O   UNL     1      49.813 -27.921 -33.977  1.00  0.00    -0.545 OA
ATOM      9  O   UNL     1      50.974 -27.151 -32.166  1.00  0.00    -0.545 OA
ENDBRANCH   1   7
BRANCH   6  10
ATOM     10  O   UNL     1      45.971 -30.211 -29.365  1.00  0.00    -0.508 OA
ATOM     11  H   UNL     1      45.002 -30.296 -29.648  1.00  0.00     0.293 HD
ENDBRANCH   6  10
TORSDOF 2
ENDMDL
MODEL 8
REMARK VINA RESULT:    -3.621      1.541      2.043
REMARK INTER + INTRA:          -3.973
REMARK INTER:                  -3.945
REMARK INTRA:                  -0.027
REMARK UNBOUND:                -0.034
REMARK SMILES O=C([O-])c1ccc(O)cc1
REMARK SMILES IDX 4 1 5 2 10 3 6 4 9 5 7 6 2 7 1 8 3 9 8 10
REMARK H PARENT 8 11
REMARK Flexibility Score: inf
ROOT
ATOM      1  C   UNL     1      49.310 -28.523 -31.532  1.00  0.00    -0.003 A 
ATOM      2  C   UNL     1      50.364 -28.253 -32.423  1.00  0.00     0.014 A 
ATOM      3  C   UNL     1      49.579 -29.257 -30.362  1.00  0.00     0.014 A 
ATOM      4  C   UNL     1      51.658 -28.708 -32.151  1.00  0.00     0.047 A 
ATOM      5  C   UNL     1      50.874 -29.711 -30.092  1.00  0.00     0.047 A 
ATOM      6  C   UNL     1      51.916 -29.439 -30.984  1.00  0.00     0.115 A 
ENDROOT
BRANCH   1   7
ATOM      7  C   UNL     1      47.939 -28.045 -31.815  1.00  0.00     0.071 C 
ATOM      8  O   UNL     1      47.075 -28.827 -32.294  1.00  0.00    -0.545 OA
ATOM      9  O   UNL     1      47.586 -26.726 -31.557  1.00  0.00    -0.545 OA
ENDBRANCH   1   7
BRANCH   6  10
ATOM     10  O   UNL     1      53.200 -29.897 -30.702  1.00  0.00    -0.508 OA
ATOM     11  H   UNL     1      53.369 -30.596 -29.988  1.00  0.00     0.293 HD
ENDBRANCH   6  10
TORSDOF 2
ENDMDL
MODEL 9
REMARK VINA RESULT:    -3.544     13.136     13.837
REMARK INTER + INTRA:          -3.889
REMARK INTER:                  -3.855
REMARK INTRA:                  -0.034
REMARK UNBOUND:                -0.034
REMARK SMILES O=C([O-])c1ccc(O)cc1
REMARK SMILES IDX 4 1 5 2 10 3 6 4 9 5 7 6 2 7 1 8 3 9 8 10
REMARK H PARENT 8 11
REMARK Flexibility Score: inf
ROOT
ATOM      1  C   UNL     1      54.492 -41.142 -30.472  1.00  0.00    -0.003 A 
ATOM      2  C   UNL     1      55.671 -40.738 -31.125  1.00  0.00     0.014 A 
ATOM      3  C   UNL     1      53.285 -41.153 -31.193  1.00  0.00     0.014 A 
ATOM      4  C   UNL     1      55.642 -40.355 -32.469  1.00  0.00     0.047 A 
ATOM      5  C   UNL     1      53.259 -40.769 -32.538  1.00  0.00     0.047 A 
ATOM      6  C   UNL     1      54.435 -40.369 -33.179  1.00  0.00     0.115 A 
ENDROOT
BRANCH   1   7
ATOM      7  C   UNL     1      54.517 -41.548 -29.050  1.00  0.00     0.071 C 
ATOM      8  O   UNL     1      53.473 -41.483 -28.347  1.00  0.00    -0.545 OA
ATOM      9  O   UNL     1      55.693 -42.006 -28.468  1.00  0.00    -0.545 OA
ENDBRANCH   1   7
BRANCH   6  10
ATOM     10  O   UNL     1      54.393 -39.989 -34.518  1.00  0.00    -0.508 OA
ATOM     11  H   UNL     1      54.460 -39.017 -34.796  1.00  0.00     0.293 HD
ENDBRANCH   6  10
TORSDOF 2
ENDMDL
