MODEL 1
REMARK VINA RESULT:    -5.701      0.000      0.000
REMARK INTER + INTRA:          -9.649
REMARK INTER:                  -9.033
REMARK INTRA:                  -0.616
REMARK UNBOUND:                -0.616
REMARK SMILES C=CCCCCCCCCCCC
REMARK SMILES IDX 7 1 8 2 9 3 10 4 11 5 12 6 13 7 6 8 5 9 4 10 3 11 2 12 1 13
REMARK H PARENT
REMARK Flexibility Score: inf
ROOT
ATOM      1  C   UNL     1       3.527   8.583  14.179  1.00  0.00     0.000 C 
ENDROOT
BRANCH   1   2
ATOM      2  C   UNL     1       4.848   8.198  13.493  1.00  0.00     0.000 C 
BRANCH   2   3
ATOM      3  C   UNL     1       4.589   7.326  12.256  1.00  0.00    -0.000 C 
BRANCH   3   4
ATOM      4  C   UNL     1       4.303   5.856  12.609  1.00  0.00    -0.000 C 
BRANCH   4   5
ATOM      5  C   UNL     1       5.538   4.933  12.615  1.00  0.00    -0.000 C 
BRANCH   5   6
ATOM      6  C   UNL     1       6.803   5.545  13.242  1.00  0.00    -0.003 C 
ATOM      7  C   UNL     1       7.786   6.077  12.201  1.00  0.00     0.004 C 
ENDBRANCH   5   6
ENDBRANCH   4   5
ENDBRANCH   3   4
ENDBRANCH   2   3
ENDBRANCH   1   2
BRANCH   1   8
ATOM      8  C   UNL     1       2.838   9.790  13.518  1.00  0.00     0.000 C 
BRANCH   8   9
ATOM      9  C   UNL     1       3.791  10.879  12.993  1.00  0.00     0.000 C 
BRANCH   9  10
ATOM     10  C   UNL     1       3.613  11.157  11.490  1.00  0.00     0.004 C 
BRANCH  10  11
ATOM     11  C   UNL     1       2.297  10.578  10.947  1.00  0.00     0.027 C 
BRANCH  11  12
ATOM     12  C   UNL     1       1.201  11.607  10.876  1.00  0.00    -0.035 C 
ATOM     13  C   UNL     1      -0.047  11.335  11.269  1.00  0.00     0.004 C 
ENDBRANCH  11  12
ENDBRANCH  10  11
ENDBRANCH   9  10
ENDBRANCH   8   9
ENDBRANCH   1   8
TORSDOF 10
ENDMDL
MODEL 2
REMARK VINA RESULT:    -5.582      0.679      1.406
REMARK INTER + INTRA:          -9.461
REMARK INTER:                  -8.980
REMARK INTRA:                  -0.481
REMARK UNBOUND:                -0.616
REMARK SMILES C=CCCCCCCCCCCC
REMARK SMILES IDX 7 1 8 2 9 3 10 4 11 5 12 6 13 7 6 8 5 9 4 10 3 11 2 12 1 13
REMARK H PARENT
REMARK Flexibility Score: inf
ROOT
ATOM      1  C   UNL     1       4.829   8.104  13.755  1.00  0.00     0.000 C 
ENDROOT
BRANCH   1   2
ATOM      2  C   UNL     1       4.546   7.554  12.348  1.00  0.00     0.000 C 
BRANCH   2   3
ATOM      3  C   UNL     1       4.503   6.019  12.359  1.00  0.00    -0.000 C 
BRANCH   3   4
ATOM      4  C   UNL     1       5.645   5.393  13.180  1.00  0.00    -0.000 C 
BRANCH   4   5
ATOM      5  C   UNL     1       6.972   5.205  12.417  1.00  0.00    -0.000 C 
BRANCH   5   6
ATOM      6  C   UNL     1       7.831   6.475  12.286  1.00  0.00    -0.003 C 
ATOM      7  C   UNL     1       7.972   7.236  13.603  1.00  0.00     0.004 C 
ENDBRANCH   5   6
ENDBRANCH   4   5
ENDBRANCH   3   4
ENDBRANCH   2   3
ENDBRANCH   1   2
BRANCH   1   8
ATOM      8  C   UNL     1       3.672   8.954  14.310  1.00  0.00     0.000 C 
BRANCH   8   9
ATOM      9  C   UNL     1       2.932   9.810  13.267  1.00  0.00     0.000 C 
BRANCH   9  10
ATOM     10  C   UNL     1       3.825  10.893  12.639  1.00  0.00     0.004 C 
BRANCH  10  11
ATOM     11  C   UNL     1       3.315  11.333  11.258  1.00  0.00     0.027 C 
BRANCH  11  12
ATOM     12  C   UNL     1       1.936  10.808  10.960  1.00  0.00    -0.035 C 
ATOM     13  C   UNL     1       0.875  11.617  10.888  1.00  0.00     0.004 C 
ENDBRANCH  11  12
ENDBRANCH  10  11
ENDBRANCH   9  10
ENDBRANCH   8   9
ENDBRANCH   1   8
TORSDOF 10
ENDMDL
MODEL 3
REMARK VINA RESULT:    -5.521      1.071      6.408
REMARK INTER + INTRA:          -9.365
REMARK INTER:                  -8.459
REMARK INTRA:                  -0.906
REMARK UNBOUND:                -0.616
REMARK SMILES C=CCCCCCCCCCCC
REMARK SMILES IDX 7 1 8 2 9 3 10 4 11 5 12 6 13 7 6 8 5 9 4 10 3 11 2 12 1 13
REMARK H PARENT
REMARK Flexibility Score: inf
ROOT
ATOM      1  C   UNL     1       4.184   8.294  13.449  1.00  0.00     0.000 C 
ENDROOT
BRANCH   1   2
ATOM      2  C   UNL     1       3.955   9.790  13.183  1.00  0.00     0.000 C 
BRANCH   2   3
ATOM      3  C   UNL     1       3.629  10.040  11.703  1.00  0.00    -0.000 C 
BRANCH   3   4
ATOM      4  C   UNL     1       3.304  11.514  11.402  1.00  0.00    -0.000 C 
BRANCH   4   5
ATOM      5  C   UNL     1       1.864  11.779  10.916  1.00  0.00    -0.000 C 
BRANCH   5   6
ATOM      6  C   UNL     1       0.889  10.605  11.107  1.00  0.00    -0.003 C 
ATOM      7  C   UNL     1       0.075  10.711  12.396  1.00  0.00     0.004 C 
ENDBRANCH   5   6
ENDBRANCH   4   5
ENDBRANCH   3   4
ENDBRANCH   2   3
ENDBRANCH   1   2
BRANCH   1   8
ATOM      8  C   UNL     1       4.462   7.492  12.165  1.00  0.00     0.000 C 
BRANCH   8   9
ATOM      9  C   UNL     1       4.586   5.970  12.360  1.00  0.00     0.000 C 
BRANCH   9  10
ATOM     10  C   UNL     1       5.822   5.571  13.185  1.00  0.00     0.004 C 
BRANCH  10  11
ATOM     11  C   UNL     1       7.132   5.830  12.424  1.00  0.00     0.027 C 
BRANCH  11  12
ATOM     12  C   UNL     1       7.981   6.884  13.084  1.00  0.00    -0.035 C 
ATOM     13  C   UNL     1       7.598   7.495  14.209  1.00  0.00     0.004 C 
ENDBRANCH  11  12
ENDBRANCH  10  11
ENDBRANCH   9  10
ENDBRANCH   8   9
ENDBRANCH   1   8
TORSDOF 10
ENDMDL
MODEL 4
REMARK VINA RESULT:    -5.462      1.248      1.707
REMARK INTER + INTRA:          -9.271
REMARK INTER:                  -8.266
REMARK INTRA:                  -1.005
REMARK UNBOUND:                -0.616
REMARK SMILES C=CCCCCCCCCCCC
REMARK SMILES IDX 7 1 8 2 9 3 10 4 11 5 12 6 13 7 6 8 5 9 4 10 3 11 2 12 1 13
REMARK H PARENT
REMARK Flexibility Score: inf
ROOT
ATOM      1  C   UNL     1       4.358   8.721  12.900  1.00  0.00     0.000 C 
ENDROOT
BRANCH   1   2
ATOM      2  C   UNL     1       4.118   7.275  13.360  1.00  0.00     0.000 C 
BRANCH   2   3
ATOM      3  C   UNL     1       4.717   6.275  12.360  1.00  0.00    -0.000 C 
BRANCH   3   4
ATOM      4  C   UNL     1       5.521   5.154  13.043  1.00  0.00    -0.000 C 
BRANCH   4   5
ATOM      5  C   UNL     1       7.045   5.210  12.815  1.00  0.00    -0.000 C 
BRANCH   5   6
ATOM      6  C   UNL     1       7.629   6.627  12.682  1.00  0.00    -0.003 C 
ATOM      7  C   UNL     1       7.700   7.369  14.016  1.00  0.00     0.004 C 
ENDBRANCH   5   6
ENDBRANCH   4   5
ENDBRANCH   3   4
ENDBRANCH   2   3
ENDBRANCH   1   2
BRANCH   1   8
ATOM      8  C   UNL     1       4.302   8.882  11.370  1.00  0.00     0.000 C 
BRANCH   8   9
ATOM      9  C   UNL     1       4.016  10.311  10.875  1.00  0.00     0.000 C 
BRANCH   9  10
ATOM     10  C   UNL     1       2.950  11.034  11.716  1.00  0.00     0.004 C 
BRANCH  10  11
ATOM     11  C   UNL     1       1.596  11.105  10.995  1.00  0.00     0.027 C 
BRANCH  11  12
ATOM     12  C   UNL     1       0.461  10.610  11.853  1.00  0.00    -0.035 C 
ATOM     13  C   UNL     1       0.643  10.267  13.131  1.00  0.00     0.004 C 
ENDBRANCH  11  12
ENDBRANCH  10  11
ENDBRANCH   9  10
ENDBRANCH   8   9
ENDBRANCH   1   8
TORSDOF 10
ENDMDL
MODEL 5
REMARK VINA RESULT:    -5.347      1.216      6.210
REMARK INTER + INTRA:          -9.089
REMARK INTER:                  -8.451
REMARK INTRA:                  -0.638
REMARK UNBOUND:                -0.616
REMARK SMILES C=CCCCCCCCCCCC
REMARK SMILES IDX 7 1 8 2 9 3 10 4 11 5 12 6 13 7 6 8 5 9 4 10 3 11 2 12 1 13
REMARK H PARENT
REMARK Flexibility Score: inf
ROOT
ATOM      1  C   UNL     1       4.532   7.120  12.263  1.00  0.00     0.000 C 
ENDROOT
BRANCH   1   2
ATOM      2  C   UNL     1       3.618   7.786  13.303  1.00  0.00     0.000 C 
BRANCH   2   3
ATOM      3  C   UNL     1       4.208   9.122  13.776  1.00  0.00    -0.000 C 
BRANCH   3   4
ATOM      4  C   UNL     1       3.547  10.340  13.106  1.00  0.00    -0.000 C 
BRANCH   4   5
ATOM      5  C   UNL     1       3.609  10.352  11.565  1.00  0.00    -0.000 C 
BRANCH   5   6
ATOM      6  C   UNL     1       2.485  11.144  10.876  1.00  0.00    -0.003 C 
ATOM      7  C   UNL     1       1.099  10.812  11.426  1.00  0.00     0.004 C 
ENDBRANCH   5   6
ENDBRANCH   4   5
ENDBRANCH   3   4
ENDBRANCH   2   3
ENDBRANCH   1   2
BRANCH   1   8
ATOM      8  C   UNL     1       4.547   5.585  12.373  1.00  0.00     0.000 C 
BRANCH   8   9
ATOM      9  C   UNL     1       5.683   5.003  13.233  1.00  0.00     0.000 C 
BRANCH   9  10
ATOM     10  C   UNL     1       7.062   5.119  12.562  1.00  0.00     0.004 C 
BRANCH  10  11
ATOM     11  C   UNL     1       7.714   6.487  12.813  1.00  0.00     0.027 C 
BRANCH  11  12
ATOM     12  C   UNL     1       7.367   7.050  14.166  1.00  0.00    -0.035 C 
ATOM     13  C   UNL     1       7.708   8.292  14.520  1.00  0.00     0.004 C 
ENDBRANCH  11  12
ENDBRANCH  10  11
ENDBRANCH   9  10
ENDBRANCH   8   9
ENDBRANCH   1   8
TORSDOF 10
ENDMDL
MODEL 6
REMARK VINA RESULT:    -5.243      0.817      1.599
REMARK INTER + INTRA:          -8.923
REMARK INTER:                  -8.253
REMARK INTRA:                  -0.671
REMARK UNBOUND:                -0.616
REMARK SMILES C=CCCCCCCCCCCC
REMARK SMILES IDX 7 1 8 2 9 3 10 4 11 5 12 6 13 7 6 8 5 9 4 10 3 11 2 12 1 13
REMARK H PARENT
REMARK Flexibility Score: inf
ROOT
ATOM      1  C   UNL     1       3.293   8.590  13.705  1.00  0.00     0.000 C 
ENDROOT
BRANCH   1   2
ATOM      2  C   UNL     1       4.744   8.287  13.300  1.00  0.00     0.000 C 
BRANCH   2   3
ATOM      3  C   UNL     1       5.605   7.981  14.535  1.00  0.00    -0.000 C 
BRANCH   3   4
ATOM      4  C   UNL     1       7.020   7.498  14.173  1.00  0.00    -0.000 C 
BRANCH   4   5
ATOM      5  C   UNL     1       7.151   6.838  12.784  1.00  0.00    -0.000 C 
BRANCH   5   6
ATOM      6  C   UNL     1       6.979   5.310  12.774  1.00  0.00    -0.003 C 
ATOM      7  C   UNL     1       5.514   4.875  12.747  1.00  0.00     0.004 C 
ENDBRANCH   5   6
ENDBRANCH   4   5
ENDBRANCH   3   4
ENDBRANCH   2   3
ENDBRANCH   1   2
BRANCH   1   8
ATOM      8  C   UNL     1       2.904  10.063  13.484  1.00  0.00     0.000 C 
BRANCH   8   9
ATOM      9  C   UNL     1       3.955  10.912  12.748  1.00  0.00     0.000 C 
BRANCH   9  10
ATOM     10  C   UNL     1       3.627  11.113  11.258  1.00  0.00     0.004 C 
BRANCH  10  11
ATOM     11  C   UNL     1       2.271  10.499  10.878  1.00  0.00     0.027 C 
BRANCH  11  12
ATOM     12  C   UNL     1       1.158  11.513  10.884  1.00  0.00    -0.035 C 
ATOM     13  C   UNL     1      -0.062  11.215  11.340  1.00  0.00     0.004 C 
ENDBRANCH  11  12
ENDBRANCH  10  11
ENDBRANCH   9  10
ENDBRANCH   8   9
ENDBRANCH   1   8
TORSDOF 10
ENDMDL
MODEL 7
REMARK VINA RESULT:    -4.626      1.543      3.237
REMARK INTER + INTRA:          -7.946
REMARK INTER:                  -7.365
REMARK INTRA:                  -0.581
REMARK UNBOUND:                -0.616
REMARK SMILES C=CCCCCCCCCCCC
REMARK SMILES IDX 7 1 8 2 9 3 10 4 11 5 12 6 13 7 6 8 5 9 4 10 3 11 2 12 1 13
REMARK H PARENT
REMARK Flexibility Score: inf
ROOT
ATOM      1  C   UNL     1       4.388   5.706  12.467  1.00  0.00     0.000 C 
ENDROOT
BRANCH   1   2
ATOM      2  C   UNL     1       5.718   5.190  13.038  1.00  0.00     0.000 C 
BRANCH   2   3
ATOM      3  C   UNL     1       6.893   5.579  12.129  1.00  0.00    -0.000 C 
BRANCH   3   4
ATOM      4  C   UNL     1       7.952   6.431  12.852  1.00  0.00    -0.000 C 
BRANCH   4   5
ATOM      5  C   UNL     1       7.490   7.057  14.184  1.00  0.00    -0.000 C 
BRANCH   5   6
ATOM      6  C   UNL     1       8.177   8.383  14.551  1.00  0.00    -0.003 C 
ATOM      7  C   UNL     1       9.596   8.492  13.994  1.00  0.00     0.004 C 
ENDBRANCH   5   6
ENDBRANCH   4   5
ENDBRANCH   3   4
ENDBRANCH   2   3
ENDBRANCH   1   2
BRANCH   1   8
ATOM      8  C   UNL     1       4.427   7.206  12.119  1.00  0.00     0.000 C 
BRANCH   8   9
ATOM      9  C   UNL     1       4.659   8.146  13.315  1.00  0.00     0.000 C 
BRANCH   9  10
ATOM     10  C   UNL     1       3.379   8.873  13.762  1.00  0.00     0.004 C 
BRANCH  10  11
ATOM     11  C   UNL     1       3.379  10.352  13.346  1.00  0.00     0.027 C 
BRANCH  11  12
ATOM     12  C   UNL     1       3.080  10.538  11.882  1.00  0.00    -0.035 C 
ATOM     13  C   UNL     1       3.800  11.362  11.116  1.00  0.00     0.004 C 
ENDBRANCH  11  12
ENDBRANCH  10  11
ENDBRANCH   9  10
ENDBRANCH   8   9
ENDBRANCH   1   8
TORSDOF 10
ENDMDL
MODEL 8
REMARK VINA RESULT:    -4.324      1.668      5.838
REMARK INTER + INTRA:          -7.467
REMARK INTER:                  -6.589
REMARK INTRA:                  -0.878
REMARK UNBOUND:                -0.616
REMARK SMILES C=CCCCCCCCCCCC
REMARK SMILES IDX 7 1 8 2 9 3 10 4 11 5 12 6 13 7 6 8 5 9 4 10 3 11 2 12 1 13
REMARK H PARENT
REMARK Flexibility Score: inf
ROOT
ATOM      1  C   UNL     1       4.452   6.807  12.405  1.00  0.00     0.000 C 
ENDROOT
BRANCH   1   2
ATOM      2  C   UNL     1       4.855   7.489  11.088  1.00  0.00     0.000 C 
BRANCH   2   3
ATOM      3  C   UNL     1       4.195   8.869  10.961  1.00  0.00    -0.000 C 
BRANCH   3   4
ATOM      4  C   UNL     1       4.322   9.715  12.240  1.00  0.00    -0.000 C 
BRANCH   4   5
ATOM      5  C   UNL     1       2.997  10.293  12.776  1.00  0.00    -0.000 C 
BRANCH   5   6
ATOM      6  C   UNL     1       2.626   9.853  14.203  1.00  0.00    -0.003 C 
ATOM      7  C   UNL     1       3.634   8.876  14.805  1.00  0.00     0.004 C 
ENDBRANCH   5   6
ENDBRANCH   4   5
ENDBRANCH   3   4
ENDBRANCH   2   3
ENDBRANCH   1   2
BRANCH   1   8
ATOM      8  C   UNL     1       4.801   5.308  12.437  1.00  0.00     0.000 C 
BRANCH   8   9
ATOM      9  C   UNL     1       6.106   4.959  13.174  1.00  0.00     0.000 C 
BRANCH   9  10
ATOM     10  C   UNL     1       7.364   5.428  12.422  1.00  0.00     0.004 C 
BRANCH  10  11
ATOM     11  C   UNL     1       7.950   6.714  13.024  1.00  0.00     0.027 C 
BRANCH  11  12
ATOM     12  C   UNL     1       7.228   7.146  14.273  1.00  0.00    -0.035 C 
ATOM     13  C   UNL     1       7.276   8.407  14.713  1.00  0.00     0.004 C 
ENDBRANCH  11  12
ENDBRANCH  10  11
ENDBRANCH   9  10
ENDBRANCH   8   9
ENDBRANCH   1   8
TORSDOF 10
ENDMDL
