MODEL 1
REMARK VINA RESULT:    -5.931      0.000      0.000
REMARK INTER + INTRA:          -7.287
REMARK INTER:                  -6.971
REMARK INTRA:                  -0.316
REMARK UNBOUND:                -0.316
REMARK SMILES O=c1cc(-c2ccc(O)c(O)c2)oc2cc(O)cc(O)c12
REMARK SMILES IDX 4 1 3 2 2 3 1 4 21 5 19 6 18 7 16 8 15 9 14 10 13 11 5 12
REMARK SMILES IDX 6 13 7 14 8 15 12 16 10 17 9 18 11 20 20 22 17 24
REMARK H PARENT 9 19 11 21 20 23 17 25
REMARK Flexibility Score: inf
ROOT
ATOM      1  C   UNL     1      46.202  16.518  -4.185  1.00  0.00     0.138 A 
ATOM      2  C   UNL     1      45.861  17.555  -5.069  1.00  0.00     0.100 A 
ATOM      3  C   UNL     1      44.599  18.143  -4.986  1.00  0.00     0.197 A 
ATOM      4  O   UNL     1      44.302  19.072  -5.784  1.00  0.00    -0.289 OA
ATOM      5  C   UNL     1      43.682  17.685  -4.018  1.00  0.00     0.107 A 
ATOM      6  C   UNL     1      42.383  18.225  -3.865  1.00  0.00     0.134 A 
ATOM      7  C   UNL     1      41.528  17.710  -2.880  1.00  0.00     0.093 A 
ATOM      8  C   UNL     1      41.944  16.667  -2.048  1.00  0.00     0.123 A 
ATOM      9  C   UNL     1      43.227  16.129  -2.195  1.00  0.00     0.094 A 
ATOM     10  C   UNL     1      44.095  16.629  -3.170  1.00  0.00     0.146 A 
ATOM     11  O   UNL     1      45.309  16.103  -3.289  1.00  0.00    -0.456 OA
ENDROOT
BRANCH   1  12
ATOM     12  C   UNL     1      47.530  15.856  -4.229  1.00  0.00     0.021 A 
ATOM     13  C   UNL     1      48.617  16.421  -4.924  1.00  0.00     0.016 A 
ATOM     14  C   UNL     1      49.858  15.780  -4.940  1.00  0.00     0.051 A 
ATOM     15  C   UNL     1      50.041  14.574  -4.259  1.00  0.00     0.157 A 
ATOM     16  C   UNL     1      47.725  14.648  -3.534  1.00  0.00     0.062 A 
ATOM     17  C   UNL     1      48.970  14.005  -3.551  1.00  0.00     0.158 A 
BRANCH  15  18
ATOM     18  O   UNL     1      51.291  13.958  -4.295  1.00  0.00    -0.504 OA
ATOM     19  H   UNL     1      52.076  14.301  -3.752  1.00  0.00     0.293 HD
ENDBRANCH  15  18
BRANCH  17  20
ATOM     20  O   UNL     1      49.147  12.803  -2.867  1.00  0.00    -0.504 OA
ATOM     21  H   UNL     1      50.064  12.495  -2.562  1.00  0.00     0.293 HD
ENDBRANCH  17  20
ENDBRANCH   1  12
BRANCH   6  22
ATOM     22  O   UNL     1      41.938  19.266  -4.681  1.00  0.00    -0.507 OA
ATOM     23  H   UNL     1      42.214  19.337  -5.653  1.00  0.00     0.293 HD
ENDBRANCH   6  22
BRANCH   8  24
ATOM     24  O   UNL     1      41.075  16.174  -1.079  1.00  0.00    -0.508 OA
ATOM     25  H   UNL     1      40.589  16.791  -0.438  1.00  0.00     0.293 HD
ENDBRANCH   8  24
TORSDOF 5
ENDMDL
MODEL 2
REMARK VINA RESULT:    -5.864      1.654      6.799
REMARK INTER + INTRA:          -7.209
REMARK INTER:                  -6.894
REMARK INTRA:                  -0.315
REMARK UNBOUND:                -0.316
REMARK SMILES O=c1cc(-c2ccc(O)c(O)c2)oc2cc(O)cc(O)c12
REMARK SMILES IDX 4 1 3 2 2 3 1 4 21 5 19 6 18 7 16 8 15 9 14 10 13 11 5 12
REMARK SMILES IDX 6 13 7 14 8 15 12 16 10 17 9 18 11 20 20 22 17 24
REMARK H PARENT 9 19 11 21 20 23 17 25
REMARK Flexibility Score: inf
ROOT
ATOM      1  C   UNL     1      45.050  16.337  -3.231  1.00  0.00     0.138 A 
ATOM      2  C   UNL     1      45.833  16.918  -4.242  1.00  0.00     0.100 A 
ATOM      3  C   UNL     1      47.054  16.338  -4.585  1.00  0.00     0.197 A 
ATOM      4  O   UNL     1      47.751  16.867  -5.492  1.00  0.00    -0.289 OA
ATOM      5  C   UNL     1      47.486  15.178  -3.910  1.00  0.00     0.107 A 
ATOM      6  C   UNL     1      48.709  14.525  -4.196  1.00  0.00     0.134 A 
ATOM      7  C   UNL     1      49.069  13.377  -3.474  1.00  0.00     0.093 A 
ATOM      8  C   UNL     1      48.234  12.872  -2.475  1.00  0.00     0.123 A 
ATOM      9  C   UNL     1      47.024  13.513  -2.188  1.00  0.00     0.094 A 
ATOM     10  C   UNL     1      46.646  14.658  -2.896  1.00  0.00     0.146 A 
ATOM     11  O   UNL     1      45.491  15.248  -2.606  1.00  0.00    -0.456 OA
ENDROOT
BRANCH   1  12
ATOM     12  C   UNL     1      43.743  16.913  -2.824  1.00  0.00     0.021 A 
ATOM     13  C   UNL     1      43.364  18.220  -3.188  1.00  0.00     0.016 A 
ATOM     14  C   UNL     1      42.124  18.732  -2.800  1.00  0.00     0.051 A 
ATOM     15  C   UNL     1      41.239  17.952  -2.050  1.00  0.00     0.157 A 
ATOM     16  C   UNL     1      42.842  16.129  -2.081  1.00  0.00     0.062 A 
ATOM     17  C   UNL     1      41.598  16.643  -1.690  1.00  0.00     0.158 A 
BRANCH  15  18
ATOM     18  O   UNL     1      40.009  18.492  -1.677  1.00  0.00    -0.504 OA
ATOM     19  H   UNL     1      39.930  19.210  -0.966  1.00  0.00     0.293 HD
ENDBRANCH  15  18
BRANCH  17  20
ATOM     20  O   UNL     1      40.719  15.859  -0.945  1.00  0.00    -0.504 OA
ATOM     21  H   UNL     1      41.002  15.422  -0.076  1.00  0.00     0.293 HD
ENDBRANCH  17  20
ENDBRANCH   1  12
BRANCH   6  22
ATOM     22  O   UNL     1      49.565  15.006  -5.187  1.00  0.00    -0.507 OA
ATOM     23  H   UNL     1      49.238  15.627  -5.918  1.00  0.00     0.293 HD
ENDBRANCH   6  22
BRANCH   8  24
ATOM     24  O   UNL     1      48.615  11.731  -1.773  1.00  0.00    -0.508 OA
ATOM     25  H   UNL     1      48.024  11.327  -1.056  1.00  0.00     0.293 HD
ENDBRANCH   8  24
TORSDOF 5
ENDMDL
MODEL 3
REMARK VINA RESULT:    -5.825      1.350      7.258
REMARK INTER + INTRA:          -7.163
REMARK INTER:                  -6.868
REMARK INTRA:                  -0.295
REMARK UNBOUND:                -0.316
REMARK SMILES O=c1cc(-c2ccc(O)c(O)c2)oc2cc(O)cc(O)c12
REMARK SMILES IDX 4 1 3 2 2 3 1 4 21 5 19 6 18 7 16 8 15 9 14 10 13 11 5 12
REMARK SMILES IDX 6 13 7 14 8 15 12 16 10 17 9 18 11 20 20 22 17 24
REMARK H PARENT 9 19 11 21 20 23 17 25
REMARK Flexibility Score: inf
ROOT
ATOM      1  C   UNL     1      45.580  15.953  -3.332  1.00  0.00     0.138 A 
ATOM      2  C   UNL     1      45.851  14.706  -2.745  1.00  0.00     0.100 A 
ATOM      3  C   UNL     1      47.097  14.110  -2.942  1.00  0.00     0.197 A 
ATOM      4  O   UNL     1      47.331  12.990  -2.413  1.00  0.00    -0.289 OA
ATOM      5  C   UNL     1      48.064  14.767  -3.730  1.00  0.00     0.107 A 
ATOM      6  C   UNL     1      49.352  14.234  -3.979  1.00  0.00     0.134 A 
ATOM      7  C   UNL     1      50.256  14.948  -4.779  1.00  0.00     0.093 A 
ATOM      8  C   UNL     1      49.899  16.179  -5.334  1.00  0.00     0.123 A 
ATOM      9  C   UNL     1      48.628  16.711  -5.091  1.00  0.00     0.094 A 
ATOM     10  C   UNL     1      47.712  16.015  -4.295  1.00  0.00     0.146 A 
ATOM     11  O   UNL     1      46.511  16.542  -4.078  1.00  0.00    -0.456 OA
ENDROOT
BRANCH   1  12
ATOM     12  C   UNL     1      44.271  16.633  -3.156  1.00  0.00     0.021 A 
ATOM     13  C   UNL     1      43.947  17.809  -3.861  1.00  0.00     0.016 A 
ATOM     14  C   UNL     1      42.704  18.420  -3.683  1.00  0.00     0.051 A 
ATOM     15  C   UNL     1      41.762  17.871  -2.810  1.00  0.00     0.157 A 
ATOM     16  C   UNL     1      43.313  16.077  -2.289  1.00  0.00     0.062 A 
ATOM     17  C   UNL     1      42.066  16.692  -2.110  1.00  0.00     0.158 A 
BRANCH  15  18
ATOM     18  O   UNL     1      40.531  18.506  -2.654  1.00  0.00    -0.504 OA
ATOM     19  H   UNL     1      40.043  18.525  -1.766  1.00  0.00     0.293 HD
ENDBRANCH  15  18
BRANCH  17  20
ATOM     20  O   UNL     1      41.130  16.136  -1.240  1.00  0.00    -0.504 OA
ATOM     21  H   UNL     1      41.371  15.891  -0.286  1.00  0.00     0.293 HD
ENDBRANCH  17  20
ENDBRANCH   1  12
BRANCH   6  22
ATOM     22  O   UNL     1      49.737  13.006  -3.440  1.00  0.00    -0.507 OA
ATOM     23  H   UNL     1      49.351  12.132  -3.776  1.00  0.00     0.293 HD
ENDBRANCH   6  22
BRANCH   8  24
ATOM     24  O   UNL     1      50.816  16.868  -6.125  1.00  0.00    -0.508 OA
ATOM     25  H   UNL     1      51.701  16.453  -6.393  1.00  0.00     0.293 HD
ENDBRANCH   8  24
TORSDOF 5
ENDMDL
MODEL 4
REMARK VINA RESULT:    -5.295      1.735      2.341
REMARK INTER + INTRA:          -6.539
REMARK INTER:                  -6.225
REMARK INTRA:                  -0.315
REMARK UNBOUND:                -0.316
REMARK SMILES O=c1cc(-c2ccc(O)c(O)c2)oc2cc(O)cc(O)c12
REMARK SMILES IDX 4 1 3 2 2 3 1 4 21 5 19 6 18 7 16 8 15 9 14 10 13 11 5 12
REMARK SMILES IDX 6 13 7 14 8 15 12 16 10 17 9 18 11 20 20 22 17 24
REMARK H PARENT 9 19 11 21 20 23 17 25
REMARK Flexibility Score: inf
ROOT
ATOM      1  C   UNL     1      45.992  15.238  -3.205  1.00  0.00     0.138 A 
ATOM      2  C   UNL     1      46.334  16.117  -4.246  1.00  0.00     0.100 A 
ATOM      3  C   UNL     1      45.474  17.165  -4.571  1.00  0.00     0.197 A 
ATOM      4  O   UNL     1      45.788  17.948  -5.508  1.00  0.00    -0.289 OA
ATOM      5  C   UNL     1      44.272  17.326  -3.852  1.00  0.00     0.107 A 
ATOM      6  C   UNL     1      43.344  18.362  -4.116  1.00  0.00     0.134 A 
ATOM      7  C   UNL     1      42.168  18.450  -3.357  1.00  0.00     0.093 A 
ATOM      8  C   UNL     1      41.900  17.525  -2.345  1.00  0.00     0.123 A 
ATOM      9  C   UNL     1      42.813  16.499  -2.080  1.00  0.00     0.094 A 
ATOM     10  C   UNL     1      43.993  16.394  -2.824  1.00  0.00     0.146 A 
ATOM     11  O   UNL     1      44.845  15.411  -2.553  1.00  0.00    -0.456 OA
ENDROOT
BRANCH   1  12
ATOM     12  C   UNL     1      46.869  14.104  -2.818  1.00  0.00     0.021 A 
ATOM     13  C   UNL     1      47.917  13.661  -3.648  1.00  0.00     0.016 A 
ATOM     14  C   UNL     1      48.733  12.598  -3.252  1.00  0.00     0.051 A 
ATOM     15  C   UNL     1      48.525  11.964  -2.024  1.00  0.00     0.157 A 
ATOM     16  C   UNL     1      46.674  13.470  -1.577  1.00  0.00     0.062 A 
ATOM     17  C   UNL     1      47.492  12.403  -1.181  1.00  0.00     0.158 A 
BRANCH  15  18
ATOM     18  O   UNL     1      49.355  10.905  -1.659  1.00  0.00    -0.504 OA
ATOM     19  H   UNL     1      49.784  10.295  -2.345  1.00  0.00     0.293 HD
ENDBRANCH  15  18
BRANCH  17  20
ATOM     20  O   UNL     1      47.281  11.777   0.047  1.00  0.00    -0.504 OA
ATOM     21  H   UNL     1      47.527  10.805   0.197  1.00  0.00     0.293 HD
ENDBRANCH  17  20
ENDBRANCH   1  12
BRANCH   6  22
ATOM     22  O   UNL     1      43.583  19.301  -5.120  1.00  0.00    -0.507 OA
ATOM     23  H   UNL     1      43.018  20.137  -5.213  1.00  0.00     0.293 HD
ENDBRANCH   6  22
BRANCH   8  24
ATOM     24  O   UNL     1      40.724  17.635  -1.608  1.00  0.00    -0.508 OA
ATOM     25  H   UNL     1      40.163  16.822  -1.381  1.00  0.00     0.293 HD
ENDBRANCH   8  24
TORSDOF 5
ENDMDL
MODEL 5
REMARK VINA RESULT:    -5.268      1.677      6.627
REMARK INTER + INTRA:          -6.508
REMARK INTER:                  -6.203
REMARK INTRA:                  -0.304
REMARK UNBOUND:                -0.316
REMARK SMILES O=c1cc(-c2ccc(O)c(O)c2)oc2cc(O)cc(O)c12
REMARK SMILES IDX 4 1 3 2 2 3 1 4 21 5 19 6 18 7 16 8 15 9 14 10 13 11 5 12
REMARK SMILES IDX 6 13 7 14 8 15 12 16 10 17 9 18 11 20 20 22 17 24
REMARK H PARENT 9 19 11 21 20 23 17 25
REMARK Flexibility Score: inf
ROOT
ATOM      1  C   UNL     1      45.892  16.355  -3.832  1.00  0.00     0.138 A 
ATOM      2  C   UNL     1      47.198  16.604  -4.286  1.00  0.00     0.100 A 
ATOM      3  C   UNL     1      48.187  15.639  -4.096  1.00  0.00     0.197 A 
ATOM      4  O   UNL     1      49.357  15.872  -4.505  1.00  0.00    -0.289 OA
ATOM      5  C   UNL     1      47.863  14.429  -3.450  1.00  0.00     0.107 A 
ATOM      6  C   UNL     1      48.805  13.398  -3.219  1.00  0.00     0.134 A 
ATOM      7  C   UNL     1      48.403  12.225  -2.563  1.00  0.00     0.093 A 
ATOM      8  C   UNL     1      47.083  12.063  -2.134  1.00  0.00     0.123 A 
ATOM      9  C   UNL     1      46.148  13.080  -2.360  1.00  0.00     0.094 A 
ATOM     10  C   UNL     1      46.528  14.256  -3.013  1.00  0.00     0.146 A 
ATOM     11  O   UNL     1      45.621  15.206  -3.217  1.00  0.00    -0.456 OA
ENDROOT
BRANCH   1  12
ATOM     12  C   UNL     1      44.801  17.347  -4.006  1.00  0.00     0.021 A 
ATOM     13  C   UNL     1      44.736  18.188  -5.134  1.00  0.00     0.016 A 
ATOM     14  C   UNL     1      43.691  19.104  -5.275  1.00  0.00     0.051 A 
ATOM     15  C   UNL     1      42.692  19.194  -4.302  1.00  0.00     0.157 A 
ATOM     16  C   UNL     1      43.784  17.433  -3.037  1.00  0.00     0.062 A 
ATOM     17  C   UNL     1      42.736  18.354  -3.179  1.00  0.00     0.158 A 
BRANCH  15  18
ATOM     18  O   UNL     1      41.663  20.120  -4.472  1.00  0.00    -0.504 OA
ATOM     19  H   UNL     1      40.706  19.916  -4.209  1.00  0.00     0.293 HD
ENDBRANCH  15  18
BRANCH  17  20
ATOM     20  O   UNL     1      41.740  18.436  -2.206  1.00  0.00    -0.504 OA
ATOM     21  H   UNL     1      41.469  19.323  -1.798  1.00  0.00     0.293 HD
ENDBRANCH  17  20
ENDBRANCH   1  12
BRANCH   6  22
ATOM     22  O   UNL     1      50.130  13.529  -3.635  1.00  0.00    -0.507 OA
ATOM     23  H   UNL     1      50.670  12.733  -3.952  1.00  0.00     0.293 HD
ENDBRANCH   6  22
BRANCH   8  24
ATOM     24  O   UNL     1      46.710  10.889  -1.485  1.00  0.00    -0.508 OA
ATOM     25  H   UNL     1      45.756  10.731  -1.183  1.00  0.00     0.293 HD
ENDBRANCH   8  24
TORSDOF 5
ENDMDL
MODEL 6
REMARK VINA RESULT:    -5.239      1.718      7.046
REMARK INTER + INTRA:          -6.473
REMARK INTER:                  -6.197
REMARK INTRA:                  -0.276
REMARK UNBOUND:                -0.316
REMARK SMILES O=c1cc(-c2ccc(O)c(O)c2)oc2cc(O)cc(O)c12
REMARK SMILES IDX 4 1 3 2 2 3 1 4 21 5 19 6 18 7 16 8 15 9 14 10 13 11 5 12
REMARK SMILES IDX 6 13 7 14 8 15 12 16 10 17 9 18 11 20 20 22 17 24
REMARK H PARENT 9 19 11 21 20 23 17 25
REMARK Flexibility Score: inf
ROOT
ATOM      1  C   UNL     1      45.280  15.952  -3.528  1.00  0.00     0.138 A 
ATOM      2  C   UNL     1      44.642  14.789  -3.066  1.00  0.00     0.100 A 
ATOM      3  C   UNL     1      45.389  13.626  -2.876  1.00  0.00     0.197 A 
ATOM      4  O   UNL     1      44.808  12.586  -2.463  1.00  0.00    -0.289 OA
ATOM      5  C   UNL     1      46.771  13.635  -3.153  1.00  0.00     0.107 A 
ATOM      6  C   UNL     1      47.601  12.500  -2.987  1.00  0.00     0.134 A 
ATOM      7  C   UNL     1      48.968  12.589  -3.290  1.00  0.00     0.093 A 
ATOM      8  C   UNL     1      49.519  13.786  -3.756  1.00  0.00     0.123 A 
ATOM      9  C   UNL     1      48.703  14.910  -3.922  1.00  0.00     0.094 A 
ATOM     10  C   UNL     1      47.338  14.842  -3.625  1.00  0.00     0.146 A 
ATOM     11  O   UNL     1      46.584  15.924  -3.790  1.00  0.00    -0.456 OA
ENDROOT
BRANCH   1  12
ATOM     12  C   UNL     1      44.535  17.218  -3.750  1.00  0.00     0.021 A 
ATOM     13  C   UNL     1      44.711  17.987  -4.916  1.00  0.00     0.016 A 
ATOM     14  C   UNL     1      43.989  19.168  -5.102  1.00  0.00     0.051 A 
ATOM     15  C   UNL     1      43.076  19.599  -4.136  1.00  0.00     0.157 A 
ATOM     16  C   UNL     1      43.604  17.651  -2.788  1.00  0.00     0.062 A 
ATOM     17  C   UNL     1      42.880  18.837  -2.974  1.00  0.00     0.158 A 
BRANCH  15  18
ATOM     18  O   UNL     1      42.371  20.783  -4.350  1.00  0.00    -0.504 OA
ATOM     19  H   UNL     1      41.365  20.838  -4.242  1.00  0.00     0.293 HD
ENDBRANCH  15  18
BRANCH  17  20
ATOM     20  O   UNL     1      41.968  19.259  -2.008  1.00  0.00    -0.504 OA
ATOM     21  H   UNL     1      41.440  20.118  -2.115  1.00  0.00     0.293 HD
ENDBRANCH  17  20
ENDBRANCH   1  12
BRANCH   6  22
ATOM     22  O   UNL     1      47.081  11.291  -2.524  1.00  0.00    -0.507 OA
ATOM     23  H   UNL     1      47.672  10.580  -2.111  1.00  0.00     0.293 HD
ENDBRANCH   6  22
BRANCH   8  24
ATOM     24  O   UNL     1      50.879  13.847  -4.050  1.00  0.00    -0.508 OA
ATOM     25  H   UNL     1      51.309  13.204  -4.704  1.00  0.00     0.293 HD
ENDBRANCH   8  24
TORSDOF 5
ENDMDL
MODEL 7
REMARK VINA RESULT:    -5.140      1.407      2.741
REMARK INTER + INTRA:          -6.357
REMARK INTER:                  -6.071
REMARK INTRA:                  -0.286
REMARK UNBOUND:                -0.316
REMARK SMILES O=c1cc(-c2ccc(O)c(O)c2)oc2cc(O)cc(O)c12
REMARK SMILES IDX 4 1 3 2 2 3 1 4 21 5 19 6 18 7 16 8 15 9 14 10 13 11 5 12
REMARK SMILES IDX 6 13 7 14 8 15 12 16 10 17 9 18 11 20 20 22 17 24
REMARK H PARENT 9 19 11 21 20 23 17 25
REMARK Flexibility Score: inf
ROOT
ATOM      1  C   UNL     1      46.269  16.087  -4.095  1.00  0.00     0.138 A 
ATOM      2  C   UNL     1      45.725  14.869  -3.653  1.00  0.00     0.100 A 
ATOM      3  C   UNL     1      44.399  14.825  -3.222  1.00  0.00     0.197 A 
ATOM      4  O   UNL     1      43.920  13.728  -2.826  1.00  0.00    -0.289 OA
ATOM      5  C   UNL     1      43.625  16.003  -3.234  1.00  0.00     0.107 A 
ATOM      6  C   UNL     1      42.273  16.046  -2.816  1.00  0.00     0.134 A 
ATOM      7  C   UNL     1      41.573  17.261  -2.853  1.00  0.00     0.093 A 
ATOM      8  C   UNL     1      42.196  18.430  -3.298  1.00  0.00     0.123 A 
ATOM      9  C   UNL     1      43.532  18.393  -3.713  1.00  0.00     0.094 A 
ATOM     10  C   UNL     1      44.247  17.192  -3.684  1.00  0.00     0.146 A 
ATOM     11  O   UNL     1      45.514  17.183  -4.085  1.00  0.00    -0.456 OA
ENDROOT
BRANCH   1  12
ATOM     12  C   UNL     1      47.674  16.192  -4.563  1.00  0.00     0.021 A 
ATOM     13  C   UNL     1      48.073  17.170  -5.495  1.00  0.00     0.016 A 
ATOM     14  C   UNL     1      49.405  17.252  -5.910  1.00  0.00     0.051 A 
ATOM     15  C   UNL     1      50.361  16.370  -5.400  1.00  0.00     0.157 A 
ATOM     16  C   UNL     1      48.645  15.316  -4.045  1.00  0.00     0.062 A 
ATOM     17  C   UNL     1      49.981  15.398  -4.461  1.00  0.00     0.158 A 
BRANCH  15  18
ATOM     18  O   UNL     1      51.681  16.477  -5.835  1.00  0.00    -0.504 OA
ATOM     19  H   UNL     1      52.424  16.802  -5.226  1.00  0.00     0.293 HD
ENDBRANCH  15  18
BRANCH  17  20
ATOM     20  O   UNL     1      50.930  14.517  -3.946  1.00  0.00    -0.504 OA
ATOM     21  H   UNL     1      50.720  13.906  -3.165  1.00  0.00     0.293 HD
ENDBRANCH  17  20
ENDBRANCH   1  12
BRANCH   6  22
ATOM     22  O   UNL     1      41.624  14.896  -2.366  1.00  0.00    -0.507 OA
ATOM     23  H   UNL     1      41.308  14.177  -3.006  1.00  0.00     0.293 HD
ENDBRANCH   6  22
BRANCH   8  24
ATOM     24  O   UNL     1      41.478  19.623  -3.325  1.00  0.00    -0.508 OA
ATOM     25  H   UNL     1      41.945  20.522  -3.328  1.00  0.00     0.293 HD
ENDBRANCH   8  24
TORSDOF 5
ENDMDL
MODEL 8
REMARK VINA RESULT:    -5.120      1.210      2.726
REMARK INTER + INTRA:          -6.334
REMARK INTER:                  -6.039
REMARK INTRA:                  -0.295
REMARK UNBOUND:                -0.316
REMARK SMILES O=c1cc(-c2ccc(O)c(O)c2)oc2cc(O)cc(O)c12
REMARK SMILES IDX 4 1 3 2 2 3 1 4 21 5 19 6 18 7 16 8 15 9 14 10 13 11 5 12
REMARK SMILES IDX 6 13 7 14 8 15 12 16 10 17 9 18 11 20 20 22 17 24
REMARK H PARENT 9 19 11 21 20 23 17 25
REMARK Flexibility Score: inf
ROOT
ATOM      1  C   UNL     1      45.948  16.311  -3.876  1.00  0.00     0.138 A 
ATOM      2  C   UNL     1      44.958  15.789  -3.027  1.00  0.00     0.100 A 
ATOM      3  C   UNL     1      43.713  16.415  -2.957  1.00  0.00     0.197 A 
ATOM      4  O   UNL     1      42.831  15.941  -2.191  1.00  0.00    -0.289 OA
ATOM      5  C   UNL     1      43.468  17.564  -3.737  1.00  0.00     0.107 A 
ATOM      6  C   UNL     1      42.235  18.258  -3.727  1.00  0.00     0.134 A 
ATOM      7  C   UNL     1      42.073  19.397  -4.530  1.00  0.00     0.093 A 
ATOM      8  C   UNL     1      43.116  19.854  -5.338  1.00  0.00     0.123 A 
ATOM      9  C   UNL     1      44.338  19.172  -5.352  1.00  0.00     0.094 A 
ATOM     10  C   UNL     1      44.519  18.034  -4.560  1.00  0.00     0.146 A 
ATOM     11  O   UNL     1      45.688  17.402  -4.592  1.00  0.00    -0.456 OA
ENDROOT
BRANCH   1  12
ATOM     12  C   UNL     1      47.291  15.686  -3.989  1.00  0.00     0.021 A 
ATOM     13  C   UNL     1      48.332  16.295  -4.716  1.00  0.00     0.016 A 
ATOM     14  C   UNL     1      49.588  15.689  -4.797  1.00  0.00     0.051 A 
ATOM     15  C   UNL     1      49.831  14.474  -4.151  1.00  0.00     0.157 A 
ATOM     16  C   UNL     1      47.546  14.470  -3.330  1.00  0.00     0.062 A 
ATOM     17  C   UNL     1      48.807  13.861  -3.412  1.00  0.00     0.158 A 
BRANCH  15  18
ATOM     18  O   UNL     1      51.095  13.894  -4.251  1.00  0.00    -0.504 OA
ATOM     19  H   UNL     1      51.549  13.452  -3.461  1.00  0.00     0.293 HD
ENDBRANCH  15  18
BRANCH  17  20
ATOM     20  O   UNL     1      49.043  12.651  -2.762  1.00  0.00    -0.504 OA
ATOM     21  H   UNL     1      49.538  11.892  -3.217  1.00  0.00     0.293 HD
ENDBRANCH  17  20
ENDBRANCH   1  12
BRANCH   6  22
ATOM     22  O   UNL     1      41.175  17.826  -2.930  1.00  0.00    -0.507 OA
ATOM     23  H   UNL     1      40.722  18.443  -2.266  1.00  0.00     0.293 HD
ENDBRANCH   6  22
BRANCH   8  24
ATOM     24  O   UNL     1      42.929  20.988  -6.125  1.00  0.00    -0.508 OA
ATOM     25  H   UNL     1      43.637  21.710  -6.191  1.00  0.00     0.293 HD
ENDBRANCH   8  24
TORSDOF 5
ENDMDL
MODEL 9
REMARK VINA RESULT:    -4.993      1.426      1.848
REMARK INTER + INTRA:          -6.184
REMARK INTER:                  -5.872
REMARK INTRA:                  -0.312
REMARK UNBOUND:                -0.316
REMARK SMILES O=c1cc(-c2ccc(O)c(O)c2)oc2cc(O)cc(O)c12
REMARK SMILES IDX 4 1 3 2 2 3 1 4 21 5 19 6 18 7 16 8 15 9 14 10 13 11 5 12
REMARK SMILES IDX 6 13 7 14 8 15 12 16 10 17 9 18 11 20 20 22 17 24
REMARK H PARENT 9 19 11 21 20 23 17 25
REMARK Flexibility Score: inf
ROOT
ATOM      1  C   UNL     1      45.306  16.741  -3.815  1.00  0.00     0.138 A 
ATOM      2  C   UNL     1      45.399  17.609  -4.915  1.00  0.00     0.100 A 
ATOM      3  C   UNL     1      44.426  18.592  -5.099  1.00  0.00     0.197 A 
ATOM      4  O   UNL     1      44.517  19.366  -6.090  1.00  0.00    -0.289 OA
ATOM      5  C   UNL     1      43.363  18.698  -4.180  1.00  0.00     0.107 A 
ATOM      6  C   UNL     1      42.336  19.666  -4.291  1.00  0.00     0.134 A 
ATOM      7  C   UNL     1      41.309  19.701  -3.337  1.00  0.00     0.093 A 
ATOM      8  C   UNL     1      41.287  18.790  -2.278  1.00  0.00     0.123 A 
ATOM      9  C   UNL     1      42.299  17.831  -2.163  1.00  0.00     0.094 A 
ATOM     10  C   UNL     1      43.333  17.780  -3.103  1.00  0.00     0.146 A 
ATOM     11  O   UNL     1      44.284  16.861  -2.971  1.00  0.00    -0.456 OA
ENDROOT
BRANCH   1  12
ATOM     12  C   UNL     1      46.312  15.676  -3.571  1.00  0.00     0.021 A 
ATOM     13  C   UNL     1      47.615  15.753  -4.099  1.00  0.00     0.016 A 
ATOM     14  C   UNL     1      48.543  14.740  -3.844  1.00  0.00     0.051 A 
ATOM     15  C   UNL     1      48.194  13.641  -3.056  1.00  0.00     0.157 A 
ATOM     16  C   UNL     1      45.971  14.573  -2.767  1.00  0.00     0.062 A 
ATOM     17  C   UNL     1      46.902  13.556  -2.512  1.00  0.00     0.158 A 
BRANCH  15  18
ATOM     18  O   UNL     1      49.142  12.647  -2.821  1.00  0.00    -0.504 OA
ATOM     19  H   UNL     1      49.932  12.498  -3.439  1.00  0.00     0.293 HD
ENDBRANCH  15  18
BRANCH  17  20
ATOM     20  O   UNL     1      46.548  12.464  -1.722  1.00  0.00    -0.504 OA
ATOM     21  H   UNL     1      45.964  12.570  -0.900  1.00  0.00     0.293 HD
ENDBRANCH  17  20
ENDBRANCH   1  12
BRANCH   6  22
ATOM     22  O   UNL     1      42.329  20.588  -5.338  1.00  0.00    -0.507 OA
ATOM     23  H   UNL     1      41.969  21.527  -5.218  1.00  0.00     0.293 HD
ENDBRANCH   6  22
BRANCH   8  24
ATOM     24  O   UNL     1      40.255  18.847  -1.344  1.00  0.00    -0.508 OA
ATOM     25  H   UNL     1      39.286  18.732  -1.618  1.00  0.00     0.293 HD
ENDBRANCH   8  24
TORSDOF 5
ENDMDL
