MODEL 1
REMARK VINA RESULT:    -4.478      0.000      0.000
REMARK INTER + INTRA:          -4.778
REMARK INTER:                  -5.525
REMARK INTRA:                   0.747
REMARK UNBOUND:                 0.747
REMARK SMILES CC1=CC=CC(C)(C)CC1=O
REMARK SMILES IDX 1 1 2 2 3 3 10 4 11 5 9 6 4 8 5 9 6 10 7 11 8 12
REMARK H PARENT
REMARK Flexibility Score: 80.00
ROOT
ATOM      1  C   UNL     1     -14.694 -14.865  32.338  1.00  0.00     0.048 C 
ATOM      2  C   UNL     1     -13.757 -15.078  31.172  1.00  0.00    -0.008 C 
ATOM      3  C   UNL     1     -14.001 -14.384  30.039  1.00  0.00     0.007 C 
ENDROOT
BRANCH   2   4
ATOM      4  C   UNL     1     -12.687 -16.092  31.340  1.00  0.00     0.159 C 
ATOM      5  O   UNL     1     -12.724 -16.853  32.347  1.00  0.00    -0.295 OA
BRANCH   4   6
ATOM      6  C   UNL     1     -11.547 -16.257  30.383  1.00  0.00     0.091 CG0
ATOM      7  G   UNL     1     -12.003 -16.587  28.944  1.00  0.00     0.000 G0
ENDBRANCH   4   6
ENDBRANCH   2   4
BRANCH   3   8
ATOM      8  C   UNL     1     -13.287 -14.401  28.741  1.00  0.00    -0.003 C 
ATOM      9  C   UNL     1     -12.448 -15.322  28.250  1.00  0.00    -0.020 C 
BRANCH   9  10
ATOM     10  C   UNL     1     -12.000 -16.587  28.943  1.00  0.00    -0.010 CG0
ATOM     11  C   UNL     1     -13.123 -17.649  28.881  1.00  0.00     0.016 C 
ATOM     12  C   UNL     1     -10.773 -17.146  28.188  1.00  0.00     0.016 C 
ATOM     13  G   UNL     1     -11.566 -16.263  30.390  1.00  0.00     0.000 G0
ENDBRANCH   9  10
ENDBRANCH   3   8
TORSDOF 0
ENDMDL
MODEL 2
REMARK VINA RESULT:    -4.372      1.305      1.841
REMARK INTER + INTRA:          -4.647
REMARK INTER:                  -5.405
REMARK INTRA:                   0.758
REMARK UNBOUND:                 0.747
REMARK SMILES CC1=CC=CC(C)(C)CC1=O
REMARK SMILES IDX 1 1 2 2 3 3 10 4 11 5 9 6 4 8 5 9 6 10 7 11 8 12
REMARK H PARENT
REMARK Flexibility Score: 80.00
ROOT
ATOM      1  C   UNL     1     -14.405 -14.075  29.865  1.00  0.00     0.048 C 
ATOM      2  C   UNL     1     -13.266 -15.062  29.765  1.00  0.00    -0.008 C 
ATOM      3  C   UNL     1     -12.515 -15.039  28.643  1.00  0.00     0.007 C 
ENDROOT
BRANCH   2   4
ATOM      4  C   UNL     1     -13.110 -16.029  30.879  1.00  0.00     0.159 C 
ATOM      5  O   UNL     1     -14.030 -16.119  31.740  1.00  0.00    -0.295 OA
BRANCH   4   6
ATOM      6  C   UNL     1     -11.908 -16.906  31.052  1.00  0.00     0.091 CG0
ATOM      7  G   UNL     1     -11.661 -17.844  29.849  1.00  0.00     0.000 G0
ENDBRANCH   4   6
ENDBRANCH   2   4
BRANCH   3   8
ATOM      8  C   UNL     1     -11.366 -15.889  28.250  1.00  0.00    -0.003 C 
ATOM      9  C   UNL     1     -10.991 -17.080  28.734  1.00  0.00    -0.020 C 
BRANCH   9  10
ATOM     10  C   UNL     1     -11.662 -17.845  29.850  1.00  0.00    -0.010 CG0
ATOM     11  C   UNL     1     -12.957 -18.512  29.330  1.00  0.00     0.016 C 
ATOM     12  C   UNL     1     -10.703 -18.965  30.315  1.00  0.00     0.016 C 
ATOM     13  G   UNL     1     -11.917 -16.904  31.048  1.00  0.00     0.000 G0
ENDBRANCH   9  10
ENDBRANCH   3   8
TORSDOF 0
ENDMDL
MODEL 3
REMARK VINA RESULT:    -4.296      1.954      3.060
REMARK INTER + INTRA:          -4.553
REMARK INTER:                  -5.314
REMARK INTRA:                   0.761
REMARK UNBOUND:                 0.747
REMARK SMILES CC1=CC=CC(C)(C)CC1=O
REMARK SMILES IDX 1 1 2 2 3 3 10 4 11 5 9 6 4 8 5 9 6 10 7 11 8 12
REMARK H PARENT
REMARK Flexibility Score: 80.00
ROOT
ATOM      1  C   UNL     1     -13.614 -14.001  28.609  1.00  0.00     0.048 C 
ATOM      2  C   UNL     1     -13.376 -15.298  29.346  1.00  0.00    -0.008 C 
ATOM      3  C   UNL     1     -13.583 -15.306  30.680  1.00  0.00     0.007 C 
ENDROOT
BRANCH   2   4
ATOM      4  C   UNL     1     -12.862 -16.442  28.553  1.00  0.00     0.159 C 
ATOM      5  O   UNL     1     -12.461 -16.234  27.374  1.00  0.00    -0.295 OA
BRANCH   4   6
ATOM      6  C   UNL     1     -12.803 -17.847  29.070  1.00  0.00     0.091 CG0
ATOM      7  G   UNL     1     -11.937 -17.990  30.342  1.00  0.00     0.000 G0
ENDBRANCH   4   6
ENDBRANCH   2   4
BRANCH   3   8
ATOM      8  C   UNL     1     -13.411 -16.401  31.663  1.00  0.00    -0.003 C 
ATOM      9  C   UNL     1     -12.711 -17.538  31.548  1.00  0.00    -0.020 C 
BRANCH   9  10
ATOM     10  C   UNL     1     -11.932 -17.992  30.337  1.00  0.00    -0.010 CG0
ATOM     11  C   UNL     1     -10.601 -17.210  30.241  1.00  0.00     0.016 C 
ATOM     12  C   UNL     1     -11.593 -19.490  30.511  1.00  0.00     0.016 C 
ATOM     13  G   UNL     1     -12.804 -17.842  29.070  1.00  0.00     0.000 G0
ENDBRANCH   9  10
ENDBRANCH   3   8
TORSDOF 0
ENDMDL
MODEL 4
REMARK VINA RESULT:    -4.284      1.157      1.251
REMARK INTER + INTRA:          -4.539
REMARK INTER:                  -5.291
REMARK INTRA:                   0.752
REMARK UNBOUND:                 0.747
REMARK SMILES CC1=CC=CC(C)(C)CC1=O
REMARK SMILES IDX 1 1 2 2 3 3 10 4 11 5 9 6 4 8 5 9 6 10 7 11 8 12
REMARK H PARENT
REMARK Flexibility Score: 80.00
ROOT
ATOM      1  C   UNL     1     -13.984 -16.679  32.721  1.00  0.00     0.048 C 
ATOM      2  C   UNL     1     -13.283 -16.487  31.397  1.00  0.00    -0.008 C 
ATOM      3  C   UNL     1     -13.626 -15.409  30.658  1.00  0.00     0.007 C 
ENDROOT
BRANCH   2   4
ATOM      4  C   UNL     1     -12.325 -17.541  30.979  1.00  0.00     0.159 C 
ATOM      5  O   UNL     1     -12.304 -18.630  31.617  1.00  0.00    -0.295 OA
BRANCH   4   6
ATOM      6  C   UNL     1     -11.363 -17.381  29.842  1.00  0.00     0.091 CG0
ATOM      7  G   UNL     1     -12.060 -17.122  28.488  1.00  0.00     0.000 G0
ENDBRANCH   4   6
ENDBRANCH   2   4
BRANCH   3   8
ATOM      8  C   UNL     1     -13.140 -14.975  29.327  1.00  0.00    -0.003 C 
ATOM      9  C   UNL     1     -12.491 -15.682  28.393  1.00  0.00    -0.020 C 
BRANCH   9  10
ATOM     10  C   UNL     1     -12.066 -17.127  28.496  1.00  0.00    -0.010 CG0
ATOM     11  C   UNL     1     -13.282 -18.054  28.270  1.00  0.00     0.016 C 
ATOM     12  C   UNL     1     -11.036 -17.411  27.379  1.00  0.00     0.016 C 
ATOM     13  G   UNL     1     -11.376 -17.371  29.857  1.00  0.00     0.000 G0
ENDBRANCH   9  10
ENDBRANCH   3   8
TORSDOF 0
ENDMDL
MODEL 5
REMARK VINA RESULT:    -4.109      1.830      2.790
REMARK INTER + INTRA:          -4.323
REMARK INTER:                  -5.063
REMARK INTRA:                   0.740
REMARK UNBOUND:                 0.747
REMARK SMILES CC1=CC=CC(C)(C)CC1=O
REMARK SMILES IDX 1 1 2 2 3 3 10 4 11 5 9 6 4 8 5 9 6 10 7 11 8 12
REMARK H PARENT
REMARK Flexibility Score: 80.00
ROOT
ATOM      1  C   UNL     1     -13.998 -15.066  31.248  1.00  0.00     0.048 C 
ATOM      2  C   UNL     1     -13.319 -15.962  30.241  1.00  0.00    -0.008 C 
ATOM      3  C   UNL     1     -12.877 -17.164  30.671  1.00  0.00     0.007 C 
ENDROOT
BRANCH   2   4
ATOM      4  C   UNL     1     -13.125 -15.418  28.874  1.00  0.00     0.159 C 
ATOM      5  O   UNL     1     -13.354 -14.194  28.668  1.00  0.00    -0.295 OA
BRANCH   4   6
ATOM      6  C   UNL     1     -12.681 -16.249  27.709  1.00  0.00     0.091 CG0
ATOM      7  G   UNL     1     -11.316 -16.936  27.936  1.00  0.00     0.000 G0
ENDBRANCH   4   6
ENDBRANCH   2   4
BRANCH   3   8
ATOM      8  C   UNL     1     -12.159 -18.232  29.936  1.00  0.00    -0.003 C 
ATOM      9  C   UNL     1     -11.486 -18.157  28.780  1.00  0.00    -0.020 C 
BRANCH   9  10
ATOM     10  C   UNL     1     -11.320 -16.929  27.918  1.00  0.00    -0.010 CG0
ATOM     11  C   UNL     1     -10.255 -15.992  28.532  1.00  0.00     0.016 C 
ATOM     12  C   UNL     1     -10.816 -17.378  26.527  1.00  0.00     0.016 C 
ATOM     13  G   UNL     1     -12.688 -16.236  27.730  1.00  0.00     0.000 G0
ENDBRANCH   9  10
ENDBRANCH   3   8
TORSDOF 0
ENDMDL
MODEL 6
REMARK VINA RESULT:    -4.098      2.373      4.226
REMARK INTER + INTRA:          -4.310
REMARK INTER:                  -5.061
REMARK INTRA:                   0.751
REMARK UNBOUND:                 0.747
REMARK SMILES CC1=CC=CC(C)(C)CC1=O
REMARK SMILES IDX 1 1 2 2 3 3 10 4 11 5 9 6 4 8 5 9 6 10 7 11 8 12
REMARK H PARENT
REMARK Flexibility Score: 80.00
ROOT
ATOM      1  C   UNL     1     -13.656 -20.388  28.260  1.00  0.00     0.048 C 
ATOM      2  C   UNL     1     -12.708 -19.610  29.143  1.00  0.00    -0.008 C 
ATOM      3  C   UNL     1     -12.592 -19.999  30.431  1.00  0.00     0.007 C 
ENDROOT
BRANCH   2   4
ATOM      4  C   UNL     1     -12.037 -18.431  28.541  1.00  0.00     0.159 C 
ATOM      5  O   UNL     1     -12.419 -18.027  27.408  1.00  0.00    -0.295 OA
BRANCH   4   6
ATOM      6  C   UNL     1     -10.912 -17.694  29.201  1.00  0.00     0.091 CG0
ATOM      7  G   UNL     1     -11.292 -17.114  30.582  1.00  0.00     0.000 G0
ENDBRANCH   4   6
ENDBRANCH   2   4
BRANCH   3   8
ATOM      8  C   UNL     1     -11.777 -19.426  31.528  1.00  0.00    -0.003 C 
ATOM      9  C   UNL     1     -11.229 -18.208  31.625  1.00  0.00    -0.020 C 
BRANCH   9  10
ATOM     10  C   UNL     1     -11.295 -17.109  30.591  1.00  0.00    -0.010 CG0
ATOM     11  C   UNL     1     -12.691 -16.444  30.616  1.00  0.00     0.016 C 
ATOM     12  C   UNL     1     -10.248 -16.034  30.958  1.00  0.00     0.016 C 
ATOM     13  G   UNL     1     -10.931 -17.679  29.201  1.00  0.00     0.000 G0
ENDBRANCH   9  10
ENDBRANCH   3   8
TORSDOF 0
ENDMDL
MODEL 7
REMARK VINA RESULT:    -4.055      1.682      3.467
REMARK INTER + INTRA:          -4.256
REMARK INTER:                  -5.001
REMARK INTRA:                   0.745
REMARK UNBOUND:                 0.747
REMARK SMILES CC1=CC=CC(C)(C)CC1=O
REMARK SMILES IDX 1 1 2 2 3 3 10 4 11 5 9 6 4 8 5 9 6 10 7 11 8 12
REMARK H PARENT
REMARK Flexibility Score: 80.00
ROOT
ATOM      1  C   UNL     1     -12.060 -17.097  26.276  1.00  0.00     0.048 C 
ATOM      2  C   UNL     1     -12.609 -16.672  27.617  1.00  0.00    -0.008 C 
ATOM      3  C   UNL     1     -13.062 -15.405  27.735  1.00  0.00     0.007 C 
ENDROOT
BRANCH   2   4
ATOM      4  C   UNL     1     -12.537 -17.661  28.721  1.00  0.00     0.159 C 
ATOM      5  O   UNL     1     -11.851 -18.708  28.556  1.00  0.00    -0.295 OA
BRANCH   4   6
ATOM      6  C   UNL     1     -13.250 -17.495  30.028  1.00  0.00     0.091 CG0
ATOM      7  G   UNL     1     -12.819 -16.226  30.799  1.00  0.00     0.000 G0
ENDBRANCH   4   6
ENDBRANCH   2   4
BRANCH   3   8
ATOM      8  C   UNL     1     -13.624 -14.701  28.912  1.00  0.00    -0.003 C 
ATOM      9  C   UNL     1     -13.527 -15.016  30.210  1.00  0.00    -0.020 C 
BRANCH   9  10
ATOM     10  C   UNL     1     -12.821 -16.218  30.791  1.00  0.00    -0.010 CG0
ATOM     11  C   UNL     1     -11.293 -15.987  30.785  1.00  0.00     0.016 C 
ATOM     12  C   UNL     1     -13.273 -16.383  32.260  1.00  0.00     0.016 C 
ATOM     13  G   UNL     1     -13.235 -17.490  30.017  1.00  0.00     0.000 G0
ENDBRANCH   9  10
ENDBRANCH   3   8
TORSDOF 0
ENDMDL
MODEL 8
REMARK VINA RESULT:    -4.032      2.202      3.633
REMARK INTER + INTRA:          -4.228
REMARK INTER:                  -4.979
REMARK INTRA:                   0.751
REMARK UNBOUND:                 0.747
REMARK SMILES CC1=CC=CC(C)(C)CC1=O
REMARK SMILES IDX 1 1 2 2 3 3 10 4 11 5 9 6 4 8 5 9 6 10 7 11 8 12
REMARK H PARENT
REMARK Flexibility Score: 80.00
ROOT
ATOM      1  C   UNL     1     -13.501 -20.396  28.517  1.00  0.00     0.048 C 
ATOM      2  C   UNL     1     -13.128 -19.136  29.262  1.00  0.00    -0.008 C 
ATOM      3  C   UNL     1     -13.075 -17.985  28.557  1.00  0.00     0.007 C 
ENDROOT
BRANCH   2   4
ATOM      4  C   UNL     1     -12.777 -19.278  30.697  1.00  0.00     0.159 C 
ATOM      5  O   UNL     1     -12.602 -20.436  31.169  1.00  0.00    -0.295 OA
BRANCH   4   6
ATOM      6  C   UNL     1     -12.629 -18.116  31.631  1.00  0.00     0.091 CG0
ATOM      7  G   UNL     1     -11.522 -17.127  31.202  1.00  0.00     0.000 G0
ENDBRANCH   4   6
ENDBRANCH   2   4
BRANCH   3   8
ATOM      8  C   UNL     1     -12.719 -16.616  28.997  1.00  0.00    -0.003 C 
ATOM      9  C   UNL     1     -12.057 -16.226  30.096  1.00  0.00    -0.020 C 
BRANCH   9  10
ATOM     10  C   UNL     1     -11.528 -17.124  31.189  1.00  0.00    -0.010 CG0
ATOM     11  C   UNL     1     -10.235 -17.827  30.716  1.00  0.00     0.016 C 
ATOM     12  C   UNL     1     -11.174 -16.244  32.409  1.00  0.00     0.016 C 
ATOM     13  G   UNL     1     -12.626 -18.122  31.620  1.00  0.00     0.000 G0
ENDBRANCH   9  10
ENDBRANCH   3   8
TORSDOF 0
ENDMDL
MODEL 9
REMARK VINA RESULT:    -3.872      2.211      3.439
REMARK INTER + INTRA:          -4.031
REMARK INTER:                  -5.077
REMARK INTRA:                   1.046
REMARK UNBOUND:                 0.747
REMARK SMILES CC1=CC=CC(C)(C)CC1=O
REMARK SMILES IDX 1 1 2 2 3 3 10 4 11 5 9 6 4 8 5 9 6 10 7 11 8 12
REMARK H PARENT
REMARK Flexibility Score: 80.00
ROOT
ATOM      1  C   UNL     1     -13.628 -16.106  26.749  1.00  0.00     0.048 C 
ATOM      2  C   UNL     1     -12.686 -16.441  27.881  1.00  0.00    -0.008 C 
ATOM      3  C   UNL     1     -11.848 -15.470  28.305  1.00  0.00     0.007 C 
ENDROOT
BRANCH   2   4
ATOM      4  C   UNL     1     -12.706 -17.835  28.388  1.00  0.00     0.159 C 
ATOM      5  O   UNL     1     -13.680 -18.579  28.083  1.00  0.00    -0.295 OA
BRANCH   4   6
ATOM      6  C   UNL     1     -11.635 -18.414  29.260  1.00  0.00     0.091 CG0
ATOM      7  G   UNL     1     -11.441 -17.639  30.583  1.00  0.00     0.000 G0
ENDBRANCH   4   6
ENDBRANCH   2   4
BRANCH   3   8
ATOM      8  C   UNL     1     -10.809 -15.505  29.361  1.00  0.00    -0.003 C 
ATOM      9  C   UNL     1     -10.615 -16.414  30.326  1.00  0.00    -0.020 C 
BRANCH   9  10
ATOM     10  C   UNL     1     -11.456 -17.641  30.584  1.00  0.00    -0.010 CG0
ATOM     11  C   UNL     1     -10.810 -18.501  31.694  1.00  0.00     0.016 C 
ATOM     12  C   UNL     1     -12.845 -17.181  31.084  1.00  0.00     0.016 C 
ATOM     13  G   UNL     1     -11.657 -18.422  29.266  1.00  0.00     0.000 G0
ENDBRANCH   9  10
ENDBRANCH   3   8
TORSDOF 0
ENDMDL
