MODEL 1
REMARK VINA RESULT:    -4.514      0.000      0.000
REMARK INTER + INTRA:          -7.260
REMARK INTER:                  -6.626
REMARK INTRA:                  -0.635
REMARK UNBOUND:                -0.635
REMARK SMILES O=C([O-])CCCCCCCC(=O)[O-]
REMARK SMILES IDX 7 1 6 2 5 3 4 4 2 5 1 6 3 7 8 8 9 9 10 10 11 11 12 12 13 13
REMARK H PARENT
REMARK Flexibility Score: inf
ROOT
ATOM      1  C   UNL     1      61.814  28.773  13.261  1.00  0.00     0.000 C 
ENDROOT
BRANCH   1   2
ATOM      2  C   UNL     1      61.751  30.000  14.192  1.00  0.00     0.000 C 
BRANCH   2   3
ATOM      3  C   UNL     1      62.313  31.305  13.590  1.00  0.00     0.006 C 
BRANCH   3   4
ATOM      4  C   UNL     1      61.243  32.336  13.201  1.00  0.00     0.053 C 
BRANCH   4   5
ATOM      5  C   UNL     1      60.332  32.655  14.346  1.00  0.00     0.041 C 
ATOM      6  O   UNL     1      60.658  33.527  15.194  1.00  0.00    -0.550 OA
ATOM      7  O   UNL     1      59.135  31.966  14.495  1.00  0.00    -0.550 OA
ENDBRANCH   4   5
ENDBRANCH   3   4
ENDBRANCH   2   3
ENDBRANCH   1   2
BRANCH   1   8
ATOM      8  C   UNL     1      60.447  28.239  12.791  1.00  0.00     0.000 C 
BRANCH   8   9
ATOM      9  C   UNL     1      59.623  29.220  11.933  1.00  0.00     0.006 C 
BRANCH   9  10
ATOM     10  C   UNL     1      60.305  29.647  10.624  1.00  0.00     0.053 C 
BRANCH  10  11
ATOM     11  C   UNL     1      60.201  28.588   9.569  1.00  0.00     0.041 C 
ATOM     12  O   UNL     1      61.198  27.873   9.287  1.00  0.00    -0.550 OA
ATOM     13  O   UNL     1      59.010  28.414   8.875  1.00  0.00    -0.550 OA
ENDBRANCH  10  11
ENDBRANCH   9  10
ENDBRANCH   8   9
ENDBRANCH   1   8
TORSDOF 8
ENDMDL
MODEL 2
REMARK VINA RESULT:    -4.467      0.326      5.307
REMARK INTER + INTRA:          -7.191
REMARK INTER:                  -6.514
REMARK INTRA:                  -0.677
REMARK UNBOUND:                -0.635
REMARK SMILES O=C([O-])CCCCCCCC(=O)[O-]
REMARK SMILES IDX 7 1 6 2 5 3 4 4 2 5 1 6 3 7 8 8 9 9 10 10 11 11 12 12 13 13
REMARK H PARENT
REMARK Flexibility Score: inf
ROOT
ATOM      1  C   UNL     1      62.050  28.969  13.321  1.00  0.00     0.000 C 
ENDROOT
BRANCH   1   2
ATOM      2  C   UNL     1      60.725  28.253  12.996  1.00  0.00     0.000 C 
BRANCH   2   3
ATOM      3  C   UNL     1      59.674  29.123  12.275  1.00  0.00     0.006 C 
BRANCH   3   4
ATOM      4  C   UNL     1      60.167  29.759  10.966  1.00  0.00     0.053 C 
BRANCH   4   5
ATOM      5  C   UNL     1      60.322  28.745   9.875  1.00  0.00     0.041 C 
ATOM      6  O   UNL     1      61.461  28.295   9.584  1.00  0.00    -0.550 OA
ATOM      7  O   UNL     1      59.211  28.321   9.157  1.00  0.00    -0.550 OA
ENDBRANCH   4   5
ENDBRANCH   3   4
ENDBRANCH   2   3
ENDBRANCH   1   2
BRANCH   1   8
ATOM      8  C   UNL     1      61.939  30.122  14.339  1.00  0.00     0.000 C 
BRANCH   8   9
ATOM      9  C   UNL     1      62.398  31.498  13.817  1.00  0.00     0.006 C 
BRANCH   9  10
ATOM     10  C   UNL     1      61.264  32.382  13.274  1.00  0.00     0.053 C 
BRANCH  10  11
ATOM     11  C   UNL     1      60.248  32.697  14.327  1.00  0.00     0.041 C 
ATOM     12  O   UNL     1      59.181  32.030  14.400  1.00  0.00    -0.550 OA
ATOM     13  O   UNL     1      60.463  33.749  15.209  1.00  0.00    -0.550 OA
ENDBRANCH  10  11
ENDBRANCH   9  10
ENDBRANCH   8   9
ENDBRANCH   1   8
TORSDOF 8
ENDMDL
MODEL 3
REMARK VINA RESULT:    -4.399      1.678      2.311
REMARK INTER + INTRA:          -7.091
REMARK INTER:                  -6.380
REMARK INTRA:                  -0.711
REMARK UNBOUND:                -0.635
REMARK SMILES O=C([O-])CCCCCCCC(=O)[O-]
REMARK SMILES IDX 7 1 6 2 5 3 4 4 2 5 1 6 3 7 8 8 9 9 10 10 11 11 12 12 13 13
REMARK H PARENT
REMARK Flexibility Score: inf
ROOT
ATOM      1  C   UNL     1      63.265  29.461  12.927  1.00  0.00     0.000 C 
ENDROOT
BRANCH   1   2
ATOM      2  C   UNL     1      62.004  28.576  12.991  1.00  0.00     0.000 C 
BRANCH   2   3
ATOM      3  C   UNL     1      60.793  29.219  13.698  1.00  0.00     0.006 C 
BRANCH   3   4
ATOM      4  C   UNL     1      60.000  30.204  12.825  1.00  0.00     0.053 C 
BRANCH   4   5
ATOM      5  C   UNL     1      59.969  31.579  13.419  1.00  0.00     0.041 C 
ATOM      6  O   UNL     1      59.141  31.861  14.324  1.00  0.00    -0.550 OA
ATOM      7  O   UNL     1      60.836  32.558  12.949  1.00  0.00    -0.550 OA
ENDBRANCH   4   5
ENDBRANCH   3   4
ENDBRANCH   2   3
ENDBRANCH   1   2
BRANCH   1   8
ATOM      8  C   UNL     1      63.556  30.088  11.550  1.00  0.00     0.000 C 
BRANCH   8   9
ATOM      9  C   UNL     1      63.172  29.211  10.341  1.00  0.00     0.006 C 
BRANCH   9  10
ATOM     10  C   UNL     1      62.077  29.810   9.444  1.00  0.00     0.053 C 
BRANCH  10  11
ATOM     11  C   UNL     1      60.881  28.914   9.347  1.00  0.00     0.041 C 
ATOM     12  O   UNL     1      61.030  27.668   9.232  1.00  0.00    -0.550 OA
ATOM     13  O   UNL     1      59.603  29.458   9.351  1.00  0.00    -0.550 OA
ENDBRANCH  10  11
ENDBRANCH   9  10
ENDBRANCH   8   9
ENDBRANCH   1   8
TORSDOF 8
ENDMDL
MODEL 4
REMARK VINA RESULT:    -4.391      0.812      1.745
REMARK INTER + INTRA:          -7.079
REMARK INTER:                  -6.387
REMARK INTRA:                  -0.692
REMARK UNBOUND:                -0.635
REMARK SMILES O=C([O-])CCCCCCCC(=O)[O-]
REMARK SMILES IDX 7 1 6 2 5 3 4 4 2 5 1 6 3 7 8 8 9 9 10 10 11 11 12 12 13 13
REMARK H PARENT
REMARK Flexibility Score: inf
ROOT
ATOM      1  C   UNL     1      63.020  29.467  12.904  1.00  0.00     0.000 C 
ENDROOT
BRANCH   1   2
ATOM      2  C   UNL     1      63.085  30.967  12.554  1.00  0.00     0.000 C 
BRANCH   2   3
ATOM      3  C   UNL     1      62.499  31.912  13.624  1.00  0.00     0.006 C 
BRANCH   3   4
ATOM      4  C   UNL     1      61.200  32.617  13.204  1.00  0.00     0.053 C 
BRANCH   4   5
ATOM      5  C   UNL     1      60.237  32.741  14.344  1.00  0.00     0.041 C 
ATOM      6  O   UNL     1      59.267  31.946  14.444  1.00  0.00    -0.550 OA
ATOM      7  O   UNL     1      60.393  33.757  15.279  1.00  0.00    -0.550 OA
ENDBRANCH   4   5
ENDBRANCH   3   4
ENDBRANCH   2   3
ENDBRANCH   1   2
BRANCH   1   8
ATOM      8  C   UNL     1      61.762  29.030  13.679  1.00  0.00     0.000 C 
BRANCH   8   9
ATOM      9  C   UNL     1      60.694  28.308  12.834  1.00  0.00     0.006 C 
BRANCH   9  10
ATOM     10  C   UNL     1      59.893  29.229  11.900  1.00  0.00     0.053 C 
BRANCH  10  11
ATOM     11  C   UNL     1      60.269  29.032  10.464  1.00  0.00     0.041 C 
ATOM     12  O   UNL     1      59.684  29.686   9.559  1.00  0.00    -0.550 OA
ATOM     13  O   UNL     1      61.243  28.103  10.121  1.00  0.00    -0.550 OA
ENDBRANCH  10  11
ENDBRANCH   9  10
ENDBRANCH   8   9
ENDBRANCH   1   8
TORSDOF 8
ENDMDL
MODEL 5
REMARK VINA RESULT:    -4.364      1.847      2.421
REMARK INTER + INTRA:          -7.040
REMARK INTER:                  -6.426
REMARK INTRA:                  -0.614
REMARK UNBOUND:                -0.635
REMARK SMILES O=C([O-])CCCCCCCC(=O)[O-]
REMARK SMILES IDX 7 1 6 2 5 3 4 4 2 5 1 6 3 7 8 8 9 9 10 10 11 11 12 12 13 13
REMARK H PARENT
REMARK Flexibility Score: inf
ROOT
ATOM      1  C   UNL     1      60.104  30.265  13.037  1.00  0.00     0.000 C 
ENDROOT
BRANCH   1   2
ATOM      2  C   UNL     1      59.775  31.613  13.708  1.00  0.00     0.000 C 
BRANCH   2   3
ATOM      3  C   UNL     1      60.752  32.760  13.377  1.00  0.00     0.006 C 
BRANCH   3   4
ATOM      4  C   UNL     1      61.847  32.985  14.431  1.00  0.00     0.053 C 
BRANCH   4   5
ATOM      5  C   UNL     1      61.273  33.377  15.758  1.00  0.00     0.041 C 
ATOM      6  O   UNL     1      60.486  34.355  15.846  1.00  0.00    -0.550 OA
ATOM      7  O   UNL     1      61.636  32.680  16.905  1.00  0.00    -0.550 OA
ENDBRANCH   4   5
ENDBRANCH   3   4
ENDBRANCH   2   3
ENDBRANCH   1   2
BRANCH   1   8
ATOM      8  C   UNL     1      60.957  29.301  13.886  1.00  0.00     0.000 C 
BRANCH   8   9
ATOM      9  C   UNL     1      62.174  28.696  13.159  1.00  0.00     0.006 C 
BRANCH   9  10
ATOM     10  C   UNL     1      62.718  29.555  12.007  1.00  0.00     0.053 C 
BRANCH  10  11
ATOM     11  C   UNL     1      62.567  28.874  10.682  1.00  0.00     0.041 C 
ATOM     12  O   UNL     1      63.483  28.951   9.821  1.00  0.00    -0.550 OA
ATOM     13  O   UNL     1      61.401  28.180  10.386  1.00  0.00    -0.550 OA
ENDBRANCH  10  11
ENDBRANCH   9  10
ENDBRANCH   8   9
ENDBRANCH   1   8
TORSDOF 8
ENDMDL
MODEL 6
REMARK VINA RESULT:    -4.346      1.897      4.976
REMARK INTER + INTRA:          -7.013
REMARK INTER:                  -6.306
REMARK INTRA:                  -0.707
REMARK UNBOUND:                -0.635
REMARK SMILES O=C([O-])CCCCCCCC(=O)[O-]
REMARK SMILES IDX 7 1 6 2 5 3 4 4 2 5 1 6 3 7 8 8 9 9 10 10 11 11 12 12 13 13
REMARK H PARENT
REMARK Flexibility Score: inf
ROOT
ATOM      1  C   UNL     1      62.789  31.193  12.329  1.00  0.00     0.000 C 
ENDROOT
BRANCH   1   2
ATOM      2  C   UNL     1      63.223  29.799  12.824  1.00  0.00     0.000 C 
BRANCH   2   3
ATOM      3  C   UNL     1      62.205  28.669  12.566  1.00  0.00     0.006 C 
BRANCH   3   4
ATOM      4  C   UNL     1      60.935  28.751  13.428  1.00  0.00     0.053 C 
BRANCH   4   5
ATOM      5  C   UNL     1      59.692  28.764  12.593  1.00  0.00     0.041 C 
ATOM      6  O   UNL     1      59.597  29.541  11.608  1.00  0.00    -0.550 OA
ATOM      7  O   UNL     1      58.624  27.939  12.925  1.00  0.00    -0.550 OA
ENDBRANCH   4   5
ENDBRANCH   3   4
ENDBRANCH   2   3
ENDBRANCH   1   2
BRANCH   1   8
ATOM      8  C   UNL     1      63.358  32.379  13.133  1.00  0.00     0.000 C 
BRANCH   8   9
ATOM      9  C   UNL     1      62.390  32.988  14.167  1.00  0.00     0.006 C 
BRANCH   9  10
ATOM     10  C   UNL     1      60.908  32.918  13.769  1.00  0.00     0.053 C 
BRANCH  10  11
ATOM     11  C   UNL     1      60.115  32.067  14.713  1.00  0.00     0.041 C 
ATOM     12  O   UNL     1      58.899  31.831  14.486  1.00  0.00    -0.550 OA
ATOM     13  O   UNL     1      60.711  31.563  15.861  1.00  0.00    -0.550 OA
ENDBRANCH  10  11
ENDBRANCH   9  10
ENDBRANCH   8   9
ENDBRANCH   1   8
TORSDOF 8
ENDMDL
MODEL 7
REMARK VINA RESULT:    -4.332     12.267     14.171
REMARK INTER + INTRA:          -6.993
REMARK INTER:                  -6.243
REMARK INTRA:                  -0.749
REMARK UNBOUND:                -0.635
REMARK SMILES O=C([O-])CCCCCCCC(=O)[O-]
REMARK SMILES IDX 7 1 6 2 5 3 4 4 2 5 1 6 3 7 8 8 9 9 10 10 11 11 12 12 13 13
REMARK H PARENT
REMARK Flexibility Score: inf
ROOT
ATOM      1  C   UNL     1      61.908  28.250  24.308  1.00  0.00     0.000 C 
ENDROOT
BRANCH   1   2
ATOM      2  C   UNL     1      62.074  29.586  25.057  1.00  0.00     0.000 C 
BRANCH   2   3
ATOM      3  C   UNL     1      62.327  29.456  26.573  1.00  0.00     0.006 C 
BRANCH   3   4
ATOM      4  C   UNL     1      62.369  28.009  27.087  1.00  0.00     0.053 C 
BRANCH   4   5
ATOM      5  C   UNL     1      61.525  27.825  28.311  1.00  0.00     0.041 C 
ATOM      6  O   UNL     1      61.565  26.743  28.953  1.00  0.00    -0.550 OA
ATOM      7  O   UNL     1      60.670  28.839  28.725  1.00  0.00    -0.550 OA
ENDBRANCH   4   5
ENDBRANCH   3   4
ENDBRANCH   2   3
ENDBRANCH   1   2
BRANCH   1   8
ATOM      8  C   UNL     1      63.028  27.920  23.302  1.00  0.00     0.000 C 
BRANCH   8   9
ATOM      9  C   UNL     1      63.683  26.537  23.487  1.00  0.00     0.006 C 
BRANCH   9  10
ATOM     10  C   UNL     1      64.735  26.476  24.606  1.00  0.00     0.053 C 
BRANCH  10  11
ATOM     11  C   UNL     1      65.630  27.676  24.597  1.00  0.00     0.041 C 
ATOM     12  O   UNL     1      66.416  27.875  23.632  1.00  0.00    -0.550 OA
ATOM     13  O   UNL     1      65.620  28.558  25.669  1.00  0.00    -0.550 OA
ENDBRANCH  10  11
ENDBRANCH   9  10
ENDBRANCH   8   9
ENDBRANCH   1   8
TORSDOF 8
ENDMDL
MODEL 8
REMARK VINA RESULT:    -4.309      1.593      4.755
REMARK INTER + INTRA:          -6.958
REMARK INTER:                  -6.341
REMARK INTRA:                  -0.617
REMARK UNBOUND:                -0.635
REMARK SMILES O=C([O-])CCCCCCCC(=O)[O-]
REMARK SMILES IDX 7 1 6 2 5 3 4 4 2 5 1 6 3 7 8 8 9 9 10 10 11 11 12 12 13 13
REMARK H PARENT
REMARK Flexibility Score: inf
ROOT
ATOM      1  C   UNL     1      63.482  29.463  12.821  1.00  0.00     0.000 C 
ENDROOT
BRANCH   1   2
ATOM      2  C   UNL     1      63.397  29.747  11.308  1.00  0.00     0.000 C 
BRANCH   2   3
ATOM      3  C   UNL     1      62.372  28.887  10.540  1.00  0.00     0.006 C 
BRANCH   3   4
ATOM      4  C   UNL     1      61.195  29.679   9.951  1.00  0.00     0.053 C 
BRANCH   4   5
ATOM      5  C   UNL     1      59.890  28.968  10.141  1.00  0.00     0.041 C 
ATOM      6  O   UNL     1      59.311  28.433   9.160  1.00  0.00    -0.550 OA
ATOM      7  O   UNL     1      59.299  28.923  11.397  1.00  0.00    -0.550 OA
ENDBRANCH   4   5
ENDBRANCH   3   4
ENDBRANCH   2   3
ENDBRANCH   1   2
BRANCH   1   8
ATOM      8  C   UNL     1      62.330  28.614  13.393  1.00  0.00     0.000 C 
BRANCH   8   9
ATOM      9  C   UNL     1      61.197  29.420  14.060  1.00  0.00     0.006 C 
BRANCH   9  10
ATOM     10  C   UNL     1      61.526  30.901  14.301  1.00  0.00     0.053 C 
BRANCH  10  11
ATOM     11  C   UNL     1      60.461  31.806  13.762  1.00  0.00     0.041 C 
ATOM     12  O   UNL     1      60.688  32.520  12.749  1.00  0.00    -0.550 OA
ATOM     13  O   UNL     1      59.230  31.885  14.399  1.00  0.00    -0.550 OA
ENDBRANCH  10  11
ENDBRANCH   9  10
ENDBRANCH   8   9
ENDBRANCH   1   8
TORSDOF 8
ENDMDL
MODEL 9
REMARK VINA RESULT:    -4.283      2.028      2.546
REMARK INTER + INTRA:          -6.921
REMARK INTER:                  -6.087
REMARK INTRA:                  -0.834
REMARK UNBOUND:                -0.635
REMARK SMILES O=C([O-])CCCCCCCC(=O)[O-]
REMARK SMILES IDX 7 1 6 2 5 3 4 4 2 5 1 6 3 7 8 8 9 9 10 10 11 11 12 12 13 13
REMARK H PARENT
REMARK Flexibility Score: inf
ROOT
ATOM      1  C   UNL     1      63.691  30.348  11.996  1.00  0.00     0.000 C 
ENDROOT
BRANCH   1   2
ATOM      2  C   UNL     1      63.690  31.877  12.183  1.00  0.00     0.000 C 
BRANCH   2   3
ATOM      3  C   UNL     1      62.684  32.406  13.227  1.00  0.00     0.006 C 
BRANCH   3   4
ATOM      4  C   UNL     1      61.213  32.108  12.898  1.00  0.00     0.053 C 
BRANCH   4   5
ATOM      5  C   UNL     1      60.511  31.434  14.037  1.00  0.00     0.041 C 
ATOM      6  O   UNL     1      60.986  30.385  14.544  1.00  0.00    -0.550 OA
ATOM      7  O   UNL     1      59.312  31.948  14.515  1.00  0.00    -0.550 OA
ENDBRANCH   4   5
ENDBRANCH   3   4
ENDBRANCH   2   3
ENDBRANCH   1   2
BRANCH   1   8
ATOM      8  C   UNL     1      63.612  29.867  10.534  1.00  0.00     0.000 C 
BRANCH   8   9
ATOM      9  C   UNL     1      62.384  28.997  10.199  1.00  0.00     0.006 C 
BRANCH   9  10
ATOM     10  C   UNL     1      61.523  28.619  11.414  1.00  0.00     0.053 C 
BRANCH  10  11
ATOM     11  C   UNL     1      60.087  28.997  11.220  1.00  0.00     0.041 C 
ATOM     12  O   UNL     1      59.730  29.625  10.189  1.00  0.00    -0.550 OA
ATOM     13  O   UNL     1      59.148  28.684  12.195  1.00  0.00    -0.550 OA
ENDBRANCH  10  11
ENDBRANCH   9  10
ENDBRANCH   8   9
ENDBRANCH   1   8
TORSDOF 8
ENDMDL
