MODEL 1
REMARK VINA RESULT:     5.284      0.000      0.000
REMARK INTER + INTRA:           9.905
REMARK INTER:                  10.227
REMARK INTRA:                  -0.322
REMARK UNBOUND:                -0.322
REMARK SMILES CCCCCCCCCCCCCCCCCC(=O)[O-]
REMARK SMILES IDX 10 1 11 2 12 3 13 4 14 5 15 6 16 7 17 8 18 9 19 10 20 11
REMARK SMILES IDX 9 12 8 13 7 14 6 15 5 16 4 17 3 18 2 19 1 20
REMARK H PARENT
REMARK Flexibility Score: inf
ROOT
ATOM      1  C   UNL     1     -16.939  35.030 -18.454  1.00  0.00     0.000 C 
ENDROOT
BRANCH   1   2
ATOM      2  C   UNL     1     -15.757  35.147 -17.478  1.00  0.00     0.000 C 
BRANCH   2   3
ATOM      3  C   UNL     1     -14.402  35.238 -18.203  1.00  0.00     0.000 C 
BRANCH   3   4
ATOM      4  C   UNL     1     -13.970  33.900 -18.829  1.00  0.00     0.000 C 
BRANCH   4   5
ATOM      5  C   UNL     1     -15.125  32.989 -19.294  1.00  0.00     0.000 C 
BRANCH   5   6
ATOM      6  C   UNL     1     -14.870  31.479 -19.142  1.00  0.00     0.000 C 
BRANCH   6   7
ATOM      7  C   UNL     1     -14.513  31.077 -17.703  1.00  0.00     0.006 C 
BRANCH   7   8
ATOM      8  C   UNL     1     -13.368  30.060 -17.686  1.00  0.00     0.053 C 
BRANCH   8   9
ATOM      9  C   UNL     1     -13.558  29.075 -16.576  1.00  0.00     0.041 C 
ATOM     10  O   UNL     1     -14.717  28.782 -16.180  1.00  0.00    -0.550 OA
ATOM     11  O   UNL     1     -12.457  28.443 -16.012  1.00  0.00    -0.550 OA
ENDBRANCH   8   9
ENDBRANCH   7   8
ENDBRANCH   6   7
ENDBRANCH   5   6
ENDBRANCH   4   5
ENDBRANCH   3   4
ENDBRANCH   2   3
ENDBRANCH   1   2
BRANCH   1  12
ATOM     12  C   UNL     1     -16.858  36.052 -19.602  1.00  0.00     0.000 C 
BRANCH  12  13
ATOM     13  C   UNL     1     -17.393  35.499 -20.936  1.00  0.00    -0.000 C 
BRANCH  13  14
ATOM     14  C   UNL     1     -18.284  34.248 -20.815  1.00  0.00    -0.000 C 
BRANCH  14  15
ATOM     15  C   UNL     1     -19.394  34.399 -19.762  1.00  0.00    -0.000 C 
BRANCH  15  16
ATOM     16  C   UNL     1     -20.415  35.492 -20.144  1.00  0.00    -0.000 C 
BRANCH  16  17
ATOM     17  C   UNL     1     -21.125  36.125 -18.934  1.00  0.00    -0.000 C 
BRANCH  17  18
ATOM     18  C   UNL     1     -20.982  35.292 -17.655  1.00  0.00    -0.000 C 
BRANCH  18  19
ATOM     19  C   UNL     1     -20.267  36.087 -16.556  1.00  0.00    -0.003 C 
ATOM     20  C   UNL     1     -21.091  36.112 -15.272  1.00  0.00     0.004 C 
ENDBRANCH  18  19
ENDBRANCH  17  18
ENDBRANCH  16  17
ENDBRANCH  15  16
ENDBRANCH  14  15
ENDBRANCH  13  14
ENDBRANCH  12  13
ENDBRANCH   1  12
TORSDOF 16
ENDMDL
MODEL 2
REMARK VINA RESULT:     5.567      3.915      7.618
REMARK INTER + INTRA:          10.453
REMARK INTER:                  11.634
REMARK INTRA:                  -1.181
REMARK UNBOUND:                -0.322
REMARK SMILES CCCCCCCCCCCCCCCCCC(=O)[O-]
REMARK SMILES IDX 10 1 11 2 12 3 13 4 14 5 15 6 16 7 17 8 18 9 19 10 20 11
REMARK SMILES IDX 9 12 8 13 7 14 6 15 5 16 4 17 3 18 2 19 1 20
REMARK H PARENT
REMARK Flexibility Score: inf
ROOT
ATOM      1  C   UNL     1     -16.586  33.783 -19.208  1.00  0.00     0.000 C 
ENDROOT
BRANCH   1   2
ATOM      2  C   UNL     1     -17.360  33.772 -20.536  1.00  0.00     0.000 C 
BRANCH   2   3
ATOM      3  C   UNL     1     -17.930  35.154 -20.896  1.00  0.00     0.000 C 
BRANCH   3   4
ATOM      4  C   UNL     1     -19.461  35.145 -21.056  1.00  0.00     0.000 C 
BRANCH   4   5
ATOM      5  C   UNL     1     -20.209  34.142 -20.154  1.00  0.00     0.000 C 
BRANCH   5   6
ATOM      6  C   UNL     1     -21.068  34.776 -19.044  1.00  0.00     0.000 C 
BRANCH   6   7
ATOM      7  C   UNL     1     -20.470  36.081 -18.499  1.00  0.00     0.006 C 
BRANCH   7   8
ATOM      8  C   UNL     1     -19.357  35.794 -17.486  1.00  0.00     0.053 C 
BRANCH   8   9
ATOM      9  C   UNL     1     -19.933  35.575 -16.123  1.00  0.00     0.041 C 
ATOM     10  O   UNL     1     -21.057  36.058 -15.825  1.00  0.00    -0.550 OA
ATOM     11  O   UNL     1     -19.250  34.796 -15.198  1.00  0.00    -0.550 OA
ENDBRANCH   8   9
ENDBRANCH   7   8
ENDBRANCH   6   7
ENDBRANCH   5   6
ENDBRANCH   4   5
ENDBRANCH   3   4
ENDBRANCH   2   3
ENDBRANCH   1   2
BRANCH   1  12
ATOM     12  C   UNL     1     -15.063  33.690 -19.414  1.00  0.00     0.000 C 
BRANCH  12  13
ATOM     13  C   UNL     1     -14.288  34.781 -18.650  1.00  0.00    -0.000 C 
BRANCH  13  14
ATOM     14  C   UNL     1     -14.803  35.075 -17.228  1.00  0.00    -0.000 C 
BRANCH  14  15
ATOM     15  C   UNL     1     -13.841  35.952 -16.409  1.00  0.00    -0.000 C 
BRANCH  15  16
ATOM     16  C   UNL     1     -13.207  35.180 -15.232  1.00  0.00    -0.000 C 
BRANCH  16  17
ATOM     17  C   UNL     1     -12.521  36.087 -14.195  1.00  0.00    -0.000 C 
BRANCH  17  18
ATOM     18  C   UNL     1     -11.546  35.326 -13.289  1.00  0.00    -0.000 C 
BRANCH  18  19
ATOM     19  C   UNL     1     -10.387  34.735 -14.101  1.00  0.00    -0.003 C 
ATOM     20  C   UNL     1      -9.833  33.479 -13.434  1.00  0.00     0.004 C 
ENDBRANCH  18  19
ENDBRANCH  17  18
ENDBRANCH  16  17
ENDBRANCH  15  16
ENDBRANCH  14  15
ENDBRANCH  13  14
ENDBRANCH  12  13
ENDBRANCH   1  12
TORSDOF 16
ENDMDL
MODEL 3
REMARK VINA RESULT:     6.175      2.643      3.626
REMARK INTER + INTRA:          11.628
REMARK INTER:                  10.200
REMARK INTRA:                   1.428
REMARK UNBOUND:                -0.322
REMARK SMILES CCCCCCCCCCCCCCCCCC(=O)[O-]
REMARK SMILES IDX 10 1 11 2 12 3 13 4 14 5 15 6 16 7 17 8 18 9 19 10 20 11
REMARK SMILES IDX 9 12 8 13 7 14 6 15 5 16 4 17 3 18 2 19 1 20
REMARK H PARENT
REMARK Flexibility Score: inf
ROOT
ATOM      1  C   UNL     1     -16.414  32.415 -19.124  1.00  0.00     0.000 C 
ENDROOT
BRANCH   1   2
ATOM      2  C   UNL     1     -14.898  32.403 -18.865  1.00  0.00     0.000 C 
BRANCH   2   3
ATOM      3  C   UNL     1     -14.199  33.664 -19.403  1.00  0.00     0.000 C 
BRANCH   3   4
ATOM      4  C   UNL     1     -15.108  34.906 -19.379  1.00  0.00     0.000 C 
BRANCH   4   5
ATOM      5  C   UNL     1     -14.623  36.056 -18.474  1.00  0.00     0.000 C 
BRANCH   5   6
ATOM      6  C   UNL     1     -15.205  36.057 -17.049  1.00  0.00     0.000 C 
BRANCH   6   7
ATOM      7  C   UNL     1     -14.122  36.121 -15.962  1.00  0.00     0.006 C 
BRANCH   7   8
ATOM      8  C   UNL     1     -13.617  34.718 -15.607  1.00  0.00     0.053 C 
BRANCH   8   9
ATOM      9  C   UNL     1     -12.871  34.741 -14.311  1.00  0.00     0.041 C 
ATOM     10  O   UNL     1     -13.260  34.035 -13.344  1.00  0.00    -0.550 OA
ATOM     11  O   UNL     1     -11.717  35.505 -14.187  1.00  0.00    -0.550 OA
ENDBRANCH   8   9
ENDBRANCH   7   8
ENDBRANCH   6   7
ENDBRANCH   5   6
ENDBRANCH   4   5
ENDBRANCH   3   4
ENDBRANCH   2   3
ENDBRANCH   1   2
BRANCH   1  12
ATOM     12  C   UNL     1     -16.882  33.709 -19.814  1.00  0.00     0.000 C 
BRANCH  12  13
ATOM     13  C   UNL     1     -18.415  33.862 -19.823  1.00  0.00    -0.000 C 
BRANCH  13  14
ATOM     14  C   UNL     1     -18.962  34.909 -20.812  1.00  0.00    -0.000 C 
BRANCH  14  15
ATOM     15  C   UNL     1     -20.484  35.102 -20.705  1.00  0.00    -0.000 C 
BRANCH  15  16
ATOM     16  C   UNL     1     -20.874  36.017 -19.524  1.00  0.00    -0.000 C 
BRANCH  16  17
ATOM     17  C   UNL     1     -20.109  35.708 -18.224  1.00  0.00    -0.000 C 
BRANCH  17  18
ATOM     18  C   UNL     1     -21.012  35.717 -16.985  1.00  0.00    -0.000 C 
BRANCH  18  19
ATOM     19  C   UNL     1     -20.225  36.125 -15.733  1.00  0.00    -0.003 C 
ATOM     20  C   UNL     1     -20.837  35.514 -14.476  1.00  0.00     0.004 C 
ENDBRANCH  18  19
ENDBRANCH  17  18
ENDBRANCH  16  17
ENDBRANCH  15  16
ENDBRANCH  14  15
ENDBRANCH  13  14
ENDBRANCH  12  13
ENDBRANCH   1  12
TORSDOF 16
ENDMDL
MODEL 4
REMARK VINA RESULT:     6.696      3.930      7.621
REMARK INTER + INTRA:          12.638
REMARK INTER:                  13.352
REMARK INTRA:                  -0.714
REMARK UNBOUND:                -0.322
REMARK SMILES CCCCCCCCCCCCCCCCCC(=O)[O-]
REMARK SMILES IDX 10 1 11 2 12 3 13 4 14 5 15 6 16 7 17 8 18 9 19 10 20 11
REMARK SMILES IDX 9 12 8 13 7 14 6 15 5 16 4 17 3 18 2 19 1 20
REMARK H PARENT
REMARK Flexibility Score: inf
ROOT
ATOM      1  C   UNL     1     -14.629  32.878 -18.784  1.00  0.00     0.000 C 
ENDROOT
BRANCH   1   2
ATOM      2  C   UNL     1     -15.668  32.905 -19.918  1.00  0.00     0.000 C 
BRANCH   2   3
ATOM      3  C   UNL     1     -16.930  33.700 -19.540  1.00  0.00     0.000 C 
BRANCH   3   4
ATOM      4  C   UNL     1     -17.904  33.868 -20.720  1.00  0.00     0.000 C 
BRANCH   4   5
ATOM      5  C   UNL     1     -19.345  34.257 -20.332  1.00  0.00     0.000 C 
BRANCH   5   6
ATOM      6  C   UNL     1     -19.614  35.770 -20.249  1.00  0.00     0.000 C 
BRANCH   6   7
ATOM      7  C   UNL     1     -20.722  36.125 -19.247  1.00  0.00     0.006 C 
BRANCH   7   8
ATOM      8  C   UNL     1     -20.740  35.137 -18.076  1.00  0.00     0.053 C 
BRANCH   8   9
ATOM      9  C   UNL     1     -19.973  35.686 -16.915  1.00  0.00     0.041 C 
ATOM     10  O   UNL     1     -18.729  35.861 -17.003  1.00  0.00    -0.550 OA
ATOM     11  O   UNL     1     -20.640  36.052 -15.752  1.00  0.00    -0.550 OA
ENDBRANCH   8   9
ENDBRANCH   7   8
ENDBRANCH   6   7
ENDBRANCH   5   6
ENDBRANCH   4   5
ENDBRANCH   3   4
ENDBRANCH   2   3
ENDBRANCH   1   2
BRANCH   1  12
ATOM     12  C   UNL     1     -13.791  34.168 -18.724  1.00  0.00     0.000 C 
BRANCH  12  13
ATOM     13  C   UNL     1     -14.633  35.414 -18.392  1.00  0.00    -0.000 C 
BRANCH  13  14
ATOM     14  C   UNL     1     -14.983  35.589 -16.902  1.00  0.00    -0.000 C 
BRANCH  14  15
ATOM     15  C   UNL     1     -13.752  35.868 -16.023  1.00  0.00    -0.000 C 
BRANCH  15  16
ATOM     16  C   UNL     1     -13.258  34.601 -15.292  1.00  0.00    -0.000 C 
BRANCH  16  17
ATOM     17  C   UNL     1     -12.655  34.883 -13.905  1.00  0.00    -0.000 C 
BRANCH  17  18
ATOM     18  C   UNL     1     -11.364  35.706 -13.971  1.00  0.00    -0.000 C 
BRANCH  18  19
ATOM     19  C   UNL     1     -10.132  34.796 -14.045  1.00  0.00    -0.003 C 
ATOM     20  C   UNL     1     -10.188  33.708 -12.977  1.00  0.00     0.004 C 
ENDBRANCH  18  19
ENDBRANCH  17  18
ENDBRANCH  16  17
ENDBRANCH  15  16
ENDBRANCH  14  15
ENDBRANCH  13  14
ENDBRANCH  12  13
ENDBRANCH   1  12
TORSDOF 16
ENDMDL
MODEL 5
REMARK VINA RESULT:     7.081      2.132      3.073
REMARK INTER + INTRA:          13.383
REMARK INTER:                  12.653
REMARK INTRA:                   0.730
REMARK UNBOUND:                -0.322
REMARK SMILES CCCCCCCCCCCCCCCCCC(=O)[O-]
REMARK SMILES IDX 10 1 11 2 12 3 13 4 14 5 15 6 16 7 17 8 18 9 19 10 20 11
REMARK SMILES IDX 9 12 8 13 7 14 6 15 5 16 4 17 3 18 2 19 1 20
REMARK H PARENT
REMARK Flexibility Score: inf
ROOT
ATOM      1  C   UNL     1     -16.952  34.663 -20.951  1.00  0.00     0.000 C 
ENDROOT
BRANCH   1   2
ATOM      2  C   UNL     1     -15.822  34.783 -19.915  1.00  0.00     0.000 C 
BRANCH   2   3
ATOM      3  C   UNL     1     -16.353  34.900 -18.476  1.00  0.00     0.000 C 
BRANCH   3   4
ATOM      4  C   UNL     1     -15.733  36.079 -17.705  1.00  0.00     0.000 C 
BRANCH   4   5
ATOM      5  C   UNL     1     -14.264  35.884 -17.279  1.00  0.00     0.000 C 
BRANCH   5   6
ATOM      6  C   UNL     1     -13.475  34.852 -18.104  1.00  0.00     0.000 C 
BRANCH   6   7
ATOM      7  C   UNL     1     -13.906  33.406 -17.819  1.00  0.00     0.006 C 
BRANCH   7   8
ATOM      8  C   UNL     1     -13.591  32.494 -19.009  1.00  0.00     0.053 C 
BRANCH   8   9
ATOM      9  C   UNL     1     -14.850  31.926 -19.582  1.00  0.00     0.041 C 
ATOM     10  O   UNL     1     -15.799  31.595 -18.823  1.00  0.00    -0.550 OA
ATOM     11  O   UNL     1     -14.995  31.808 -20.959  1.00  0.00    -0.550 OA
ENDBRANCH   8   9
ENDBRANCH   7   8
ENDBRANCH   6   7
ENDBRANCH   5   6
ENDBRANCH   4   5
ENDBRANCH   3   4
ENDBRANCH   2   3
ENDBRANCH   1   2
BRANCH   1  12
ATOM     12  C   UNL     1     -17.733  35.978 -21.125  1.00  0.00     0.000 C 
BRANCH  12  13
ATOM     13  C   UNL     1     -19.210  35.858 -20.707  1.00  0.00    -0.000 C 
BRANCH  13  14
ATOM     14  C   UNL     1     -19.556  34.606 -19.879  1.00  0.00    -0.000 C 
BRANCH  14  15
ATOM     15  C   UNL     1     -20.479  34.908 -18.686  1.00  0.00    -0.000 C 
BRANCH  15  16
ATOM     16  C   UNL     1     -19.901  36.004 -17.765  1.00  0.00    -0.000 C 
BRANCH  16  17
ATOM     17  C   UNL     1     -19.770  35.570 -16.295  1.00  0.00    -0.000 C 
BRANCH  17  18
ATOM     18  C   UNL     1     -21.006  35.919 -15.457  1.00  0.00    -0.000 C 
BRANCH  18  19
ATOM     19  C   UNL     1     -20.635  36.116 -13.983  1.00  0.00    -0.003 C 
ATOM     20  C   UNL     1     -21.077  34.922 -13.141  1.00  0.00     0.004 C 
ENDBRANCH  18  19
ENDBRANCH  17  18
ENDBRANCH  16  17
ENDBRANCH  15  16
ENDBRANCH  14  15
ENDBRANCH  13  14
ENDBRANCH  12  13
ENDBRANCH   1  12
TORSDOF 16
ENDMDL
MODEL 6
REMARK VINA RESULT:     7.168      3.214      3.975
REMARK INTER + INTRA:          13.551
REMARK INTER:                  13.615
REMARK INTRA:                  -0.063
REMARK UNBOUND:                -0.322
REMARK SMILES CCCCCCCCCCCCCCCCCC(=O)[O-]
REMARK SMILES IDX 10 1 11 2 12 3 13 4 14 5 15 6 16 7 17 8 18 9 19 10 20 11
REMARK SMILES IDX 9 12 8 13 7 14 6 15 5 16 4 17 3 18 2 19 1 20
REMARK H PARENT
REMARK Flexibility Score: inf
ROOT
ATOM      1  C   UNL     1     -16.219  33.137 -19.333  1.00  0.00     0.000 C 
ENDROOT
BRANCH   1   2
ATOM      2  C   UNL     1     -16.102  34.204 -18.232  1.00  0.00     0.000 C 
BRANCH   2   3
ATOM      3  C   UNL     1     -14.697  34.827 -18.165  1.00  0.00     0.000 C 
BRANCH   3   4
ATOM      4  C   UNL     1     -14.626  36.037 -17.215  1.00  0.00     0.000 C 
BRANCH   4   5
ATOM      5  C   UNL     1     -14.288  35.700 -15.749  1.00  0.00     0.000 C 
BRANCH   5   6
ATOM      6  C   UNL     1     -12.867  36.086 -15.299  1.00  0.00     0.000 C 
BRANCH   6   7
ATOM      7  C   UNL     1     -12.499  35.507 -13.926  1.00  0.00     0.006 C 
BRANCH   7   8
ATOM      8  C   UNL     1     -11.910  34.100 -14.063  1.00  0.00     0.053 C 
BRANCH   8   9
ATOM      9  C   UNL     1     -10.465  34.096 -13.675  1.00  0.00     0.041 C 
ATOM     10  O   UNL     1      -9.712  35.043 -14.024  1.00  0.00    -0.550 OA
ATOM     11  O   UNL     1      -9.960  33.071 -12.884  1.00  0.00    -0.550 OA
ENDBRANCH   8   9
ENDBRANCH   7   8
ENDBRANCH   6   7
ENDBRANCH   5   6
ENDBRANCH   4   5
ENDBRANCH   3   4
ENDBRANCH   2   3
ENDBRANCH   1   2
BRANCH   1  12
ATOM     12  C   UNL     1     -15.622  33.605 -20.672  1.00  0.00     0.000 C 
BRANCH  12  13
ATOM     13  C   UNL     1     -16.109  35.006 -21.088  1.00  0.00    -0.000 C 
BRANCH  13  14
ATOM     14  C   UNL     1     -17.552  35.347 -20.671  1.00  0.00    -0.000 C 
BRANCH  14  15
ATOM     15  C   UNL     1     -18.552  34.221 -20.984  1.00  0.00    -0.000 C 
BRANCH  15  16
ATOM     16  C   UNL     1     -20.006  34.736 -21.060  1.00  0.00    -0.000 C 
BRANCH  16  17
ATOM     17  C   UNL     1     -20.301  35.897 -20.095  1.00  0.00    -0.000 C 
BRANCH  17  18
ATOM     18  C   UNL     1     -20.721  35.420 -18.699  1.00  0.00    -0.000 C 
BRANCH  18  19
ATOM     19  C   UNL     1     -19.888  36.105 -17.609  1.00  0.00    -0.003 C 
ATOM     20  C   UNL     1     -20.492  35.873 -16.228  1.00  0.00     0.004 C 
ENDBRANCH  18  19
ENDBRANCH  17  18
ENDBRANCH  16  17
ENDBRANCH  15  16
ENDBRANCH  14  15
ENDBRANCH  13  14
ENDBRANCH  12  13
ENDBRANCH   1  12
TORSDOF 16
ENDMDL
