MODEL 1
REMARK VINA RESULT:    -3.311      0.000      0.000
REMARK INTER + INTRA:          -4.200
REMARK INTER:                  -4.086
REMARK INTRA:                  -0.114
REMARK UNBOUND:                -0.114
REMARK SMILES CCCCCC(=O)[O-]
REMARK SMILES IDX 4 1 5 2 6 3 7 4 8 5 3 6 2 7 1 8
REMARK H PARENT
REMARK Flexibility Score: inf
ROOT
ATOM      1  C   UNL     1      -4.685   1.847  -0.124  1.00  0.00     0.006 C 
ENDROOT
BRANCH   1   2
ATOM      2  C   UNL     1      -3.277   2.371   0.201  1.00  0.00     0.053 C 
BRANCH   2   3
ATOM      3  C   UNL     1      -3.320   3.614   1.035  1.00  0.00     0.041 C 
ATOM      4  O   UNL     1      -2.901   3.594   2.223  1.00  0.00    -0.550 OA
ATOM      5  O   UNL     1      -3.854   4.785   0.514  1.00  0.00    -0.550 OA
ENDBRANCH   2   3
ENDBRANCH   1   2
BRANCH   1   6
ATOM      6  C   UNL     1      -5.316   0.979   0.984  1.00  0.00     0.000 C 
BRANCH   6   7
ATOM      7  C   UNL     1      -5.993  -0.312   0.489  1.00  0.00    -0.003 C 
ATOM      8  C   UNL     1      -5.106  -1.548   0.641  1.00  0.00     0.004 C 
ENDBRANCH   6   7
ENDBRANCH   1   6
TORSDOF 4
ENDMDL
MODEL 2
REMARK VINA RESULT:    -3.280      0.614      1.297
REMARK INTER + INTRA:          -4.161
REMARK INTER:                  -4.057
REMARK INTRA:                  -0.104
REMARK UNBOUND:                -0.114
REMARK SMILES CCCCCC(=O)[O-]
REMARK SMILES IDX 4 1 5 2 6 3 7 4 8 5 3 6 2 7 1 8
REMARK H PARENT
REMARK Flexibility Score: inf
ROOT
ATOM      1  C   UNL     1      -5.068   2.139  -0.368  1.00  0.00     0.006 C 
ENDROOT
BRANCH   1   2
ATOM      2  C   UNL     1      -3.680   2.214   0.286  1.00  0.00     0.053 C 
BRANCH   2   3
ATOM      3  C   UNL     1      -3.444   3.534   0.953  1.00  0.00     0.041 C 
ATOM      4  O   UNL     1      -3.742   4.605   0.360  1.00  0.00    -0.550 OA
ATOM      5  O   UNL     1      -2.862   3.584   2.213  1.00  0.00    -0.550 OA
ENDBRANCH   2   3
ENDBRANCH   1   2
BRANCH   1   6
ATOM      6  C   UNL     1      -5.900   0.904   0.038  1.00  0.00     0.000 C 
BRANCH   6   7
ATOM      7  C   UNL     1      -5.118  -0.183   0.796  1.00  0.00    -0.003 C 
ATOM      8  C   UNL     1      -5.651  -1.593   0.537  1.00  0.00     0.004 C 
ENDBRANCH   6   7
ENDBRANCH   1   6
TORSDOF 4
ENDMDL
MODEL 3
REMARK VINA RESULT:    -3.207      1.420      2.237
REMARK INTER + INTRA:          -4.071
REMARK INTER:                  -3.833
REMARK INTRA:                  -0.239
REMARK UNBOUND:                -0.114
REMARK SMILES CCCCCC(=O)[O-]
REMARK SMILES IDX 4 1 5 2 6 3 7 4 8 5 3 6 2 7 1 8
REMARK H PARENT
REMARK Flexibility Score: inf
ROOT
ATOM      1  C   UNL     1      -3.752   2.235  -0.022  1.00  0.00     0.006 C 
ENDROOT
BRANCH   1   2
ATOM      2  C   UNL     1      -3.032   2.971   1.120  1.00  0.00     0.053 C 
BRANCH   2   3
ATOM      3  C   UNL     1      -3.967   3.831   1.911  1.00  0.00     0.041 C 
ATOM      4  O   UNL     1      -4.879   4.477   1.330  1.00  0.00    -0.550 OA
ATOM      5  O   UNL     1      -3.811   3.948   3.286  1.00  0.00    -0.550 OA
ENDBRANCH   2   3
ENDBRANCH   1   2
BRANCH   1   6
ATOM      6  C   UNL     1      -4.680   1.091   0.440  1.00  0.00     0.000 C 
BRANCH   6   7
ATOM      7  C   UNL     1      -6.148   1.230  -0.001  1.00  0.00    -0.003 C 
ATOM      8  C   UNL     1      -6.351   2.297  -1.078  1.00  0.00     0.004 C 
ENDBRANCH   6   7
ENDBRANCH   1   6
TORSDOF 4
ENDMDL
MODEL 4
REMARK VINA RESULT:    -3.191      1.289      1.889
REMARK INTER + INTRA:          -4.051
REMARK INTER:                  -3.967
REMARK INTRA:                  -0.084
REMARK UNBOUND:                -0.114
REMARK SMILES CCCCCC(=O)[O-]
REMARK SMILES IDX 4 1 5 2 6 3 7 4 8 5 3 6 2 7 1 8
REMARK H PARENT
REMARK Flexibility Score: inf
ROOT
ATOM      1  C   UNL     1      -5.058   0.843   0.606  1.00  0.00     0.006 C 
ENDROOT
BRANCH   1   2
ATOM      2  C   UNL     1      -4.798   2.103  -0.234  1.00  0.00     0.053 C 
BRANCH   2   3
ATOM      3  C   UNL     1      -3.369   2.543  -0.159  1.00  0.00     0.041 C 
ATOM      4  O   UNL     1      -2.686   2.662  -1.211  1.00  0.00    -0.550 OA
ATOM      5  O   UNL     1      -2.780   2.788   1.075  1.00  0.00    -0.550 OA
ENDBRANCH   2   3
ENDBRANCH   1   2
BRANCH   1   6
ATOM      6  C   UNL     1      -6.478   0.259   0.460  1.00  0.00     0.000 C 
BRANCH   6   7
ATOM      7  C   UNL     1      -6.540  -1.274   0.339  1.00  0.00    -0.003 C 
ATOM      8  C   UNL     1      -5.184  -1.946   0.558  1.00  0.00     0.004 C 
ENDBRANCH   6   7
ENDBRANCH   1   6
TORSDOF 4
ENDMDL
MODEL 5
REMARK VINA RESULT:    -3.007      1.529      2.019
REMARK INTER + INTRA:          -3.825
REMARK INTER:                  -3.636
REMARK INTRA:                  -0.188
REMARK UNBOUND:                -0.114
REMARK SMILES CCCCCC(=O)[O-]
REMARK SMILES IDX 4 1 5 2 6 3 7 4 8 5 3 6 2 7 1 8
REMARK H PARENT
REMARK Flexibility Score: inf
ROOT
ATOM      1  C   UNL     1      -5.577   3.222   0.723  1.00  0.00     0.006 C 
ENDROOT
BRANCH   1   2
ATOM      2  C   UNL     1      -5.276   2.989   2.212  1.00  0.00     0.053 C 
BRANCH   2   3
ATOM      3  C   UNL     1      -4.068   3.749   2.666  1.00  0.00     0.041 C 
ATOM      4  O   UNL     1      -2.988   3.664   2.023  1.00  0.00    -0.550 OA
ATOM      5  O   UNL     1      -4.124   4.522   3.818  1.00  0.00    -0.550 OA
ENDBRANCH   2   3
ENDBRANCH   1   2
BRANCH   1   6
ATOM      6  C   UNL     1      -5.519   1.950  -0.148  1.00  0.00     0.000 C 
BRANCH   6   7
ATOM      7  C   UNL     1      -4.740   0.776   0.471  1.00  0.00    -0.003 C 
ATOM      8  C   UNL     1      -5.603  -0.470   0.677  1.00  0.00     0.004 C 
ENDBRANCH   6   7
ENDBRANCH   1   6
TORSDOF 4
ENDMDL
MODEL 6
REMARK VINA RESULT:    -2.966      3.255      4.563
REMARK INTER + INTRA:          -3.774
REMARK INTER:                  -3.686
REMARK INTRA:                  -0.088
REMARK UNBOUND:                -0.114
REMARK SMILES CCCCCC(=O)[O-]
REMARK SMILES IDX 4 1 5 2 6 3 7 4 8 5 3 6 2 7 1 8
REMARK H PARENT
REMARK Flexibility Score: inf
ROOT
ATOM      1  C   UNL     1      -5.666   1.500  -0.171  1.00  0.00     0.006 C 
ENDROOT
BRANCH   1   2
ATOM      2  C   UNL     1      -5.103   0.349   0.678  1.00  0.00     0.053 C 
BRANCH   2   3
ATOM      3  C   UNL     1      -5.995  -0.853   0.657  1.00  0.00     0.041 C 
ATOM      4  O   UNL     1      -5.635  -1.918   1.226  1.00  0.00    -0.550 OA
ATOM      5  O   UNL     1      -7.206  -0.810  -0.020  1.00  0.00    -0.550 OA
ENDBRANCH   2   3
ENDBRANCH   1   2
BRANCH   1   6
ATOM      6  C   UNL     1      -4.635   2.585  -0.544  1.00  0.00     0.000 C 
BRANCH   6   7
ATOM      7  C   UNL     1      -3.278   2.462   0.172  1.00  0.00    -0.003 C 
ATOM      8  C   UNL     1      -3.170   3.357   1.407  1.00  0.00     0.004 C 
ENDBRANCH   6   7
ENDBRANCH   1   6
TORSDOF 4
ENDMDL
MODEL 7
REMARK VINA RESULT:    -2.867      8.376      9.367
REMARK INTER + INTRA:          -3.651
REMARK INTER:                  -3.404
REMARK INTRA:                  -0.248
REMARK UNBOUND:                -0.114
REMARK SMILES CCCCCC(=O)[O-]
REMARK SMILES IDX 4 1 5 2 6 3 7 4 8 5 3 6 2 7 1 8
REMARK H PARENT
REMARK Flexibility Score: inf
ROOT
ATOM      1  C   UNL     1      -3.008  -5.099   4.528  1.00  0.00     0.006 C 
ENDROOT
BRANCH   1   2
ATOM      2  C   UNL     1      -1.493  -5.358   4.519  1.00  0.00     0.053 C 
BRANCH   2   3
ATOM      3  C   UNL     1      -1.048  -6.135   5.718  1.00  0.00     0.041 C 
ATOM      4  O   UNL     1       0.071  -6.713   5.720  1.00  0.00    -0.550 OA
ATOM      5  O   UNL     1      -1.884  -6.252   6.822  1.00  0.00    -0.550 OA
ENDBRANCH   2   3
ENDBRANCH   1   2
BRANCH   1   6
ATOM      6  C   UNL     1      -3.403  -3.623   4.742  1.00  0.00     0.000 C 
BRANCH   6   7
ATOM      7  C   UNL     1      -3.820  -3.266   6.180  1.00  0.00    -0.003 C 
ATOM      8  C   UNL     1      -2.669  -2.706   7.015  1.00  0.00     0.004 C 
ENDBRANCH   6   7
ENDBRANCH   1   6
TORSDOF 4
ENDMDL
MODEL 8
REMARK VINA RESULT:    -2.789      7.643      8.963
REMARK INTER + INTRA:          -3.556
REMARK INTER:                  -3.498
REMARK INTRA:                  -0.058
REMARK UNBOUND:                -0.114
REMARK SMILES CCCCCC(=O)[O-]
REMARK SMILES IDX 4 1 5 2 6 3 7 4 8 5 3 6 2 7 1 8
REMARK H PARENT
REMARK Flexibility Score: inf
ROOT
ATOM      1  C   UNL     1      -1.167  -5.545   4.478  1.00  0.00     0.006 C 
ENDROOT
BRANCH   1   2
ATOM      2  C   UNL     1      -1.843  -4.908   5.702  1.00  0.00     0.053 C 
BRANCH   2   3
ATOM      3  C   UNL     1      -2.648  -3.700   5.335  1.00  0.00     0.041 C 
ATOM      4  O   UNL     1      -3.312  -3.683   4.264  1.00  0.00    -0.550 OA
ATOM      5  O   UNL     1      -2.637  -2.580   6.156  1.00  0.00    -0.550 OA
ENDBRANCH   2   3
ENDBRANCH   1   2
BRANCH   1   6
ATOM      6  C   UNL     1       0.220  -6.158   4.760  1.00  0.00     0.000 C 
BRANCH   6   7
ATOM      7  C   UNL     1       1.300  -5.826   3.715  1.00  0.00    -0.003 C 
ATOM      8  C   UNL     1       0.943  -6.313   2.310  1.00  0.00     0.004 C 
ENDBRANCH   6   7
ENDBRANCH   1   6
TORSDOF 4
ENDMDL
MODEL 9
REMARK VINA RESULT:    -2.771      8.033      9.234
REMARK INTER + INTRA:          -3.533
REMARK INTER:                  -3.411
REMARK INTRA:                  -0.122
REMARK UNBOUND:                -0.114
REMARK SMILES CCCCCC(=O)[O-]
REMARK SMILES IDX 4 1 5 2 6 3 7 4 8 5 3 6 2 7 1 8
REMARK H PARENT
REMARK Flexibility Score: inf
ROOT
ATOM      1  C   UNL     1      -1.726  -5.945   4.742  1.00  0.00     0.006 C 
ENDROOT
BRANCH   1   2
ATOM      2  C   UNL     1      -0.284  -6.460   4.870  1.00  0.00     0.053 C 
BRANCH   2   3
ATOM      3  C   UNL     1       0.643  -5.780   3.911  1.00  0.00     0.041 C 
ATOM      4  O   UNL     1       0.376  -5.758   2.680  1.00  0.00    -0.550 OA
ATOM      5  O   UNL     1       1.818  -5.201   4.371  1.00  0.00    -0.550 OA
ENDBRANCH   2   3
ENDBRANCH   1   2
BRANCH   1   6
ATOM      6  C   UNL     1      -1.936  -4.500   5.241  1.00  0.00     0.000 C 
BRANCH   6   7
ATOM      7  C   UNL     1      -3.148  -3.773   4.632  1.00  0.00    -0.003 C 
ATOM      8  C   UNL     1      -4.424  -4.616   4.655  1.00  0.00     0.004 C 
ENDBRANCH   6   7
ENDBRANCH   1   6
TORSDOF 4
ENDMDL
