MODEL 1
REMARK VINA RESULT:    -4.552      0.000      0.000
REMARK INTER + INTRA:         -13.533
REMARK INTER:                  -9.875
REMARK INTRA:                  -3.659
REMARK UNBOUND:                -3.659
REMARK SMILES CCCCCCCCCCCCCCCCCCCCCC(=O)[O-]
REMARK SMILES IDX 12 1 11 2 10 3 9 4 8 5 7 6 6 7 5 8 4 9 3 10 2 11 1 12 13 13
REMARK SMILES IDX 14 14 15 15 16 16 17 17 18 18 19 19 20 20 21 21 22 22 23 23
REMARK SMILES IDX 24 24
REMARK H PARENT
REMARK Flexibility Score: inf
ROOT
ATOM      1  C   UNL     1      15.939 -39.149  28.464  1.00  0.00     0.000 C 
ENDROOT
BRANCH   1   2
ATOM      2  C   UNL     1      17.056 -38.705  27.499  1.00  0.00     0.000 C 
BRANCH   2   3
ATOM      3  C   UNL     1      17.033 -39.369  26.111  1.00  0.00     0.000 C 
BRANCH   3   4
ATOM      4  C   UNL     1      18.371 -40.030  25.737  1.00  0.00    -0.000 C 
BRANCH   4   5
ATOM      5  C   UNL     1      18.203 -41.187  24.736  1.00  0.00    -0.000 C 
BRANCH   5   6
ATOM      6  C   UNL     1      19.018 -42.456  25.060  1.00  0.00    -0.000 C 
BRANCH   6   7
ATOM      7  C   UNL     1      18.194 -43.648  25.589  1.00  0.00    -0.000 C 
BRANCH   7   8
ATOM      8  C   UNL     1      16.733 -43.322  25.950  1.00  0.00    -0.000 C 
BRANCH   8   9
ATOM      9  C   UNL     1      16.120 -44.330  26.934  1.00  0.00    -0.000 C 
BRANCH   9  10
ATOM     10  C   UNL     1      17.162 -45.374  27.368  1.00  0.00    -0.000 C 
BRANCH  10  11
ATOM     11  C   UNL     1      17.407 -45.368  28.885  1.00  0.00    -0.003 C 
ATOM     12  C   UNL     1      16.123 -45.165  29.691  1.00  0.00     0.004 C 
ENDBRANCH  10  11
ENDBRANCH   9  10
ENDBRANCH   8   9
ENDBRANCH   7   8
ENDBRANCH   6   7
ENDBRANCH   5   6
ENDBRANCH   4   5
ENDBRANCH   3   4
ENDBRANCH   2   3
ENDBRANCH   1   2
BRANCH   1  13
ATOM     13  C   UNL     1      16.444 -40.075  29.584  1.00  0.00     0.000 C 
BRANCH  13  14
ATOM     14  C   UNL     1      16.737 -41.497  29.077  1.00  0.00     0.000 C 
BRANCH  14  15
ATOM     15  C   UNL     1      18.244 -41.806  29.039  1.00  0.00     0.000 C 
BRANCH  15  16
ATOM     16  C   UNL     1      18.922 -41.637  30.408  1.00  0.00     0.000 C 
BRANCH  16  17
ATOM     17  C   UNL     1      19.385 -42.974  31.013  1.00  0.00     0.000 C 
BRANCH  17  18
ATOM     18  C   UNL     1      18.414 -43.512  32.078  1.00  0.00     0.000 C 
BRANCH  18  19
ATOM     19  C   UNL     1      18.162 -42.562  33.265  1.00  0.00     0.000 C 
BRANCH  19  20
ATOM     20  C   UNL     1      16.672 -42.435  33.647  1.00  0.00     0.006 C 
BRANCH  20  21
ATOM     21  C   UNL     1      15.747 -42.623  32.436  1.00  0.00     0.053 C 
BRANCH  21  22
ATOM     22  C   UNL     1      14.633 -43.576  32.744  1.00  0.00     0.041 C 
ATOM     23  O   UNL     1      13.432 -43.221  32.606  1.00  0.00    -0.550 OA
ATOM     24  O   UNL     1      14.922 -44.852  33.215  1.00  0.00    -0.550 OA
ENDBRANCH  21  22
ENDBRANCH  20  21
ENDBRANCH  19  20
ENDBRANCH  18  19
ENDBRANCH  17  18
ENDBRANCH  16  17
ENDBRANCH  15  16
ENDBRANCH  14  15
ENDBRANCH  13  14
ENDBRANCH   1  13
TORSDOF 20
ENDMDL
MODEL 2
REMARK VINA RESULT:    -4.528      1.883      4.386
REMARK INTER + INTRA:         -13.481
REMARK INTER:                  -9.533
REMARK INTRA:                  -3.948
REMARK UNBOUND:                -3.659
REMARK SMILES CCCCCCCCCCCCCCCCCCCCCC(=O)[O-]
REMARK SMILES IDX 12 1 11 2 10 3 9 4 8 5 7 6 6 7 5 8 4 9 3 10 2 11 1 12 13 13
REMARK SMILES IDX 14 14 15 15 16 16 17 17 18 18 19 19 20 20 21 21 22 22 23 23
REMARK SMILES IDX 24 24
REMARK H PARENT
REMARK Flexibility Score: inf
ROOT
ATOM      1  C   UNL     1      18.479 -39.931  25.057  1.00  0.00     0.000 C 
ENDROOT
BRANCH   1   2
ATOM      2  C   UNL     1      18.068 -41.341  24.594  1.00  0.00     0.000 C 
BRANCH   2   3
ATOM      3  C   UNL     1      18.992 -42.484  25.052  1.00  0.00     0.000 C 
BRANCH   3   4
ATOM      4  C   UNL     1      18.226 -43.761  25.437  1.00  0.00    -0.000 C 
BRANCH   4   5
ATOM      5  C   UNL     1      16.795 -43.471  25.925  1.00  0.00    -0.000 C 
BRANCH   5   6
ATOM      6  C   UNL     1      16.457 -44.019  27.326  1.00  0.00    -0.000 C 
BRANCH   6   7
ATOM      7  C   UNL     1      17.119 -45.366  27.682  1.00  0.00    -0.000 C 
BRANCH   7   8
ATOM      8  C   UNL     1      17.422 -45.567  29.179  1.00  0.00    -0.000 C 
BRANCH   8   9
ATOM      9  C   UNL     1      16.583 -44.655  30.087  1.00  0.00    -0.000 C 
BRANCH   9  10
ATOM     10  C   UNL     1      16.770 -45.033  31.565  1.00  0.00    -0.000 C 
BRANCH  10  11
ATOM     11  C   UNL     1      16.078 -44.046  32.519  1.00  0.00    -0.003 C 
ATOM     12  C   UNL     1      15.455 -42.856  31.789  1.00  0.00     0.004 C 
ENDBRANCH  10  11
ENDBRANCH   9  10
ENDBRANCH   8   9
ENDBRANCH   7   8
ENDBRANCH   6   7
ENDBRANCH   5   6
ENDBRANCH   4   5
ENDBRANCH   3   4
ENDBRANCH   2   3
ENDBRANCH   1   2
BRANCH   1  13
ATOM     13  C   UNL     1      17.276 -39.036  25.402  1.00  0.00     0.000 C 
BRANCH  13  14
ATOM     14  C   UNL     1      15.958 -39.825  25.456  1.00  0.00     0.000 C 
BRANCH  14  15
ATOM     15  C   UNL     1      15.329 -39.820  26.860  1.00  0.00     0.000 C 
BRANCH  15  16
ATOM     16  C   UNL     1      16.072 -38.901  27.843  1.00  0.00     0.000 C 
BRANCH  16  17
ATOM     17  C   UNL     1      16.278 -39.547  29.223  1.00  0.00     0.000 C 
BRANCH  17  18
ATOM     18  C   UNL     1      16.914 -40.945  29.136  1.00  0.00     0.000 C 
BRANCH  18  19
ATOM     19  C   UNL     1      18.328 -40.978  28.524  1.00  0.00     0.000 C 
BRANCH  19  20
ATOM     20  C   UNL     1      19.198 -42.142  29.043  1.00  0.00     0.006 C 
BRANCH  20  21
ATOM     21  C   UNL     1      19.788 -41.849  30.429  1.00  0.00     0.053 C 
BRANCH  21  22
ATOM     22  C   UNL     1      19.860 -43.091  31.264  1.00  0.00     0.041 C 
ATOM     23  O   UNL     1      20.227 -44.184  30.754  1.00  0.00    -0.550 OA
ATOM     24  O   UNL     1      19.490 -43.049  32.604  1.00  0.00    -0.550 OA
ENDBRANCH  21  22
ENDBRANCH  20  21
ENDBRANCH  19  20
ENDBRANCH  18  19
ENDBRANCH  17  18
ENDBRANCH  16  17
ENDBRANCH  15  16
ENDBRANCH  14  15
ENDBRANCH  13  14
ENDBRANCH   1  13
TORSDOF 20
ENDMDL
MODEL 3
REMARK VINA RESULT:    -4.454      2.644      6.318
REMARK INTER + INTRA:         -13.321
REMARK INTER:                  -9.497
REMARK INTRA:                  -3.825
REMARK UNBOUND:                -3.659
REMARK SMILES CCCCCCCCCCCCCCCCCCCCCC(=O)[O-]
REMARK SMILES IDX 12 1 11 2 10 3 9 4 8 5 7 6 6 7 5 8 4 9 3 10 2 11 1 12 13 13
REMARK SMILES IDX 14 14 15 15 16 16 17 17 18 18 19 19 20 20 21 21 22 22 23 23
REMARK SMILES IDX 24 24
REMARK H PARENT
REMARK Flexibility Score: inf
ROOT
ATOM      1  C   UNL     1      18.200 -43.249  29.246  1.00  0.00     0.000 C 
ENDROOT
BRANCH   1   2
ATOM      2  C   UNL     1      18.159 -42.634  30.659  1.00  0.00     0.000 C 
BRANCH   2   3
ATOM      3  C   UNL     1      16.964 -41.705  30.941  1.00  0.00     0.000 C 
BRANCH   3   4
ATOM      4  C   UNL     1      16.666 -41.545  32.441  1.00  0.00    -0.000 C 
BRANCH   4   5
ATOM      5  C   UNL     1      16.782 -42.870  33.215  1.00  0.00    -0.000 C 
BRANCH   5   6
ATOM      6  C   UNL     1      15.524 -43.760  33.182  1.00  0.00    -0.000 C 
BRANCH   6   7
ATOM      7  C   UNL     1      15.658 -45.058  32.360  1.00  0.00    -0.000 C 
BRANCH   7   8
ATOM      8  C   UNL     1      14.785 -45.122  31.094  1.00  0.00    -0.000 C 
BRANCH   8   9
ATOM      9  C   UNL     1      13.684 -44.050  31.072  1.00  0.00    -0.000 C 
BRANCH   9  10
ATOM     10  C   UNL     1      13.857 -43.111  29.869  1.00  0.00    -0.000 C 
BRANCH  10  11
ATOM     11  C   UNL     1      12.636 -42.205  29.646  1.00  0.00    -0.003 C 
ATOM     12  C   UNL     1      11.856 -41.934  30.933  1.00  0.00     0.004 C 
ENDBRANCH  10  11
ENDBRANCH   9  10
ENDBRANCH   8   9
ENDBRANCH   7   8
ENDBRANCH   6   7
ENDBRANCH   5   6
ENDBRANCH   4   5
ENDBRANCH   3   4
ENDBRANCH   2   3
ENDBRANCH   1   2
BRANCH   1  13
ATOM     13  C   UNL     1      17.828 -44.742  29.229  1.00  0.00     0.000 C 
BRANCH  13  14
ATOM     14  C   UNL     1      17.080 -45.143  27.947  1.00  0.00     0.000 C 
BRANCH  14  15
ATOM     15  C   UNL     1      16.287 -43.972  27.340  1.00  0.00     0.000 C 
BRANCH  15  16
ATOM     16  C   UNL     1      16.525 -43.811  25.830  1.00  0.00     0.000 C 
BRANCH  16  17
ATOM     17  C   UNL     1      17.987 -44.064  25.427  1.00  0.00     0.000 C 
BRANCH  17  18
ATOM     18  C   UNL     1      18.852 -42.793  25.503  1.00  0.00     0.000 C 
BRANCH  18  19
ATOM     19  C   UNL     1      18.076 -41.470  25.356  1.00  0.00     0.000 C 
BRANCH  19  20
ATOM     20  C   UNL     1      18.237 -40.523  26.563  1.00  0.00     0.006 C 
BRANCH  20  21
ATOM     21  C   UNL     1      16.906 -40.285  27.291  1.00  0.00     0.053 C 
BRANCH  21  22
ATOM     22  C   UNL     1      17.001 -39.123  28.233  1.00  0.00     0.041 C 
ATOM     23  O   UNL     1      18.076 -38.475  28.342  1.00  0.00    -0.550 OA
ATOM     24  O   UNL     1      15.906 -38.774  29.016  1.00  0.00    -0.550 OA
ENDBRANCH  21  22
ENDBRANCH  20  21
ENDBRANCH  19  20
ENDBRANCH  18  19
ENDBRANCH  17  18
ENDBRANCH  16  17
ENDBRANCH  15  16
ENDBRANCH  14  15
ENDBRANCH  13  14
ENDBRANCH   1  13
TORSDOF 20
ENDMDL
MODEL 4
REMARK VINA RESULT:    -4.433      1.160      3.862
REMARK INTER + INTRA:         -13.274
REMARK INTER:                 -10.020
REMARK INTRA:                  -3.254
REMARK UNBOUND:                -3.659
REMARK SMILES CCCCCCCCCCCCCCCCCCCCCC(=O)[O-]
REMARK SMILES IDX 12 1 11 2 10 3 9 4 8 5 7 6 6 7 5 8 4 9 3 10 2 11 1 12 13 13
REMARK SMILES IDX 14 14 15 15 16 16 17 17 18 18 19 19 20 20 21 21 22 22 23 23
REMARK SMILES IDX 24 24
REMARK H PARENT
REMARK Flexibility Score: inf
ROOT
ATOM      1  C   UNL     1      18.143 -43.836  25.396  1.00  0.00     0.000 C 
ENDROOT
BRANCH   1   2
ATOM      2  C   UNL     1      18.944 -42.519  25.403  1.00  0.00     0.000 C 
BRANCH   2   3
ATOM      3  C   UNL     1      18.286 -41.340  24.664  1.00  0.00     0.000 C 
BRANCH   3   4
ATOM      4  C   UNL     1      18.458 -39.998  25.396  1.00  0.00    -0.000 C 
BRANCH   4   5
ATOM      5  C   UNL     1      17.125 -39.256  25.598  1.00  0.00    -0.000 C 
BRANCH   5   6
ATOM      6  C   UNL     1      15.869 -40.151  25.586  1.00  0.00    -0.000 C 
BRANCH   6   7
ATOM      7  C   UNL     1      15.433 -40.688  26.965  1.00  0.00    -0.000 C 
BRANCH   7   8
ATOM      8  C   UNL     1      16.186 -40.088  28.167  1.00  0.00    -0.000 C 
BRANCH   8   9
ATOM      9  C   UNL     1      17.170 -41.077  28.810  1.00  0.00    -0.000 C 
BRANCH   9  10
ATOM     10  C   UNL     1      18.526 -40.405  29.077  1.00  0.00    -0.000 C 
BRANCH  10  11
ATOM     11  C   UNL     1      18.441 -38.871  29.050  1.00  0.00    -0.003 C 
ATOM     12  C   UNL     1      19.746 -38.213  28.600  1.00  0.00     0.004 C 
ENDBRANCH  10  11
ENDBRANCH   9  10
ENDBRANCH   8   9
ENDBRANCH   7   8
ENDBRANCH   6   7
ENDBRANCH   5   6
ENDBRANCH   4   5
ENDBRANCH   3   4
ENDBRANCH   2   3
ENDBRANCH   1   2
BRANCH   1  13
ATOM     13  C   UNL     1      17.059 -43.886  26.486  1.00  0.00     0.000 C 
BRANCH  13  14
ATOM     14  C   UNL     1      17.164 -45.148  27.358  1.00  0.00     0.000 C 
BRANCH  14  15
ATOM     15  C   UNL     1      16.146 -45.151  28.511  1.00  0.00     0.000 C 
BRANCH  15  16
ATOM     16  C   UNL     1      16.811 -45.248  29.893  1.00  0.00     0.000 C 
BRANCH  16  17
ATOM     17  C   UNL     1      18.256 -44.719  29.897  1.00  0.00     0.000 C 
BRANCH  17  18
ATOM     18  C   UNL     1      18.520 -43.722  31.039  1.00  0.00     0.000 C 
BRANCH  18  19
ATOM     19  C   UNL     1      17.987 -44.158  32.418  1.00  0.00     0.000 C 
BRANCH  19  20
ATOM     20  C   UNL     1      17.047 -43.123  33.070  1.00  0.00     0.006 C 
BRANCH  20  21
ATOM     21  C   UNL     1      15.750 -42.935  32.270  1.00  0.00     0.053 C 
BRANCH  21  22
ATOM     22  C   UNL     1      14.643 -43.782  32.821  1.00  0.00     0.041 C 
ATOM     23  O   UNL     1      13.471 -43.327  32.904  1.00  0.00    -0.550 OA
ATOM     24  O   UNL     1      14.914 -45.069  33.271  1.00  0.00    -0.550 OA
ENDBRANCH  21  22
ENDBRANCH  20  21
ENDBRANCH  19  20
ENDBRANCH  18  19
ENDBRANCH  17  18
ENDBRANCH  16  17
ENDBRANCH  15  16
ENDBRANCH  14  15
ENDBRANCH  13  14
ENDBRANCH   1  13
TORSDOF 20
ENDMDL
MODEL 5
REMARK VINA RESULT:    -4.432      2.474      6.122
REMARK INTER + INTRA:         -13.273
REMARK INTER:                  -9.695
REMARK INTRA:                  -3.577
REMARK UNBOUND:                -3.659
REMARK SMILES CCCCCCCCCCCCCCCCCCCCCC(=O)[O-]
REMARK SMILES IDX 12 1 11 2 10 3 9 4 8 5 7 6 6 7 5 8 4 9 3 10 2 11 1 12 13 13
REMARK SMILES IDX 14 14 15 15 16 16 17 17 18 18 19 19 20 20 21 21 22 22 23 23
REMARK SMILES IDX 24 24
REMARK H PARENT
REMARK Flexibility Score: inf
ROOT
ATOM      1  C   UNL     1      17.226 -44.037  27.102  1.00  0.00     0.000 C 
ENDROOT
BRANCH   1   2
ATOM      2  C   UNL     1      17.027 -45.393  27.806  1.00  0.00     0.000 C 
BRANCH   2   3
ATOM      3  C   UNL     1      17.546 -45.470  29.253  1.00  0.00     0.000 C 
BRANCH   3   4
ATOM      4  C   UNL     1      18.096 -44.128  29.768  1.00  0.00    -0.000 C 
BRANCH   4   5
ATOM      5  C   UNL     1      19.360 -44.295  30.629  1.00  0.00    -0.000 C 
BRANCH   5   6
ATOM      6  C   UNL     1      19.107 -44.716  32.090  1.00  0.00    -0.000 C 
BRANCH   6   7
ATOM      7  C   UNL     1      17.835 -44.126  32.733  1.00  0.00    -0.000 C 
BRANCH   7   8
ATOM      8  C   UNL     1      17.964 -42.669  33.215  1.00  0.00    -0.000 C 
BRANCH   8   9
ATOM      9  C   UNL     1      16.988 -41.716  32.507  1.00  0.00    -0.000 C 
BRANCH   9  10
ATOM     10  C   UNL     1      15.611 -42.374  32.331  1.00  0.00    -0.000 C 
BRANCH  10  11
ATOM     11  C   UNL     1      15.092 -42.282  30.887  1.00  0.00    -0.003 C 
ATOM     12  C   UNL     1      14.530 -43.608  30.374  1.00  0.00     0.004 C 
ENDBRANCH  10  11
ENDBRANCH   9  10
ENDBRANCH   8   9
ENDBRANCH   7   8
ENDBRANCH   6   7
ENDBRANCH   5   6
ENDBRANCH   4   5
ENDBRANCH   3   4
ENDBRANCH   2   3
ENDBRANCH   1   2
BRANCH   1  13
ATOM     13  C   UNL     1      17.798 -44.175  25.680  1.00  0.00     0.000 C 
BRANCH  13  14
ATOM     14  C   UNL     1      18.650 -42.961  25.272  1.00  0.00     0.000 C 
BRANCH  14  15
ATOM     15  C   UNL     1      18.499 -41.784  26.251  1.00  0.00     0.000 C 
BRANCH  15  16
ATOM     16  C   UNL     1      18.424 -40.423  25.539  1.00  0.00     0.000 C 
BRANCH  16  17
ATOM     17  C   UNL     1      17.142 -39.643  25.879  1.00  0.00     0.000 C 
BRANCH  17  18
ATOM     18  C   UNL     1      16.005 -40.555  26.374  1.00  0.00     0.000 C 
BRANCH  18  19
ATOM     19  C   UNL     1      15.595 -40.340  27.844  1.00  0.00     0.000 C 
BRANCH  19  20
ATOM     20  C   UNL     1      16.100 -39.007  28.436  1.00  0.00     0.006 C 
BRANCH  20  21
ATOM     21  C   UNL     1      16.961 -39.221  29.689  1.00  0.00     0.053 C 
BRANCH  21  22
ATOM     22  C   UNL     1      18.373 -39.568  29.327  1.00  0.00     0.041 C 
ATOM     23  O   UNL     1      18.869 -40.672  29.678  1.00  0.00    -0.550 OA
ATOM     24  O   UNL     1      19.153 -38.655  28.627  1.00  0.00    -0.550 OA
ENDBRANCH  21  22
ENDBRANCH  20  21
ENDBRANCH  19  20
ENDBRANCH  18  19
ENDBRANCH  17  18
ENDBRANCH  16  17
ENDBRANCH  15  16
ENDBRANCH  14  15
ENDBRANCH  13  14
ENDBRANCH   1  13
TORSDOF 20
ENDMDL
MODEL 6
REMARK VINA RESULT:    -4.414      2.092      5.271
REMARK INTER + INTRA:         -13.233
REMARK INTER:                  -9.948
REMARK INTRA:                  -3.284
REMARK UNBOUND:                -3.659
REMARK SMILES CCCCCCCCCCCCCCCCCCCCCC(=O)[O-]
REMARK SMILES IDX 12 1 11 2 10 3 9 4 8 5 7 6 6 7 5 8 4 9 3 10 2 11 1 12 13 13
REMARK SMILES IDX 14 14 15 15 16 16 17 17 18 18 19 19 20 20 21 21 22 22 23 23
REMARK SMILES IDX 24 24
REMARK H PARENT
REMARK Flexibility Score: inf
ROOT
ATOM      1  C   UNL     1      17.372 -43.774  25.863  1.00  0.00     0.000 C 
ENDROOT
BRANCH   1   2
ATOM      2  C   UNL     1      16.685 -43.901  27.236  1.00  0.00     0.000 C 
BRANCH   2   3
ATOM      3  C   UNL     1      15.343 -43.159  27.376  1.00  0.00     0.000 C 
BRANCH   3   4
ATOM      4  C   UNL     1      14.285 -43.968  28.145  1.00  0.00    -0.000 C 
BRANCH   4   5
ATOM      5  C   UNL     1      14.890 -45.146  28.929  1.00  0.00    -0.000 C 
BRANCH   5   6
ATOM      6  C   UNL     1      14.543 -45.180  30.431  1.00  0.00    -0.000 C 
BRANCH   6   7
ATOM      7  C   UNL     1      15.753 -45.133  31.387  1.00  0.00    -0.000 C 
BRANCH   7   8
ATOM      8  C   UNL     1      15.403 -44.915  32.870  1.00  0.00    -0.000 C 
BRANCH   8   9
ATOM      9  C   UNL     1      15.287 -43.430  33.246  1.00  0.00    -0.000 C 
BRANCH   9  10
ATOM     10  C   UNL     1      16.650 -42.729  33.137  1.00  0.00    -0.000 C 
BRANCH  10  11
ATOM     11  C   UNL     1      16.585 -41.433  32.314  1.00  0.00    -0.003 C 
ATOM     12  C   UNL     1      16.157 -41.673  30.865  1.00  0.00     0.004 C 
ENDBRANCH  10  11
ENDBRANCH   9  10
ENDBRANCH   8   9
ENDBRANCH   7   8
ENDBRANCH   6   7
ENDBRANCH   5   6
ENDBRANCH   4   5
ENDBRANCH   3   4
ENDBRANCH   2   3
ENDBRANCH   1   2
BRANCH   1  13
ATOM     13  C   UNL     1      18.622 -42.878  25.897  1.00  0.00     0.000 C 
BRANCH  13  14
ATOM     14  C   UNL     1      18.388 -41.521  25.211  1.00  0.00     0.000 C 
BRANCH  14  15
ATOM     15  C   UNL     1      18.365 -40.354  26.213  1.00  0.00     0.000 C 
BRANCH  15  16
ATOM     16  C   UNL     1      18.212 -40.822  27.669  1.00  0.00     0.000 C 
BRANCH  16  17
ATOM     17  C   UNL     1      18.951 -39.914  28.667  1.00  0.00     0.000 C 
BRANCH  17  18
ATOM     18  C   UNL     1      19.836 -40.704  29.646  1.00  0.00     0.000 C 
BRANCH  18  19
ATOM     19  C   UNL     1      19.556 -42.219  29.696  1.00  0.00     0.000 C 
BRANCH  19  20
ATOM     20  C   UNL     1      19.787 -42.843  31.089  1.00  0.00     0.006 C 
BRANCH  20  21
ATOM     21  C   UNL     1      19.421 -44.333  31.121  1.00  0.00     0.053 C 
BRANCH  21  22
ATOM     22  C   UNL     1      19.506 -44.885  32.512  1.00  0.00     0.041 C 
ATOM     23  O   UNL     1      18.931 -45.967  32.806  1.00  0.00    -0.550 OA
ATOM     24  O   UNL     1      20.197 -44.185  33.494  1.00  0.00    -0.550 OA
ENDBRANCH  21  22
ENDBRANCH  20  21
ENDBRANCH  19  20
ENDBRANCH  18  19
ENDBRANCH  17  18
ENDBRANCH  16  17
ENDBRANCH  15  16
ENDBRANCH  14  15
ENDBRANCH  13  14
ENDBRANCH   1  13
TORSDOF 20
ENDMDL
MODEL 7
REMARK VINA RESULT:    -4.409      1.745      4.500
REMARK INTER + INTRA:         -13.224
REMARK INTER:                  -9.800
REMARK INTRA:                  -3.424
REMARK UNBOUND:                -3.659
REMARK SMILES CCCCCCCCCCCCCCCCCCCCCC(=O)[O-]
REMARK SMILES IDX 12 1 11 2 10 3 9 4 8 5 7 6 6 7 5 8 4 9 3 10 2 11 1 12 13 13
REMARK SMILES IDX 14 14 15 15 16 16 17 17 18 18 19 19 20 20 21 21 22 22 23 23
REMARK SMILES IDX 24 24
REMARK H PARENT
REMARK Flexibility Score: inf
ROOT
ATOM      1  C   UNL     1      17.035 -44.037  28.239  1.00  0.00     0.000 C 
ENDROOT
BRANCH   1   2
ATOM      2  C   UNL     1      17.110 -45.175  27.203  1.00  0.00     0.000 C 
BRANCH   2   3
ATOM      3  C   UNL     1      17.505 -44.747  25.778  1.00  0.00     0.000 C 
BRANCH   3   4
ATOM      4  C   UNL     1      17.317 -43.241  25.527  1.00  0.00    -0.000 C 
BRANCH   4   5
ATOM      5  C   UNL     1      18.647 -42.509  25.273  1.00  0.00    -0.000 C 
BRANCH   5   6
ATOM      6  C   UNL     1      18.518 -41.137  24.582  1.00  0.00    -0.000 C 
BRANCH   6   7
ATOM      7  C   UNL     1      18.028 -39.989  25.489  1.00  0.00    -0.000 C 
BRANCH   7   8
ATOM      8  C   UNL     1      18.373 -40.144  26.982  1.00  0.00    -0.000 C 
BRANCH   8   9
ATOM      9  C   UNL     1      17.301 -39.550  27.908  1.00  0.00    -0.000 C 
BRANCH   9  10
ATOM     10  C   UNL     1      16.092 -40.492  28.021  1.00  0.00    -0.000 C 
BRANCH  10  11
ATOM     11  C   UNL     1      15.611 -40.664  29.470  1.00  0.00    -0.003 C 
ATOM     12  C   UNL     1      16.763 -40.839  30.460  1.00  0.00     0.004 C 
ENDBRANCH  10  11
ENDBRANCH   9  10
ENDBRANCH   8   9
ENDBRANCH   7   8
ENDBRANCH   6   7
ENDBRANCH   5   6
ENDBRANCH   4   5
ENDBRANCH   3   4
ENDBRANCH   2   3
ENDBRANCH   1   2
BRANCH   1  13
ATOM     13  C   UNL     1      16.008 -44.305  29.353  1.00  0.00     0.000 C 
BRANCH  13  14
ATOM     14  C   UNL     1      15.090 -45.495  29.027  1.00  0.00     0.000 C 
BRANCH  14  15
ATOM     15  C   UNL     1      13.604 -45.097  28.995  1.00  0.00     0.000 C 
BRANCH  15  16
ATOM     16  C   UNL     1      13.380 -43.674  28.460  1.00  0.00     0.000 C 
BRANCH  16  17
ATOM     17  C   UNL     1      12.547 -42.802  29.416  1.00  0.00     0.000 C 
BRANCH  17  18
ATOM     18  C   UNL     1      12.529 -43.349  30.854  1.00  0.00     0.000 C 
BRANCH  18  19
ATOM     19  C   UNL     1      13.545 -42.693  31.810  1.00  0.00     0.000 C 
BRANCH  19  20
ATOM     20  C   UNL     1      14.064 -43.647  32.907  1.00  0.00     0.006 C 
BRANCH  20  21
ATOM     21  C   UNL     1      15.598 -43.701  32.947  1.00  0.00     0.053 C 
BRANCH  21  22
ATOM     22  C   UNL     1      16.094 -45.115  32.942  1.00  0.00     0.041 C 
ATOM     23  O   UNL     1      15.310 -46.067  33.199  1.00  0.00    -0.550 OA
ATOM     24  O   UNL     1      17.434 -45.379  32.683  1.00  0.00    -0.550 OA
ENDBRANCH  21  22
ENDBRANCH  20  21
ENDBRANCH  19  20
ENDBRANCH  18  19
ENDBRANCH  17  18
ENDBRANCH  16  17
ENDBRANCH  15  16
ENDBRANCH  14  15
ENDBRANCH  13  14
ENDBRANCH   1  13
TORSDOF 20
ENDMDL
MODEL 8
REMARK VINA RESULT:    -4.402      2.478      5.302
REMARK INTER + INTRA:         -13.207
REMARK INTER:                  -9.449
REMARK INTRA:                  -3.758
REMARK UNBOUND:                -3.659
REMARK SMILES CCCCCCCCCCCCCCCCCCCCCC(=O)[O-]
REMARK SMILES IDX 12 1 11 2 10 3 9 4 8 5 7 6 6 7 5 8 4 9 3 10 2 11 1 12 13 13
REMARK SMILES IDX 14 14 15 15 16 16 17 17 18 18 19 19 20 20 21 21 22 22 23 23
REMARK SMILES IDX 24 24
REMARK H PARENT
REMARK Flexibility Score: inf
ROOT
ATOM      1  C   UNL     1      18.311 -41.617  24.921  1.00  0.00     0.000 C 
ENDROOT
BRANCH   1   2
ATOM      2  C   UNL     1      18.580 -42.901  25.730  1.00  0.00     0.000 C 
BRANCH   2   3
ATOM      3  C   UNL     1      17.566 -44.040  25.519  1.00  0.00     0.000 C 
BRANCH   3   4
ATOM      4  C   UNL     1      16.767 -44.379  26.789  1.00  0.00    -0.000 C 
BRANCH   4   5
ATOM      5  C   UNL     1      17.460 -45.442  27.661  1.00  0.00    -0.000 C 
BRANCH   5   6
ATOM      6  C   UNL     1      17.018 -45.467  29.138  1.00  0.00    -0.000 C 
BRANCH   6   7
ATOM      7  C   UNL     1      15.541 -45.099  29.388  1.00  0.00    -0.000 C 
BRANCH   7   8
ATOM      8  C   UNL     1      15.257 -44.433  30.746  1.00  0.00    -0.000 C 
BRANCH   8   9
ATOM      9  C   UNL     1      15.959 -45.137  31.917  1.00  0.00    -0.000 C 
BRANCH   9  10
ATOM     10  C   UNL     1      16.918 -44.177  32.639  1.00  0.00    -0.000 C 
BRANCH  10  11
ATOM     11  C   UNL     1      18.296 -44.805  32.901  1.00  0.00    -0.003 C 
ATOM     12  C   UNL     1      19.314 -44.475  31.808  1.00  0.00     0.004 C 
ENDBRANCH  10  11
ENDBRANCH   9  10
ENDBRANCH   8   9
ENDBRANCH   7   8
ENDBRANCH   6   7
ENDBRANCH   5   6
ENDBRANCH   4   5
ENDBRANCH   3   4
ENDBRANCH   2   3
ENDBRANCH   1   2
BRANCH   1  13
ATOM     13  C   UNL     1      18.503 -40.334  25.748  1.00  0.00     0.000 C 
BRANCH  13  14
ATOM     14  C   UNL     1      17.455 -39.260  25.411  1.00  0.00     0.000 C 
BRANCH  14  15
ATOM     15  C   UNL     1      16.106 -39.868  24.988  1.00  0.00     0.000 C 
BRANCH  15  16
ATOM     16  C   UNL     1      15.254 -40.318  26.186  1.00  0.00     0.000 C 
BRANCH  16  17
ATOM     17  C   UNL     1      15.237 -39.285  27.326  1.00  0.00     0.000 C 
BRANCH  17  18
ATOM     18  C   UNL     1      15.942 -39.790  28.597  1.00  0.00     0.000 C 
BRANCH  18  19
ATOM     19  C   UNL     1      16.216 -41.307  28.627  1.00  0.00     0.000 C 
BRANCH  19  20
ATOM     20  C   UNL     1      17.207 -41.732  29.731  1.00  0.00     0.006 C 
BRANCH  20  21
ATOM     21  C   UNL     1      18.608 -42.017  29.171  1.00  0.00     0.053 C 
BRANCH  21  22
ATOM     22  C   UNL     1      19.595 -40.984  29.621  1.00  0.00     0.041 C 
ATOM     23  O   UNL     1      19.496 -39.792  29.227  1.00  0.00    -0.550 OA
ATOM     24  O   UNL     1      20.646 -41.348  30.456  1.00  0.00    -0.550 OA
ENDBRANCH  21  22
ENDBRANCH  20  21
ENDBRANCH  19  20
ENDBRANCH  18  19
ENDBRANCH  17  18
ENDBRANCH  16  17
ENDBRANCH  15  16
ENDBRANCH  14  15
ENDBRANCH  13  14
ENDBRANCH   1  13
TORSDOF 20
ENDMDL
MODEL 9
REMARK VINA RESULT:    -4.373      1.978      5.900
REMARK INTER + INTRA:         -13.145
REMARK INTER:                  -9.732
REMARK INTRA:                  -3.413
REMARK UNBOUND:                -3.659
REMARK SMILES CCCCCCCCCCCCCCCCCCCCCC(=O)[O-]
REMARK SMILES IDX 12 1 11 2 10 3 9 4 8 5 7 6 6 7 5 8 4 9 3 10 2 11 1 12 13 13
REMARK SMILES IDX 14 14 15 15 16 16 17 17 18 18 19 19 20 20 21 21 22 22 23 23
REMARK SMILES IDX 24 24
REMARK H PARENT
REMARK Flexibility Score: inf
ROOT
ATOM      1  C   UNL     1      17.118 -45.321  27.931  1.00  0.00     0.000 C 
ENDROOT
BRANCH   1   2
ATOM      2  C   UNL     1      16.413 -45.147  29.291  1.00  0.00     0.000 C 
BRANCH   2   3
ATOM      3  C   UNL     1      14.887 -45.345  29.274  1.00  0.00     0.000 C 
BRANCH   3   4
ATOM      4  C   UNL     1      14.106 -44.024  29.385  1.00  0.00    -0.000 C 
BRANCH   4   5
ATOM      5  C   UNL     1      13.304 -43.916  30.694  1.00  0.00    -0.000 C 
BRANCH   5   6
ATOM      6  C   UNL     1      13.939 -43.022  31.778  1.00  0.00    -0.000 C 
BRANCH   6   7
ATOM      7  C   UNL     1      14.591 -43.778  32.954  1.00  0.00    -0.000 C 
BRANCH   7   8
ATOM      8  C   UNL     1      16.110 -43.996  32.827  1.00  0.00    -0.000 C 
BRANCH   8   9
ATOM      9  C   UNL     1      16.895 -42.681  32.708  1.00  0.00    -0.000 C 
BRANCH   9  10
ATOM     10  C   UNL     1      18.405 -42.951  32.610  1.00  0.00    -0.000 C 
BRANCH  10  11
ATOM     11  C   UNL     1      18.874 -43.160  31.161  1.00  0.00    -0.003 C 
ATOM     12  C   UNL     1      19.806 -44.363  31.009  1.00  0.00     0.004 C 
ENDBRANCH  10  11
ENDBRANCH   9  10
ENDBRANCH   8   9
ENDBRANCH   7   8
ENDBRANCH   6   7
ENDBRANCH   5   6
ENDBRANCH   4   5
ENDBRANCH   3   4
ENDBRANCH   2   3
ENDBRANCH   1   2
BRANCH   1  13
ATOM     13  C   UNL     1      16.943 -44.106  27.004  1.00  0.00     0.000 C 
BRANCH  13  14
ATOM     14  C   UNL     1      17.759 -44.238  25.707  1.00  0.00     0.000 C 
BRANCH  14  15
ATOM     15  C   UNL     1      18.504 -42.941  25.348  1.00  0.00     0.000 C 
BRANCH  15  16
ATOM     16  C   UNL     1      18.709 -42.017  26.560  1.00  0.00     0.000 C 
BRANCH  16  17
ATOM     17  C   UNL     1      18.276 -40.567  26.283  1.00  0.00     0.000 C 
BRANCH  17  18
ATOM     18  C   UNL     1      18.557 -39.626  27.468  1.00  0.00     0.000 C 
BRANCH  18  19
ATOM     19  C   UNL     1      18.681 -40.326  28.836  1.00  0.00     0.000 C 
BRANCH  19  20
ATOM     20  C   UNL     1      17.466 -40.094  29.759  1.00  0.00     0.006 C 
BRANCH  20  21
ATOM     21  C   UNL     1      16.253 -40.936  29.340  1.00  0.00     0.053 C 
BRANCH  21  22
ATOM     22  C   UNL     1      15.089 -40.068  28.971  1.00  0.00     0.041 C 
ATOM     23  O   UNL     1      15.275 -38.896  28.546  1.00  0.00    -0.550 OA
ATOM     24  O   UNL     1      13.792 -40.544  29.127  1.00  0.00    -0.550 OA
ENDBRANCH  21  22
ENDBRANCH  20  21
ENDBRANCH  19  20
ENDBRANCH  18  19
ENDBRANCH  17  18
ENDBRANCH  16  17
ENDBRANCH  15  16
ENDBRANCH  14  15
ENDBRANCH  13  14
ENDBRANCH   1  13
TORSDOF 20
ENDMDL
