MODEL 1
REMARK VINA RESULT:    -3.943      0.000      0.000
REMARK INTER + INTRA:          -5.912
REMARK INTER:                  -5.557
REMARK INTRA:                  -0.356
REMARK UNBOUND:                -0.356
REMARK SMILES C=CCCCCCCC(=O)[O-]
REMARK SMILES IDX 6 1 7 2 8 3 9 4 10 5 11 6 5 7 4 8 3 9 2 10 1 11
REMARK H PARENT
REMARK Flexibility Score: inf
ROOT
ATOM      1  C   UNL     1     100.629 -69.200   6.644  1.00  0.00     0.000 C 
ENDROOT
BRANCH   1   2
ATOM      2  C   UNL     1      99.889 -69.392   5.310  1.00  0.00     0.006 C 
BRANCH   2   3
ATOM      3  C   UNL     1      99.506 -68.063   4.648  1.00  0.00     0.053 C 
BRANCH   3   4
ATOM      4  C   UNL     1      98.387 -68.267   3.677  1.00  0.00     0.041 C 
ATOM      5  O   UNL     1      98.529 -69.049   2.699  1.00  0.00    -0.550 OA
ATOM      6  O   UNL     1      97.167 -67.632   3.878  1.00  0.00    -0.550 OA
ENDBRANCH   3   4
ENDBRANCH   2   3
ENDBRANCH   1   2
BRANCH   1   7
ATOM      7  C   UNL     1     100.963 -67.725   6.926  1.00  0.00     0.000 C 
BRANCH   7   8
ATOM      8  C   UNL     1     101.002 -67.407   8.430  1.00  0.00     0.004 C 
BRANCH   8   9
ATOM      9  C   UNL     1     100.979 -68.672   9.303  1.00  0.00     0.027 C 
BRANCH   9  10
ATOM     10  C   UNL     1     100.287 -68.412  10.613  1.00  0.00    -0.035 C 
ATOM     11  C   UNL     1     100.059 -67.171  11.054  1.00  0.00     0.004 C 
ENDBRANCH   9  10
ENDBRANCH   8   9
ENDBRANCH   7   8
ENDBRANCH   1   7
TORSDOF 7
ENDMDL
MODEL 2
REMARK VINA RESULT:    -3.715      0.695      1.272
REMARK INTER + INTRA:          -5.591
REMARK INTER:                  -5.304
REMARK INTRA:                  -0.287
REMARK UNBOUND:                -0.356
REMARK SMILES C=CCCCCCCC(=O)[O-]
REMARK SMILES IDX 6 1 7 2 8 3 9 4 10 5 11 6 5 7 4 8 3 9 2 10 1 11
REMARK H PARENT
REMARK Flexibility Score: inf
ROOT
ATOM      1  C   UNL     1     100.269 -69.540   6.509  1.00  0.00     0.000 C 
ENDROOT
BRANCH   1   2
ATOM      2  C   UNL     1      99.891 -69.535   5.020  1.00  0.00     0.006 C 
BRANCH   2   3
ATOM      3  C   UNL     1      99.469 -68.148   4.521  1.00  0.00     0.053 C 
BRANCH   3   4
ATOM      4  C   UNL     1      98.312 -68.262   3.579  1.00  0.00     0.041 C 
ATOM      5  O   UNL     1      97.230 -67.665   3.827  1.00  0.00    -0.550 OA
ATOM      6  O   UNL     1      98.444 -68.987   2.401  1.00  0.00    -0.550 OA
ENDBRANCH   3   4
ENDBRANCH   2   3
ENDBRANCH   1   2
BRANCH   1   7
ATOM      7  C   UNL     1     101.725 -69.106   6.750  1.00  0.00     0.000 C 
BRANCH   7   8
ATOM      8  C   UNL     1     102.012 -68.805   8.231  1.00  0.00     0.004 C 
BRANCH   8   9
ATOM      9  C   UNL     1     100.880 -68.014   8.905  1.00  0.00     0.027 C 
BRANCH   9  10
ATOM     10  C   UNL     1     100.527 -68.606  10.242  1.00  0.00    -0.035 C 
ATOM     11  C   UNL     1     100.071 -67.852  11.247  1.00  0.00     0.004 C 
ENDBRANCH   9  10
ENDBRANCH   8   9
ENDBRANCH   7   8
ENDBRANCH   1   7
TORSDOF 7
ENDMDL
MODEL 3
REMARK VINA RESULT:    -3.687      2.039      3.447
REMARK INTER + INTRA:          -5.551
REMARK INTER:                  -5.059
REMARK INTRA:                  -0.492
REMARK UNBOUND:                -0.356
REMARK SMILES C=CCCCCCCC(=O)[O-]
REMARK SMILES IDX 6 1 7 2 8 3 9 4 10 5 11 6 5 7 4 8 3 9 2 10 1 11
REMARK H PARENT
REMARK Flexibility Score: inf
ROOT
ATOM      1  C   UNL     1      98.761 -66.696   4.174  1.00  0.00     0.000 C 
ENDROOT
BRANCH   1   2
ATOM      2  C   UNL     1      98.141 -67.451   2.988  1.00  0.00     0.006 C 
BRANCH   2   3
ATOM      3  C   UNL     1      98.826 -67.125   1.655  1.00  0.00     0.053 C 
BRANCH   3   4
ATOM      4  C   UNL     1      99.686 -68.267   1.217  1.00  0.00     0.041 C 
ATOM      5  O   UNL     1     100.923 -68.260   1.459  1.00  0.00    -0.550 OA
ATOM      6  O   UNL     1      99.115 -69.365   0.585  1.00  0.00    -0.550 OA
ENDBRANCH   3   4
ENDBRANCH   2   3
ENDBRANCH   1   2
BRANCH   1   7
ATOM      7  C   UNL     1      99.895 -67.485   4.849  1.00  0.00     0.000 C 
BRANCH   7   8
ATOM      8  C   UNL     1      99.598 -68.991   4.929  1.00  0.00     0.004 C 
BRANCH   8   9
ATOM      9  C   UNL     1     100.349 -69.683   6.078  1.00  0.00     0.027 C 
BRANCH   9  10
ATOM     10  C   UNL     1     101.057 -68.678   6.944  1.00  0.00    -0.035 C 
ATOM     11  C   UNL     1     100.955 -68.701   8.277  1.00  0.00     0.004 C 
ENDBRANCH   9  10
ENDBRANCH   8   9
ENDBRANCH   7   8
ENDBRANCH   1   7
TORSDOF 7
ENDMDL
MODEL 4
REMARK VINA RESULT:    -3.663      1.695      2.627
REMARK INTER + INTRA:          -5.518
REMARK INTER:                  -4.902
REMARK INTRA:                  -0.616
REMARK UNBOUND:                -0.356
REMARK SMILES C=CCCCCCCC(=O)[O-]
REMARK SMILES IDX 6 1 7 2 8 3 9 4 10 5 11 6 5 7 4 8 3 9 2 10 1 11
REMARK H PARENT
REMARK Flexibility Score: inf
ROOT
ATOM      1  C   UNL     1     101.070 -66.938   7.447  1.00  0.00     0.000 C 
ENDROOT
BRANCH   1   2
ATOM      2  C   UNL     1     101.618 -68.360   7.249  1.00  0.00     0.006 C 
BRANCH   2   3
ATOM      3  C   UNL     1     100.552 -69.341   6.746  1.00  0.00     0.053 C 
BRANCH   3   4
ATOM      4  C   UNL     1     100.654 -69.507   5.263  1.00  0.00     0.041 C 
ATOM      5  O   UNL     1     101.750 -69.831   4.734  1.00  0.00    -0.550 OA
ATOM      6  O   UNL     1      99.525 -69.353   4.468  1.00  0.00    -0.550 OA
ENDBRANCH   3   4
ENDBRANCH   2   3
ENDBRANCH   1   2
BRANCH   1   7
ATOM      7  C   UNL     1     101.447 -66.345   8.815  1.00  0.00     0.000 C 
BRANCH   7   8
ATOM      8  C   UNL     1     100.227 -66.165   9.734  1.00  0.00     0.004 C 
BRANCH   8   9
ATOM      9  C   UNL     1     100.347 -66.965  11.041  1.00  0.00     0.027 C 
BRANCH   9  10
ATOM     10  C   UNL     1     100.318 -68.445  10.774  1.00  0.00    -0.035 C 
ATOM     11  C   UNL     1     101.331 -69.243  11.124  1.00  0.00     0.004 C 
ENDBRANCH   9  10
ENDBRANCH   8   9
ENDBRANCH   7   8
ENDBRANCH   1   7
TORSDOF 7
ENDMDL
MODEL 5
REMARK VINA RESULT:    -3.663      1.104      1.700
REMARK INTER + INTRA:          -5.517
REMARK INTER:                  -5.263
REMARK INTRA:                  -0.254
REMARK UNBOUND:                -0.356
REMARK SMILES C=CCCCCCCC(=O)[O-]
REMARK SMILES IDX 6 1 7 2 8 3 9 4 10 5 11 6 5 7 4 8 3 9 2 10 1 11
REMARK H PARENT
REMARK Flexibility Score: inf
ROOT
ATOM      1  C   UNL     1     101.097 -68.956   7.158  1.00  0.00     0.000 C 
ENDROOT
BRANCH   1   2
ATOM      2  C   UNL     1     100.691 -68.254   5.852  1.00  0.00     0.006 C 
BRANCH   2   3
ATOM      3  C   UNL     1      99.643 -69.042   5.057  1.00  0.00     0.053 C 
BRANCH   3   4
ATOM      4  C   UNL     1      99.327 -68.342   3.773  1.00  0.00     0.041 C 
ATOM      5  O   UNL     1      99.685 -67.147   3.596  1.00  0.00    -0.550 OA
ATOM      6  O   UNL     1      98.681 -69.025   2.750  1.00  0.00    -0.550 OA
ENDBRANCH   3   4
ENDBRANCH   2   3
ENDBRANCH   1   2
BRANCH   1   7
ATOM      7  C   UNL     1     100.950 -68.043   8.388  1.00  0.00     0.000 C 
BRANCH   7   8
ATOM      8  C   UNL     1     100.747 -68.837   9.689  1.00  0.00     0.004 C 
BRANCH   8   9
ATOM      9  C   UNL     1     100.253 -67.958  10.849  1.00  0.00     0.027 C 
BRANCH   9  10
ATOM     10  C   UNL     1     100.123 -66.522  10.421  1.00  0.00    -0.035 C 
ATOM     11  C   UNL     1      99.714 -65.570  11.266  1.00  0.00     0.004 C 
ENDBRANCH   9  10
ENDBRANCH   8   9
ENDBRANCH   7   8
ENDBRANCH   1   7
TORSDOF 7
ENDMDL
MODEL 6
REMARK VINA RESULT:    -3.646      2.334      3.975
REMARK INTER + INTRA:          -5.493
REMARK INTER:                  -5.208
REMARK INTRA:                  -0.285
REMARK UNBOUND:                -0.356
REMARK SMILES C=CCCCCCCC(=O)[O-]
REMARK SMILES IDX 6 1 7 2 8 3 9 4 10 5 11 6 5 7 4 8 3 9 2 10 1 11
REMARK H PARENT
REMARK Flexibility Score: inf
ROOT
ATOM      1  C   UNL     1      98.698 -67.557   2.948  1.00  0.00     0.000 C 
ENDROOT
BRANCH   1   2
ATOM      2  C   UNL     1      99.699 -68.150   1.943  1.00  0.00     0.006 C 
BRANCH   2   3
ATOM      3  C   UNL     1      99.304 -67.883   0.486  1.00  0.00     0.053 C 
BRANCH   3   4
ATOM      4  C   UNL     1      98.790 -69.135  -0.153  1.00  0.00     0.041 C 
ATOM      5  O   UNL     1      98.657 -70.186   0.527  1.00  0.00    -0.550 OA
ATOM      6  O   UNL     1      98.410 -69.127  -1.490  1.00  0.00    -0.550 OA
ENDBRANCH   3   4
ENDBRANCH   2   3
ENDBRANCH   1   2
BRANCH   1   7
ATOM      7  C   UNL     1      98.747 -68.261   4.314  1.00  0.00     0.000 C 
BRANCH   7   8
ATOM      8  C   UNL     1     100.066 -69.019   4.539  1.00  0.00     0.004 C 
BRANCH   8   9
ATOM      9  C   UNL     1     100.206 -69.552   5.974  1.00  0.00     0.027 C 
BRANCH   9  10
ATOM     10  C   UNL     1     100.935 -68.568   6.848  1.00  0.00    -0.035 C 
ATOM     11  C   UNL     1     100.992 -68.713   8.176  1.00  0.00     0.004 C 
ENDBRANCH   9  10
ENDBRANCH   8   9
ENDBRANCH   7   8
ENDBRANCH   1   7
TORSDOF 7
ENDMDL
MODEL 7
REMARK VINA RESULT:    -3.622      3.550      5.795
REMARK INTER + INTRA:          -5.460
REMARK INTER:                  -5.101
REMARK INTRA:                  -0.359
REMARK UNBOUND:                -0.356
REMARK SMILES C=CCCCCCCC(=O)[O-]
REMARK SMILES IDX 6 1 7 2 8 3 9 4 10 5 11 6 5 7 4 8 3 9 2 10 1 11
REMARK H PARENT
REMARK Flexibility Score: inf
ROOT
ATOM      1  C   UNL     1     101.122 -68.693   6.889  1.00  0.00     0.000 C 
ENDROOT
BRANCH   1   2
ATOM      2  C   UNL     1     101.016 -68.821   8.417  1.00  0.00     0.006 C 
BRANCH   2   3
ATOM      3  C   UNL     1     100.703 -67.486   9.103  1.00  0.00     0.053 C 
BRANCH   3   4
ATOM      4  C   UNL     1     100.226 -67.717  10.502  1.00  0.00     0.041 C 
ATOM      5  O   UNL     1     100.214 -68.881  10.985  1.00  0.00    -0.550 OA
ATOM      6  O   UNL     1      99.841 -66.640  11.292  1.00  0.00    -0.550 OA
ENDBRANCH   3   4
ENDBRANCH   2   3
ENDBRANCH   1   2
BRANCH   1   7
ATOM      7  C   UNL     1     100.261 -69.730   6.149  1.00  0.00     0.000 C 
BRANCH   7   8
ATOM      8  C   UNL     1      99.600 -69.154   4.886  1.00  0.00     0.004 C 
BRANCH   8   9
ATOM      9  C   UNL     1      99.853 -67.647   4.720  1.00  0.00     0.027 C 
BRANCH   9  10
ATOM     10  C   UNL     1      98.635 -66.951   4.177  1.00  0.00    -0.035 C 
ATOM     11  C   UNL     1      97.534 -67.626   3.833  1.00  0.00     0.004 C 
ENDBRANCH   9  10
ENDBRANCH   8   9
ENDBRANCH   7   8
ENDBRANCH   1   7
TORSDOF 7
ENDMDL
MODEL 8
REMARK VINA RESULT:    -3.467      3.589      5.525
REMARK INTER + INTRA:          -5.242
REMARK INTER:                  -4.709
REMARK INTRA:                  -0.533
REMARK UNBOUND:                -0.356
REMARK SMILES C=CCCCCCCC(=O)[O-]
REMARK SMILES IDX 6 1 7 2 8 3 9 4 10 5 11 6 5 7 4 8 3 9 2 10 1 11
REMARK H PARENT
REMARK Flexibility Score: inf
ROOT
ATOM      1  C   UNL     1      98.854 -65.783   1.432  1.00  0.00     0.000 C 
ENDROOT
BRANCH   1   2
ATOM      2  C   UNL     1      98.753 -66.742   0.235  1.00  0.00     0.006 C 
BRANCH   2   3
ATOM      3  C   UNL     1      99.543 -68.039   0.447  1.00  0.00     0.053 C 
BRANCH   3   4
ATOM      4  C   UNL     1      98.818 -69.197  -0.163  1.00  0.00     0.041 C 
ATOM      5  O   UNL     1      98.565 -70.221   0.524  1.00  0.00    -0.550 OA
ATOM      6  O   UNL     1      98.378 -69.125  -1.480  1.00  0.00    -0.550 OA
ENDBRANCH   3   4
ENDBRANCH   2   3
ENDBRANCH   1   2
BRANCH   1   7
ATOM      7  C   UNL     1      97.634 -65.872   2.364  1.00  0.00     0.000 C 
BRANCH   7   8
ATOM      8  C   UNL     1      98.009 -66.332   3.783  1.00  0.00     0.004 C 
BRANCH   8   9
ATOM      9  C   UNL     1      97.948 -67.859   3.946  1.00  0.00     0.027 C 
BRANCH   9  10
ATOM     10  C   UNL     1      99.326 -68.440   4.109  1.00  0.00    -0.035 C 
ATOM     11  C   UNL     1      99.651 -69.195   5.164  1.00  0.00     0.004 C 
ENDBRANCH   9  10
ENDBRANCH   8   9
ENDBRANCH   7   8
ENDBRANCH   1   7
TORSDOF 7
ENDMDL
MODEL 9
REMARK VINA RESULT:    -3.308      4.298      6.646
REMARK INTER + INTRA:          -5.017
REMARK INTER:                  -4.574
REMARK INTRA:                  -0.442
REMARK UNBOUND:                -0.356
REMARK SMILES C=CCCCCCCC(=O)[O-]
REMARK SMILES IDX 6 1 7 2 8 3 9 4 10 5 11 6 5 7 4 8 3 9 2 10 1 11
REMARK H PARENT
REMARK Flexibility Score: inf
ROOT
ATOM      1  C   UNL     1      98.761 -69.246   0.135  1.00  0.00     0.000 C 
ENDROOT
BRANCH   1   2
ATOM      2  C   UNL     1      98.339 -69.169  -1.341  1.00  0.00     0.006 C 
BRANCH   2   3
ATOM      3  C   UNL     1      98.893 -67.928  -2.051  1.00  0.00     0.053 C 
BRANCH   3   4
ATOM      4  C   UNL     1      97.797 -66.946  -2.318  1.00  0.00     0.041 C 
ATOM      5  O   UNL     1      97.628 -65.959  -1.554  1.00  0.00    -0.550 OA
ATOM      6  O   UNL     1      96.991 -67.093  -3.441  1.00  0.00    -0.550 OA
ENDBRANCH   3   4
ENDBRANCH   2   3
ENDBRANCH   1   2
BRANCH   1   7
ATOM      7  C   UNL     1      99.893 -68.263   0.477  1.00  0.00     0.000 C 
BRANCH   7   8
ATOM      8  C   UNL     1      99.959 -67.941   1.979  1.00  0.00     0.004 C 
BRANCH   8   9
ATOM      9  C   UNL     1      98.567 -67.783   2.613  1.00  0.00     0.027 C 
BRANCH   9  10
ATOM     10  C   UNL     1      98.552 -68.311   4.021  1.00  0.00    -0.035 C 
ATOM     11  C   UNL     1      99.667 -68.730   4.629  1.00  0.00     0.004 C 
ENDBRANCH   9  10
ENDBRANCH   8   9
ENDBRANCH   7   8
ENDBRANCH   1   7
TORSDOF 7
ENDMDL
