MODEL 1
REMARK VINA RESULT:    -3.939      0.000      0.000
REMARK INTER + INTRA:          -4.630
REMARK INTER:                  -4.400
REMARK INTRA:                  -0.231
REMARK UNBOUND:                -0.231
REMARK SMILES O=C([O-])c1ccccc1C(=O)[O-]
REMARK SMILES IDX 4 1 9 2 5 3 8 4 6 5 7 6 2 7 1 8 3 9 10 10 11 11 12 12
REMARK H PARENT
REMARK Flexibility Score: inf
ROOT
ATOM      1  C   UNL     1      56.143  27.688  50.778  1.00  0.00     0.006 A 
ATOM      2  C   UNL     1      55.114  28.673  50.787  1.00  0.00     0.006 A 
ATOM      3  C   UNL     1      55.825  26.370  50.401  1.00  0.00     0.010 A 
ATOM      4  C   UNL     1      53.823  28.315  50.355  1.00  0.00     0.010 A 
ATOM      5  C   UNL     1      54.533  26.034  49.998  1.00  0.00     0.001 A 
ATOM      6  C   UNL     1      53.537  27.007  49.965  1.00  0.00     0.001 A 
ENDROOT
BRANCH   1   7
ATOM      7  C   UNL     1      57.559  27.998  51.084  1.00  0.00     0.072 C 
ATOM      8  O   UNL     1      58.026  27.808  52.239  1.00  0.00    -0.545 OA
ATOM      9  O   UNL     1      58.373  28.569  50.112  1.00  0.00    -0.545 OA
ENDBRANCH   1   7
BRANCH   2  10
ATOM     10  C   UNL     1      55.316  30.048  51.296  1.00  0.00     0.072 C 
ATOM     11  O   UNL     1      55.570  30.997  50.508  1.00  0.00    -0.545 OA
ATOM     12  O   UNL     1      55.293  30.296  52.664  1.00  0.00    -0.545 OA
ENDBRANCH   2  10
TORSDOF 2
ENDMDL
MODEL 2
REMARK VINA RESULT:    -3.931      0.188      3.143
REMARK INTER + INTRA:          -4.622
REMARK INTER:                  -4.394
REMARK INTRA:                  -0.228
REMARK UNBOUND:                -0.231
REMARK SMILES O=C([O-])c1ccccc1C(=O)[O-]
REMARK SMILES IDX 4 1 9 2 5 3 8 4 6 5 7 6 2 7 1 8 3 9 10 10 11 11 12 12
REMARK H PARENT
REMARK Flexibility Score: inf
ROOT
ATOM      1  C   UNL     1      55.016  28.675  50.761  1.00  0.00     0.006 A 
ATOM      2  C   UNL     1      56.114  27.768  50.780  1.00  0.00     0.006 A 
ATOM      3  C   UNL     1      53.763  28.223  50.309  1.00  0.00     0.010 A 
ATOM      4  C   UNL     1      55.898  26.427  50.409  1.00  0.00     0.010 A 
ATOM      5  C   UNL     1      53.579  26.896  49.925  1.00  0.00     0.001 A 
ATOM      6  C   UNL     1      54.641  25.997  49.985  1.00  0.00     0.001 A 
ENDROOT
BRANCH   1   7
ATOM      7  C   UNL     1      55.111  30.067  51.261  1.00  0.00     0.072 C 
ATOM      8  O   UNL     1      55.377  31.017  50.477  1.00  0.00    -0.545 OA
ATOM      9  O   UNL     1      54.973  30.330  52.619  1.00  0.00    -0.545 OA
ENDBRANCH   1   7
BRANCH   2  10
ATOM     10  C   UNL     1      57.498  28.180  51.107  1.00  0.00     0.072 C 
ATOM     11  O   UNL     1      57.974  27.984  52.257  1.00  0.00    -0.545 OA
ATOM     12  O   UNL     1      58.266  28.853  50.164  1.00  0.00    -0.545 OA
ENDBRANCH   2  10
TORSDOF 2
ENDMDL
MODEL 3
REMARK VINA RESULT:    -3.916      1.535      3.294
REMARK INTER + INTRA:          -4.605
REMARK INTER:                  -4.390
REMARK INTRA:                  -0.215
REMARK UNBOUND:                -0.231
REMARK SMILES O=C([O-])c1ccccc1C(=O)[O-]
REMARK SMILES IDX 4 1 9 2 5 3 8 4 6 5 7 6 2 7 1 8 3 9 10 10 11 11 12 12
REMARK H PARENT
REMARK Flexibility Score: inf
ROOT
ATOM      1  C   UNL     1      55.442  27.749  50.788  1.00  0.00     0.006 A 
ATOM      2  C   UNL     1      55.704  26.358  50.631  1.00  0.00     0.006 A 
ATOM      3  C   UNL     1      54.207  28.266  50.355  1.00  0.00     0.010 A 
ATOM      4  C   UNL     1      54.695  25.527  50.110  1.00  0.00     0.010 A 
ATOM      5  C   UNL     1      53.230  27.426  49.820  1.00  0.00     0.001 A 
ATOM      6  C   UNL     1      53.470  26.059  49.708  1.00  0.00     0.001 A 
ENDROOT
BRANCH   1   7
ATOM      7  C   UNL     1      56.387  28.679  51.450  1.00  0.00     0.072 C 
ATOM      8  O   UNL     1      57.185  29.378  50.772  1.00  0.00    -0.545 OA
ATOM      9  O   UNL     1      56.447  28.739  52.837  1.00  0.00    -0.545 OA
ENDBRANCH   1   7
BRANCH   2  10
ATOM     10  C   UNL     1      57.019  25.745  50.929  1.00  0.00     0.072 C 
ATOM     11  O   UNL     1      57.969  25.826  50.105  1.00  0.00    -0.545 OA
ATOM     12  O   UNL     1      57.199  25.014  52.097  1.00  0.00    -0.545 OA
ENDBRANCH   2  10
TORSDOF 2
ENDMDL
MODEL 4
REMARK VINA RESULT:    -3.904      1.446      1.884
REMARK INTER + INTRA:          -4.591
REMARK INTER:                  -4.391
REMARK INTRA:                  -0.201
REMARK UNBOUND:                -0.231
REMARK SMILES O=C([O-])c1ccccc1C(=O)[O-]
REMARK SMILES IDX 4 1 9 2 5 3 8 4 6 5 7 6 2 7 1 8 3 9 10 10 11 11 12 12
REMARK H PARENT
REMARK Flexibility Score: inf
ROOT
ATOM      1  C   UNL     1      56.014  26.425  50.681  1.00  0.00     0.006 A 
ATOM      2  C   UNL     1      55.825  27.822  50.877  1.00  0.00     0.006 A 
ATOM      3  C   UNL     1      54.945  25.652  50.191  1.00  0.00     0.010 A 
ATOM      4  C   UNL     1      54.596  28.403  50.512  1.00  0.00     0.010 A 
ATOM      5  C   UNL     1      53.729  26.246  49.856  1.00  0.00     0.001 A 
ATOM      6  C   UNL     1      53.558  27.620  50.006  1.00  0.00     0.001 A 
ENDROOT
BRANCH   1   7
ATOM      7  C   UNL     1      57.312  25.746  50.907  1.00  0.00     0.072 C 
ATOM      8  O   UNL     1      57.479  24.989  51.900  1.00  0.00    -0.545 OA
ATOM      9  O   UNL     1      58.384  25.994  50.058  1.00  0.00    -0.545 OA
ENDBRANCH   1   7
BRANCH   2  10
ATOM     10  C   UNL     1      56.838  28.693  51.515  1.00  0.00     0.072 C 
ATOM     11  O   UNL     1      57.604  29.409  50.817  1.00  0.00    -0.545 OA
ATOM     12  O   UNL     1      57.001  28.679  52.895  1.00  0.00    -0.545 OA
ENDBRANCH   2  10
TORSDOF 2
ENDMDL
MODEL 5
REMARK VINA RESULT:    -3.785      2.477      3.452
REMARK INTER + INTRA:          -4.458
REMARK INTER:                  -4.250
REMARK INTRA:                  -0.208
REMARK UNBOUND:                -0.231
REMARK SMILES O=C([O-])c1ccccc1C(=O)[O-]
REMARK SMILES IDX 4 1 9 2 5 3 8 4 6 5 7 6 2 7 1 8 3 9 10 10 11 11 12 12
REMARK H PARENT
REMARK Flexibility Score: inf
ROOT
ATOM      1  C   UNL     1      57.195  27.743  50.838  1.00  0.00     0.006 A 
ATOM      2  C   UNL     1      55.809  27.423  50.772  1.00  0.00     0.006 A 
ATOM      3  C   UNL     1      57.585  29.095  50.858  1.00  0.00     0.010 A 
ATOM      4  C   UNL     1      54.865  28.467  50.797  1.00  0.00     0.010 A 
ATOM      5  C   UNL     1      56.632  30.113  50.859  1.00  0.00     0.001 A 
ATOM      6  C   UNL     1      55.275  29.799  50.839  1.00  0.00     0.001 A 
ENDROOT
BRANCH   1   7
ATOM      7  C   UNL     1      58.256  26.715  50.955  1.00  0.00     0.072 C 
ATOM      8  O   UNL     1      58.904  26.340  49.942  1.00  0.00    -0.545 OA
ATOM      9  O   UNL     1      58.501  26.103  52.179  1.00  0.00    -0.545 OA
ENDBRANCH   1   7
BRANCH   2  10
ATOM     10  C   UNL     1      55.306  26.040  50.610  1.00  0.00     0.072 C 
ATOM     11  O   UNL     1      54.913  25.624  49.488  1.00  0.00    -0.545 OA
ATOM     12  O   UNL     1      55.199  25.203  51.715  1.00  0.00    -0.545 OA
ENDBRANCH   2  10
TORSDOF 2
ENDMDL
MODEL 6
REMARK VINA RESULT:    -3.778      2.467      4.152
REMARK INTER + INTRA:          -4.450
REMARK INTER:                  -4.254
REMARK INTRA:                  -0.196
REMARK UNBOUND:                -0.231
REMARK SMILES O=C([O-])c1ccccc1C(=O)[O-]
REMARK SMILES IDX 4 1 9 2 5 3 8 4 6 5 7 6 2 7 1 8 3 9 10 10 11 11 12 12
REMARK H PARENT
REMARK Flexibility Score: inf
ROOT
ATOM      1  C   UNL     1      55.815  27.437  50.778  1.00  0.00     0.006 A 
ATOM      2  C   UNL     1      57.199  27.762  50.863  1.00  0.00     0.006 A 
ATOM      3  C   UNL     1      54.866  28.476  50.787  1.00  0.00     0.010 A 
ATOM      4  C   UNL     1      57.582  29.116  50.886  1.00  0.00     0.010 A 
ATOM      5  C   UNL     1      55.269  29.810  50.834  1.00  0.00     0.001 A 
ATOM      6  C   UNL     1      56.624  30.130  50.872  1.00  0.00     0.001 A 
ENDROOT
BRANCH   1   7
ATOM      7  C   UNL     1      55.320  26.050  50.612  1.00  0.00     0.072 C 
ATOM      8  O   UNL     1      54.910  25.641  49.493  1.00  0.00    -0.545 OA
ATOM      9  O   UNL     1      55.240  25.203  51.712  1.00  0.00    -0.545 OA
ENDBRANCH   1   7
BRANCH   2  10
ATOM     10  C   UNL     1      58.262  26.740  50.998  1.00  0.00     0.072 C 
ATOM     11  O   UNL     1      58.558  26.262  52.125  1.00  0.00    -0.545 OA
ATOM     12  O   UNL     1      58.994  26.345  49.884  1.00  0.00    -0.545 OA
ENDBRANCH   2  10
TORSDOF 2
ENDMDL
MODEL 7
REMARK VINA RESULT:    -3.719      2.306      3.329
REMARK INTER + INTRA:          -4.385
REMARK INTER:                  -4.168
REMARK INTRA:                  -0.216
REMARK UNBOUND:                -0.231
REMARK SMILES O=C([O-])c1ccccc1C(=O)[O-]
REMARK SMILES IDX 4 1 9 2 5 3 8 4 6 5 7 6 2 7 1 8 3 9 10 10 11 11 12 12
REMARK H PARENT
REMARK Flexibility Score: inf
ROOT
ATOM      1  C   UNL     1      55.890  27.414  50.672  1.00  0.00     0.006 A 
ATOM      2  C   UNL     1      55.137  28.604  50.881  1.00  0.00     0.006 A 
ATOM      3  C   UNL     1      57.287  27.505  50.529  1.00  0.00     0.010 A 
ATOM      4  C   UNL     1      55.817  29.830  51.005  1.00  0.00     0.010 A 
ATOM      5  C   UNL     1      57.937  28.734  50.634  1.00  0.00     0.001 A 
ATOM      6  C   UNL     1      57.205  29.892  50.882  1.00  0.00     0.001 A 
ENDROOT
BRANCH   1   7
ATOM      7  C   UNL     1      55.280  26.064  50.664  1.00  0.00     0.072 C 
ATOM      8  O   UNL     1      54.841  25.561  49.595  1.00  0.00    -0.545 OA
ATOM      9  O   UNL     1      55.123  25.363  51.854  1.00  0.00    -0.545 OA
ENDBRANCH   1   7
BRANCH   2  10
ATOM     10  C   UNL     1      53.656  28.630  50.906  1.00  0.00     0.072 C 
ATOM     11  O   UNL     1      52.994  28.701  49.837  1.00  0.00    -0.545 OA
ATOM     12  O   UNL     1      52.980  28.642  52.120  1.00  0.00    -0.545 OA
ENDBRANCH   2  10
TORSDOF 2
ENDMDL
MODEL 8
REMARK VINA RESULT:    -3.667      2.174      3.546
REMARK INTER + INTRA:          -4.327
REMARK INTER:                  -4.152
REMARK INTRA:                  -0.175
REMARK UNBOUND:                -0.231
REMARK SMILES O=C([O-])c1ccccc1C(=O)[O-]
REMARK SMILES IDX 4 1 9 2 5 3 8 4 6 5 7 6 2 7 1 8 3 9 10 10 11 11 12 12
REMARK H PARENT
REMARK Flexibility Score: inf
ROOT
ATOM      1  C   UNL     1      57.363  26.622  50.839  1.00  0.00     0.006 A 
ATOM      2  C   UNL     1      57.157  28.031  50.828  1.00  0.00     0.006 A 
ATOM      3  C   UNL     1      58.573  26.103  50.341  1.00  0.00     0.010 A 
ATOM      4  C   UNL     1      58.196  28.870  50.382  1.00  0.00     0.010 A 
ATOM      5  C   UNL     1      59.579  26.953  49.883  1.00  0.00     0.001 A 
ATOM      6  C   UNL     1      59.396  28.333  49.914  1.00  0.00     0.001 A 
ENDROOT
BRANCH   1   7
ATOM      7  C   UNL     1      56.386  25.668  51.414  1.00  0.00     0.072 C 
ATOM      8  O   UNL     1      56.595  25.126  52.532  1.00  0.00    -0.545 OA
ATOM      9  O   UNL     1      55.256  25.307  50.689  1.00  0.00    -0.545 OA
ENDBRANCH   1   7
BRANCH   2  10
ATOM     10  C   UNL     1      55.871  28.662  51.201  1.00  0.00     0.072 C 
ATOM     11  O   UNL     1      55.731  29.230  52.317  1.00  0.00    -0.545 OA
ATOM     12  O   UNL     1      54.778  28.576  50.347  1.00  0.00    -0.545 OA
ENDBRANCH   2  10
TORSDOF 2
ENDMDL
MODEL 9
REMARK VINA RESULT:    -3.638      2.191      4.385
REMARK INTER + INTRA:          -4.295
REMARK INTER:                  -4.151
REMARK INTRA:                  -0.144
REMARK UNBOUND:                -0.231
REMARK SMILES O=C([O-])c1ccccc1C(=O)[O-]
REMARK SMILES IDX 4 1 9 2 5 3 8 4 6 5 7 6 2 7 1 8 3 9 10 10 11 11 12 12
REMARK H PARENT
REMARK Flexibility Score: inf
ROOT
ATOM      1  C   UNL     1      57.113  27.993  50.796  1.00  0.00     0.006 A 
ATOM      2  C   UNL     1      57.258  26.577  50.789  1.00  0.00     0.006 A 
ATOM      3  C   UNL     1      58.199  28.794  50.396  1.00  0.00     0.010 A 
ATOM      4  C   UNL     1      58.460  26.015  50.320  1.00  0.00     0.010 A 
ATOM      5  C   UNL     1      59.389  28.215  49.956  1.00  0.00     0.001 A 
ATOM      6  C   UNL     1      59.515  26.829  49.907  1.00  0.00     0.001 A 
ENDROOT
BRANCH   1   7
ATOM      7  C   UNL     1      55.843  28.673  51.143  1.00  0.00     0.072 C 
ATOM      8  O   UNL     1      54.846  28.608  50.375  1.00  0.00    -0.545 OA
ATOM      9  O   UNL     1      55.760  29.451  52.292  1.00  0.00    -0.545 OA
ENDBRANCH   1   7
BRANCH   2  10
ATOM     10  C   UNL     1      56.226  25.657  51.319  1.00  0.00     0.072 C 
ATOM     11  O   UNL     1      56.354  25.130  52.456  1.00  0.00    -0.545 OA
ATOM     12  O   UNL     1      55.132  25.310  50.535  1.00  0.00    -0.545 OA
ENDBRANCH   2  10
TORSDOF 2
ENDMDL
