MODEL 1
REMARK VINA RESULT:    -7.443      0.000      0.000
REMARK INTER + INTRA:         -10.803
REMARK INTER:                 -10.054
REMARK INTRA:                  -0.749
REMARK UNBOUND:                -0.749
REMARK SMILES CC[C@H](CC[C@H](C)[C@@H]1CC[C@@H]2[C@H]3CC(=O)C4=CC(=O)CC[C@]4(C)[C@@H]3CC[C@]21C)C(C)C
REMARK SMILES IDX 4 1 3 2 2 3 1 4 29 5 30 6 31 7 5 8 6 9 7 10 8 11 9 12 27 13
REMARK SMILES IDX 10 14 11 15 26 16 28 17 12 18 25 19 24 20 13 21 22 22 14 23
REMARK SMILES IDX 16 24 21 25 23 26 15 27 17 28 20 29 18 30 19 31
REMARK H PARENT
REMARK Flexibility Score: inf
ROOT
ATOM      1  C   UNL     1     -41.613  17.647  15.920  1.00  0.00     0.004 C 
ENDROOT
BRANCH   1   2
ATOM      2  C   UNL     1     -42.369  18.631  16.859  1.00  0.00    -0.009 C 
BRANCH   2   3
ATOM      3  C   UNL     1     -43.904  18.343  16.792  1.00  0.00     0.000 C 
ATOM      4  C   UNL     1     -44.484  17.952  18.153  1.00  0.00     0.004 C 
ENDBRANCH   2   3
BRANCH   2   5
ATOM      5  C   UNL     1     -41.841  18.566  18.337  1.00  0.00    -0.014 C 
ATOM      6  C   UNL     1     -41.023  19.821  18.704  1.00  0.00     0.007 C 
ATOM      7  C   UNL     1     -40.960  17.325  18.601  1.00  0.00     0.007 C 
ENDBRANCH   2   5
ENDBRANCH   1   2
BRANCH   1   8
ATOM      8  C   UNL     1     -42.156  17.666  14.471  1.00  0.00     0.004 C 
BRANCH   8   9
ATOM      9  C   UNL     1     -41.308  18.417  13.397  1.00  0.00    -0.011 C 
ATOM     10  C   UNL     1     -42.034  19.697  12.936  1.00  0.00     0.008 C 
BRANCH   9  11
ATOM     11  C   UNL     1     -40.715  17.650  12.158  1.00  0.00    -0.002 C 
ATOM     12  C   UNL     1     -40.445  16.130  12.288  1.00  0.00     0.005 C 
ATOM     13  C   UNL     1     -39.459  18.211  11.437  1.00  0.00    -0.026 C 
ATOM     14  C   UNL     1     -39.363  15.794  11.243  1.00  0.00     0.005 C 
ATOM     15  C   UNL     1     -39.212  17.075  10.430  1.00  0.00    -0.001 C 
ATOM     16  C   UNL     1     -39.699  19.500  10.618  1.00  0.00     0.007 C 
ATOM     17  C   UNL     1     -38.278  18.411  12.432  1.00  0.00     0.012 C 
ATOM     18  C   UNL     1     -37.948  17.266   9.557  1.00  0.00     0.004 C 
ATOM     19  C   UNL     1     -38.474  19.817   9.731  1.00  0.00     0.005 C 
ATOM     20  C   UNL     1     -38.049  18.632   8.801  1.00  0.00     0.003 C 
ATOM     21  C   UNL     1     -37.860  16.124   8.524  1.00  0.00     0.085 C 
ATOM     22  C   UNL     1     -36.767  18.937   7.904  1.00  0.00    -0.000 C 
ATOM     23  C   UNL     1     -36.751  16.346   7.546  1.00  0.00     0.159 C 
ATOM     24  C   UNL     1     -36.043  17.644   7.494  1.00  0.00     0.005 C 
ATOM     25  C   UNL     1     -35.742  19.857   8.640  1.00  0.00     0.020 C 
ATOM     26  C   UNL     1     -37.245  19.638   6.608  1.00  0.00     0.017 C 
ATOM     27  O   UNL     1     -36.418  15.403   6.778  1.00  0.00    -0.295 OA
ATOM     28  C   UNL     1     -34.756  17.663   7.098  1.00  0.00     0.055 C 
ATOM     29  C   UNL     1     -34.464  20.125   7.826  1.00  0.00     0.081 C 
ATOM     30  C   UNL     1     -33.933  18.876   7.195  1.00  0.00     0.156 C 
ATOM     31  O   UNL     1     -32.762  18.867   6.728  1.00  0.00    -0.295 OA
ENDBRANCH   9  11
ENDBRANCH   8   9
ENDBRANCH   1   8
TORSDOF 6
ENDMDL
MODEL 2
REMARK VINA RESULT:    -6.989      1.520      2.188
REMARK INTER + INTRA:         -10.189
REMARK INTER:                  -9.050
REMARK INTRA:                  -1.139
REMARK UNBOUND:                -0.749
REMARK SMILES CC[C@H](CC[C@H](C)[C@@H]1CC[C@@H]2[C@H]3CC(=O)C4=CC(=O)CC[C@]4(C)[C@@H]3CC[C@]21C)C(C)C
REMARK SMILES IDX 4 1 3 2 2 3 1 4 29 5 30 6 31 7 5 8 6 9 7 10 8 11 9 12 27 13
REMARK SMILES IDX 10 14 11 15 26 16 28 17 12 18 25 19 24 20 13 21 22 22 14 23
REMARK SMILES IDX 16 24 21 25 23 26 15 27 17 28 20 29 18 30 19 31
REMARK H PARENT
REMARK Flexibility Score: inf
ROOT
ATOM      1  C   UNL     1     -39.534  17.072  14.936  1.00  0.00     0.004 C 
ENDROOT
BRANCH   1   2
ATOM      2  C   UNL     1     -39.619  16.312  16.292  1.00  0.00    -0.009 C 
BRANCH   2   3
ATOM      3  C   UNL     1     -41.051  16.476  16.896  1.00  0.00     0.000 C 
ATOM      4  C   UNL     1     -41.067  17.397  18.117  1.00  0.00     0.004 C 
ENDBRANCH   2   3
BRANCH   2   5
ATOM      5  C   UNL     1     -39.231  14.797  16.148  1.00  0.00    -0.014 C 
ATOM      6  C   UNL     1     -37.873  14.622  15.438  1.00  0.00     0.007 C 
ATOM      7  C   UNL     1     -40.287  13.982  15.370  1.00  0.00     0.007 C 
ENDBRANCH   2   5
ENDBRANCH   1   2
BRANCH   1   8
ATOM      8  C   UNL     1     -40.927  17.417  14.356  1.00  0.00     0.004 C 
BRANCH   8   9
ATOM      9  C   UNL     1     -40.968  18.121  12.963  1.00  0.00    -0.011 C 
ATOM     10  C   UNL     1     -42.389  18.641  12.665  1.00  0.00     0.008 C 
BRANCH   9  11
ATOM     11  C   UNL     1     -40.364  17.422  11.689  1.00  0.00    -0.002 C 
ATOM     12  C   UNL     1     -40.097  15.898  11.737  1.00  0.00     0.005 C 
ATOM     13  C   UNL     1     -39.102  18.021  11.012  1.00  0.00    -0.026 C 
ATOM     14  C   UNL     1     -39.006  15.618  10.686  1.00  0.00     0.005 C 
ATOM     15  C   UNL     1     -38.846  16.942   9.946  1.00  0.00    -0.001 C 
ATOM     16  C   UNL     1     -39.333  19.353  10.263  1.00  0.00     0.007 C 
ATOM     17  C   UNL     1     -37.930  18.164  12.028  1.00  0.00     0.012 C 
ATOM     18  C   UNL     1     -37.574  17.179   9.096  1.00  0.00     0.004 C 
ATOM     19  C   UNL     1     -38.100  19.717   9.407  1.00  0.00     0.005 C 
ATOM     20  C   UNL     1     -37.667  18.585   8.416  1.00  0.00     0.003 C 
ATOM     21  C   UNL     1     -37.477  16.096   8.002  1.00  0.00     0.085 C 
ATOM     22  C   UNL     1     -36.376  18.937   7.550  1.00  0.00    -0.000 C 
ATOM     23  C   UNL     1     -36.359  16.370   7.049  1.00  0.00     0.159 C 
ATOM     24  C   UNL     1     -35.650  17.668   7.075  1.00  0.00     0.005 C 
ATOM     25  C   UNL     1     -35.357  19.814   8.344  1.00  0.00     0.020 C 
ATOM     26  C   UNL     1     -36.842  19.710   6.289  1.00  0.00     0.017 C 
ATOM     27  O   UNL     1     -36.020  15.471   6.233  1.00  0.00    -0.295 OA
ATOM     28  C   UNL     1     -34.359  17.708   6.693  1.00  0.00     0.055 C 
ATOM     29  C   UNL     1     -34.072  20.125   7.559  1.00  0.00     0.081 C 
ATOM     30  C   UNL     1     -33.535  18.912   6.864  1.00  0.00     0.156 C 
ATOM     31  O   UNL     1     -32.361  18.928   6.409  1.00  0.00    -0.295 OA
ENDBRANCH   9  11
ENDBRANCH   8   9
ENDBRANCH   1   8
TORSDOF 6
ENDMDL
MODEL 3
REMARK VINA RESULT:    -6.439      3.414      9.286
REMARK INTER + INTRA:          -9.446
REMARK INTER:                  -8.500
REMARK INTRA:                  -0.946
REMARK UNBOUND:                -0.749
REMARK SMILES CC[C@H](CC[C@H](C)[C@@H]1CC[C@@H]2[C@H]3CC(=O)C4=CC(=O)CC[C@]4(C)[C@@H]3CC[C@]21C)C(C)C
REMARK SMILES IDX 4 1 3 2 2 3 1 4 29 5 30 6 31 7 5 8 6 9 7 10 8 11 9 12 27 13
REMARK SMILES IDX 10 14 11 15 26 16 28 17 12 18 25 19 24 20 13 21 22 22 14 23
REMARK SMILES IDX 16 24 21 25 23 26 15 27 17 28 20 29 18 30 19 31
REMARK H PARENT
REMARK Flexibility Score: inf
ROOT
ATOM      1  C   UNL     1     -34.339  18.463   7.125  1.00  0.00     0.004 C 
ENDROOT
BRANCH   1   2
ATOM      2  C   UNL     1     -34.022  16.941   7.044  1.00  0.00    -0.009 C 
BRANCH   2   3
ATOM      3  C   UNL     1     -34.985  16.153   7.990  1.00  0.00     0.000 C 
ATOM      4  C   UNL     1     -35.973  15.277   7.218  1.00  0.00     0.004 C 
ENDBRANCH   2   3
BRANCH   2   5
ATOM      5  C   UNL     1     -34.097  16.397   5.572  1.00  0.00    -0.014 C 
ATOM      6  C   UNL     1     -32.763  15.762   5.131  1.00  0.00     0.007 C 
ATOM      7  C   UNL     1     -34.468  17.492   4.550  1.00  0.00     0.007 C 
ENDBRANCH   2   5
ENDBRANCH   1   2
BRANCH   1   8
ATOM      8  C   UNL     1     -35.537  18.775   8.054  1.00  0.00     0.004 C 
BRANCH   8   9
ATOM      9  C   UNL     1     -36.950  18.861   7.397  1.00  0.00    -0.011 C 
ATOM     10  C   UNL     1     -37.035  20.085   6.462  1.00  0.00     0.008 C 
BRANCH   9  11
ATOM     11  C   UNL     1     -38.253  18.752   8.272  1.00  0.00    -0.002 C 
ATOM     12  C   UNL     1     -39.192  19.980   8.360  1.00  0.00     0.005 C 
ATOM     13  C   UNL     1     -38.157  18.225   9.730  1.00  0.00    -0.026 C 
ATOM     14  C   UNL     1     -39.979  19.827   9.676  1.00  0.00     0.005 C 
ATOM     15  C   UNL     1     -39.614  18.433  10.175  1.00  0.00    -0.001 C 
ATOM     16  C   UNL     1     -37.853  16.716   9.860  1.00  0.00     0.007 C 
ATOM     17  C   UNL     1     -37.140  19.060  10.565  1.00  0.00     0.012 C 
ATOM     18  C   UNL     1     -39.883  18.071  11.655  1.00  0.00     0.004 C 
ATOM     19  C   UNL     1     -38.047  16.246  11.318  1.00  0.00     0.005 C 
ATOM     20  C   UNL     1     -39.458  16.586  11.905  1.00  0.00     0.003 C 
ATOM     21  C   UNL     1     -41.388  18.222  11.957  1.00  0.00     0.085 C 
ATOM     22  C   UNL     1     -39.659  16.134  13.420  1.00  0.00    -0.000 C 
ATOM     23  C   UNL     1     -41.731  17.727  13.325  1.00  0.00     0.159 C 
ATOM     24  C   UNL     1     -40.740  16.972  14.122  1.00  0.00     0.005 C 
ATOM     25  C   UNL     1     -38.340  16.247  14.247  1.00  0.00     0.020 C 
ATOM     26  C   UNL     1     -40.138  14.659  13.420  1.00  0.00     0.017 C 
ATOM     27  O   UNL     1     -42.874  17.978  13.795  1.00  0.00    -0.295 OA
ATOM     28  C   UNL     1     -40.795  17.050  15.465  1.00  0.00     0.055 C 
ATOM     29  C   UNL     1     -38.510  15.874  15.729  1.00  0.00     0.081 C 
ATOM     30  C   UNL     1     -39.743  16.484  16.320  1.00  0.00     0.156 C 
ATOM     31  O   UNL     1     -39.885  16.504  17.572  1.00  0.00    -0.295 OA
ENDBRANCH   9  11
ENDBRANCH   8   9
ENDBRANCH   1   8
TORSDOF 6
ENDMDL
MODEL 4
REMARK VINA RESULT:    -6.283      2.039      3.677
REMARK INTER + INTRA:          -9.236
REMARK INTER:                  -8.588
REMARK INTRA:                  -0.649
REMARK UNBOUND:                -0.749
REMARK SMILES CC[C@H](CC[C@H](C)[C@@H]1CC[C@@H]2[C@H]3CC(=O)C4=CC(=O)CC[C@]4(C)[C@@H]3CC[C@]21C)C(C)C
REMARK SMILES IDX 4 1 3 2 2 3 1 4 29 5 30 6 31 7 5 8 6 9 7 10 8 11 9 12 27 13
REMARK SMILES IDX 10 14 11 15 26 16 28 17 12 18 25 19 24 20 13 21 22 22 14 23
REMARK SMILES IDX 16 24 21 25 23 26 15 27 17 28 20 29 18 30 19 31
REMARK H PARENT
REMARK Flexibility Score: inf
ROOT
ATOM      1  C   UNL     1     -40.373  17.124  13.387  1.00  0.00     0.004 C 
ENDROOT
BRANCH   1   2
ATOM      2  C   UNL     1     -39.874  16.622  14.773  1.00  0.00    -0.009 C 
BRANCH   2   3
ATOM      3  C   UNL     1     -41.088  16.488  15.750  1.00  0.00     0.000 C 
ATOM      4  C   UNL     1     -42.242  17.420  15.377  1.00  0.00     0.004 C 
ENDBRANCH   2   3
BRANCH   2   5
ATOM      5  C   UNL     1     -39.077  15.273  14.665  1.00  0.00    -0.014 C 
ATOM      6  C   UNL     1     -39.909  14.078  15.176  1.00  0.00     0.007 C 
ATOM      7  C   UNL     1     -37.747  15.302  15.449  1.00  0.00     0.007 C 
ENDBRANCH   2   5
ENDBRANCH   1   2
BRANCH   1   8
ATOM      8  C   UNL     1     -39.456  18.212  12.778  1.00  0.00     0.004 C 
BRANCH   8   9
ATOM      9  C   UNL     1     -40.143  19.368  11.987  1.00  0.00    -0.011 C 
ATOM     10  C   UNL     1     -41.667  19.142  11.918  1.00  0.00     0.008 C 
BRANCH   9  11
ATOM     11  C   UNL     1     -39.595  19.819  10.583  1.00  0.00    -0.002 C 
ATOM     12  C   UNL     1     -40.607  20.066   9.437  1.00  0.00     0.005 C 
ATOM     13  C   UNL     1     -38.437  19.025   9.919  1.00  0.00    -0.026 C 
ATOM     14  C   UNL     1     -39.822  19.887   8.123  1.00  0.00     0.005 C 
ATOM     15  C   UNL     1     -38.370  19.752   8.566  1.00  0.00    -0.001 C 
ATOM     16  C   UNL     1     -37.058  19.196  10.596  1.00  0.00     0.007 C 
ATOM     17  C   UNL     1     -38.793  17.515   9.783  1.00  0.00     0.012 C 
ATOM     18  C   UNL     1     -37.335  19.159   7.579  1.00  0.00     0.004 C 
ATOM     19  C   UNL     1     -35.941  18.596   9.713  1.00  0.00     0.005 C 
ATOM     20  C   UNL     1     -35.923  19.161   8.253  1.00  0.00     0.003 C 
ATOM     21  C   UNL     1     -37.286  20.025   6.303  1.00  0.00     0.085 C 
ATOM     22  C   UNL     1     -34.795  18.527   7.323  1.00  0.00    -0.000 C 
ATOM     23  C   UNL     1     -36.187  19.597   5.385  1.00  0.00     0.159 C 
ATOM     24  C   UNL     1     -35.167  18.624   5.835  1.00  0.00     0.005 C 
ATOM     25  C   UNL     1     -34.531  17.025   7.662  1.00  0.00     0.020 C 
ATOM     26  C   UNL     1     -33.490  19.336   7.534  1.00  0.00     0.017 C 
ATOM     27  O   UNL     1     -36.153  20.065   4.215  1.00  0.00    -0.295 OA
ATOM     28  C   UNL     1     -34.590  17.822   4.920  1.00  0.00     0.055 C 
ATOM     29  C   UNL     1     -33.488  16.363   6.745  1.00  0.00     0.081 C 
ATOM     30  C   UNL     1     -33.710  16.711   5.306  1.00  0.00     0.156 C 
ATOM     31  O   UNL     1     -33.123  16.047   4.411  1.00  0.00    -0.295 OA
ENDBRANCH   9  11
ENDBRANCH   8   9
ENDBRANCH   1   8
TORSDOF 6
ENDMDL
MODEL 5
REMARK VINA RESULT:    -5.695      2.583      3.962
REMARK INTER + INTRA:          -8.442
REMARK INTER:                  -7.356
REMARK INTRA:                  -1.086
REMARK UNBOUND:                -0.749
REMARK SMILES CC[C@H](CC[C@H](C)[C@@H]1CC[C@@H]2[C@H]3CC(=O)C4=CC(=O)CC[C@]4(C)[C@@H]3CC[C@]21C)C(C)C
REMARK SMILES IDX 4 1 3 2 2 3 1 4 29 5 30 6 31 7 5 8 6 9 7 10 8 11 9 12 27 13
REMARK SMILES IDX 10 14 11 15 26 16 28 17 12 18 25 19 24 20 13 21 22 22 14 23
REMARK SMILES IDX 16 24 21 25 23 26 15 27 17 28 20 29 18 30 19 31
REMARK H PARENT
REMARK Flexibility Score: inf
ROOT
ATOM      1  C   UNL     1     -40.581  15.234  16.129  1.00  0.00     0.004 C 
ENDROOT
BRANCH   1   2
ATOM      2  C   UNL     1     -39.657  14.191  15.435  1.00  0.00    -0.009 C 
BRANCH   2   3
ATOM      3  C   UNL     1     -38.185  14.391  15.920  1.00  0.00     0.000 C 
ATOM      4  C   UNL     1     -37.477  15.528  15.182  1.00  0.00     0.004 C 
ENDBRANCH   2   3
BRANCH   2   5
ATOM      5  C   UNL     1     -40.142  12.716  15.675  1.00  0.00    -0.014 C 
ATOM      6  C   UNL     1     -41.540  12.675  16.325  1.00  0.00     0.007 C 
ATOM      7  C   UNL     1     -39.174  11.909  16.567  1.00  0.00     0.007 C 
ENDBRANCH   2   5
ENDBRANCH   1   2
BRANCH   1   8
ATOM      8  C   UNL     1     -41.395  16.078  15.119  1.00  0.00     0.004 C 
BRANCH   8   9
ATOM      9  C   UNL     1     -41.083  17.605  15.045  1.00  0.00    -0.011 C 
ATOM     10  C   UNL     1     -42.053  18.398  15.945  1.00  0.00     0.008 C 
BRANCH   9  11
ATOM     11  C   UNL     1     -40.914  18.326  13.657  1.00  0.00    -0.002 C 
ATOM     12  C   UNL     1     -42.161  18.501  12.756  1.00  0.00     0.005 C 
ATOM     13  C   UNL     1     -39.790  17.870  12.686  1.00  0.00    -0.026 C 
ATOM     14  C   UNL     1     -41.636  18.646  11.315  1.00  0.00     0.005 C 
ATOM     15  C   UNL     1     -40.123  18.755  11.473  1.00  0.00    -0.001 C 
ATOM     16  C   UNL     1     -38.356  18.233  13.133  1.00  0.00     0.007 C 
ATOM     17  C   UNL     1     -39.896  16.347  12.376  1.00  0.00     0.012 C 
ATOM     18  C   UNL     1     -39.219  18.510  10.242  1.00  0.00     0.004 C 
ATOM     19  C   UNL     1     -37.350  17.984  11.987  1.00  0.00     0.005 C 
ATOM     20  C   UNL     1     -37.724  18.715  10.654  1.00  0.00     0.003 C 
ATOM     21  C   UNL     1     -39.579  19.517   9.130  1.00  0.00     0.085 C 
ATOM     22  C   UNL     1     -36.710  18.440   9.455  1.00  0.00    -0.000 C 
ATOM     23  C   UNL     1     -38.628  19.435   7.980  1.00  0.00     0.159 C 
ATOM     24  C   UNL     1     -37.384  18.642   8.087  1.00  0.00     0.005 C 
ATOM     25  C   UNL     1     -36.124  16.994   9.502  1.00  0.00     0.020 C 
ATOM     26  C   UNL     1     -35.553  19.465   9.563  1.00  0.00     0.017 C 
ATOM     27  O   UNL     1     -38.911  20.040   6.911  1.00  0.00    -0.295 OA
ATOM     28  C   UNL     1     -36.869  18.091   6.972  1.00  0.00     0.055 C 
ATOM     29  C   UNL     1     -35.186  16.674   8.325  1.00  0.00     0.081 C 
ATOM     30  C   UNL     1     -35.748  17.143   7.020  1.00  0.00     0.156 C 
ATOM     31  O   UNL     1     -35.245  16.725   5.943  1.00  0.00    -0.295 OA
ENDBRANCH   9  11
ENDBRANCH   8   9
ENDBRANCH   1   8
TORSDOF 6
ENDMDL
MODEL 6
REMARK VINA RESULT:    -5.689      3.547      9.519
REMARK INTER + INTRA:          -8.433
REMARK INTER:                  -7.628
REMARK INTRA:                  -0.805
REMARK UNBOUND:                -0.749
REMARK SMILES CC[C@H](CC[C@H](C)[C@@H]1CC[C@@H]2[C@H]3CC(=O)C4=CC(=O)CC[C@]4(C)[C@@H]3CC[C@]21C)C(C)C
REMARK SMILES IDX 4 1 3 2 2 3 1 4 29 5 30 6 31 7 5 8 6 9 7 10 8 11 9 12 27 13
REMARK SMILES IDX 10 14 11 15 26 16 28 17 12 18 25 19 24 20 13 21 22 22 14 23
REMARK SMILES IDX 16 24 21 25 23 26 15 27 17 28 20 29 18 30 19 31
REMARK H PARENT
REMARK Flexibility Score: inf
ROOT
ATOM      1  C   UNL     1     -35.666  17.743   8.252  1.00  0.00     0.004 C 
ENDROOT
BRANCH   1   2
ATOM      2  C   UNL     1     -35.314  17.602   6.742  1.00  0.00    -0.009 C 
BRANCH   2   3
ATOM      3  C   UNL     1     -34.489  18.845   6.278  1.00  0.00     0.000 C 
ATOM      4  C   UNL     1     -34.180  19.803   7.429  1.00  0.00     0.004 C 
ENDBRANCH   2   3
BRANCH   2   5
ATOM      5  C   UNL     1     -34.551  16.264   6.433  1.00  0.00    -0.014 C 
ATOM      6  C   UNL     1     -33.907  15.670   7.703  1.00  0.00     0.007 C 
ATOM      7  C   UNL     1     -33.445  16.440   5.371  1.00  0.00     0.007 C 
ENDBRANCH   2   5
ENDBRANCH   1   2
BRANCH   1   8
ATOM      8  C   UNL     1     -37.089  17.235   8.585  1.00  0.00     0.004 C 
BRANCH   8   9
ATOM      9  C   UNL     1     -38.267  18.246   8.424  1.00  0.00    -0.011 C 
ATOM     10  C   UNL     1     -37.728  19.686   8.304  1.00  0.00     0.008 C 
BRANCH   9  11
ATOM     11  C   UNL     1     -39.502  18.206   9.398  1.00  0.00    -0.002 C 
ATOM     12  C   UNL     1     -40.498  19.391   9.381  1.00  0.00     0.005 C 
ATOM     13  C   UNL     1     -39.282  17.899  10.904  1.00  0.00    -0.026 C 
ATOM     14  C   UNL     1     -41.188  19.394  10.759  1.00  0.00     0.005 C 
ATOM     15  C   UNL     1     -40.716  18.104  11.421  1.00  0.00    -0.001 C 
ATOM     16  C   UNL     1     -38.888  16.439  11.222  1.00  0.00     0.007 C 
ATOM     17  C   UNL     1     -38.259  18.889  11.538  1.00  0.00     0.012 C 
ATOM     18  C   UNL     1     -40.867  17.946  12.953  1.00  0.00     0.004 C 
ATOM     19  C   UNL     1     -38.961  16.175  12.743  1.00  0.00     0.005 C 
ATOM     20  C   UNL     1     -40.346  16.533  13.377  1.00  0.00     0.003 C 
ATOM     21  C   UNL     1     -42.355  18.072  13.339  1.00  0.00     0.085 C 
ATOM     22  C   UNL     1     -40.423  16.294  14.951  1.00  0.00    -0.000 C 
ATOM     23  C   UNL     1     -42.579  17.764  14.784  1.00  0.00     0.159 C 
ATOM     24  C   UNL     1     -41.499  17.176  15.605  1.00  0.00     0.005 C 
ATOM     25  C   UNL     1     -39.060  16.584  15.655  1.00  0.00     0.020 C 
ATOM     26  C   UNL     1     -40.819  14.816  15.192  1.00  0.00     0.017 C 
ATOM     27  O   UNL     1     -43.701  18.029  15.296  1.00  0.00    -0.295 OA
ATOM     28  C   UNL     1     -41.470  17.444  16.925  1.00  0.00     0.055 C 
ATOM     29  C   UNL     1     -39.112  16.420  17.184  1.00  0.00     0.081 C 
ATOM     30  C   UNL     1     -40.334  17.054  17.772  1.00  0.00     0.156 C 
ATOM     31  O   UNL     1     -40.395  17.247  19.015  1.00  0.00    -0.295 OA
ENDBRANCH   9  11
ENDBRANCH   8   9
ENDBRANCH   1   8
TORSDOF 6
ENDMDL
MODEL 7
REMARK VINA RESULT:    -5.384      3.489      9.604
REMARK INTER + INTRA:          -8.022
REMARK INTER:                  -7.773
REMARK INTRA:                  -0.249
REMARK UNBOUND:                -0.749
REMARK SMILES CC[C@H](CC[C@H](C)[C@@H]1CC[C@@H]2[C@H]3CC(=O)C4=CC(=O)CC[C@]4(C)[C@@H]3CC[C@]21C)C(C)C
REMARK SMILES IDX 4 1 3 2 2 3 1 4 29 5 30 6 31 7 5 8 6 9 7 10 8 11 9 12 27 13
REMARK SMILES IDX 10 14 11 15 26 16 28 17 12 18 25 19 24 20 13 21 22 22 14 23
REMARK SMILES IDX 16 24 21 25 23 26 15 27 17 28 20 29 18 30 19 31
REMARK H PARENT
REMARK Flexibility Score: inf
ROOT
ATOM      1  C   UNL     1     -35.328  18.363   7.531  1.00  0.00     0.004 C 
ENDROOT
BRANCH   1   2
ATOM      2  C   UNL     1     -35.276  16.867   7.102  1.00  0.00    -0.009 C 
BRANCH   2   3
ATOM      3  C   UNL     1     -36.719  16.265   7.127  1.00  0.00     0.000 C 
ATOM      4  C   UNL     1     -36.770  14.904   7.823  1.00  0.00     0.004 C 
ENDBRANCH   2   3
BRANCH   2   5
ATOM      5  C   UNL     1     -34.603  16.675   5.697  1.00  0.00    -0.014 C 
ATOM      6  C   UNL     1     -33.159  16.147   5.824  1.00  0.00     0.007 C 
ATOM      7  C   UNL     1     -34.564  17.979   4.871  1.00  0.00     0.007 C 
ENDBRANCH   2   5
ENDBRANCH   1   2
BRANCH   1   8
ATOM      8  C   UNL     1     -36.753  18.824   7.921  1.00  0.00     0.004 C 
BRANCH   8   9
ATOM      9  C   UNL     1     -37.033  19.082   9.435  1.00  0.00    -0.011 C 
ATOM     10  C   UNL     1     -35.926  18.450  10.303  1.00  0.00     0.008 C 
BRANCH   9  11
ATOM     11  C   UNL     1     -38.448  18.783  10.054  1.00  0.00    -0.002 C 
ATOM     12  C   UNL     1     -39.601  19.780   9.783  1.00  0.00     0.005 C 
ATOM     13  C   UNL     1     -38.569  18.443  11.565  1.00  0.00    -0.026 C 
ATOM     14  C   UNL     1     -40.609  19.596  10.934  1.00  0.00     0.005 C 
ATOM     15  C   UNL     1     -40.101  18.375  11.691  1.00  0.00    -0.001 C 
ATOM     16  C   UNL     1     -38.017  17.058  11.968  1.00  0.00     0.007 C 
ATOM     17  C   UNL     1     -37.935  19.560  12.446  1.00  0.00     0.012 C 
ATOM     18  C   UNL     1     -40.608  18.117  13.130  1.00  0.00     0.004 C 
ATOM     19  C   UNL     1     -38.428  16.710  13.416  1.00  0.00     0.005 C 
ATOM     20  C   UNL     1     -39.971  16.794  13.669  1.00  0.00     0.003 C 
ATOM     21  C   UNL     1     -42.143  17.968  13.116  1.00  0.00     0.085 C 
ATOM     22  C   UNL     1     -40.403  16.468  15.168  1.00  0.00    -0.000 C 
ATOM     23  C   UNL     1     -42.671  17.555  14.452  1.00  0.00     0.159 C 
ATOM     24  C   UNL     1     -41.749  17.120  15.524  1.00  0.00     0.005 C 
ATOM     25  C   UNL     1     -39.339  16.950  16.204  1.00  0.00     0.020 C 
ATOM     26  C   UNL     1     -40.579  14.933  15.292  1.00  0.00     0.017 C 
ATOM     27  O   UNL     1     -43.915  17.599  14.655  1.00  0.00    -0.295 OA
ATOM     28  C   UNL     1     -42.107  17.322  16.806  1.00  0.00     0.055 C 
ATOM     29  C   UNL     1     -39.750  16.704  17.666  1.00  0.00     0.081 C 
ATOM     30  C   UNL     1     -41.174  17.089  17.918  1.00  0.00     0.156 C 
ATOM     31  O   UNL     1     -41.585  17.207  19.103  1.00  0.00    -0.295 OA
ENDBRANCH   9  11
ENDBRANCH   8   9
ENDBRANCH   1   8
TORSDOF 6
ENDMDL
MODEL 8
REMARK VINA RESULT:    -4.680      3.575      9.235
REMARK INTER + INTRA:          -7.070
REMARK INTER:                  -5.818
REMARK INTRA:                  -1.252
REMARK UNBOUND:                -0.749
REMARK SMILES CC[C@H](CC[C@H](C)[C@@H]1CC[C@@H]2[C@H]3CC(=O)C4=CC(=O)CC[C@]4(C)[C@@H]3CC[C@]21C)C(C)C
REMARK SMILES IDX 4 1 3 2 2 3 1 4 29 5 30 6 31 7 5 8 6 9 7 10 8 11 9 12 27 13
REMARK SMILES IDX 10 14 11 15 26 16 28 17 12 18 25 19 24 20 13 21 22 22 14 23
REMARK SMILES IDX 16 24 21 25 23 26 15 27 17 28 20 29 18 30 19 31
REMARK H PARENT
REMARK Flexibility Score: inf
ROOT
ATOM      1  C   UNL     1     -37.089  19.033   6.973  1.00  0.00     0.004 C 
ENDROOT
BRANCH   1   2
ATOM      2  C   UNL     1     -35.581  18.774   7.262  1.00  0.00    -0.009 C 
BRANCH   2   3
ATOM      3  C   UNL     1     -35.274  17.248   7.118  1.00  0.00     0.000 C 
ATOM      4  C   UNL     1     -36.462  16.374   7.522  1.00  0.00     0.004 C 
ENDBRANCH   2   3
BRANCH   2   5
ATOM      5  C   UNL     1     -34.644  19.634   6.341  1.00  0.00    -0.014 C 
ATOM      6  C   UNL     1     -34.808  19.258   4.854  1.00  0.00     0.007 C 
ATOM      7  C   UNL     1     -33.151  19.492   6.709  1.00  0.00     0.007 C 
ENDBRANCH   2   5
ENDBRANCH   1   2
BRANCH   1   8
ATOM      8  C   UNL     1     -37.748  19.962   8.021  1.00  0.00     0.004 C 
BRANCH   8   9
ATOM      9  C   UNL     1     -38.634  19.291   9.117  1.00  0.00    -0.011 C 
ATOM     10  C   UNL     1     -39.908  20.125   9.364  1.00  0.00     0.008 C 
BRANCH   9  11
ATOM     11  C   UNL     1     -38.010  18.829  10.485  1.00  0.00    -0.002 C 
ATOM     12  C   UNL     1     -36.492  18.529  10.544  1.00  0.00     0.005 C 
ATOM     13  C   UNL     1     -38.671  17.668  11.277  1.00  0.00    -0.026 C 
ATOM     14  C   UNL     1     -36.289  17.565  11.729  1.00  0.00     0.005 C 
ATOM     15  C   UNL     1     -37.649  17.520  12.416  1.00  0.00    -0.001 C 
ATOM     16  C   UNL     1     -40.030  18.013  11.928  1.00  0.00     0.007 C 
ATOM     17  C   UNL     1     -38.797  16.387  10.400  1.00  0.00     0.012 C 
ATOM     18  C   UNL     1     -37.957  16.363  13.398  1.00  0.00     0.004 C 
ATOM     19  C   UNL     1     -40.464  16.897  12.904  1.00  0.00     0.005 C 
ATOM     20  C   UNL     1     -39.390  16.563  13.993  1.00  0.00     0.003 C 
ATOM     21  C   UNL     1     -36.928  16.376  14.547  1.00  0.00     0.085 C 
ATOM     22  C   UNL     1     -39.814  15.392  14.987  1.00  0.00    -0.000 C 
ATOM     23  C   UNL     1     -37.274  15.384  15.610  1.00  0.00     0.159 C 
ATOM     24  C   UNL     1     -38.586  14.702  15.605  1.00  0.00     0.005 C 
ATOM     25  C   UNL     1     -40.678  14.303  14.276  1.00  0.00     0.020 C 
ATOM     26  C   UNL     1     -40.631  16.019  16.145  1.00  0.00     0.017 C 
ATOM     27  O   UNL     1     -36.422  15.127  16.504  1.00  0.00    -0.295 OA
ATOM     28  C   UNL     1     -38.676  13.467  16.134  1.00  0.00     0.055 C 
ATOM     29  C   UNL     1     -41.057  13.126  15.192  1.00  0.00     0.081 C 
ATOM     30  C   UNL     1     -39.892  12.653  16.003  1.00  0.00     0.156 C 
ATOM     31  O   UNL     1     -39.957  11.541  16.592  1.00  0.00    -0.295 OA
ENDBRANCH   9  11
ENDBRANCH   8   9
ENDBRANCH   1   8
TORSDOF 6
ENDMDL
