MODEL 1
REMARK VINA RESULT:    -5.915      0.000      0.000
REMARK INTER + INTRA:          -5.915
REMARK INTER:                  -5.915
REMARK INTRA:                   0.000
REMARK UNBOUND:                 0.000
REMARK SMILES CC1=CC(=O)[C@H]2C[C@@H]1C2(C)C
REMARK SMILES IDX 1 1 2 2 3 3 4 4 5 5 6 6 7 7 8 8 9 9 10 10 11 11
REMARK H PARENT
REMARK Flexibility Score: inf
ROOT
ATOM      1  C   UNL     1       6.667  20.891   3.719  1.00  0.00     0.040 C 
ATOM      2  C   UNL     1       6.289  20.621   5.141  1.00  0.00    -0.066 C 
ATOM      3  C   UNL     1       6.553  19.432   5.752  1.00  0.00     0.047 C 
ATOM      4  C   UNL     1       6.114  19.308   7.179  1.00  0.00     0.159 C 
ATOM      5  O   UNL     1       6.263  18.246   7.838  1.00  0.00    -0.295 OA
ATOM      6  C   UNL     1       5.474  20.561   7.778  1.00  0.00     0.067 C 
ATOM      7  C   UNL     1       6.407  21.710   7.337  1.00  0.00     0.021 C 
ATOM      8  C   UNL     1       5.626  21.715   6.004  1.00  0.00     0.022 C 
ATOM      9  C   UNL     1       4.419  21.106   6.774  1.00  0.00    -0.019 C 
ATOM     10  C   UNL     1       3.511  22.192   7.404  1.00  0.00     0.012 C 
ATOM     11  C   UNL     1       3.512  20.086   6.030  1.00  0.00     0.012 C 
ENDROOT
TORSDOF 0
ENDMDL
MODEL 2
REMARK VINA RESULT:    -5.638      1.619      3.515
REMARK INTER + INTRA:          -5.638
REMARK INTER:                  -5.638
REMARK INTRA:                   0.000
REMARK UNBOUND:                 0.000
REMARK SMILES CC1=CC(=O)[C@H]2C[C@@H]1C2(C)C
REMARK SMILES IDX 1 1 2 2 3 3 4 4 5 5 6 6 7 7 8 8 9 9 10 10 11 11
REMARK H PARENT
REMARK Flexibility Score: inf
ROOT
ATOM      1  C   UNL     1       2.571  19.612   7.305  1.00  0.00     0.040 C 
ATOM      2  C   UNL     1       4.051  19.792   7.177  1.00  0.00    -0.066 C 
ATOM      3  C   UNL     1       4.692  20.901   7.642  1.00  0.00     0.047 C 
ATOM      4  C   UNL     1       6.176  20.942   7.440  1.00  0.00     0.159 C 
ATOM      5  O   UNL     1       6.875  21.930   7.788  1.00  0.00    -0.295 OA
ATOM      6  C   UNL     1       6.782  19.700   6.785  1.00  0.00     0.067 C 
ATOM      7  C   UNL     1       6.119  18.520   7.528  1.00  0.00     0.021 C 
ATOM      8  C   UNL     1       4.930  18.689   6.554  1.00  0.00     0.022 C 
ATOM      9  C   UNL     1       5.924  19.329   5.542  1.00  0.00    -0.019 C 
ATOM     10  C   UNL     1       6.614  18.271   4.644  1.00  0.00     0.012 C 
ATOM     11  C   UNL     1       5.407  20.478   4.631  1.00  0.00     0.012 C 
ENDROOT
TORSDOF 0
ENDMDL
MODEL 3
REMARK VINA RESULT:    -5.618      1.785      3.146
REMARK INTER + INTRA:          -5.618
REMARK INTER:                  -5.618
REMARK INTRA:                   0.000
REMARK UNBOUND:                 0.000
REMARK SMILES CC1=CC(=O)[C@H]2C[C@@H]1C2(C)C
REMARK SMILES IDX 1 1 2 2 3 3 4 4 5 5 6 6 7 7 8 8 9 9 10 10 11 11
REMARK H PARENT
REMARK Flexibility Score: inf
ROOT
ATOM      1  C   UNL     1       3.644  22.873   7.022  1.00  0.00     0.040 C 
ATOM      2  C   UNL     1       4.590  21.904   6.386  1.00  0.00    -0.066 C 
ATOM      3  C   UNL     1       4.686  21.761   5.034  1.00  0.00     0.047 C 
ATOM      4  C   UNL     1       5.677  20.750   4.543  1.00  0.00     0.159 C 
ATOM      5  O   UNL     1       5.828  20.496   3.320  1.00  0.00    -0.295 OA
ATOM      6  C   UNL     1       6.494  20.052   5.632  1.00  0.00     0.067 C 
ATOM      7  C   UNL     1       6.933  21.198   6.569  1.00  0.00     0.021 C 
ATOM      8  C   UNL     1       5.551  21.058   7.246  1.00  0.00     0.022 C 
ATOM      9  C   UNL     1       5.523  19.582   6.753  1.00  0.00    -0.019 C 
ATOM     10  C   UNL     1       6.202  18.613   7.753  1.00  0.00     0.012 C 
ATOM     11  C   UNL     1       4.154  18.972   6.337  1.00  0.00     0.012 C 
ENDROOT
TORSDOF 0
ENDMDL
MODEL 4
REMARK VINA RESULT:    -5.469      1.833      3.028
REMARK INTER + INTRA:          -5.469
REMARK INTER:                  -5.469
REMARK INTRA:                   0.000
REMARK UNBOUND:                 0.000
REMARK SMILES CC1=CC(=O)[C@H]2C[C@@H]1C2(C)C
REMARK SMILES IDX 1 1 2 2 3 3 4 4 5 5 6 6 7 7 8 8 9 9 10 10 11 11
REMARK H PARENT
REMARK Flexibility Score: inf
ROOT
ATOM      1  C   UNL     1       6.547  22.008   8.050  1.00  0.00     0.040 C 
ATOM      2  C   UNL     1       6.268  20.987   6.993  1.00  0.00    -0.066 C 
ATOM      3  C   UNL     1       6.622  21.173   5.690  1.00  0.00     0.047 C 
ATOM      4  C   UNL     1       6.275  20.064   4.745  1.00  0.00     0.159 C 
ATOM      5  O   UNL     1       6.511  20.134   3.510  1.00  0.00    -0.295 OA
ATOM      6  C   UNL     1       5.617  18.840   5.384  1.00  0.00     0.067 C 
ATOM      7  C   UNL     1       6.470  18.567   6.643  1.00  0.00     0.021 C 
ATOM      8  C   UNL     1       5.610  19.639   7.351  1.00  0.00     0.022 C 
ATOM      9  C   UNL     1       4.480  19.326   6.327  1.00  0.00    -0.019 C 
ATOM     10  C   UNL     1       3.565  18.167   6.794  1.00  0.00     0.012 C 
ATOM     11  C   UNL     1       3.576  20.499   5.851  1.00  0.00     0.012 C 
ENDROOT
TORSDOF 0
ENDMDL
MODEL 5
REMARK VINA RESULT:    -5.245      1.522      2.242
REMARK INTER + INTRA:          -5.245
REMARK INTER:                  -5.245
REMARK INTRA:                   0.000
REMARK UNBOUND:                 0.000
REMARK SMILES CC1=CC(=O)[C@H]2C[C@@H]1C2(C)C
REMARK SMILES IDX 1 1 2 2 3 3 4 4 5 5 6 6 7 7 8 8 9 9 10 10 11 11
REMARK H PARENT
REMARK Flexibility Score: inf
ROOT
ATOM      1  C   UNL     1       6.145  20.485   3.372  1.00  0.00     0.040 C 
ATOM      2  C   UNL     1       5.755  20.741   4.793  1.00  0.00    -0.066 C 
ATOM      3  C   UNL     1       6.613  21.295   5.696  1.00  0.00     0.047 C 
ATOM      4  C   UNL     1       6.081  21.490   7.083  1.00  0.00     0.159 C 
ATOM      5  O   UNL     1       6.788  21.952   8.015  1.00  0.00    -0.295 OA
ATOM      6  C   UNL     1       4.619  21.089   7.285  1.00  0.00     0.067 C 
ATOM      7  C   UNL     1       3.889  21.696   6.068  1.00  0.00     0.021 C 
ATOM      8  C   UNL     1       4.326  20.436   5.287  1.00  0.00     0.022 C 
ATOM      9  C   UNL     1       4.398  19.688   6.650  1.00  0.00    -0.019 C 
ATOM     10  C   UNL     1       3.037  19.065   7.053  1.00  0.00     0.012 C 
ATOM     11  C   UNL     1       5.502  18.608   6.837  1.00  0.00     0.012 C 
ENDROOT
TORSDOF 0
ENDMDL
MODEL 6
REMARK VINA RESULT:    -5.113      1.942      3.157
REMARK INTER + INTRA:          -5.113
REMARK INTER:                  -5.113
REMARK INTRA:                   0.000
REMARK UNBOUND:                 0.000
REMARK SMILES CC1=CC(=O)[C@H]2C[C@@H]1C2(C)C
REMARK SMILES IDX 1 1 2 2 3 3 4 4 5 5 6 6 7 7 8 8 9 9 10 10 11 11
REMARK H PARENT
REMARK Flexibility Score: inf
ROOT
ATOM      1  C   UNL     1       5.471  20.918   3.225  1.00  0.00     0.040 C 
ATOM      2  C   UNL     1       4.989  20.920   4.641  1.00  0.00    -0.066 C 
ATOM      3  C   UNL     1       4.307  21.972   5.177  1.00  0.00     0.047 C 
ATOM      4  C   UNL     1       3.890  21.831   6.609  1.00  0.00     0.159 C 
ATOM      5  O   UNL     1       3.293  22.749   7.229  1.00  0.00    -0.295 OA
ATOM      6  C   UNL     1       4.240  20.493   7.264  1.00  0.00     0.067 C 
ATOM      7  C   UNL     1       3.827  19.439   6.214  1.00  0.00     0.021 C 
ATOM      8  C   UNL     1       5.199  19.691   5.549  1.00  0.00     0.022 C 
ATOM      9  C   UNL     1       5.723  20.156   6.938  1.00  0.00    -0.019 C 
ATOM     10  C   UNL     1       6.261  18.980   7.791  1.00  0.00     0.012 C 
ATOM     11  C   UNL     1       6.769  21.307   6.981  1.00  0.00     0.012 C 
ENDROOT
TORSDOF 0
ENDMDL
MODEL 7
REMARK VINA RESULT:    -4.961      2.106      3.000
REMARK INTER + INTRA:          -4.961
REMARK INTER:                  -4.961
REMARK INTRA:                   0.000
REMARK UNBOUND:                 0.000
REMARK SMILES CC1=CC(=O)[C@H]2C[C@@H]1C2(C)C
REMARK SMILES IDX 1 1 2 2 3 3 4 4 5 5 6 6 7 7 8 8 9 9 10 10 11 11
REMARK H PARENT
REMARK Flexibility Score: inf
ROOT
ATOM      1  C   UNL     1       6.357  18.629   7.300  1.00  0.00     0.040 C 
ATOM      2  C   UNL     1       5.037  19.289   7.057  1.00  0.00    -0.066 C 
ATOM      3  C   UNL     1       3.965  18.610   6.558  1.00  0.00     0.047 C 
ATOM      4  C   UNL     1       2.709  19.404   6.366  1.00  0.00     0.159 C 
ATOM      5  O   UNL     1       1.666  18.902   5.873  1.00  0.00    -0.295 OA
ATOM      6  C   UNL     1       2.783  20.865   6.812  1.00  0.00     0.067 C 
ATOM      7  C   UNL     1       3.476  20.804   8.191  1.00  0.00     0.021 C 
ATOM      8  C   UNL     1       4.815  20.771   7.420  1.00  0.00     0.022 C 
ATOM      9  C   UNL     1       4.090  21.489   6.245  1.00  0.00    -0.019 C 
ATOM     10  C   UNL     1       4.117  23.032   6.389  1.00  0.00     0.012 C 
ATOM     11  C   UNL     1       4.512  21.128   4.792  1.00  0.00     0.012 C 
ENDROOT
TORSDOF 0
ENDMDL
MODEL 8
REMARK VINA RESULT:    -4.902      1.719      3.008
REMARK INTER + INTRA:          -4.902
REMARK INTER:                  -4.902
REMARK INTRA:                   0.000
REMARK UNBOUND:                 0.000
REMARK SMILES CC1=CC(=O)[C@H]2C[C@@H]1C2(C)C
REMARK SMILES IDX 1 1 2 2 3 3 4 4 5 5 6 6 7 7 8 8 9 9 10 10 11 11
REMARK H PARENT
REMARK Flexibility Score: inf
ROOT
ATOM      1  C   UNL     1       6.103  18.063   7.456  1.00  0.00     0.040 C 
ATOM      2  C   UNL     1       5.752  19.219   6.573  1.00  0.00    -0.066 C 
ATOM      3  C   UNL     1       6.478  19.536   5.464  1.00  0.00     0.047 C 
ATOM      4  C   UNL     1       6.007  20.722   4.680  1.00  0.00     0.159 C 
ATOM      5  O   UNL     1       6.617  21.140   3.661  1.00  0.00    -0.295 OA
ATOM      6  C   UNL     1       4.732  21.387   5.201  1.00  0.00     0.067 C 
ATOM      7  C   UNL     1       3.782  20.205   5.494  1.00  0.00     0.021 C 
ATOM      8  C   UNL     1       4.502  20.077   6.855  1.00  0.00     0.022 C 
ATOM      9  C   UNL     1       4.870  21.584   6.737  1.00  0.00    -0.019 C 
ATOM     10  C   UNL     1       3.769  22.508   7.315  1.00  0.00     0.012 C 
ATOM     11  C   UNL     1       6.242  22.051   7.302  1.00  0.00     0.012 C 
ENDROOT
TORSDOF 0
ENDMDL
MODEL 9
REMARK VINA RESULT:    -4.864      2.108      3.529
REMARK INTER + INTRA:          -4.864
REMARK INTER:                  -4.864
REMARK INTRA:                   0.000
REMARK UNBOUND:                 0.000
REMARK SMILES CC1=CC(=O)[C@H]2C[C@@H]1C2(C)C
REMARK SMILES IDX 1 1 2 2 3 3 4 4 5 5 6 6 7 7 8 8 9 9 10 10 11 11
REMARK H PARENT
REMARK Flexibility Score: inf
ROOT
ATOM      1  C   UNL     1       3.118  18.263   6.688  1.00  0.00     0.040 C 
ATOM      2  C   UNL     1       3.701  19.639   6.755  1.00  0.00    -0.066 C 
ATOM      3  C   UNL     1       2.939  20.741   7.006  1.00  0.00     0.047 C 
ATOM      4  C   UNL     1       3.662  22.053   7.042  1.00  0.00     0.159 C 
ATOM      5  O   UNL     1       3.064  23.145   7.222  1.00  0.00    -0.295 OA
ATOM      6  C   UNL     1       5.176  21.971   6.845  1.00  0.00     0.067 C 
ATOM      7  C   UNL     1       5.613  20.804   7.757  1.00  0.00     0.021 C 
ATOM      8  C   UNL     1       5.218  19.864   6.596  1.00  0.00     0.022 C 
ATOM      9  C   UNL     1       5.467  21.053   5.624  1.00  0.00    -0.019 C 
ATOM     10  C   UNL     1       6.944  21.137   5.161  1.00  0.00     0.012 C 
ATOM     11  C   UNL     1       4.556  21.179   4.370  1.00  0.00     0.012 C 
ENDROOT
TORSDOF 0
ENDMDL
