MODEL 1
REMARK VINA RESULT:    -4.887      0.000      0.000
REMARK INTER + INTRA:          -6.029
REMARK INTER:                  -5.744
REMARK INTRA:                  -0.285
REMARK UNBOUND:                -0.285
REMARK SMILES COc1cc2ccc(=O)oc2c(OC)c1OC
REMARK SMILES IDX 3 1 15 2 12 3 11 4 5 5 4 6 6 7 7 8 8 9 9 10 10 11 2 12 1 13
REMARK SMILES IDX 16 14 17 15 13 16 14 17
REMARK H PARENT
REMARK Flexibility Score: inf
ROOT
ATOM      1  C   UNL     1       8.476  -8.351 -10.547  1.00  0.00     0.165 A 
ATOM      2  C   UNL     1       9.585  -7.480 -10.744  1.00  0.00     0.207 A 
ATOM      3  C   UNL     1       9.971  -6.596  -9.698  1.00  0.00     0.208 A 
ATOM      4  C   UNL     1       9.260  -6.593  -8.491  1.00  0.00     0.184 A 
ATOM      5  C   UNL     1       8.166  -7.457  -8.304  1.00  0.00     0.025 A 
ATOM      6  C   UNL     1       7.781  -8.326  -9.324  1.00  0.00     0.062 A 
ATOM      7  C   UNL     1       7.483  -7.421  -7.083  1.00  0.00     0.020 A 
ATOM      8  C   UNL     1       7.901  -6.538  -6.089  1.00  0.00     0.094 A 
ATOM      9  C   UNL     1       8.996  -5.708  -6.342  1.00  0.00     0.336 A 
ATOM     10  O   UNL     1       9.391  -4.901  -5.460  1.00  0.00    -0.246 OA
ATOM     11  O   UNL     1       9.625  -5.764  -7.513  1.00  0.00    -0.419 OA
ENDROOT
BRANCH   1  12
ATOM     12  O   UNL     1       8.083  -9.230 -11.571  1.00  0.00    -0.493 OA
ATOM     13  C   UNL     1       7.146  -8.925 -12.600  1.00  0.00     0.278 C 
ENDBRANCH   1  12
BRANCH   2  14
ATOM     14  O   UNL     1      10.322  -7.456 -11.943  1.00  0.00    -0.490 OA
ATOM     15  C   UNL     1      11.423  -8.286 -12.299  1.00  0.00     0.278 C 
ENDBRANCH   2  14
BRANCH   3  16
ATOM     16  O   UNL     1      11.051  -5.694  -9.788  1.00  0.00    -0.490 OA
ATOM     17  C   UNL     1      12.431  -5.987  -9.599  1.00  0.00     0.278 C 
ENDBRANCH   3  16
TORSDOF 3
ENDMDL
MODEL 2
REMARK VINA RESULT:    -4.772      2.846      4.439
REMARK INTER + INTRA:          -5.893
REMARK INTER:                  -5.603
REMARK INTRA:                  -0.290
REMARK UNBOUND:                -0.285
REMARK SMILES COc1cc2ccc(=O)oc2c(OC)c1OC
REMARK SMILES IDX 3 1 15 2 12 3 11 4 5 5 4 6 6 7 7 8 8 9 9 10 10 11 2 12 1 13
REMARK SMILES IDX 16 14 17 15 13 16 14 17
REMARK H PARENT
REMARK Flexibility Score: inf
ROOT
ATOM      1  C   UNL     1       8.675  -6.132  -7.773  1.00  0.00     0.165 A 
ATOM      2  C   UNL     1       9.713  -6.411  -8.706  1.00  0.00     0.207 A 
ATOM      3  C   UNL     1       9.657  -5.830 -10.005  1.00  0.00     0.208 A 
ATOM      4  C   UNL     1       8.586  -4.995 -10.349  1.00  0.00     0.184 A 
ATOM      5  C   UNL     1       7.565  -4.724  -9.420  1.00  0.00     0.025 A 
ATOM      6  C   UNL     1       7.612  -5.288  -8.146  1.00  0.00     0.062 A 
ATOM      7  C   UNL     1       6.513  -3.884  -9.804  1.00  0.00     0.020 A 
ATOM      8  C   UNL     1       6.504  -3.340 -11.087  1.00  0.00     0.094 A 
ATOM      9  C   UNL     1       7.551  -3.651 -11.959  1.00  0.00     0.336 A 
ATOM     10  O   UNL     1       7.564  -3.171 -13.122  1.00  0.00    -0.246 OA
ATOM     11  O   UNL     1       8.537  -4.453 -11.565  1.00  0.00    -0.419 OA
ENDROOT
BRANCH   1  12
ATOM     12  O   UNL     1       8.717  -6.698  -6.487  1.00  0.00    -0.493 OA
ATOM     13  C   UNL     1       7.868  -7.742  -6.022  1.00  0.00     0.278 C 
ENDBRANCH   1  12
BRANCH   2  14
ATOM     14  O   UNL     1      10.804  -7.245  -8.397  1.00  0.00    -0.490 OA
ATOM     15  C   UNL     1      10.893  -8.654  -8.580  1.00  0.00     0.278 C 
ENDBRANCH   2  14
BRANCH   3  16
ATOM     16  O   UNL     1      10.629  -6.040 -11.004  1.00  0.00    -0.490 OA
ATOM     17  C   UNL     1      11.866  -5.351 -11.154  1.00  0.00     0.278 C 
ENDBRANCH   3  16
TORSDOF 3
ENDMDL
MODEL 3
REMARK VINA RESULT:    -4.688      2.284      3.271
REMARK INTER + INTRA:          -5.795
REMARK INTER:                  -5.568
REMARK INTRA:                  -0.227
REMARK UNBOUND:                -0.285
REMARK SMILES COc1cc2ccc(=O)oc2c(OC)c1OC
REMARK SMILES IDX 3 1 15 2 12 3 11 4 5 5 4 6 6 7 7 8 8 9 9 10 10 11 2 12 1 13
REMARK SMILES IDX 16 14 17 15 13 16 14 17
REMARK H PARENT
REMARK Flexibility Score: inf
ROOT
ATOM      1  C   UNL     1       8.243  -5.483 -10.801  1.00  0.00     0.165 A 
ATOM      2  C   UNL     1       8.048  -6.880 -10.988  1.00  0.00     0.207 A 
ATOM      3  C   UNL     1       7.890  -7.721  -9.850  1.00  0.00     0.208 A 
ATOM      4  C   UNL     1       7.929  -7.167  -8.564  1.00  0.00     0.184 A 
ATOM      5  C   UNL     1       8.120  -5.785  -8.387  1.00  0.00     0.025 A 
ATOM      6  C   UNL     1       8.275  -4.954  -9.496  1.00  0.00     0.062 A 
ATOM      7  C   UNL     1       8.152  -5.272  -7.085  1.00  0.00     0.020 A 
ATOM      8  C   UNL     1       7.992  -6.136  -6.004  1.00  0.00     0.094 A 
ATOM      9  C   UNL     1       7.804  -7.499  -6.252  1.00  0.00     0.336 A 
ATOM     10  O   UNL     1       7.659  -8.299  -5.292  1.00  0.00    -0.246 OA
ATOM     11  O   UNL     1       7.780  -7.957  -7.501  1.00  0.00    -0.419 OA
ENDROOT
BRANCH   1  12
ATOM     12  O   UNL     1       8.400  -4.640 -11.914  1.00  0.00    -0.493 OA
ATOM     13  C   UNL     1       7.533  -3.563 -12.257  1.00  0.00     0.278 C 
ENDBRANCH   1  12
BRANCH   2  14
ATOM     14  O   UNL     1       8.005  -7.473 -12.264  1.00  0.00    -0.490 OA
ATOM     15  C   UNL     1       9.078  -8.092 -12.966  1.00  0.00     0.278 C 
ENDBRANCH   2  14
BRANCH   3  16
ATOM     16  O   UNL     1       7.693  -9.115  -9.922  1.00  0.00    -0.490 OA
ATOM     17  C   UNL     1       8.696 -10.125  -9.890  1.00  0.00     0.278 C 
ENDBRANCH   3  16
TORSDOF 3
ENDMDL
MODEL 4
REMARK VINA RESULT:    -4.566      2.362      5.500
REMARK INTER + INTRA:          -5.652
REMARK INTER:                  -5.389
REMARK INTRA:                  -0.262
REMARK UNBOUND:                -0.285
REMARK SMILES COc1cc2ccc(=O)oc2c(OC)c1OC
REMARK SMILES IDX 3 1 15 2 12 3 11 4 5 5 4 6 6 7 7 8 8 9 9 10 10 11 2 12 1 13
REMARK SMILES IDX 16 14 17 15 13 16 14 17
REMARK H PARENT
REMARK Flexibility Score: inf
ROOT
ATOM      1  C   UNL     1       7.832  -6.350  -7.058  1.00  0.00     0.165 A 
ATOM      2  C   UNL     1       7.859  -7.707  -7.487  1.00  0.00     0.207 A 
ATOM      3  C   UNL     1       7.954  -7.996  -8.878  1.00  0.00     0.208 A 
ATOM      4  C   UNL     1       8.020  -6.948  -9.804  1.00  0.00     0.184 A 
ATOM      5  C   UNL     1       7.993  -5.610  -9.372  1.00  0.00     0.025 A 
ATOM      6  C   UNL     1       7.900  -5.318  -8.012  1.00  0.00     0.062 A 
ATOM      7  C   UNL     1       8.061  -4.593 -10.331  1.00  0.00     0.020 A 
ATOM      8  C   UNL     1       8.154  -4.928 -11.681  1.00  0.00     0.094 A 
ATOM      9  C   UNL     1       8.176  -6.279 -12.040  1.00  0.00     0.336 A 
ATOM     10  O   UNL     1       8.258  -6.606 -13.252  1.00  0.00    -0.246 OA
ATOM     11  O   UNL     1       8.109  -7.223 -11.106  1.00  0.00    -0.419 OA
ENDROOT
BRANCH   1  12
ATOM     12  O   UNL     1       7.739  -6.048  -5.689  1.00  0.00    -0.493 OA
ATOM     13  C   UNL     1       8.594  -5.153  -4.985  1.00  0.00     0.278 C 
ENDBRANCH   1  12
BRANCH   2  14
ATOM     14  O   UNL     1       7.794  -8.786  -6.585  1.00  0.00    -0.490 OA
ATOM     15  C   UNL     1       6.626  -9.381  -6.031  1.00  0.00     0.278 C 
ENDBRANCH   2  14
BRANCH   3  16
ATOM     16  O   UNL     1       7.987  -9.302  -9.409  1.00  0.00    -0.490 OA
ATOM     17  C   UNL     1       6.872 -10.114  -9.758  1.00  0.00     0.278 C 
ENDBRANCH   3  16
TORSDOF 3
ENDMDL
MODEL 5
REMARK VINA RESULT:    -4.554      1.687      3.518
REMARK INTER + INTRA:          -5.638
REMARK INTER:                  -5.336
REMARK INTRA:                  -0.302
REMARK UNBOUND:                -0.285
REMARK SMILES COc1cc2ccc(=O)oc2c(OC)c1OC
REMARK SMILES IDX 3 1 15 2 12 3 11 4 5 5 4 6 6 7 7 8 8 9 9 10 10 11 2 12 1 13
REMARK SMILES IDX 16 14 17 15 13 16 14 17
REMARK H PARENT
REMARK Flexibility Score: inf
ROOT
ATOM      1  C   UNL     1       9.956  -6.003 -10.213  1.00  0.00     0.165 A 
ATOM      2  C   UNL     1       9.394  -7.178 -10.788  1.00  0.00     0.207 A 
ATOM      3  C   UNL     1       8.586  -8.030  -9.982  1.00  0.00     0.208 A 
ATOM      4  C   UNL     1       8.354  -7.705  -8.639  1.00  0.00     0.184 A 
ATOM      5  C   UNL     1       8.913  -6.542  -8.080  1.00  0.00     0.025 A 
ATOM      6  C   UNL     1       9.705  -5.702  -8.861  1.00  0.00     0.062 A 
ATOM      7  C   UNL     1       8.657  -6.254  -6.734  1.00  0.00     0.020 A 
ATOM      8  C   UNL     1       7.859  -7.120  -5.988  1.00  0.00     0.094 A 
ATOM      9  C   UNL     1       7.335  -8.257  -6.608  1.00  0.00     0.336 A 
ATOM     10  O   UNL     1       6.612  -9.054  -5.955  1.00  0.00    -0.246 OA
ATOM     11  O   UNL     1       7.597  -8.505  -7.889  1.00  0.00    -0.419 OA
ENDROOT
BRANCH   1  12
ATOM     12  O   UNL     1      10.755  -5.153 -10.995  1.00  0.00    -0.493 OA
ATOM     13  C   UNL     1      12.173  -5.231 -11.106  1.00  0.00     0.278 C 
ENDBRANCH   1  12
BRANCH   2  14
ATOM     14  O   UNL     1       9.605  -7.537 -12.132  1.00  0.00    -0.490 OA
ATOM     15  C   UNL     1      10.613  -8.399 -12.649  1.00  0.00     0.278 C 
ENDBRANCH   2  14
BRANCH   3  16
ATOM     16  O   UNL     1       7.982  -9.215 -10.450  1.00  0.00    -0.490 OA
ATOM     17  C   UNL     1       6.778  -9.325 -11.201  1.00  0.00     0.278 C 
ENDBRANCH   3  16
TORSDOF 3
ENDMDL
MODEL 6
REMARK VINA RESULT:    -4.528      2.844      5.104
REMARK INTER + INTRA:          -5.607
REMARK INTER:                  -5.350
REMARK INTRA:                  -0.256
REMARK UNBOUND:                -0.285
REMARK SMILES COc1cc2ccc(=O)oc2c(OC)c1OC
REMARK SMILES IDX 3 1 15 2 12 3 11 4 5 5 4 6 6 7 7 8 8 9 9 10 10 11 2 12 1 13
REMARK SMILES IDX 16 14 17 15 13 16 14 17
REMARK H PARENT
REMARK Flexibility Score: inf
ROOT
ATOM      1  C   UNL     1       8.544  -6.498  -8.997  1.00  0.00     0.165 A 
ATOM      2  C   UNL     1       8.731  -7.541  -9.948  1.00  0.00     0.207 A 
ATOM      3  C   UNL     1       8.475  -7.283 -11.325  1.00  0.00     0.208 A 
ATOM      4  C   UNL     1       8.042  -6.013 -11.727  1.00  0.00     0.184 A 
ATOM      5  C   UNL     1       7.861  -4.988 -10.782  1.00  0.00     0.025 A 
ATOM      6  C   UNL     1       8.110  -5.231  -9.432  1.00  0.00     0.062 A 
ATOM      7  C   UNL     1       7.427  -3.733 -11.226  1.00  0.00     0.020 A 
ATOM      8  C   UNL     1       7.190  -3.531 -12.585  1.00  0.00     0.094 A 
ATOM      9  C   UNL     1       7.392  -4.595 -13.469  1.00  0.00     0.336 A 
ATOM     10  O   UNL     1       7.184  -4.437 -14.700  1.00  0.00    -0.246 OA
ATOM     11  O   UNL     1       7.804  -5.776 -13.017  1.00  0.00    -0.419 OA
ENDROOT
BRANCH   1  12
ATOM     12  O   UNL     1       8.793  -6.736  -7.635  1.00  0.00    -0.493 OA
ATOM     13  C   UNL     1       8.950  -5.729  -6.641  1.00  0.00     0.278 C 
ENDBRANCH   1  12
BRANCH   2  14
ATOM     14  O   UNL     1       9.164  -8.829  -9.581  1.00  0.00    -0.490 OA
ATOM     15  C   UNL     1      10.500  -9.258  -9.344  1.00  0.00     0.278 C 
ENDBRANCH   2  14
BRANCH   3  16
ATOM     16  O   UNL     1       8.627  -8.243 -12.346  1.00  0.00    -0.490 OA
ATOM     17  C   UNL     1       9.825  -8.574 -13.040  1.00  0.00     0.278 C 
ENDBRANCH   3  16
TORSDOF 3
ENDMDL
MODEL 7
REMARK VINA RESULT:    -4.455      1.919      2.136
REMARK INTER + INTRA:          -5.522
REMARK INTER:                  -5.369
REMARK INTRA:                  -0.152
REMARK UNBOUND:                -0.285
REMARK SMILES COc1cc2ccc(=O)oc2c(OC)c1OC
REMARK SMILES IDX 3 1 15 2 12 3 11 4 5 5 4 6 6 7 7 8 8 9 9 10 10 11 2 12 1 13
REMARK SMILES IDX 16 14 17 15 13 16 14 17
REMARK H PARENT
REMARK Flexibility Score: inf
ROOT
ATOM      1  C   UNL     1       7.694  -8.986  -9.967  1.00  0.00     0.165 A 
ATOM      2  C   UNL     1       7.909  -7.628 -10.338  1.00  0.00     0.207 A 
ATOM      3  C   UNL     1       8.038  -6.640  -9.321  1.00  0.00     0.208 A 
ATOM      4  C   UNL     1       7.953  -7.012  -7.973  1.00  0.00     0.184 A 
ATOM      5  C   UNL     1       7.741  -8.355  -7.615  1.00  0.00     0.025 A 
ATOM      6  C   UNL     1       7.614  -9.329  -8.604  1.00  0.00     0.062 A 
ATOM      7  C   UNL     1       7.662  -8.684  -6.257  1.00  0.00     0.020 A 
ATOM      8  C   UNL     1       7.796  -7.680  -5.299  1.00  0.00     0.094 A 
ATOM      9  C   UNL     1       8.005  -6.365  -5.726  1.00  0.00     0.336 A 
ATOM     10  O   UNL     1       8.128  -5.442  -4.880  1.00  0.00    -0.246 OA
ATOM     11  O   UNL     1       8.075  -6.083  -7.024  1.00  0.00    -0.419 OA
ENDROOT
BRANCH   1  12
ATOM     12  O   UNL     1       7.565  -9.973 -10.958  1.00  0.00    -0.493 OA
ATOM     13  C   UNL     1       6.446 -10.121 -11.828  1.00  0.00     0.278 C 
ENDBRANCH   1  12
BRANCH   2  14
ATOM     14  O   UNL     1       7.999  -7.217 -11.681  1.00  0.00    -0.490 OA
ATOM     15  C   UNL     1       9.084  -7.427 -12.578  1.00  0.00     0.278 C 
ENDBRANCH   2  14
BRANCH   3  16
ATOM     16  O   UNL     1       8.251  -5.270  -9.578  1.00  0.00    -0.490 OA
ATOM     17  C   UNL     1       7.268  -4.299  -9.919  1.00  0.00     0.278 C 
ENDBRANCH   3  16
TORSDOF 3
ENDMDL
MODEL 8
REMARK VINA RESULT:    -4.421     12.011     13.249
REMARK INTER + INTRA:          -5.482
REMARK INTER:                  -5.219
REMARK INTRA:                  -0.262
REMARK UNBOUND:                -0.285
REMARK SMILES COc1cc2ccc(=O)oc2c(OC)c1OC
REMARK SMILES IDX 3 1 15 2 12 3 11 4 5 5 4 6 6 7 7 8 8 9 9 10 10 11 2 12 1 13
REMARK SMILES IDX 16 14 17 15 13 16 14 17
REMARK H PARENT
REMARK Flexibility Score: inf
ROOT
ATOM      1  C   UNL     1       6.945   5.238 -11.035  1.00  0.00     0.165 A 
ATOM      2  C   UNL     1       5.859   6.134 -10.825  1.00  0.00     0.207 A 
ATOM      3  C   UNL     1       5.019   5.957  -9.690  1.00  0.00     0.208 A 
ATOM      4  C   UNL     1       5.268   4.908  -8.796  1.00  0.00     0.184 A 
ATOM      5  C   UNL     1       6.343   4.027  -9.010  1.00  0.00     0.025 A 
ATOM      6  C   UNL     1       7.171   4.194 -10.119  1.00  0.00     0.062 A 
ATOM      7  C   UNL     1       6.557   2.992  -8.092  1.00  0.00     0.020 A 
ATOM      8  C   UNL     1       5.706   2.861  -6.996  1.00  0.00     0.094 A 
ATOM      9  C   UNL     1       4.657   3.772  -6.845  1.00  0.00     0.336 A 
ATOM     10  O   UNL     1       3.875   3.674  -5.864  1.00  0.00    -0.246 OA
ATOM     11  O   UNL     1       4.478   4.745  -7.734  1.00  0.00    -0.419 OA
ENDROOT
BRANCH   1  12
ATOM     12  O   UNL     1       7.784   5.400 -12.151  1.00  0.00    -0.493 OA
ATOM     13  C   UNL     1       8.750   4.453 -12.596  1.00  0.00     0.278 C 
ENDBRANCH   1  12
BRANCH   2  14
ATOM     14  O   UNL     1       5.578   7.199 -11.703  1.00  0.00    -0.490 OA
ATOM     15  C   UNL     1       6.150   8.503 -11.691  1.00  0.00     0.278 C 
ENDBRANCH   2  14
BRANCH   3  16
ATOM     16  O   UNL     1       3.918   6.785  -9.389  1.00  0.00    -0.490 OA
ATOM     17  C   UNL     1       3.945   8.029  -8.699  1.00  0.00     0.278 C 
ENDBRANCH   3  16
TORSDOF 3
ENDMDL
MODEL 9
REMARK VINA RESULT:    -4.408      2.016      5.036
REMARK INTER + INTRA:          -5.466
REMARK INTER:                  -5.186
REMARK INTRA:                  -0.280
REMARK UNBOUND:                -0.285
REMARK SMILES COc1cc2ccc(=O)oc2c(OC)c1OC
REMARK SMILES IDX 3 1 15 2 12 3 11 4 5 5 4 6 6 7 7 8 8 9 9 10 10 11 2 12 1 13
REMARK SMILES IDX 16 14 17 15 13 16 14 17
REMARK H PARENT
REMARK Flexibility Score: inf
ROOT
ATOM      1  C   UNL     1       9.031  -7.057  -7.714  1.00  0.00     0.165 A 
ATOM      2  C   UNL     1       8.764  -6.057  -8.693  1.00  0.00     0.207 A 
ATOM      3  C   UNL     1       9.330  -6.186  -9.993  1.00  0.00     0.208 A 
ATOM      4  C   UNL     1      10.140  -7.289 -10.294  1.00  0.00     0.184 A 
ATOM      5  C   UNL     1      10.397  -8.272  -9.322  1.00  0.00     0.025 A 
ATOM      6  C   UNL     1       9.847  -8.154  -8.047  1.00  0.00     0.062 A 
ATOM      7  C   UNL     1      11.212  -9.358  -9.664  1.00  0.00     0.020 A 
ATOM      8  C   UNL     1      11.742  -9.439 -10.951  1.00  0.00     0.094 A 
ATOM      9  C   UNL     1      11.443  -8.427 -11.867  1.00  0.00     0.336 A 
ATOM     10  O   UNL     1      11.911  -8.478 -13.034  1.00  0.00    -0.246 OA
ATOM     11  O   UNL     1      10.667  -7.406 -11.512  1.00  0.00    -0.419 OA
ENDROOT
BRANCH   1  12
ATOM     12  O   UNL     1       8.479  -6.944  -6.427  1.00  0.00    -0.493 OA
ATOM     13  C   UNL     1       7.668  -7.927  -5.792  1.00  0.00     0.278 C 
ENDBRANCH   1  12
BRANCH   2  14
ATOM     14  O   UNL     1       7.956  -4.936  -8.426  1.00  0.00    -0.490 OA
ATOM     15  C   UNL     1       6.535  -4.869  -8.448  1.00  0.00     0.278 C 
ENDBRANCH   2  14
BRANCH   3  16
ATOM     16  O   UNL     1       9.131  -5.256 -11.033  1.00  0.00    -0.490 OA
ATOM     17  C   UNL     1       7.999  -5.158 -11.891  1.00  0.00     0.278 C 
ENDBRANCH   3  16
TORSDOF 3
ENDMDL
