MODEL 1
REMARK VINA RESULT:    10.035      0.000      0.000
REMARK INTER + INTRA:          10.622
REMARK INTER:                  10.622
REMARK INTRA:                   0.000
REMARK UNBOUND:                 0.000
REMARK SMILES CC1(C)[C@H]2CC[C@@]3(C)[C@H](C=CC4=C(O)C(=O)C(=O)[C@]43C)[C@]2(C)CC[C@@H]1O
REMARK SMILES IDX 1 1 2 2 4 3 5 4 6 5 7 6 9 7 21 8 23 9 24 10 25 11 22 12
REMARK SMILES IDX 10 13 11 14 12 15 13 16 15 17 16 18 17 19 18 20 19 21 20 22
REMARK SMILES IDX 8 23 3 24 26 25 14 27
REMARK H PARENT 26 26 14 28
REMARK Flexibility Score: inf
ROOT
ATOM      1  C   UNL     1       4.212  17.992  13.334  1.00  0.00     0.014 C 
ATOM      2  C   UNL     1       3.396  17.792  14.644  1.00  0.00    -0.006 C 
ATOM      3  C   UNL     1       3.935  18.768  15.774  1.00  0.00     0.004 C 
ATOM      4  C   UNL     1       3.842  20.267  15.402  1.00  0.00     0.005 C 
ATOM      5  C   UNL     1       4.654  21.135  16.365  1.00  0.00     0.009 C 
ATOM      6  C   UNL     1       4.272  20.977  17.872  1.00  0.00    -0.009 C 
ATOM      7  C   UNL     1       4.226  19.420  18.266  1.00  0.00     0.025 C 
ATOM      8  C   UNL     1       3.406  18.497  17.234  1.00  0.00    -0.022 C 
ATOM      9  C   UNL     1       3.608  16.971  17.538  1.00  0.00     0.010 C 
ATOM     10  C   UNL     1       2.999  16.031  16.485  1.00  0.00     0.033 C 
ATOM     11  C   UNL     1       3.581  16.305  15.089  1.00  0.00     0.120 C 
ATOM     12  C   UNL     1       1.875  18.796  17.408  1.00  0.00     0.012 C 
ATOM     13  C   UNL     1       5.616  18.845  18.613  1.00  0.00    -0.022 C 
ATOM     14  C   UNL     1       6.729  19.567  18.741  1.00  0.00     0.005 C 
ATOM     15  C   UNL     1       6.667  21.013  18.629  1.00  0.00     0.012 C 
ATOM     16  C   UNL     1       7.674  21.795  18.247  1.00  0.00     0.171 C 
ATOM     17  C   UNL     1       7.181  23.133  18.020  1.00  0.00     0.264 C 
ATOM     18  O   UNL     1       7.860  24.125  17.644  1.00  0.00    -0.282 OA
ATOM     19  C   UNL     1       5.759  23.115  18.282  1.00  0.00     0.217 C 
ATOM     20  O   UNL     1       5.006  24.122  18.199  1.00  0.00    -0.289 OA
ATOM     21  C   UNL     1       5.351  21.734  18.759  1.00  0.00     0.069 C 
ATOM     22  C   UNL     1       4.980  21.819  20.259  1.00  0.00     0.026 C 
ATOM     23  C   UNL     1       2.893  21.662  18.113  1.00  0.00     0.013 C 
ATOM     24  C   UNL     1       1.910  18.040  14.272  1.00  0.00     0.014 C 
ENDROOT
BRANCH  11  25
ATOM     25  O   UNL     1       4.949  15.965  15.084  1.00  0.00    -0.393 OA
ATOM     26  H   UNL     1       5.033  15.089  15.544  1.00  0.00     0.210 HD
ENDBRANCH  11  25
BRANCH  16  27
ATOM     27  O   UNL     1       8.980  21.364  18.034  1.00  0.00    -0.504 OA
ATOM     28  H   UNL     1       9.477  20.843  18.746  1.00  0.00     0.293 HD
ENDBRANCH  16  27
TORSDOF 2
ENDMDL
