MODEL 1
REMARK VINA RESULT:    -2.549      0.000      0.000
REMARK INTER + INTRA:          -3.315
REMARK INTER:                  -3.219
REMARK INTRA:                  -0.096
REMARK UNBOUND:                -0.096
REMARK SMILES CSCC[C@@H]([NH3+])C(=O)[O-]
REMARK SMILES IDX 4 1 5 2 6 3 7 7 8 8 9 9 3 10 2 11 1 12
REMARK H PARENT 6 4 6 5 6 6
REMARK Flexibility Score: inf
ROOT
ATOM      1  C   UNL     1      -3.533   5.244   0.216  1.00  0.00     0.082 C 
ENDROOT
BRANCH   1   2
ATOM      2  C   UNL     1      -4.643   6.296   0.003  1.00  0.00     0.228 C 
BRANCH   2   3
ATOM      3  N   UNL     1      -5.469   5.986  -1.172  1.00  0.00    -0.350 N 
ATOM      4  H   UNL     1      -5.741   6.860  -1.677  1.00  0.00     0.345 HD
ATOM      5  H   UNL     1      -6.330   5.471  -0.880  1.00  0.00     0.345 HD
ATOM      6  H   UNL     1      -4.938   5.365  -1.826  1.00  0.00     0.345 HD
ENDBRANCH   2   3
BRANCH   2   7
ATOM      7  C   UNL     1      -5.506   6.371   1.235  1.00  0.00     0.099 C 
ATOM      8  O   UNL     1      -4.987   6.587   2.360  1.00  0.00    -0.544 OA
ATOM      9  O   UNL     1      -6.880   6.180   1.139  1.00  0.00    -0.544 OA
ENDBRANCH   2   7
ENDBRANCH   1   2
BRANCH   1  10
ATOM     10  C   UNL     1      -4.054   3.807   0.116  1.00  0.00     0.076 C 
BRANCH  10  11
ATOM     11  S   UNL     1      -2.649   2.649  -0.007  1.00  0.00    -0.165 SA
ATOM     12  C   UNL     1      -2.827   2.020   1.692  1.00  0.00     0.085 C 
ENDBRANCH  10  11
ENDBRANCH   1  10
TORSDOF 5
ENDMDL
MODEL 2
REMARK VINA RESULT:    -2.370      3.279      4.321
REMARK INTER + INTRA:          -3.089
REMARK INTER:                  -2.948
REMARK INTRA:                  -0.141
REMARK UNBOUND:                -0.096
REMARK SMILES CSCC[C@@H]([NH3+])C(=O)[O-]
REMARK SMILES IDX 4 1 5 2 6 3 7 7 8 8 9 9 3 10 2 11 1 12
REMARK H PARENT 6 4 6 5 6 6
REMARK Flexibility Score: inf
ROOT
ATOM      1  C   UNL     1      -3.907   5.252   0.053  1.00  0.00     0.082 C 
ENDROOT
BRANCH   1   2
ATOM      2  C   UNL     1      -4.401   3.802   0.255  1.00  0.00     0.228 C 
BRANCH   2   3
ATOM      3  N   UNL     1      -5.499   3.469  -0.663  1.00  0.00    -0.350 N 
ATOM      4  H   UNL     1      -6.094   2.704  -0.270  1.00  0.00     0.345 HD
ATOM      5  H   UNL     1      -5.116   3.170  -1.588  1.00  0.00     0.345 HD
ATOM      6  H   UNL     1      -6.094   4.313  -0.828  1.00  0.00     0.345 HD
ENDBRANCH   2   3
BRANCH   2   7
ATOM      7  C   UNL     1      -3.253   2.849   0.052  1.00  0.00     0.099 C 
ATOM      8  O   UNL     1      -3.469   1.616  -0.077  1.00  0.00    -0.544 OA
ATOM      9  O   UNL     1      -1.946   3.322   0.027  1.00  0.00    -0.544 OA
ENDBRANCH   2   7
ENDBRANCH   1   2
BRANCH   1  10
ATOM     10  C   UNL     1      -5.030   6.284   0.194  1.00  0.00     0.076 C 
BRANCH  10  11
ATOM     11  S   UNL     1      -5.734   6.203   1.876  1.00  0.00    -0.165 SA
ATOM     12  C   UNL     1      -7.440   5.912   1.308  1.00  0.00     0.085 C 
ENDBRANCH  10  11
ENDBRANCH   1  10
TORSDOF 5
ENDMDL
MODEL 3
REMARK VINA RESULT:    -2.364      3.027      3.935
REMARK INTER + INTRA:          -3.081
REMARK INTER:                  -2.880
REMARK INTRA:                  -0.201
REMARK UNBOUND:                -0.096
REMARK SMILES CSCC[C@@H]([NH3+])C(=O)[O-]
REMARK SMILES IDX 4 1 5 2 6 3 7 7 8 8 9 9 3 10 2 11 1 12
REMARK H PARENT 6 4 6 5 6 6
REMARK Flexibility Score: inf
ROOT
ATOM      1  C   UNL     1      -3.797   5.143   0.323  1.00  0.00     0.082 C 
ENDROOT
BRANCH   1   2
ATOM      2  C   UNL     1      -3.708   3.618   0.101  1.00  0.00     0.228 C 
BRANCH   2   3
ATOM      3  N   UNL     1      -2.315   3.160   0.017  1.00  0.00    -0.350 N 
ATOM      4  H   UNL     1      -1.718   3.871  -0.466  1.00  0.00     0.345 HD
ATOM      5  H   UNL     1      -2.264   2.254  -0.503  1.00  0.00     0.345 HD
ATOM      6  H   UNL     1      -1.936   2.993   0.977  1.00  0.00     0.345 HD
ENDBRANCH   2   3
BRANCH   2   7
ATOM      7  C   UNL     1      -4.417   2.906   1.223  1.00  0.00     0.099 C 
ATOM      8  O   UNL     1      -5.607   2.524   1.079  1.00  0.00    -0.544 OA
ATOM      9  O   UNL     1      -3.768   2.685   2.432  1.00  0.00    -0.544 OA
ENDBRANCH   2   7
ENDBRANCH   1   2
BRANCH   1  10
ATOM     10  C   UNL     1      -4.976   5.781  -0.417  1.00  0.00     0.076 C 
BRANCH  10  11
ATOM     11  S   UNL     1      -6.339   6.100   0.754  1.00  0.00    -0.165 SA
ATOM     12  C   UNL     1      -5.242   6.418   2.173  1.00  0.00     0.085 C 
ENDBRANCH  10  11
ENDBRANCH   1  10
TORSDOF 5
ENDMDL
MODEL 4
REMARK VINA RESULT:    -2.329     11.058     11.953
REMARK INTER + INTRA:          -3.038
REMARK INTER:                  -2.845
REMARK INTRA:                  -0.193
REMARK UNBOUND:                -0.096
REMARK SMILES CSCC[C@@H]([NH3+])C(=O)[O-]
REMARK SMILES IDX 4 1 5 2 6 3 7 7 8 8 9 9 3 10 2 11 1 12
REMARK H PARENT 6 4 6 5 6 6
REMARK Flexibility Score: inf
ROOT
ATOM      1  C   UNL     1       3.285  -3.908  -0.353  1.00  0.00     0.082 C 
ENDROOT
BRANCH   1   2
ATOM      2  C   UNL     1       2.851  -2.577  -1.004  1.00  0.00     0.228 C 
BRANCH   2   3
ATOM      3  N   UNL     1       1.718  -1.968  -0.296  1.00  0.00    -0.350 N 
ATOM      4  H   UNL     1       1.980  -1.031   0.089  1.00  0.00     0.345 HD
ATOM      5  H   UNL     1       1.406  -2.589   0.485  1.00  0.00     0.345 HD
ATOM      6  H   UNL     1       0.909  -1.854  -0.949  1.00  0.00     0.345 HD
ENDBRANCH   2   3
BRANCH   2   7
ATOM      7  C   UNL     1       4.019  -1.625  -1.024  1.00  0.00     0.099 C 
ATOM      8  O   UNL     1       5.074  -1.904  -0.397  1.00  0.00    -0.544 OA
ATOM      9  O   UNL     1       3.930  -0.424  -1.717  1.00  0.00    -0.544 OA
ENDBRANCH   2   7
ENDBRANCH   1   2
BRANCH   1  10
ATOM     10  C   UNL     1       3.291  -5.077  -1.343  1.00  0.00     0.076 C 
BRANCH  10  11
ATOM     11  S   UNL     1       4.988  -5.361  -1.950  1.00  0.00    -0.165 SA
ATOM     12  C   UNL     1       5.723  -5.473  -0.288  1.00  0.00     0.085 C 
ENDBRANCH  10  11
ENDBRANCH   1  10
TORSDOF 5
ENDMDL
MODEL 5
REMARK VINA RESULT:    -2.329     12.725     13.948
REMARK INTER + INTRA:          -3.037
REMARK INTER:                  -2.887
REMARK INTRA:                  -0.150
REMARK UNBOUND:                -0.096
REMARK SMILES CSCC[C@@H]([NH3+])C(=O)[O-]
REMARK SMILES IDX 4 1 5 2 6 3 7 7 8 8 9 9 3 10 2 11 1 12
REMARK H PARENT 6 4 6 5 6 6
REMARK Flexibility Score: inf
ROOT
ATOM      1  C   UNL     1       6.597  -4.483  -0.455  1.00  0.00     0.082 C 
ENDROOT
BRANCH   1   2
ATOM      2  C   UNL     1       5.249  -3.816  -0.804  1.00  0.00     0.228 C 
BRANCH   2   3
ATOM      3  N   UNL     1       4.134  -4.420  -0.061  1.00  0.00    -0.350 N 
ATOM      4  H   UNL     1       3.503  -4.951  -0.705  1.00  0.00     0.345 HD
ATOM      5  H   UNL     1       3.586  -3.679   0.430  1.00  0.00     0.345 HD
ATOM      6  H   UNL     1       4.505  -5.073   0.667  1.00  0.00     0.345 HD
ENDBRANCH   2   3
BRANCH   2   7
ATOM      7  C   UNL     1       5.327  -2.341  -0.504  1.00  0.00     0.099 C 
ATOM      8  O   UNL     1       6.346  -1.862   0.057  1.00  0.00    -0.544 OA
ATOM      9  O   UNL     1       4.265  -1.504  -0.827  1.00  0.00    -0.544 OA
ENDBRANCH   2   7
ENDBRANCH   1   2
BRANCH   1  10
ATOM     10  C   UNL     1       7.035  -5.512  -1.500  1.00  0.00     0.076 C 
BRANCH  10  11
ATOM     11  S   UNL     1       6.623  -7.193  -0.921  1.00  0.00    -0.165 SA
ATOM     12  C   UNL     1       5.176  -7.374  -2.011  1.00  0.00     0.085 C 
ENDBRANCH  10  11
ENDBRANCH   1  10
TORSDOF 5
ENDMDL
MODEL 6
REMARK VINA RESULT:    -2.312      2.909      3.459
REMARK INTER + INTRA:          -3.016
REMARK INTER:                  -2.806
REMARK INTRA:                  -0.209
REMARK UNBOUND:                -0.096
REMARK SMILES CSCC[C@@H]([NH3+])C(=O)[O-]
REMARK SMILES IDX 4 1 5 2 6 3 7 7 8 8 9 9 3 10 2 11 1 12
REMARK H PARENT 6 4 6 5 6 6
REMARK Flexibility Score: inf
ROOT
ATOM      1  C   UNL     1      -6.239   6.245   0.820  1.00  0.00     0.082 C 
ENDROOT
BRANCH   1   2
ATOM      2  C   UNL     1      -5.363   5.867  -0.394  1.00  0.00     0.228 C 
BRANCH   2   3
ATOM      3  N   UNL     1      -4.081   6.584  -0.386  1.00  0.00    -0.350 N 
ATOM      4  H   UNL     1      -3.279   5.913  -0.397  1.00  0.00     0.345 HD
ATOM      5  H   UNL     1      -4.014   7.191   0.463  1.00  0.00     0.345 HD
ATOM      6  H   UNL     1      -4.016   7.207  -1.224  1.00  0.00     0.345 HD
ENDBRANCH   2   3
BRANCH   2   7
ATOM      7  C   UNL     1      -5.122   4.380  -0.394  1.00  0.00     0.099 C 
ATOM      8  O   UNL     1      -6.042   3.589  -0.726  1.00  0.00    -0.544 OA
ATOM      9  O   UNL     1      -3.887   3.872  -0.008  1.00  0.00    -0.544 OA
ENDBRANCH   2   7
ENDBRANCH   1   2
BRANCH   1  10
ATOM     10  C   UNL     1      -5.451   6.266   2.133  1.00  0.00     0.076 C 
BRANCH  10  11
ATOM     11  S   UNL     1      -6.233   5.143   3.340  1.00  0.00    -0.165 SA
ATOM     12  C   UNL     1      -4.809   4.011   3.432  1.00  0.00     0.085 C 
ENDBRANCH  10  11
ENDBRANCH   1  10
TORSDOF 5
ENDMDL
MODEL 7
REMARK VINA RESULT:    -2.288      9.578     10.665
REMARK INTER + INTRA:          -2.986
REMARK INTER:                  -2.934
REMARK INTRA:                  -0.051
REMARK UNBOUND:                -0.096
REMARK SMILES CSCC[C@@H]([NH3+])C(=O)[O-]
REMARK SMILES IDX 4 1 5 2 6 3 7 7 8 8 9 9 3 10 2 11 1 12
REMARK H PARENT 6 4 6 5 6 6
REMARK Flexibility Score: inf
ROOT
ATOM      1  C   UNL     1       4.389  -0.895  -1.741  1.00  0.00     0.082 C 
ENDROOT
BRANCH   1   2
ATOM      2  C   UNL     1       2.884  -1.006  -2.066  1.00  0.00     0.228 C 
BRANCH   2   3
ATOM      3  N   UNL     1       2.104  -1.434  -0.896  1.00  0.00    -0.350 N 
ATOM      4  H   UNL     1       2.657  -1.313  -0.016  1.00  0.00     0.345 HD
ATOM      5  H   UNL     1       1.826  -2.436  -0.997  1.00  0.00     0.345 HD
ATOM      6  H   UNL     1       1.226  -0.868  -0.827  1.00  0.00     0.345 HD
ENDBRANCH   2   3
BRANCH   2   7
ATOM      7  C   UNL     1       2.380   0.324  -2.562  1.00  0.00     0.099 C 
ATOM      8  O   UNL     1       3.138   1.329  -2.563  1.00  0.00    -0.544 OA
ATOM      9  O   UNL     1       1.068   0.455  -3.003  1.00  0.00    -0.544 OA
ENDBRANCH   2   7
ENDBRANCH   1   2
BRANCH   1  10
ATOM     10  C   UNL     1       4.855  -1.948  -0.731  1.00  0.00     0.076 C 
BRANCH  10  11
ATOM     11  S   UNL     1       6.588  -1.628  -0.260  1.00  0.00    -0.165 SA
ATOM     12  C   UNL     1       7.090  -3.377  -0.345  1.00  0.00     0.085 C 
ENDBRANCH  10  11
ENDBRANCH   1  10
TORSDOF 5
ENDMDL
MODEL 8
REMARK VINA RESULT:    -2.273      2.925      3.343
REMARK INTER + INTRA:          -2.967
REMARK INTER:                  -2.719
REMARK INTRA:                  -0.248
REMARK UNBOUND:                -0.096
REMARK SMILES CSCC[C@@H]([NH3+])C(=O)[O-]
REMARK SMILES IDX 4 1 5 2 6 3 7 7 8 8 9 9 3 10 2 11 1 12
REMARK H PARENT 6 4 6 5 6 6
REMARK Flexibility Score: inf
ROOT
ATOM      1  C   UNL     1      -6.988   5.953   0.916  1.00  0.00     0.082 C 
ENDROOT
BRANCH   1   2
ATOM      2  C   UNL     1      -5.511   6.339   1.149  1.00  0.00     0.228 C 
BRANCH   2   3
ATOM      3  N   UNL     1      -4.927   5.597   2.275  1.00  0.00    -0.350 N 
ATOM      4  H   UNL     1      -3.882   5.661   2.261  1.00  0.00     0.345 HD
ATOM      5  H   UNL     1      -5.213   4.593   2.231  1.00  0.00     0.345 HD
ATOM      6  H   UNL     1      -5.280   5.986   3.180  1.00  0.00     0.345 HD
ENDBRANCH   2   3
BRANCH   2   7
ATOM      7  C   UNL     1      -4.721   6.077  -0.106  1.00  0.00     0.099 C 
ATOM      8  O   UNL     1      -3.505   5.759  -0.034  1.00  0.00    -0.544 OA
ATOM      9  O   UNL     1      -5.323   6.206  -1.352  1.00  0.00    -0.544 OA
ENDBRANCH   2   7
ENDBRANCH   1   2
BRANCH   1  10
ATOM     10  C   UNL     1      -7.364   4.625   1.579  1.00  0.00     0.076 C 
BRANCH  10  11
ATOM     11  S   UNL     1      -7.755   3.385   0.298  1.00  0.00    -0.165 SA
ATOM     12  C   UNL     1      -6.080   2.670   0.270  1.00  0.00     0.085 C 
ENDBRANCH  10  11
ENDBRANCH   1  10
TORSDOF 5
ENDMDL
MODEL 9
REMARK VINA RESULT:    -2.263      1.891      2.241
REMARK INTER + INTRA:          -2.955
REMARK INTER:                  -2.816
REMARK INTRA:                  -0.139
REMARK UNBOUND:                -0.096
REMARK SMILES CSCC[C@@H]([NH3+])C(=O)[O-]
REMARK SMILES IDX 4 1 5 2 6 3 7 7 8 8 9 9 3 10 2 11 1 12
REMARK H PARENT 6 4 6 5 6 6
REMARK Flexibility Score: inf
ROOT
ATOM      1  C   UNL     1      -3.371   4.112   0.335  1.00  0.00     0.082 C 
ENDROOT
BRANCH   1   2
ATOM      2  C   UNL     1      -4.863   4.283  -0.025  1.00  0.00     0.228 C 
BRANCH   2   3
ATOM      3  N   UNL     1      -5.740   3.696   0.997  1.00  0.00    -0.350 N 
ATOM      4  H   UNL     1      -6.649   3.391   0.577  1.00  0.00     0.345 HD
ATOM      5  H   UNL     1      -5.924   4.391   1.756  1.00  0.00     0.345 HD
ATOM      6  H   UNL     1      -5.272   2.869   1.435  1.00  0.00     0.345 HD
ENDBRANCH   2   3
BRANCH   2   7
ATOM      7  C   UNL     1      -5.174   5.748  -0.190  1.00  0.00     0.099 C 
ATOM      8  O   UNL     1      -6.344   6.172  -0.004  1.00  0.00    -0.544 OA
ATOM      9  O   UNL     1      -4.175   6.637  -0.569  1.00  0.00    -0.544 OA
ENDBRANCH   2   7
ENDBRANCH   1   2
BRANCH   1  10
ATOM     10  C   UNL     1      -2.823   2.737  -0.056  1.00  0.00     0.076 C 
BRANCH  10  11
ATOM     11  S   UNL     1      -2.523   1.743   1.445  1.00  0.00    -0.165 SA
ATOM     12  C   UNL     1      -3.857   0.552   1.101  1.00  0.00     0.085 C 
ENDBRANCH  10  11
ENDBRANCH   1  10
TORSDOF 5
ENDMDL
