MODEL 1
REMARK VINA RESULT:    -4.068      0.000      0.000
REMARK INTER + INTRA:          -4.993
REMARK INTER:                  -4.782
REMARK INTRA:                  -0.211
REMARK UNBOUND:                -0.211
REMARK SMILES [NH3+][C@H](CO)C(=O)[O-]
REMARK SMILES IDX 3 1 2 2 1 3 5 7 6 8 7 9 4 10
REMARK H PARENT 1 4 1 5 1 6 4 11
REMARK Flexibility Score: inf
ROOT
ATOM      1  C   UNL     1      24.317   5.950  15.420  1.00  0.00     0.227 C 
ENDROOT
BRANCH   1   2
ATOM      2  C   UNL     1      23.784   7.253  14.803  1.00  0.00     0.253 C 
BRANCH   2   3
ATOM      3  N   UNL     1      23.783   7.184  13.337  1.00  0.00    -0.348 N 
ATOM      4  H   UNL     1      23.277   8.013  12.945  1.00  0.00     0.345 HD
ATOM      5  H   UNL     1      23.316   6.310  13.002  1.00  0.00     0.345 HD
ATOM      6  H   UNL     1      24.765   7.203  12.981  1.00  0.00     0.345 HD
ENDBRANCH   2   3
BRANCH   2   7
ATOM      7  C   UNL     1      22.407   7.566  15.327  1.00  0.00     0.102 C 
ATOM      8  O   UNL     1      21.581   6.637  15.523  1.00  0.00    -0.544 OA
ATOM      9  O   UNL     1      22.024   8.882  15.560  1.00  0.00    -0.544 OA
ENDBRANCH   2   7
ENDBRANCH   1   2
BRANCH   1  10
ATOM     10  O   UNL     1      23.630   4.840  14.908  1.00  0.00    -0.390 OA
ATOM     11  H   UNL     1      23.399   4.275  15.690  1.00  0.00     0.210 HD
ENDBRANCH   1  10
TORSDOF 4
ENDMDL
MODEL 2
REMARK VINA RESULT:    -3.969      2.508      2.947
REMARK INTER + INTRA:          -4.876
REMARK INTER:                  -4.870
REMARK INTRA:                  -0.006
REMARK UNBOUND:                -0.211
REMARK SMILES [NH3+][C@H](CO)C(=O)[O-]
REMARK SMILES IDX 3 1 2 2 1 3 5 7 6 8 7 9 4 10
REMARK H PARENT 1 4 1 5 1 6 4 11
REMARK Flexibility Score: inf
ROOT
ATOM      1  C   UNL     1      25.870   5.914  16.124  1.00  0.00     0.227 C 
ENDROOT
BRANCH   1   2
ATOM      2  C   UNL     1      24.523   5.214  15.885  1.00  0.00     0.253 C 
BRANCH   2   3
ATOM      3  N   UNL     1      23.950   4.721  17.144  1.00  0.00    -0.348 N 
ATOM      4  H   UNL     1      22.960   5.051  17.234  1.00  0.00     0.345 HD
ATOM      5  H   UNL     1      24.499   5.061  17.966  1.00  0.00     0.345 HD
ATOM      6  H   UNL     1      23.946   3.676  17.145  1.00  0.00     0.345 HD
ENDBRANCH   2   3
BRANCH   2   7
ATOM      7  C   UNL     1      23.561   6.137  15.183  1.00  0.00     0.102 C 
ATOM      8  O   UNL     1      23.917   6.741  14.137  1.00  0.00    -0.544 OA
ATOM      9  O   UNL     1      22.291   6.361  15.703  1.00  0.00    -0.544 OA
ENDBRANCH   2   7
ENDBRANCH   1   2
BRANCH   1  10
ATOM     10  O   UNL     1      26.466   5.453  17.307  1.00  0.00    -0.390 OA
ATOM     11  H   UNL     1      25.900   4.704  17.625  1.00  0.00     0.210 HD
ENDBRANCH   1  10
TORSDOF 4
ENDMDL
MODEL 3
REMARK VINA RESULT:    -3.915      1.432      2.939
REMARK INTER + INTRA:          -4.812
REMARK INTER:                  -4.804
REMARK INTRA:                  -0.008
REMARK UNBOUND:                -0.211
REMARK SMILES [NH3+][C@H](CO)C(=O)[O-]
REMARK SMILES IDX 3 1 2 2 1 3 5 7 6 8 7 9 4 10
REMARK H PARENT 1 4 1 5 1 6 4 11
REMARK Flexibility Score: inf
ROOT
ATOM      1  C   UNL     1      22.250   6.869  15.421  1.00  0.00     0.227 C 
ENDROOT
BRANCH   1   2
ATOM      2  C   UNL     1      23.601   6.806  14.690  1.00  0.00     0.253 C 
BRANCH   2   3
ATOM      3  N   UNL     1      24.077   8.149  14.336  1.00  0.00    -0.348 N 
ATOM      4  H   UNL     1      24.896   8.403  14.936  1.00  0.00     0.345 HD
ATOM      5  H   UNL     1      23.323   8.862  14.469  1.00  0.00     0.345 HD
ATOM      6  H   UNL     1      24.386   8.162  13.337  1.00  0.00     0.345 HD
ENDBRANCH   2   3
BRANCH   2   7
ATOM      7  C   UNL     1      24.623   6.077  15.523  1.00  0.00     0.102 C 
ATOM      8  O   UNL     1      24.287   5.063  16.190  1.00  0.00    -0.544 OA
ATOM      9  O   UNL     1      25.933   6.538  15.595  1.00  0.00    -0.544 OA
ENDBRANCH   2   7
ENDBRANCH   1   2
BRANCH   1  10
ATOM     10  O   UNL     1      21.709   8.160  15.354  1.00  0.00    -0.390 OA
ATOM     11  H   UNL     1      22.439   8.778  15.619  1.00  0.00     0.210 HD
ENDBRANCH   1  10
TORSDOF 4
ENDMDL
MODEL 4
REMARK VINA RESULT:    -3.855      2.238      3.046
REMARK INTER + INTRA:          -4.742
REMARK INTER:                  -4.534
REMARK INTRA:                  -0.208
REMARK UNBOUND:                -0.211
REMARK SMILES [NH3+][C@H](CO)C(=O)[O-]
REMARK SMILES IDX 3 1 2 2 1 3 5 7 6 8 7 9 4 10
REMARK H PARENT 1 4 1 5 1 6 4 11
REMARK Flexibility Score: inf
ROOT
ATOM      1  C   UNL     1      23.420   6.193  15.124  1.00  0.00     0.227 C 
ENDROOT
BRANCH   1   2
ATOM      2  C   UNL     1      24.708   6.899  14.668  1.00  0.00     0.253 C 
BRANCH   2   3
ATOM      3  N   UNL     1      24.518   8.352  14.592  1.00  0.00    -0.348 N 
ATOM      4  H   UNL     1      24.307   8.629  13.605  1.00  0.00     0.345 HD
ATOM      5  H   UNL     1      25.374   8.861  14.913  1.00  0.00     0.345 HD
ATOM      6  H   UNL     1      23.709   8.635  15.190  1.00  0.00     0.345 HD
ENDBRANCH   2   3
BRANCH   2   7
ATOM      7  C   UNL     1      25.856   6.554  15.581  1.00  0.00     0.102 C 
ATOM      8  O   UNL     1      25.771   5.565  16.355  1.00  0.00    -0.544 OA
ATOM      9  O   UNL     1      26.998   7.346  15.606  1.00  0.00    -0.544 OA
ENDBRANCH   2   7
ENDBRANCH   1   2
BRANCH   1  10
ATOM     10  O   UNL     1      23.512   4.810  14.916  1.00  0.00    -0.390 OA
ATOM     11  H   UNL     1      23.943   4.693  14.030  1.00  0.00     0.210 HD
ENDBRANCH   1  10
TORSDOF 4
ENDMDL
MODEL 5
REMARK VINA RESULT:    -3.830      1.913      1.970
REMARK INTER + INTRA:          -4.712
REMARK INTER:                  -4.484
REMARK INTRA:                  -0.228
REMARK UNBOUND:                -0.211
REMARK SMILES [NH3+][C@H](CO)C(=O)[O-]
REMARK SMILES IDX 3 1 2 2 1 3 5 7 6 8 7 9 4 10
REMARK H PARENT 1 4 1 5 1 6 4 11
REMARK Flexibility Score: inf
ROOT
ATOM      1  C   UNL     1      24.353   6.898  14.676  1.00  0.00     0.227 C 
ENDROOT
BRANCH   1   2
ATOM      2  C   UNL     1      23.173   6.090  15.241  1.00  0.00     0.253 C 
BRANCH   2   3
ATOM      3  N   UNL     1      23.579   5.307  16.415  1.00  0.00    -0.348 N 
ATOM      4  H   UNL     1      22.745   4.824  16.823  1.00  0.00     0.345 HD
ATOM      5  H   UNL     1      24.009   5.920  17.145  1.00  0.00     0.345 HD
ATOM      6  H   UNL     1      24.272   4.578  16.131  1.00  0.00     0.345 HD
ENDBRANCH   2   3
BRANCH   2   7
ATOM      7  C   UNL     1      22.018   6.998  15.575  1.00  0.00     0.102 C 
ATOM      8  O   UNL     1      20.903   6.508  15.895  1.00  0.00    -0.544 OA
ATOM      9  O   UNL     1      22.159   8.378  15.493  1.00  0.00    -0.544 OA
ENDBRANCH   2   7
ENDBRANCH   1   2
BRANCH   1  10
ATOM     10  O   UNL     1      24.002   7.505  13.462  1.00  0.00    -0.390 OA
ATOM     11  H   UNL     1      24.856   7.707  12.999  1.00  0.00     0.210 HD
ENDBRANCH   1  10
TORSDOF 4
ENDMDL
MODEL 6
REMARK VINA RESULT:    -3.714      1.922      3.241
REMARK INTER + INTRA:          -4.575
REMARK INTER:                  -4.367
REMARK INTRA:                  -0.208
REMARK UNBOUND:                -0.211
REMARK SMILES [NH3+][C@H](CO)C(=O)[O-]
REMARK SMILES IDX 3 1 2 2 1 3 5 7 6 8 7 9 4 10
REMARK H PARENT 1 4 1 5 1 6 4 11
REMARK Flexibility Score: inf
ROOT
ATOM      1  C   UNL     1      23.765   8.369  15.024  1.00  0.00     0.227 C 
ENDROOT
BRANCH   1   2
ATOM      2  C   UNL     1      23.737   6.878  14.649  1.00  0.00     0.253 C 
BRANCH   2   3
ATOM      3  N   UNL     1      23.971   6.688  13.212  1.00  0.00    -0.348 N 
ATOM      4  H   UNL     1      23.407   7.382  12.668  1.00  0.00     0.345 HD
ATOM      5  H   UNL     1      23.703   5.722  12.912  1.00  0.00     0.345 HD
ATOM      6  H   UNL     1      24.981   6.845  12.994  1.00  0.00     0.345 HD
ENDBRANCH   2   3
BRANCH   2   7
ATOM      7  C   UNL     1      24.741   6.105  15.463  1.00  0.00     0.102 C 
ATOM      8  O   UNL     1      25.938   6.492  15.521  1.00  0.00    -0.544 OA
ATOM      9  O   UNL     1      24.366   4.940  16.123  1.00  0.00    -0.544 OA
ENDBRANCH   2   7
ENDBRANCH   1   2
BRANCH   1  10
ATOM     10  O   UNL     1      24.983   8.952  14.649  1.00  0.00    -0.390 OA
ATOM     11  H   UNL     1      24.753   9.812  14.211  1.00  0.00     0.210 HD
ENDBRANCH   1  10
TORSDOF 4
ENDMDL
MODEL 7
REMARK VINA RESULT:    -3.537      1.444      2.190
REMARK INTER + INTRA:          -4.368
REMARK INTER:                  -4.151
REMARK INTRA:                  -0.217
REMARK UNBOUND:                -0.211
REMARK SMILES [NH3+][C@H](CO)C(=O)[O-]
REMARK SMILES IDX 3 1 2 2 1 3 5 7 6 8 7 9 4 10
REMARK H PARENT 1 4 1 5 1 6 4 11
REMARK Flexibility Score: inf
ROOT
ATOM      1  C   UNL     1      25.358   7.435  15.099  1.00  0.00     0.227 C 
ENDROOT
BRANCH   1   2
ATOM      2  C   UNL     1      23.940   7.160  14.573  1.00  0.00     0.253 C 
BRANCH   2   3
ATOM      3  N   UNL     1      23.971   6.683  13.185  1.00  0.00    -0.348 N 
ATOM      4  H   UNL     1      24.284   7.457  12.553  1.00  0.00     0.345 HD
ATOM      5  H   UNL     1      23.027   6.353  12.880  1.00  0.00     0.345 HD
ATOM      6  H   UNL     1      24.653   5.895  13.098  1.00  0.00     0.345 HD
ENDBRANCH   2   3
BRANCH   2   7
ATOM      7  C   UNL     1      23.223   6.178  15.463  1.00  0.00     0.102 C 
ATOM      8  O   UNL     1      22.015   6.364  15.762  1.00  0.00    -0.544 OA
ATOM      9  O   UNL     1      23.898   5.084  15.992  1.00  0.00    -0.544 OA
ENDBRANCH   2   7
ENDBRANCH   1   2
BRANCH   1  10
ATOM     10  O   UNL     1      26.185   6.320  14.904  1.00  0.00    -0.390 OA
ATOM     11  H   UNL     1      25.662   5.684  14.350  1.00  0.00     0.210 HD
ENDBRANCH   1  10
TORSDOF 4
ENDMDL
MODEL 8
REMARK VINA RESULT:    -3.461      1.994      3.146
REMARK INTER + INTRA:          -4.279
REMARK INTER:                  -4.268
REMARK INTRA:                  -0.011
REMARK UNBOUND:                -0.211
REMARK SMILES [NH3+][C@H](CO)C(=O)[O-]
REMARK SMILES IDX 3 1 2 2 1 3 5 7 6 8 7 9 4 10
REMARK H PARENT 1 4 1 5 1 6 4 11
REMARK Flexibility Score: inf
ROOT
ATOM      1  C   UNL     1      21.087   6.558  16.489  1.00  0.00     0.227 C 
ENDROOT
BRANCH   1   2
ATOM      2  C   UNL     1      21.798   7.210  15.291  1.00  0.00     0.253 C 
BRANCH   2   3
ATOM      3  N   UNL     1      21.860   8.669  15.440  1.00  0.00    -0.348 N 
ATOM      4  H   UNL     1      20.893   9.054  15.555  1.00  0.00     0.345 HD
ATOM      5  H   UNL     1      22.307   9.114  14.606  1.00  0.00     0.345 HD
ATOM      6  H   UNL     1      22.412   8.914  16.294  1.00  0.00     0.345 HD
ENDBRANCH   2   3
BRANCH   2   7
ATOM      7  C   UNL     1      23.176   6.630  15.110  1.00  0.00     0.102 C 
ATOM      8  O   UNL     1      23.943   7.092  14.225  1.00  0.00    -0.544 OA
ATOM      9  O   UNL     1      23.597   5.556  15.887  1.00  0.00    -0.544 OA
ENDBRANCH   2   7
ENDBRANCH   1   2
BRANCH   1  10
ATOM     10  O   UNL     1      19.700   6.532  16.288  1.00  0.00    -0.390 OA
ATOM     11  H   UNL     1      19.498   7.278  15.666  1.00  0.00     0.210 HD
ENDBRANCH   1  10
TORSDOF 4
ENDMDL
MODEL 9
REMARK VINA RESULT:    -3.458      1.439      2.921
REMARK INTER + INTRA:          -4.275
REMARK INTER:                  -4.269
REMARK INTRA:                  -0.006
REMARK UNBOUND:                -0.211
REMARK SMILES [NH3+][C@H](CO)C(=O)[O-]
REMARK SMILES IDX 3 1 2 2 1 3 5 7 6 8 7 9 4 10
REMARK H PARENT 1 4 1 5 1 6 4 11
REMARK Flexibility Score: inf
ROOT
ATOM      1  C   UNL     1      22.425   9.292  15.466  1.00  0.00     0.227 C 
ENDROOT
BRANCH   1   2
ATOM      2  C   UNL     1      22.900   8.014  14.755  1.00  0.00     0.253 C 
BRANCH   2   3
ATOM      3  N   UNL     1      24.352   8.035  14.539  1.00  0.00    -0.348 N 
ATOM      4  H   UNL     1      24.626   8.927  14.064  1.00  0.00     0.345 HD
ATOM      5  H   UNL     1      24.656   7.227  13.948  1.00  0.00     0.345 HD
ATOM      6  H   UNL     1      24.847   7.990  15.459  1.00  0.00     0.345 HD
ENDBRANCH   2   3
BRANCH   2   7
ATOM      7  C   UNL     1      22.490   6.789  15.529  1.00  0.00     0.102 C 
ATOM      8  O   UNL     1      23.277   5.811  15.626  1.00  0.00    -0.544 OA
ATOM      9  O   UNL     1      21.228   6.711  16.108  1.00  0.00    -0.544 OA
ENDBRANCH   2   7
ENDBRANCH   1   2
BRANCH   1  10
ATOM     10  O   UNL     1      23.137  10.409  15.008  1.00  0.00    -0.390 OA
ATOM     11  H   UNL     1      23.587  10.124  14.171  1.00  0.00     0.210 HD
ENDBRANCH   1  10
TORSDOF 4
ENDMDL
