MODEL 1
REMARK VINA RESULT:    -4.193      0.000      0.000
REMARK INTER + INTRA:          -5.270
REMARK INTER:                  -5.173
REMARK INTRA:                  -0.097
REMARK UNBOUND:                -0.097
REMARK SMILES CCCCCC(=O)[O-]
REMARK SMILES IDX 4 1 5 2 6 3 7 4 8 5 3 6 2 7 1 8
REMARK H PARENT
REMARK Flexibility Score: inf
ROOT
ATOM      1  C   UNL     1     -15.399   2.654 -12.629  1.00  0.00     0.006 C 
ENDROOT
BRANCH   1   2
ATOM      2  C   UNL     1     -14.720   1.711 -13.631  1.00  0.00     0.053 C 
BRANCH   2   3
ATOM      3  C   UNL     1     -14.381   2.445 -14.890  1.00  0.00     0.041 C 
ATOM      4  O   UNL     1     -13.179   2.641 -15.206  1.00  0.00    -0.550 OA
ATOM      5  O   UNL     1     -15.394   2.869 -15.741  1.00  0.00    -0.550 OA
ENDBRANCH   2   3
ENDBRANCH   1   2
BRANCH   1   6
ATOM      6  C   UNL     1     -15.803   1.942 -11.329  1.00  0.00     0.000 C 
BRANCH   6   7
ATOM      7  C   UNL     1     -17.323   1.921 -11.115  1.00  0.00    -0.003 C 
ATOM      8  C   UNL     1     -17.970   0.768 -11.878  1.00  0.00     0.004 C 
ENDBRANCH   6   7
ENDBRANCH   1   6
TORSDOF 4
ENDMDL
MODEL 2
REMARK VINA RESULT:    -4.111     13.743     15.552
REMARK INTER + INTRA:          -5.169
REMARK INTER:                  -5.019
REMARK INTRA:                  -0.150
REMARK UNBOUND:                -0.097
REMARK SMILES CCCCCC(=O)[O-]
REMARK SMILES IDX 4 1 5 2 6 3 7 4 8 5 3 6 2 7 1 8
REMARK H PARENT
REMARK Flexibility Score: inf
ROOT
ATOM      1  C   UNL     1     -29.026  -1.734  -5.350  1.00  0.00     0.006 C 
ENDROOT
BRANCH   1   2
ATOM      2  C   UNL     1     -27.999  -2.576  -6.120  1.00  0.00     0.053 C 
BRANCH   2   3
ATOM      3  C   UNL     1     -26.948  -1.696  -6.722  1.00  0.00     0.041 C 
ATOM      4  O   UNL     1     -27.170  -1.093  -7.803  1.00  0.00    -0.550 OA
ATOM      5  O   UNL     1     -25.742  -1.502  -6.060  1.00  0.00    -0.550 OA
ENDBRANCH   2   3
ENDBRANCH   1   2
BRANCH   1   6
ATOM      6  C   UNL     1     -30.443  -1.855  -5.929  1.00  0.00     0.000 C 
BRANCH   6   7
ATOM      7  C   UNL     1     -30.622  -3.109  -6.796  1.00  0.00    -0.003 C 
ATOM      8  C   UNL     1     -31.769  -2.932  -7.789  1.00  0.00     0.004 C 
ENDBRANCH   6   7
ENDBRANCH   1   6
TORSDOF 4
ENDMDL
MODEL 3
REMARK VINA RESULT:    -4.109      1.150      1.395
REMARK INTER + INTRA:          -5.166
REMARK INTER:                  -4.964
REMARK INTRA:                  -0.202
REMARK UNBOUND:                -0.097
REMARK SMILES CCCCCC(=O)[O-]
REMARK SMILES IDX 4 1 5 2 6 3 7 4 8 5 3 6 2 7 1 8
REMARK H PARENT
REMARK Flexibility Score: inf
ROOT
ATOM      1  C   UNL     1     -15.211   1.548 -12.677  1.00  0.00     0.006 C 
ENDROOT
BRANCH   1   2
ATOM      2  C   UNL     1     -15.146   2.713 -13.673  1.00  0.00     0.053 C 
BRANCH   2   3
ATOM      3  C   UNL     1     -15.618   2.272 -15.023  1.00  0.00     0.041 C 
ATOM      4  O   UNL     1     -16.184   1.157 -15.164  1.00  0.00    -0.550 OA
ATOM      5  O   UNL     1     -15.477   3.116 -16.118  1.00  0.00    -0.550 OA
ENDBRANCH   2   3
ENDBRANCH   1   2
BRANCH   1   6
ATOM      6  C   UNL     1     -15.813   1.960 -11.325  1.00  0.00     0.000 C 
BRANCH   6   7
ATOM      7  C   UNL     1     -17.345   1.868 -11.308  1.00  0.00    -0.003 C 
ATOM      8  C   UNL     1     -17.827   0.574 -11.960  1.00  0.00     0.004 C 
ENDBRANCH   6   7
ENDBRANCH   1   6
TORSDOF 4
ENDMDL
MODEL 4
REMARK VINA RESULT:    -4.105      1.544      1.895
REMARK INTER + INTRA:          -5.161
REMARK INTER:                  -4.990
REMARK INTRA:                  -0.171
REMARK UNBOUND:                -0.097
REMARK SMILES CCCCCC(=O)[O-]
REMARK SMILES IDX 4 1 5 2 6 3 7 4 8 5 3 6 2 7 1 8
REMARK H PARENT
REMARK Flexibility Score: inf
ROOT
ATOM      1  C   UNL     1     -15.486   2.908 -13.090  1.00  0.00     0.006 C 
ENDROOT
BRANCH   1   2
ATOM      2  C   UNL     1     -14.804   1.983 -14.106  1.00  0.00     0.053 C 
BRANCH   2   3
ATOM      3  C   UNL     1     -15.827   1.194 -14.861  1.00  0.00     0.041 C 
ATOM      4  O   UNL     1     -16.268   1.616 -15.961  1.00  0.00    -0.550 OA
ATOM      5  O   UNL     1     -16.256  -0.035 -14.374  1.00  0.00    -0.550 OA
ENDBRANCH   2   3
ENDBRANCH   1   2
BRANCH   1   6
ATOM      6  C   UNL     1     -15.708   2.231 -11.729  1.00  0.00     0.000 C 
BRANCH   6   7
ATOM      7  C   UNL     1     -17.194   2.009 -11.415  1.00  0.00    -0.003 C 
ATOM      8  C   UNL     1     -17.402   0.725 -10.616  1.00  0.00     0.004 C 
ENDBRANCH   6   7
ENDBRANCH   1   6
TORSDOF 4
ENDMDL
MODEL 5
REMARK VINA RESULT:    -4.066      4.777      6.287
REMARK INTER + INTRA:          -5.114
REMARK INTER:                  -5.011
REMARK INTRA:                  -0.103
REMARK UNBOUND:                -0.097
REMARK SMILES CCCCCC(=O)[O-]
REMARK SMILES IDX 4 1 5 2 6 3 7 4 8 5 3 6 2 7 1 8
REMARK H PARENT
REMARK Flexibility Score: inf
ROOT
ATOM      1  C   UNL     1     -13.872   1.751 -18.554  1.00  0.00     0.006 C 
ENDROOT
BRANCH   1   2
ATOM      2  C   UNL     1     -14.732   1.274 -19.732  1.00  0.00     0.053 C 
BRANCH   2   3
ATOM      3  C   UNL     1     -15.934   0.535 -19.235  1.00  0.00     0.041 C 
ATOM      4  O   UNL     1     -16.156  -0.644 -19.615  1.00  0.00    -0.550 OA
ATOM      5  O   UNL     1     -16.783   1.131 -18.311  1.00  0.00    -0.550 OA
ENDBRANCH   2   3
ENDBRANCH   1   2
BRANCH   1   6
ATOM      6  C   UNL     1     -13.669   3.273 -18.549  1.00  0.00     0.000 C 
BRANCH   6   7
ATOM      7  C   UNL     1     -12.875   3.760 -17.329  1.00  0.00    -0.003 C 
ATOM      8  C   UNL     1     -13.262   2.980 -16.074  1.00  0.00     0.004 C 
ENDBRANCH   6   7
ENDBRANCH   1   6
TORSDOF 4
ENDMDL
MODEL 6
REMARK VINA RESULT:    -4.064      5.683      6.850
REMARK INTER + INTRA:          -5.111
REMARK INTER:                  -4.985
REMARK INTRA:                  -0.126
REMARK UNBOUND:                -0.097
REMARK SMILES CCCCCC(=O)[O-]
REMARK SMILES IDX 4 1 5 2 6 3 7 4 8 5 3 6 2 7 1 8
REMARK H PARENT
REMARK Flexibility Score: inf
ROOT
ATOM      1  C   UNL     1     -14.734   1.743 -19.519  1.00  0.00     0.006 C 
ENDROOT
BRANCH   1   2
ATOM      2  C   UNL     1     -15.313   0.553 -20.295  1.00  0.00     0.053 C 
BRANCH   2   3
ATOM      3  C   UNL     1     -16.342  -0.156 -19.472  1.00  0.00     0.041 C 
ATOM      4  O   UNL     1     -17.471   0.366 -19.283  1.00  0.00    -0.550 OA
ATOM      5  O   UNL     1     -16.071  -1.417 -18.956  1.00  0.00    -0.550 OA
ENDBRANCH   2   3
ENDBRANCH   1   2
BRANCH   1   6
ATOM      6  C   UNL     1     -13.851   1.307 -18.341  1.00  0.00     0.000 C 
BRANCH   6   7
ATOM      7  C   UNL     1     -13.555   2.457 -17.367  1.00  0.00    -0.003 C 
ATOM      8  C   UNL     1     -12.875   3.622 -18.082  1.00  0.00     0.004 C 
ENDBRANCH   6   7
ENDBRANCH   1   6
TORSDOF 4
ENDMDL
MODEL 7
REMARK VINA RESULT:    -4.060     14.761     16.405
REMARK INTER + INTRA:          -5.107
REMARK INTER:                  -4.913
REMARK INTRA:                  -0.194
REMARK UNBOUND:                -0.097
REMARK SMILES CCCCCC(=O)[O-]
REMARK SMILES IDX 4 1 5 2 6 3 7 4 8 5 3 6 2 7 1 8
REMARK H PARENT
REMARK Flexibility Score: inf
ROOT
ATOM      1  C   UNL     1     -28.834  -2.653  -5.714  1.00  0.00     0.006 C 
ENDROOT
BRANCH   1   2
ATOM      2  C   UNL     1     -29.911  -3.512  -6.390  1.00  0.00     0.053 C 
BRANCH   2   3
ATOM      3  C   UNL     1     -31.055  -2.658  -6.838  1.00  0.00     0.041 C 
ATOM      4  O   UNL     1     -31.030  -2.105  -7.967  1.00  0.00    -0.550 OA
ATOM      5  O   UNL     1     -32.174  -2.514  -6.026  1.00  0.00    -0.550 OA
ENDBRANCH   2   3
ENDBRANCH   1   2
BRANCH   1   6
ATOM      6  C   UNL     1     -27.516  -2.630  -6.501  1.00  0.00     0.000 C 
BRANCH   6   7
ATOM      7  C   UNL     1     -27.012  -1.204  -6.769  1.00  0.00    -0.003 C 
ATOM      8  C   UNL     1     -27.815  -0.538  -7.885  1.00  0.00     0.004 C 
ENDBRANCH   6   7
ENDBRANCH   1   6
TORSDOF 4
ENDMDL
MODEL 8
REMARK VINA RESULT:    -4.045     14.831     15.744
REMARK INTER + INTRA:          -5.088
REMARK INTER:                  -4.832
REMARK INTRA:                  -0.256
REMARK UNBOUND:                -0.097
REMARK SMILES CCCCCC(=O)[O-]
REMARK SMILES IDX 4 1 5 2 6 3 7 4 8 5 3 6 2 7 1 8
REMARK H PARENT
REMARK Flexibility Score: inf
ROOT
ATOM      1  C   UNL     1     -27.541  -1.275  -6.077  1.00  0.00     0.006 C 
ENDROOT
BRANCH   1   2
ATOM      2  C   UNL     1     -28.204  -2.622  -5.760  1.00  0.00     0.053 C 
BRANCH   2   3
ATOM      3  C   UNL     1     -29.665  -2.574  -6.083  1.00  0.00     0.041 C 
ATOM      4  O   UNL     1     -30.180  -3.452  -6.822  1.00  0.00    -0.550 OA
ATOM      5  O   UNL     1     -30.468  -1.586  -5.526  1.00  0.00    -0.550 OA
ENDBRANCH   2   3
ENDBRANCH   1   2
BRANCH   1   6
ATOM      6  C   UNL     1     -27.496  -0.980  -7.584  1.00  0.00     0.000 C 
BRANCH   6   7
ATOM      7  C   UNL     1     -28.243   0.310  -7.955  1.00  0.00    -0.003 C 
ATOM      8  C   UNL     1     -29.377   0.025  -8.937  1.00  0.00     0.004 C 
ENDBRANCH   6   7
ENDBRANCH   1   6
TORSDOF 4
ENDMDL
MODEL 9
REMARK VINA RESULT:    -4.013      5.482      6.314
REMARK INTER + INTRA:          -5.048
REMARK INTER:                  -4.815
REMARK INTRA:                  -0.234
REMARK UNBOUND:                -0.097
REMARK SMILES CCCCCC(=O)[O-]
REMARK SMILES IDX 4 1 5 2 6 3 7 4 8 5 3 6 2 7 1 8
REMARK H PARENT
REMARK Flexibility Score: inf
ROOT
ATOM      1  C   UNL     1     -15.793   0.160 -19.983  1.00  0.00     0.006 C 
ENDROOT
BRANCH   1   2
ATOM      2  C   UNL     1     -14.999   1.306 -19.343  1.00  0.00     0.053 C 
BRANCH   2   3
ATOM      3  C   UNL     1     -14.039   0.771 -18.326  1.00  0.00     0.041 C 
ATOM      4  O   UNL     1     -13.668   1.492 -17.365  1.00  0.00    -0.550 OA
ATOM      5  O   UNL     1     -13.594  -0.542 -18.415  1.00  0.00    -0.550 OA
ENDBRANCH   2   3
ENDBRANCH   1   2
BRANCH   1   6
ATOM      6  C   UNL     1     -17.068  -0.187 -19.200  1.00  0.00     0.000 C 
BRANCH   6   7
ATOM      7  C   UNL     1     -17.194  -1.689 -18.910  1.00  0.00    -0.003 C 
ATOM      8  C   UNL     1     -16.737  -2.016 -17.490  1.00  0.00     0.004 C 
ENDBRANCH   6   7
ENDBRANCH   1   6
TORSDOF 4
ENDMDL
