MODEL 1
REMARK VINA RESULT:    -4.461      0.000      0.000
REMARK INTER + INTRA:          -5.943
REMARK INTER:                  -5.765
REMARK INTRA:                  -0.179
REMARK UNBOUND:                -0.179
REMARK SMILES CCCCCCC(=O)[O-]
REMARK SMILES IDX 5 1 6 2 7 3 8 4 9 5 4 6 3 7 2 8 1 9
REMARK H PARENT
REMARK Flexibility Score: inf
ROOT
ATOM      1  C   UNL     1       8.231  54.000  21.156  1.00  0.00     0.006 C 
ENDROOT
BRANCH   1   2
ATOM      2  C   UNL     1       9.726  53.640  21.147  1.00  0.00     0.053 C 
BRANCH   2   3
ATOM      3  C   UNL     1      10.118  52.845  22.353  1.00  0.00     0.041 C 
ATOM      4  O   UNL     1      10.325  53.422  23.453  1.00  0.00    -0.550 OA
ATOM      5  O   UNL     1      10.290  51.469  22.256  1.00  0.00    -0.550 OA
ENDBRANCH   2   3
ENDBRANCH   1   2
BRANCH   1   6
ATOM      6  C   UNL     1       7.932  55.485  20.870  1.00  0.00     0.000 C 
BRANCH   6   7
ATOM      7  C   UNL     1       7.594  55.814  19.402  1.00  0.00    -0.000 C 
BRANCH   7   8
ATOM      8  C   UNL     1       6.919  54.673  18.620  1.00  0.00    -0.003 C 
ATOM      9  C   UNL     1       6.900  54.916  17.112  1.00  0.00     0.004 C 
ENDBRANCH   7   8
ENDBRANCH   6   7
ENDBRANCH   1   6
TORSDOF 5
ENDMDL
MODEL 2
REMARK VINA RESULT:    -4.373      1.966      2.700
REMARK INTER + INTRA:          -5.830
REMARK INTER:                  -5.629
REMARK INTRA:                  -0.201
REMARK UNBOUND:                -0.179
REMARK SMILES CCCCCCC(=O)[O-]
REMARK SMILES IDX 5 1 6 2 7 3 8 4 9 5 4 6 3 7 2 8 1 9
REMARK H PARENT
REMARK Flexibility Score: inf
ROOT
ATOM      1  C   UNL     1      10.229  53.606  22.555  1.00  0.00     0.006 C 
ENDROOT
BRANCH   1   2
ATOM      2  C   UNL     1       9.823  54.657  23.600  1.00  0.00     0.053 C 
BRANCH   2   3
ATOM      3  C   UNL     1       9.136  54.040  24.778  1.00  0.00     0.041 C 
ATOM      4  O   UNL     1       9.643  54.129  25.927  1.00  0.00    -0.550 OA
ATOM      5  O   UNL     1       7.951  53.335  24.603  1.00  0.00    -0.550 OA
ENDBRANCH   2   3
ENDBRANCH   1   2
BRANCH   1   6
ATOM      6  C   UNL     1       9.450  53.694  21.227  1.00  0.00     0.000 C 
BRANCH   6   7
ATOM      7  C   UNL     1       8.333  54.756  21.191  1.00  0.00    -0.000 C 
BRANCH   7   8
ATOM      8  C   UNL     1       7.868  55.162  19.782  1.00  0.00    -0.003 C 
ATOM      9  C   UNL     1       7.144  56.508  19.760  1.00  0.00     0.004 C 
ENDBRANCH   7   8
ENDBRANCH   6   7
ENDBRANCH   1   6
TORSDOF 5
ENDMDL
MODEL 3
REMARK VINA RESULT:    -4.336      1.425      1.838
REMARK INTER + INTRA:          -5.782
REMARK INTER:                  -5.606
REMARK INTRA:                  -0.176
REMARK UNBOUND:                -0.179
REMARK SMILES CCCCCCC(=O)[O-]
REMARK SMILES IDX 5 1 6 2 7 3 8 4 9 5 4 6 3 7 2 8 1 9
REMARK H PARENT
REMARK Flexibility Score: inf
ROOT
ATOM      1  C   UNL     1       9.843  53.943  21.289  1.00  0.00     0.006 C 
ENDROOT
BRANCH   1   2
ATOM      2  C   UNL     1      10.025  53.068  22.539  1.00  0.00     0.053 C 
BRANCH   2   3
ATOM      3  C   UNL     1       9.942  53.870  23.801  1.00  0.00     0.041 C 
ATOM      4  O   UNL     1      10.984  54.365  24.307  1.00  0.00    -0.550 OA
ATOM      5  O   UNL     1       8.720  54.043  24.438  1.00  0.00    -0.550 OA
ENDBRANCH   2   3
ENDBRANCH   1   2
BRANCH   1   6
ATOM      6  C   UNL     1       8.374  54.157  20.869  1.00  0.00     0.000 C 
BRANCH   6   7
ATOM      7  C   UNL     1       8.033  55.579  20.384  1.00  0.00    -0.000 C 
BRANCH   7   8
ATOM      8  C   UNL     1       7.298  55.646  19.033  1.00  0.00    -0.003 C 
ATOM      9  C   UNL     1       7.306  54.314  18.285  1.00  0.00     0.004 C 
ENDBRANCH   7   8
ENDBRANCH   6   7
ENDBRANCH   1   6
TORSDOF 5
ENDMDL
MODEL 4
REMARK VINA RESULT:    -4.335      3.152      5.107
REMARK INTER + INTRA:          -5.781
REMARK INTER:                  -5.572
REMARK INTRA:                  -0.209
REMARK UNBOUND:                -0.179
REMARK SMILES CCCCCCC(=O)[O-]
REMARK SMILES IDX 5 1 6 2 7 3 8 4 9 5 4 6 3 7 2 8 1 9
REMARK H PARENT
REMARK Flexibility Score: inf
ROOT
ATOM      1  C   UNL     1       8.211  54.659  21.267  1.00  0.00     0.006 C 
ENDROOT
BRANCH   1   2
ATOM      2  C   UNL     1       7.997  55.518  20.010  1.00  0.00     0.053 C 
BRANCH   2   3
ATOM      3  C   UNL     1       7.155  54.816  18.990  1.00  0.00     0.041 C 
ATOM      4  O   UNL     1       7.247  55.124  17.772  1.00  0.00    -0.550 OA
ATOM      5  O   UNL     1       6.243  53.845  19.387  1.00  0.00    -0.550 OA
ENDBRANCH   2   3
ENDBRANCH   1   2
BRANCH   1   6
ATOM      6  C   UNL     1       9.499  53.810  21.247  1.00  0.00     0.000 C 
BRANCH   6   7
ATOM      7  C   UNL     1      10.179  53.621  22.617  1.00  0.00    -0.000 C 
BRANCH   7   8
ATOM      8  C   UNL     1       9.874  54.718  23.652  1.00  0.00    -0.003 C 
ATOM      9  C   UNL     1       9.174  54.181  24.899  1.00  0.00     0.004 C 
ENDBRANCH   7   8
ENDBRANCH   6   7
ENDBRANCH   1   6
TORSDOF 5
ENDMDL
MODEL 5
REMARK VINA RESULT:    -4.331      3.031      4.624
REMARK INTER + INTRA:          -5.775
REMARK INTER:                  -5.471
REMARK INTRA:                  -0.304
REMARK UNBOUND:                -0.179
REMARK SMILES CCCCCCC(=O)[O-]
REMARK SMILES IDX 5 1 6 2 7 3 8 4 9 5 4 6 3 7 2 8 1 9
REMARK H PARENT
REMARK Flexibility Score: inf
ROOT
ATOM      1  C   UNL     1       6.815  54.489  21.559  1.00  0.00     0.006 C 
ENDROOT
BRANCH   1   2
ATOM      2  C   UNL     1       6.839  54.117  20.069  1.00  0.00     0.053 C 
BRANCH   2   3
ATOM      3  C   UNL     1       7.281  55.262  19.212  1.00  0.00     0.041 C 
ATOM      4  O   UNL     1       7.815  56.276  19.735  1.00  0.00    -0.550 OA
ATOM      5  O   UNL     1       7.071  55.228  17.839  1.00  0.00    -0.550 OA
ENDBRANCH   2   3
ENDBRANCH   1   2
BRANCH   1   6
ATOM      6  C   UNL     1       7.891  53.783  22.411  1.00  0.00     0.000 C 
BRANCH   6   7
ATOM      7  C   UNL     1       9.327  54.308  22.217  1.00  0.00    -0.000 C 
BRANCH   7   8
ATOM      8  C   UNL     1      10.306  53.302  21.585  1.00  0.00    -0.003 C 
ATOM      9  C   UNL     1      10.067  51.867  22.050  1.00  0.00     0.004 C 
ENDBRANCH   7   8
ENDBRANCH   6   7
ENDBRANCH   1   6
TORSDOF 5
ENDMDL
MODEL 6
REMARK VINA RESULT:    -4.316      1.480      2.281
REMARK INTER + INTRA:          -5.756
REMARK INTER:                  -5.503
REMARK INTRA:                  -0.253
REMARK UNBOUND:                -0.179
REMARK SMILES CCCCCCC(=O)[O-]
REMARK SMILES IDX 5 1 6 2 7 3 8 4 9 5 4 6 3 7 2 8 1 9
REMARK H PARENT
REMARK Flexibility Score: inf
ROOT
ATOM      1  C   UNL     1       9.071  54.084  20.847  1.00  0.00     0.006 C 
ENDROOT
BRANCH   1   2
ATOM      2  C   UNL     1       9.075  54.486  22.330  1.00  0.00     0.053 C 
BRANCH   2   3
ATOM      3  C   UNL     1      10.032  53.659  23.132  1.00  0.00     0.041 C 
ATOM      4  O   UNL     1      10.226  52.450  22.837  1.00  0.00    -0.550 OA
ATOM      5  O   UNL     1      10.685  54.213  24.226  1.00  0.00    -0.550 OA
ENDBRANCH   2   3
ENDBRANCH   1   2
BRANCH   1   6
ATOM      6  C   UNL     1       7.872  54.627  20.042  1.00  0.00     0.000 C 
BRANCH   6   7
ATOM      7  C   UNL     1       7.732  56.162  20.032  1.00  0.00    -0.000 C 
BRANCH   7   8
ATOM      8  C   UNL     1       6.333  56.689  20.400  1.00  0.00    -0.003 C 
ATOM      9  C   UNL     1       5.540  55.715  21.269  1.00  0.00     0.004 C 
ENDBRANCH   7   8
ENDBRANCH   6   7
ENDBRANCH   1   6
TORSDOF 5
ENDMDL
MODEL 7
REMARK VINA RESULT:    -4.298      3.053      5.111
REMARK INTER + INTRA:          -5.732
REMARK INTER:                  -5.532
REMARK INTRA:                  -0.201
REMARK UNBOUND:                -0.179
REMARK SMILES CCCCCCC(=O)[O-]
REMARK SMILES IDX 5 1 6 2 7 3 8 4 9 5 4 6 3 7 2 8 1 9
REMARK H PARENT
REMARK Flexibility Score: inf
ROOT
ATOM      1  C   UNL     1       8.306  54.031  21.097  1.00  0.00     0.006 C 
ENDROOT
BRANCH   1   2
ATOM      2  C   UNL     1       7.975  55.361  20.402  1.00  0.00     0.053 C 
BRANCH   2   3
ATOM      3  C   UNL     1       6.613  55.862  20.770  1.00  0.00     0.041 C 
ATOM      4  O   UNL     1       6.207  56.972  20.335  1.00  0.00    -0.550 OA
ATOM      5  O   UNL     1       5.805  55.121  21.623  1.00  0.00    -0.550 OA
ENDBRANCH   2   3
ENDBRANCH   1   2
BRANCH   1   6
ATOM      6  C   UNL     1       9.813  53.774  21.298  1.00  0.00     0.000 C 
BRANCH   6   7
ATOM      7  C   UNL     1      10.249  53.547  22.759  1.00  0.00    -0.000 C 
BRANCH   7   8
ATOM      8  C   UNL     1       9.933  54.707  23.719  1.00  0.00    -0.003 C 
ATOM      9  C   UNL     1       9.101  54.273  24.924  1.00  0.00     0.004 C 
ENDBRANCH   7   8
ENDBRANCH   6   7
ENDBRANCH   1   6
TORSDOF 5
ENDMDL
MODEL 8
REMARK VINA RESULT:    -4.280      2.873      4.723
REMARK INTER + INTRA:          -5.710
REMARK INTER:                  -5.358
REMARK INTRA:                  -0.352
REMARK UNBOUND:                -0.179
REMARK SMILES CCCCCCC(=O)[O-]
REMARK SMILES IDX 5 1 6 2 7 3 8 4 9 5 4 6 3 7 2 8 1 9
REMARK H PARENT
REMARK Flexibility Score: inf
ROOT
ATOM      1  C   UNL     1       9.349  53.590  21.182  1.00  0.00     0.006 C 
ENDROOT
BRANCH   1   2
ATOM      2  C   UNL     1       8.430  54.773  20.836  1.00  0.00     0.053 C 
BRANCH   2   3
ATOM      3  C   UNL     1       6.987  54.372  20.810  1.00  0.00     0.041 C 
ATOM      4  O   UNL     1       6.263  54.545  21.825  1.00  0.00    -0.550 OA
ATOM      5  O   UNL     1       6.450  53.776  19.675  1.00  0.00    -0.550 OA
ENDBRANCH   2   3
ENDBRANCH   1   2
BRANCH   1   6
ATOM      6  C   UNL     1      10.195  53.791  22.455  1.00  0.00     0.000 C 
BRANCH   6   7
ATOM      7  C   UNL     1       9.622  54.798  23.471  1.00  0.00    -0.000 C 
BRANCH   7   8
ATOM      8  C   UNL     1       9.101  54.177  24.779  1.00  0.00    -0.003 C 
ATOM      9  C   UNL     1       7.969  53.176  24.552  1.00  0.00     0.004 C 
ENDBRANCH   7   8
ENDBRANCH   6   7
ENDBRANCH   1   6
TORSDOF 5
ENDMDL
MODEL 9
REMARK VINA RESULT:    -4.228      1.562      2.352
REMARK INTER + INTRA:          -5.642
REMARK INTER:                  -5.295
REMARK INTRA:                  -0.348
REMARK UNBOUND:                -0.179
REMARK SMILES CCCCCCC(=O)[O-]
REMARK SMILES IDX 5 1 6 2 7 3 8 4 9 5 4 6 3 7 2 8 1 9
REMARK H PARENT
REMARK Flexibility Score: inf
ROOT
ATOM      1  C   UNL     1       8.848  54.502  23.526  1.00  0.00     0.006 C 
ENDROOT
BRANCH   1   2
ATOM      2  C   UNL     1      10.121  53.643  23.499  1.00  0.00     0.053 C 
BRANCH   2   3
ATOM      3  C   UNL     1      10.302  52.950  22.183  1.00  0.00     0.041 C 
ATOM      4  O   UNL     1      10.492  53.621  21.135  1.00  0.00    -0.550 OA
ATOM      5  O   UNL     1      10.226  51.565  22.109  1.00  0.00    -0.550 OA
ENDBRANCH   2   3
ENDBRANCH   1   2
BRANCH   1   6
ATOM      6  C   UNL     1       7.595  53.804  22.958  1.00  0.00     0.000 C 
BRANCH   6   7
ATOM      7  C   UNL     1       6.970  54.483  21.723  1.00  0.00    -0.000 C 
BRANCH   7   8
ATOM      8  C   UNL     1       7.671  55.776  21.269  1.00  0.00    -0.003 C 
ATOM      9  C   UNL     1       7.708  55.929  19.749  1.00  0.00     0.004 C 
ENDBRANCH   7   8
ENDBRANCH   6   7
ENDBRANCH   1   6
TORSDOF 5
ENDMDL
