MODEL 1
REMARK VINA RESULT:    -4.194      0.000      0.000
REMARK INTER + INTRA:          -9.181
REMARK INTER:                  -7.381
REMARK INTRA:                  -1.800
REMARK UNBOUND:                -1.800
REMARK SMILES CCCCCCCCCCCCCCC(=O)[O-]
REMARK SMILES IDX 9 1 10 2 11 3 12 4 13 5 14 6 15 7 16 8 17 9 8 10 7 11 6 12
REMARK SMILES IDX 5 13 4 14 3 15 2 16 1 17
REMARK H PARENT
REMARK Flexibility Score: inf
ROOT
ATOM      1  C   UNL     1      18.179  -8.961  13.734  1.00  0.00     0.000 C 
ENDROOT
BRANCH   1   2
ATOM      2  C   UNL     1      18.160  -7.612  13.000  1.00  0.00     0.000 C 
BRANCH   2   3
ATOM      3  C   UNL     1      17.744  -6.448  13.912  1.00  0.00     0.000 C 
BRANCH   3   4
ATOM      4  C   UNL     1      17.359  -6.916  15.327  1.00  0.00     0.000 C 
BRANCH   4   5
ATOM      5  C   UNL     1      16.730  -5.794  16.168  1.00  0.00     0.006 C 
BRANCH   5   6
ATOM      6  C   UNL     1      16.546  -6.192  17.638  1.00  0.00     0.053 C 
BRANCH   6   7
ATOM      7  C   UNL     1      16.152  -5.002  18.455  1.00  0.00     0.041 C 
ATOM      8  O   UNL     1      16.919  -4.569  19.355  1.00  0.00    -0.550 OA
ATOM      9  O   UNL     1      14.916  -4.401  18.257  1.00  0.00    -0.550 OA
ENDBRANCH   6   7
ENDBRANCH   5   6
ENDBRANCH   4   5
ENDBRANCH   3   4
ENDBRANCH   2   3
ENDBRANCH   1   2
BRANCH   1  10
ATOM     10  C   UNL     1      17.369 -10.016  12.966  1.00  0.00     0.000 C 
BRANCH  10  11
ATOM     11  C   UNL     1      16.293  -9.402  12.052  1.00  0.00    -0.000 C 
BRANCH  11  12
ATOM     12  C   UNL     1      14.850  -9.507  12.578  1.00  0.00    -0.000 C 
BRANCH  12  13
ATOM     13  C   UNL     1      13.921  -8.428  11.995  1.00  0.00    -0.000 C 
BRANCH  13  14
ATOM     14  C   UNL     1      14.418  -7.002  12.284  1.00  0.00    -0.000 C 
BRANCH  14  15
ATOM     15  C   UNL     1      14.021  -6.512  13.689  1.00  0.00    -0.000 C 
BRANCH  15  16
ATOM     16  C   UNL     1      14.096  -4.982  13.820  1.00  0.00    -0.003 C 
ATOM     17  C   UNL     1      13.327  -4.451  15.029  1.00  0.00     0.004 C 
ENDBRANCH  15  16
ENDBRANCH  14  15
ENDBRANCH  13  14
ENDBRANCH  12  13
ENDBRANCH  11  12
ENDBRANCH  10  11
ENDBRANCH   1  10
TORSDOF 13
ENDMDL
MODEL 2
REMARK VINA RESULT:    -3.971      3.668      5.885
REMARK INTER + INTRA:          -8.788
REMARK INTER:                  -8.028
REMARK INTRA:                  -0.760
REMARK UNBOUND:                -1.800
REMARK SMILES CCCCCCCCCCCCCCC(=O)[O-]
REMARK SMILES IDX 9 1 10 2 11 3 12 4 13 5 14 6 15 7 16 8 17 9 8 10 7 11 6 12
REMARK SMILES IDX 5 13 4 14 3 15 2 16 1 17
REMARK H PARENT
REMARK Flexibility Score: inf
ROOT
ATOM      1  C   UNL     1      18.245  -9.072  13.731  1.00  0.00     0.000 C 
ENDROOT
BRANCH   1   2
ATOM      2  C   UNL     1      17.671 -10.491  13.600  1.00  0.00     0.000 C 
BRANCH   2   3
ATOM      3  C   UNL     1      16.928 -10.708  12.272  1.00  0.00     0.000 C 
BRANCH   3   4
ATOM      4  C   UNL     1      16.186 -12.055  12.225  1.00  0.00     0.000 C 
BRANCH   4   5
ATOM      5  C   UNL     1      14.659 -11.886  12.183  1.00  0.00     0.006 C 
BRANCH   5   6
ATOM      6  C   UNL     1      14.217 -10.448  12.482  1.00  0.00     0.053 C 
BRANCH   6   7
ATOM      7  C   UNL     1      12.725 -10.365  12.551  1.00  0.00     0.041 C 
ATOM      8  O   UNL     1      12.116  -9.414  11.994  1.00  0.00    -0.550 OA
ATOM      9  O   UNL     1      12.008 -11.312  13.272  1.00  0.00    -0.550 OA
ENDBRANCH   6   7
ENDBRANCH   5   6
ENDBRANCH   4   5
ENDBRANCH   3   4
ENDBRANCH   2   3
ENDBRANCH   1   2
BRANCH   1  10
ATOM     10  C   UNL     1      17.465  -8.081  12.855  1.00  0.00     0.000 C 
BRANCH  10  11
ATOM     11  C   UNL     1      18.171  -6.720  12.712  1.00  0.00    -0.000 C 
BRANCH  11  12
ATOM     12  C   UNL     1      17.762  -5.659  13.750  1.00  0.00    -0.000 C 
BRANCH  12  13
ATOM     13  C   UNL     1      16.718  -6.177  14.754  1.00  0.00    -0.000 C 
BRANCH  13  14
ATOM     14  C   UNL     1      17.214  -6.112  16.208  1.00  0.00    -0.000 C 
BRANCH  14  15
ATOM     15  C   UNL     1      16.060  -6.042  17.224  1.00  0.00    -0.000 C 
BRANCH  15  16
ATOM     16  C   UNL     1      16.553  -5.759  18.653  1.00  0.00    -0.003 C 
ATOM     17  C   UNL     1      16.302  -4.317  19.093  1.00  0.00     0.004 C 
ENDBRANCH  15  16
ENDBRANCH  14  15
ENDBRANCH  13  14
ENDBRANCH  12  13
ENDBRANCH  11  12
ENDBRANCH  10  11
ENDBRANCH   1  10
TORSDOF 13
ENDMDL
MODEL 3
REMARK VINA RESULT:    -3.814      2.462      4.971
REMARK INTER + INTRA:          -8.513
REMARK INTER:                  -7.194
REMARK INTRA:                  -1.319
REMARK UNBOUND:                -1.800
REMARK SMILES CCCCCCCCCCCCCCC(=O)[O-]
REMARK SMILES IDX 9 1 10 2 11 3 12 4 13 5 14 6 15 7 16 8 17 9 8 10 7 11 6 12
REMARK SMILES IDX 5 13 4 14 3 15 2 16 1 17
REMARK H PARENT
REMARK Flexibility Score: inf
ROOT
ATOM      1  C   UNL     1      12.662  -9.792  13.014  1.00  0.00     0.000 C 
ENDROOT
BRANCH   1   2
ATOM      2  C   UNL     1      13.448  -8.936  12.010  1.00  0.00     0.000 C 
BRANCH   2   3
ATOM      3  C   UNL     1      14.434  -7.976  12.695  1.00  0.00     0.000 C 
BRANCH   3   4
ATOM      4  C   UNL     1      14.411  -6.567  12.078  1.00  0.00     0.000 C 
BRANCH   4   5
ATOM      5  C   UNL     1      15.092  -5.520  12.973  1.00  0.00     0.006 C 
BRANCH   5   6
ATOM      6  C   UNL     1      14.610  -5.585  14.428  1.00  0.00     0.053 C 
BRANCH   6   7
ATOM      7  C   UNL     1      13.556  -4.553  14.675  1.00  0.00     0.041 C 
ATOM      8  O   UNL     1      13.254  -4.224  15.852  1.00  0.00    -0.550 OA
ATOM      9  O   UNL     1      12.870  -3.990  13.606  1.00  0.00    -0.550 OA
ENDBRANCH   6   7
ENDBRANCH   5   6
ENDBRANCH   4   5
ENDBRANCH   3   4
ENDBRANCH   2   3
ENDBRANCH   1   2
BRANCH   1  10
ATOM     10  C   UNL     1      12.179 -11.096  12.364  1.00  0.00     0.000 C 
BRANCH  10  11
ATOM     11  C   UNL     1      12.830 -12.351  12.975  1.00  0.00    -0.000 C 
BRANCH  11  12
ATOM     12  C   UNL     1      13.758 -13.133  12.028  1.00  0.00    -0.000 C 
BRANCH  12  13
ATOM     13  C   UNL     1      15.218 -13.164  12.512  1.00  0.00    -0.000 C 
BRANCH  13  14
ATOM     14  C   UNL     1      16.061 -12.025  11.915  1.00  0.00    -0.000 C 
BRANCH  14  15
ATOM     15  C   UNL     1      16.505 -11.001  12.976  1.00  0.00    -0.000 C 
BRANCH  15  16
ATOM     16  C   UNL     1      17.443  -9.928  12.399  1.00  0.00    -0.003 C 
ATOM     17  C   UNL     1      18.148  -9.112  13.482  1.00  0.00     0.004 C 
ENDBRANCH  15  16
ENDBRANCH  14  15
ENDBRANCH  13  14
ENDBRANCH  12  13
ENDBRANCH  11  12
ENDBRANCH  10  11
ENDBRANCH   1  10
TORSDOF 13
ENDMDL
MODEL 4
REMARK VINA RESULT:    -3.804      3.322      5.266
REMARK INTER + INTRA:          -8.495
REMARK INTER:                  -7.403
REMARK INTRA:                  -1.092
REMARK UNBOUND:                -1.800
REMARK SMILES CCCCCCCCCCCCCCC(=O)[O-]
REMARK SMILES IDX 9 1 10 2 11 3 12 4 13 5 14 6 15 7 16 8 17 9 8 10 7 11 6 12
REMARK SMILES IDX 5 13 4 14 3 15 2 16 1 17
REMARK H PARENT
REMARK Flexibility Score: inf
ROOT
ATOM      1  C   UNL     1      18.223  -8.877  13.711  1.00  0.00     0.000 C 
ENDROOT
BRANCH   1   2
ATOM      2  C   UNL     1      17.678 -10.312  13.666  1.00  0.00     0.000 C 
BRANCH   2   3
ATOM      3  C   UNL     1      16.943 -10.625  12.354  1.00  0.00     0.000 C 
BRANCH   3   4
ATOM      4  C   UNL     1      16.215 -11.980  12.395  1.00  0.00     0.000 C 
BRANCH   4   5
ATOM      5  C   UNL     1      14.691 -11.836  12.250  1.00  0.00     0.006 C 
BRANCH   5   6
ATOM      6  C   UNL     1      14.238 -10.370  12.229  1.00  0.00     0.053 C 
BRANCH   6   7
ATOM      7  C   UNL     1      12.869 -10.240  12.818  1.00  0.00     0.041 C 
ATOM      8  O   UNL     1      12.410  -9.105  13.110  1.00  0.00    -0.550 OA
ATOM      9  O   UNL     1      12.117 -11.377  13.090  1.00  0.00    -0.550 OA
ENDBRANCH   6   7
ENDBRANCH   5   6
ENDBRANCH   4   5
ENDBRANCH   3   4
ENDBRANCH   2   3
ENDBRANCH   1   2
BRANCH   1  10
ATOM     10  C   UNL     1      17.852  -8.108  12.434  1.00  0.00     0.000 C 
BRANCH  10  11
ATOM     11  C   UNL     1      18.478  -6.703  12.373  1.00  0.00    -0.000 C 
BRANCH  11  12
ATOM     12  C   UNL     1      17.935  -5.700  13.407  1.00  0.00    -0.000 C 
BRANCH  12  13
ATOM     13  C   UNL     1      16.447  -5.371  13.197  1.00  0.00    -0.000 C 
BRANCH  13  14
ATOM     14  C   UNL     1      15.561  -5.886  14.343  1.00  0.00    -0.000 C 
BRANCH  14  15
ATOM     15  C   UNL     1      14.114  -6.160  13.894  1.00  0.00    -0.000 C 
BRANCH  15  16
ATOM     16  C   UNL     1      13.190  -4.954  14.125  1.00  0.00    -0.003 C 
ATOM     17  C   UNL     1      13.404  -4.294  15.487  1.00  0.00     0.004 C 
ENDBRANCH  15  16
ENDBRANCH  14  15
ENDBRANCH  13  14
ENDBRANCH  12  13
ENDBRANCH  11  12
ENDBRANCH  10  11
ENDBRANCH   1  10
TORSDOF 13
ENDMDL
MODEL 5
REMARK VINA RESULT:    -3.793      2.741      4.976
REMARK INTER + INTRA:          -8.475
REMARK INTER:                  -6.973
REMARK INTRA:                  -1.502
REMARK UNBOUND:                -1.800
REMARK SMILES CCCCCCCCCCCCCCC(=O)[O-]
REMARK SMILES IDX 9 1 10 2 11 3 12 4 13 5 14 6 15 7 16 8 17 9 8 10 7 11 6 12
REMARK SMILES IDX 5 13 4 14 3 15 2 16 1 17
REMARK H PARENT
REMARK Flexibility Score: inf
ROOT
ATOM      1  C   UNL     1      12.624  -9.831  12.964  1.00  0.00     0.000 C 
ENDROOT
BRANCH   1   2
ATOM      2  C   UNL     1      13.496  -8.986  12.024  1.00  0.00     0.000 C 
BRANCH   2   3
ATOM      3  C   UNL     1      14.355  -7.958  12.778  1.00  0.00     0.000 C 
BRANCH   3   4
ATOM      4  C   UNL     1      14.358  -6.579  12.096  1.00  0.00     0.000 C 
BRANCH   4   5
ATOM      5  C   UNL     1      15.428  -5.638  12.672  1.00  0.00     0.006 C 
BRANCH   5   6
ATOM      6  C   UNL     1      15.567  -5.766  14.194  1.00  0.00     0.053 C 
BRANCH   6   7
ATOM      7  C   UNL     1      16.993  -6.017  14.569  1.00  0.00     0.041 C 
ATOM      8  O   UNL     1      17.271  -6.647  15.623  1.00  0.00    -0.550 OA
ATOM      9  O   UNL     1      18.019  -5.513  13.778  1.00  0.00    -0.550 OA
ENDBRANCH   6   7
ENDBRANCH   5   6
ENDBRANCH   4   5
ENDBRANCH   3   4
ENDBRANCH   2   3
ENDBRANCH   1   2
BRANCH   1  10
ATOM     10  C   UNL     1      12.124 -11.099  12.258  1.00  0.00     0.000 C 
BRANCH  10  11
ATOM     11  C   UNL     1      12.595 -12.396  12.942  1.00  0.00    -0.000 C 
BRANCH  11  12
ATOM     12  C   UNL     1      13.519 -13.286  12.091  1.00  0.00    -0.000 C 
BRANCH  12  13
ATOM     13  C   UNL     1      14.969 -13.307  12.606  1.00  0.00    -0.000 C 
BRANCH  13  14
ATOM     14  C   UNL     1      15.845 -12.229  11.947  1.00  0.00    -0.000 C 
BRANCH  14  15
ATOM     15  C   UNL     1      16.291 -11.142  12.940  1.00  0.00    -0.000 C 
BRANCH  15  16
ATOM     16  C   UNL     1      17.182 -10.075  12.282  1.00  0.00    -0.003 C 
ATOM     17  C   UNL     1      17.985  -9.264  13.298  1.00  0.00     0.004 C 
ENDBRANCH  15  16
ENDBRANCH  14  15
ENDBRANCH  13  14
ENDBRANCH  12  13
ENDBRANCH  11  12
ENDBRANCH  10  11
ENDBRANCH   1  10
TORSDOF 13
ENDMDL
MODEL 6
REMARK VINA RESULT:    -3.784      3.289      5.271
REMARK INTER + INTRA:          -8.460
REMARK INTER:                  -6.845
REMARK INTRA:                  -1.615
REMARK UNBOUND:                -1.800
REMARK SMILES CCCCCCCCCCCCCCC(=O)[O-]
REMARK SMILES IDX 9 1 10 2 11 3 12 4 13 5 14 6 15 7 16 8 17 9 8 10 7 11 6 12
REMARK SMILES IDX 5 13 4 14 3 15 2 16 1 17
REMARK H PARENT
REMARK Flexibility Score: inf
ROOT
ATOM      1  C   UNL     1      13.041 -12.743  13.013  1.00  0.00     0.000 C 
ENDROOT
BRANCH   1   2
ATOM      2  C   UNL     1      14.115 -13.425  12.154  1.00  0.00     0.000 C 
BRANCH   2   3
ATOM      3  C   UNL     1      15.543 -13.090  12.614  1.00  0.00     0.000 C 
BRANCH   3   4
ATOM      4  C   UNL     1      16.087 -11.808  11.959  1.00  0.00     0.000 C 
BRANCH   4   5
ATOM      5  C   UNL     1      16.724 -10.850  12.978  1.00  0.00     0.006 C 
BRANCH   5   6
ATOM      6  C   UNL     1      17.419  -9.656  12.310  1.00  0.00     0.053 C 
BRANCH   6   7
ATOM      7  C   UNL     1      18.107  -8.812  13.336  1.00  0.00     0.041 C 
ATOM      8  O   UNL     1      18.565  -9.337  14.385  1.00  0.00    -0.550 OA
ATOM      9  O   UNL     1      18.199  -7.438  13.157  1.00  0.00    -0.550 OA
ENDBRANCH   6   7
ENDBRANCH   5   6
ENDBRANCH   4   5
ENDBRANCH   3   4
ENDBRANCH   2   3
ENDBRANCH   1   2
BRANCH   1  10
ATOM     10  C   UNL     1      11.841 -12.315  12.156  1.00  0.00     0.000 C 
BRANCH  10  11
ATOM     11  C   UNL     1      11.811 -10.802  11.875  1.00  0.00    -0.000 C 
BRANCH  11  12
ATOM     12  C   UNL     1      12.730  -9.952  12.771  1.00  0.00    -0.000 C 
BRANCH  12  13
ATOM     13  C   UNL     1      13.644  -9.011  11.968  1.00  0.00    -0.000 C 
BRANCH  13  14
ATOM     14  C   UNL     1      14.343  -7.968  12.856  1.00  0.00    -0.000 C 
BRANCH  14  15
ATOM     15  C   UNL     1      14.809  -6.734  12.062  1.00  0.00    -0.000 C 
BRANCH  15  16
ATOM     16  C   UNL     1      15.008  -5.501  12.959  1.00  0.00    -0.003 C 
ATOM     17  C   UNL     1      14.968  -5.838  14.449  1.00  0.00     0.004 C 
ENDBRANCH  15  16
ENDBRANCH  14  15
ENDBRANCH  13  14
ENDBRANCH  12  13
ENDBRANCH  11  12
ENDBRANCH  10  11
ENDBRANCH   1  10
TORSDOF 13
ENDMDL
MODEL 7
REMARK VINA RESULT:    -3.765      2.704      4.014
REMARK INTER + INTRA:          -8.426
REMARK INTER:                  -7.129
REMARK INTRA:                  -1.297
REMARK UNBOUND:                -1.800
REMARK SMILES CCCCCCCCCCCCCCC(=O)[O-]
REMARK SMILES IDX 9 1 10 2 11 3 12 4 13 5 14 6 15 7 16 8 17 9 8 10 7 11 6 12
REMARK SMILES IDX 5 13 4 14 3 15 2 16 1 17
REMARK H PARENT
REMARK Flexibility Score: inf
ROOT
ATOM      1  C   UNL     1      16.152 -10.627  12.627  1.00  0.00     0.000 C 
ENDROOT
BRANCH   1   2
ATOM      2  C   UNL     1      17.615 -10.169  12.718  1.00  0.00     0.000 C 
BRANCH   2   3
ATOM      3  C   UNL     1      17.767  -8.645  12.595  1.00  0.00     0.000 C 
BRANCH   3   4
ATOM      4  C   UNL     1      16.421  -7.907  12.708  1.00  0.00     0.000 C 
BRANCH   4   5
ATOM      5  C   UNL     1      16.575  -6.381  12.612  1.00  0.00     0.006 C 
BRANCH   5   6
ATOM      6  C   UNL     1      17.370  -5.794  13.785  1.00  0.00     0.053 C 
BRANCH   6   7
ATOM      7  C   UNL     1      16.692  -6.104  15.082  1.00  0.00     0.041 C 
ATOM      8  O   UNL     1      17.346  -6.599  16.037  1.00  0.00    -0.550 OA
ATOM      9  O   UNL     1      15.326  -5.892  15.220  1.00  0.00    -0.550 OA
ENDBRANCH   6   7
ENDBRANCH   5   6
ENDBRANCH   4   5
ENDBRANCH   3   4
ENDBRANCH   2   3
ENDBRANCH   1   2
BRANCH   1  10
ATOM     10  C   UNL     1      16.039 -11.961  11.875  1.00  0.00     0.000 C 
BRANCH  10  11
ATOM     11  C   UNL     1      15.500 -13.105  12.754  1.00  0.00    -0.000 C 
BRANCH  11  12
ATOM     12  C   UNL     1      14.110 -13.634  12.358  1.00  0.00    -0.000 C 
BRANCH  12  13
ATOM     13  C   UNL     1      12.961 -12.832  12.995  1.00  0.00    -0.000 C 
BRANCH  13  14
ATOM     14  C   UNL     1      11.926 -12.362  11.960  1.00  0.00    -0.000 C 
BRANCH  14  15
ATOM     15  C   UNL     1      11.831 -10.828  11.875  1.00  0.00    -0.000 C 
BRANCH  15  16
ATOM     16  C   UNL     1      12.603 -10.128  13.006  1.00  0.00    -0.003 C 
ATOM     17  C   UNL     1      12.919  -8.666  12.693  1.00  0.00     0.004 C 
ENDBRANCH  15  16
ENDBRANCH  14  15
ENDBRANCH  13  14
ENDBRANCH  12  13
ENDBRANCH  11  12
ENDBRANCH  10  11
ENDBRANCH   1  10
TORSDOF 13
ENDMDL
MODEL 8
REMARK VINA RESULT:    -3.604      3.143      5.569
REMARK INTER + INTRA:          -8.142
REMARK INTER:                  -6.790
REMARK INTRA:                  -1.352
REMARK UNBOUND:                -1.800
REMARK SMILES CCCCCCCCCCCCCCC(=O)[O-]
REMARK SMILES IDX 9 1 10 2 11 3 12 4 13 5 14 6 15 7 16 8 17 9 8 10 7 11 6 12
REMARK SMILES IDX 5 13 4 14 3 15 2 16 1 17
REMARK H PARENT
REMARK Flexibility Score: inf
ROOT
ATOM      1  C   UNL     1      12.455 -12.100  13.065  1.00  0.00     0.000 C 
ENDROOT
BRANCH   1   2
ATOM      2  C   UNL     1      11.755 -10.879  12.450  1.00  0.00     0.000 C 
BRANCH   2   3
ATOM      3  C   UNL     1      12.747  -9.856  11.875  1.00  0.00     0.000 C 
BRANCH   3   4
ATOM      4  C   UNL     1      13.413  -9.002  12.968  1.00  0.00     0.000 C 
BRANCH   4   5
ATOM      5  C   UNL     1      14.015  -7.701  12.415  1.00  0.00     0.006 C 
BRANCH   5   6
ATOM      6  C   UNL     1      14.087  -6.589  13.470  1.00  0.00     0.053 C 
BRANCH   6   7
ATOM      7  C   UNL     1      14.652  -5.339  12.873  1.00  0.00     0.041 C 
ATOM      8  O   UNL     1      14.170  -4.217  13.177  1.00  0.00    -0.550 OA
ATOM      9  O   UNL     1      15.680  -5.417  11.941  1.00  0.00    -0.550 OA
ENDBRANCH   6   7
ENDBRANCH   5   6
ENDBRANCH   4   5
ENDBRANCH   3   4
ENDBRANCH   2   3
ENDBRANCH   1   2
BRANCH   1  10
ATOM     10  C   UNL     1      13.315 -12.825  12.019  1.00  0.00     0.000 C 
BRANCH  10  11
ATOM     11  C   UNL     1      14.469 -13.631  12.642  1.00  0.00    -0.000 C 
BRANCH  11  12
ATOM     12  C   UNL     1      15.880 -13.093  12.340  1.00  0.00    -0.000 C 
BRANCH  12  13
ATOM     13  C   UNL     1      15.910 -11.567  12.147  1.00  0.00    -0.000 C 
BRANCH  13  14
ATOM     14  C   UNL     1      17.025 -10.891  12.962  1.00  0.00    -0.000 C 
BRANCH  14  15
ATOM     15  C   UNL     1      17.222  -9.413  12.581  1.00  0.00    -0.000 C 
BRANCH  15  16
ATOM     16  C   UNL     1      17.881  -8.599  13.707  1.00  0.00    -0.003 C 
ATOM     17  C   UNL     1      18.509  -9.481  14.786  1.00  0.00     0.004 C 
ENDBRANCH  15  16
ENDBRANCH  14  15
ENDBRANCH  13  14
ENDBRANCH  12  13
ENDBRANCH  11  12
ENDBRANCH  10  11
ENDBRANCH   1  10
TORSDOF 13
ENDMDL
MODEL 9
REMARK VINA RESULT:    -3.521      2.613      4.680
REMARK INTER + INTRA:          -7.997
REMARK INTER:                  -6.817
REMARK INTRA:                  -1.180
REMARK UNBOUND:                -1.800
REMARK SMILES CCCCCCCCCCCCCCC(=O)[O-]
REMARK SMILES IDX 9 1 10 2 11 3 12 4 13 5 14 6 15 7 16 8 17 9 8 10 7 11 6 12
REMARK SMILES IDX 5 13 4 14 3 15 2 16 1 17
REMARK H PARENT
REMARK Flexibility Score: inf
ROOT
ATOM      1  C   UNL     1      17.972  -8.036  14.874  1.00  0.00     0.000 C 
ENDROOT
BRANCH   1   2
ATOM      2  C   UNL     1      17.113  -7.096  14.014  1.00  0.00     0.000 C 
BRANCH   2   3
ATOM      3  C   UNL     1      17.906  -5.895  13.477  1.00  0.00     0.000 C 
BRANCH   3   4
ATOM      4  C   UNL     1      17.108  -5.074  12.449  1.00  0.00     0.000 C 
BRANCH   4   5
ATOM      5  C   UNL     1      15.774  -5.738  12.071  1.00  0.00     0.006 C 
BRANCH   5   6
ATOM      6  C   UNL     1      14.559  -4.891  12.472  1.00  0.00     0.053 C 
BRANCH   6   7
ATOM      7  C   UNL     1      13.805  -5.553  13.582  1.00  0.00     0.041 C 
ATOM      8  O   UNL     1      13.374  -4.873  14.549  1.00  0.00    -0.550 OA
ATOM      9  O   UNL     1      13.620  -6.930  13.571  1.00  0.00    -0.550 OA
ENDBRANCH   6   7
ENDBRANCH   5   6
ENDBRANCH   4   5
ENDBRANCH   3   4
ENDBRANCH   2   3
ENDBRANCH   1   2
BRANCH   1  10
ATOM     10  C   UNL     1      18.387  -9.282  14.078  1.00  0.00     0.000 C 
BRANCH  10  11
ATOM     11  C   UNL     1      17.670  -9.396  12.720  1.00  0.00    -0.000 C 
BRANCH  11  12
ATOM     12  C   UNL     1      16.538 -10.438  12.664  1.00  0.00    -0.000 C 
BRANCH  12  13
ATOM     13  C   UNL     1      15.169  -9.816  12.340  1.00  0.00    -0.000 C 
BRANCH  13  14
ATOM     14  C   UNL     1      14.082 -10.876  12.094  1.00  0.00    -0.000 C 
BRANCH  14  15
ATOM     15  C   UNL     1      14.669 -12.282  11.876  1.00  0.00    -0.000 C 
BRANCH  15  16
ATOM     16  C   UNL     1      13.907 -13.364  12.659  1.00  0.00    -0.003 C 
ATOM     17  C   UNL     1      12.620 -12.839  13.296  1.00  0.00     0.004 C 
ENDBRANCH  15  16
ENDBRANCH  14  15
ENDBRANCH  13  14
ENDBRANCH  12  13
ENDBRANCH  11  12
ENDBRANCH  10  11
ENDBRANCH   1  10
TORSDOF 13
ENDMDL
