MODEL 1
REMARK VINA RESULT:    -3.962      0.000      0.000
REMARK INTER + INTRA:          -5.096
REMARK INTER:                  -4.889
REMARK INTRA:                  -0.207
REMARK UNBOUND:                -0.207
REMARK SMILES CCCCCC(=O)[O-]
REMARK SMILES IDX 4 1 5 2 6 3 7 4 8 5 3 6 2 7 1 8
REMARK H PARENT
REMARK Flexibility Score: inf
ROOT
ATOM      1  C   UNL     1       6.125 -35.131  23.281  1.00  0.00     0.006 C 
ENDROOT
BRANCH   1   2
ATOM      2  C   UNL     1       5.945 -35.722  24.681  1.00  0.00     0.053 C 
BRANCH   2   3
ATOM      3  C   UNL     1       4.944 -36.834  24.655  1.00  0.00     0.041 C 
ATOM      4  O   UNL     1       4.672 -37.416  23.571  1.00  0.00    -0.550 OA
ATOM      5  O   UNL     1       4.276 -37.196  25.818  1.00  0.00    -0.550 OA
ENDBRANCH   2   3
ENDBRANCH   1   2
BRANCH   1   6
ATOM      6  C   UNL     1       5.476 -33.745  23.180  1.00  0.00     0.000 C 
BRANCH   6   7
ATOM      7  C   UNL     1       4.388 -33.725  22.101  1.00  0.00    -0.003 C 
ATOM      8  C   UNL     1       4.692 -34.728  20.991  1.00  0.00     0.004 C 
ENDBRANCH   6   7
ENDBRANCH   1   6
TORSDOF 4
ENDMDL
MODEL 2
REMARK VINA RESULT:    -3.876      2.723      4.180
REMARK INTER + INTRA:          -4.989
REMARK INTER:                  -4.873
REMARK INTRA:                  -0.116
REMARK UNBOUND:                -0.207
REMARK SMILES CCCCCC(=O)[O-]
REMARK SMILES IDX 4 1 5 2 6 3 7 4 8 5 3 6 2 7 1 8
REMARK H PARENT
REMARK Flexibility Score: inf
ROOT
ATOM      1  C   UNL     1       6.008 -35.085  22.727  1.00  0.00     0.006 C 
ENDROOT
BRANCH   1   2
ATOM      2  C   UNL     1       5.100 -33.854  22.776  1.00  0.00     0.053 C 
BRANCH   2   3
ATOM      3  C   UNL     1       4.292 -33.749  21.522  1.00  0.00     0.041 C 
ATOM      4  O   UNL     1       3.083 -33.399  21.574  1.00  0.00    -0.550 OA
ATOM      5  O   UNL     1       4.859 -34.085  20.299  1.00  0.00    -0.550 OA
ENDBRANCH   2   3
ENDBRANCH   1   2
BRANCH   1   6
ATOM      6  C   UNL     1       5.318 -36.304  23.350  1.00  0.00     0.000 C 
BRANCH   6   7
ATOM      7  C   UNL     1       5.393 -36.256  24.880  1.00  0.00    -0.003 C 
ATOM      8  C   UNL     1       4.446 -37.274  25.511  1.00  0.00     0.004 C 
ENDBRANCH   6   7
ENDBRANCH   1   6
TORSDOF 4
ENDMDL
MODEL 3
REMARK VINA RESULT:    -3.809      5.057      6.711
REMARK INTER + INTRA:          -4.907
REMARK INTER:                  -4.810
REMARK INTRA:                  -0.097
REMARK UNBOUND:                -0.207
REMARK SMILES CCCCCC(=O)[O-]
REMARK SMILES IDX 4 1 5 2 6 3 7 4 8 5 3 6 2 7 1 8
REMARK H PARENT
REMARK Flexibility Score: inf
ROOT
ATOM      1  C   UNL     1       3.086 -37.374  17.170  1.00  0.00     0.006 C 
ENDROOT
BRANCH   1   2
ATOM      2  C   UNL     1       2.785 -37.124  18.650  1.00  0.00     0.053 C 
BRANCH   2   3
ATOM      3  C   UNL     1       4.022 -36.689  19.369  1.00  0.00     0.041 C 
ATOM      4  O   UNL     1       4.249 -35.464  19.556  1.00  0.00    -0.550 OA
ATOM      5  O   UNL     1       4.950 -37.632  19.791  1.00  0.00    -0.550 OA
ENDBRANCH   2   3
ENDBRANCH   1   2
BRANCH   1   6
ATOM      6  C   UNL     1       2.858 -36.105  16.340  1.00  0.00     0.000 C 
BRANCH   6   7
ATOM      7  C   UNL     1       2.594 -36.449  14.870  1.00  0.00    -0.003 C 
ATOM      8  C   UNL     1       3.754 -37.242  14.272  1.00  0.00     0.004 C 
ENDBRANCH   6   7
ENDBRANCH   1   6
TORSDOF 4
ENDMDL
MODEL 4
REMARK VINA RESULT:    -3.799      1.677      2.477
REMARK INTER + INTRA:          -4.894
REMARK INTER:                  -4.695
REMARK INTRA:                  -0.199
REMARK UNBOUND:                -0.207
REMARK SMILES CCCCCC(=O)[O-]
REMARK SMILES IDX 4 1 5 2 6 3 7 4 8 5 3 6 2 7 1 8
REMARK H PARENT
REMARK Flexibility Score: inf
ROOT
ATOM      1  C   UNL     1       5.378 -35.742  21.330  1.00  0.00     0.006 C 
ENDROOT
BRANCH   1   2
ATOM      2  C   UNL     1       4.925 -37.187  21.109  1.00  0.00     0.053 C 
BRANCH   2   3
ATOM      3  C   UNL     1       4.648 -37.855  22.419  1.00  0.00     0.041 C 
ATOM      4  O   UNL     1       4.315 -39.070  22.453  1.00  0.00    -0.550 OA
ATOM      5  O   UNL     1       4.709 -37.124  23.599  1.00  0.00    -0.550 OA
ENDBRANCH   2   3
ENDBRANCH   1   2
BRANCH   1   6
ATOM      6  C   UNL     1       4.293 -34.752  20.891  1.00  0.00     0.000 C 
BRANCH   6   7
ATOM      7  C   UNL     1       4.161 -33.601  21.895  1.00  0.00    -0.003 C 
ATOM      8  C   UNL     1       5.267 -33.655  22.946  1.00  0.00     0.004 C 
ENDBRANCH   6   7
ENDBRANCH   1   6
TORSDOF 4
ENDMDL
MODEL 5
REMARK VINA RESULT:    -3.731      2.635      4.010
REMARK INTER + INTRA:          -4.810
REMARK INTER:                  -4.680
REMARK INTRA:                  -0.131
REMARK UNBOUND:                -0.207
REMARK SMILES CCCCCC(=O)[O-]
REMARK SMILES IDX 4 1 5 2 6 3 7 4 8 5 3 6 2 7 1 8
REMARK H PARENT
REMARK Flexibility Score: inf
ROOT
ATOM      1  C   UNL     1       5.013 -36.346  21.994  1.00  0.00     0.006 C 
ENDROOT
BRANCH   1   2
ATOM      2  C   UNL     1       5.677 -35.025  21.596  1.00  0.00     0.053 C 
BRANCH   2   3
ATOM      3  C   UNL     1       4.943 -33.868  22.197  1.00  0.00     0.041 C 
ATOM      4  O   UNL     1       5.474 -33.190  23.116  1.00  0.00    -0.550 OA
ATOM      5  O   UNL     1       3.654 -33.568  21.776  1.00  0.00    -0.550 OA
ENDBRANCH   2   3
ENDBRANCH   1   2
BRANCH   1   6
ATOM      6  C   UNL     1       5.259 -36.661  23.474  1.00  0.00     0.000 C 
BRANCH   6   7
ATOM      7  C   UNL     1       4.653 -38.016  23.856  1.00  0.00    -0.003 C 
ATOM      8  C   UNL     1       4.576 -38.946  22.648  1.00  0.00     0.004 C 
ENDBRANCH   6   7
ENDBRANCH   1   6
TORSDOF 4
ENDMDL
MODEL 6
REMARK VINA RESULT:    -3.693      2.942      4.407
REMARK INTER + INTRA:          -4.764
REMARK INTER:                  -4.658
REMARK INTRA:                  -0.106
REMARK UNBOUND:                -0.207
REMARK SMILES CCCCCC(=O)[O-]
REMARK SMILES IDX 4 1 5 2 6 3 7 4 8 5 3 6 2 7 1 8
REMARK H PARENT
REMARK Flexibility Score: inf
ROOT
ATOM      1  C   UNL     1       4.646 -34.043  21.904  1.00  0.00     0.006 C 
ENDROOT
BRANCH   1   2
ATOM      2  C   UNL     1       5.541 -34.755  20.886  1.00  0.00     0.053 C 
BRANCH   2   3
ATOM      3  C   UNL     1       4.880 -34.792  19.544  1.00  0.00     0.041 C 
ATOM      4  O   UNL     1       5.177 -33.938  18.667  1.00  0.00    -0.550 OA
ATOM      5  O   UNL     1       3.900 -35.740  19.278  1.00  0.00    -0.550 OA
ENDBRANCH   2   3
ENDBRANCH   1   2
BRANCH   1   6
ATOM      6  C   UNL     1       5.359 -33.893  23.253  1.00  0.00     0.000 C 
BRANCH   6   7
ATOM      7  C   UNL     1       6.125 -35.170  23.616  1.00  0.00    -0.003 C 
ATOM      8  C   UNL     1       5.359 -35.999  24.644  1.00  0.00     0.004 C 
ENDBRANCH   6   7
ENDBRANCH   1   6
TORSDOF 4
ENDMDL
MODEL 7
REMARK VINA RESULT:    -3.682      2.918      4.014
REMARK INTER + INTRA:          -4.750
REMARK INTER:                  -4.609
REMARK INTRA:                  -0.141
REMARK UNBOUND:                -0.207
REMARK SMILES CCCCCC(=O)[O-]
REMARK SMILES IDX 4 1 5 2 6 3 7 4 8 5 3 6 2 7 1 8
REMARK H PARENT
REMARK Flexibility Score: inf
ROOT
ATOM      1  C   UNL     1       5.005 -36.395  21.672  1.00  0.00     0.006 C 
ENDROOT
BRANCH   1   2
ATOM      2  C   UNL     1       5.602 -35.015  21.380  1.00  0.00     0.053 C 
BRANCH   2   3
ATOM      3  C   UNL     1       4.862 -33.955  22.133  1.00  0.00     0.041 C 
ATOM      4  O   UNL     1       5.335 -33.493  23.206  1.00  0.00    -0.550 OA
ATOM      5  O   UNL     1       3.627 -33.511  21.678  1.00  0.00    -0.550 OA
ENDBRANCH   2   3
ENDBRANCH   1   2
BRANCH   1   6
ATOM      6  C   UNL     1       4.802 -37.191  20.378  1.00  0.00     0.000 C 
BRANCH   6   7
ATOM      7  C   UNL     1       4.017 -36.374  19.346  1.00  0.00    -0.003 C 
ATOM      8  C   UNL     1       3.161 -37.278  18.462  1.00  0.00     0.004 C 
ENDBRANCH   6   7
ENDBRANCH   1   6
TORSDOF 4
ENDMDL
MODEL 8
REMARK VINA RESULT:    -3.668      3.814      5.060
REMARK INTER + INTRA:          -4.733
REMARK INTER:                  -4.654
REMARK INTRA:                  -0.079
REMARK UNBOUND:                -0.207
REMARK SMILES CCCCCC(=O)[O-]
REMARK SMILES IDX 4 1 5 2 6 3 7 4 8 5 3 6 2 7 1 8
REMARK H PARENT
REMARK Flexibility Score: inf
ROOT
ATOM      1  C   UNL     1       4.240 -35.702  19.707  1.00  0.00     0.006 C 
ENDROOT
BRANCH   1   2
ATOM      2  C   UNL     1       4.113 -37.182  19.337  1.00  0.00     0.053 C 
BRANCH   2   3
ATOM      3  C   UNL     1       2.972 -37.389  18.391  1.00  0.00     0.041 C 
ATOM      4  O   UNL     1       3.114 -37.141  17.164  1.00  0.00    -0.550 OA
ATOM      5  O   UNL     1       1.738 -37.810  18.871  1.00  0.00    -0.550 OA
ENDBRANCH   2   3
ENDBRANCH   1   2
BRANCH   1   6
ATOM      6  C   UNL     1       5.241 -35.504  20.851  1.00  0.00     0.000 C 
BRANCH   6   7
ATOM      7  C   UNL     1       4.611 -34.717  22.005  1.00  0.00    -0.003 C 
ATOM      8  C   UNL     1       3.755 -33.565  21.484  1.00  0.00     0.004 C 
ENDBRANCH   6   7
ENDBRANCH   1   6
TORSDOF 4
ENDMDL
