MODEL 1
REMARK VINA RESULT:    -3.054      0.000      0.000
REMARK INTER + INTRA:          -7.441
REMARK INTER:                  -5.554
REMARK INTRA:                  -1.887
REMARK UNBOUND:                -1.887
REMARK SMILES CCCCCCCCCCCCCC[C@@H](C)C(=O)[O-]
REMARK SMILES IDX 9 1 10 2 11 3 12 4 13 5 14 6 15 7 16 8 17 9 18 10 19 11 8 12
REMARK SMILES IDX 7 13 6 14 5 15 4 16 3 17 2 18 1 19
REMARK H PARENT
REMARK Flexibility Score: inf
ROOT
ATOM      1  C   UNL     1      22.587   5.771  15.075  1.00  0.00     0.000 C 
ENDROOT
BRANCH   1   2
ATOM      2  C   UNL     1      21.979   5.223  16.378  1.00  0.00     0.000 C 
BRANCH   2   3
ATOM      3  C   UNL     1      21.139   6.264  17.129  1.00  0.00     0.000 C 
BRANCH   3   4
ATOM      4  C   UNL     1      21.186   7.624  16.421  1.00  0.00     0.000 C 
BRANCH   4   5
ATOM      5  C   UNL     1      20.822   8.760  17.385  1.00  0.00     0.001 C 
BRANCH   5   6
ATOM      6  C   UNL     1      21.578  10.051  17.021  1.00  0.00     0.009 C 
BRANCH   6   7
ATOM      7  C   UNL     1      20.732  11.338  17.141  1.00  0.00     0.032 C 
ATOM      8  C   UNL     1      19.221  11.061  17.114  1.00  0.00     0.014 C 
BRANCH   7   9
ATOM      9  C   UNL     1      21.132  12.159  18.339  1.00  0.00     0.044 C 
ATOM     10  O   UNL     1      21.661  11.619  19.346  1.00  0.00    -0.550 OA
ATOM     11  O   UNL     1      20.963  13.538  18.315  1.00  0.00    -0.550 OA
ENDBRANCH   7   9
ENDBRANCH   6   7
ENDBRANCH   5   6
ENDBRANCH   4   5
ENDBRANCH   3   4
ENDBRANCH   2   3
ENDBRANCH   1   2
BRANCH   1  12
ATOM     12  C   UNL     1      24.034   5.297  14.823  1.00  0.00     0.000 C 
BRANCH  12  13
ATOM     13  C   UNL     1      25.054   6.439  14.980  1.00  0.00    -0.000 C 
BRANCH  13  14
ATOM     14  C   UNL     1      25.469   6.667  16.442  1.00  0.00    -0.000 C 
BRANCH  14  15
ATOM     15  C   UNL     1      25.004   8.026  16.985  1.00  0.00    -0.000 C 
BRANCH  15  16
ATOM     16  C   UNL     1      24.375   7.874  18.377  1.00  0.00    -0.000 C 
BRANCH  16  17
ATOM     17  C   UNL     1      25.190   8.568  19.483  1.00  0.00    -0.000 C 
BRANCH  17  18
ATOM     18  C   UNL     1      26.716   8.403  19.366  1.00  0.00    -0.003 C 
ATOM     19  C   UNL     1      27.226   7.102  19.984  1.00  0.00     0.004 C 
ENDBRANCH  17  18
ENDBRANCH  16  17
ENDBRANCH  15  16
ENDBRANCH  14  15
ENDBRANCH  13  14
ENDBRANCH  12  13
ENDBRANCH   1  12
TORSDOF 14
ENDMDL
MODEL 2
REMARK VINA RESULT:    -3.043      1.223      3.773
REMARK INTER + INTRA:          -7.420
REMARK INTER:                  -5.003
REMARK INTRA:                  -2.418
REMARK UNBOUND:                -1.887
REMARK SMILES CCCCCCCCCCCCCC[C@@H](C)C(=O)[O-]
REMARK SMILES IDX 9 1 10 2 11 3 12 4 13 5 14 6 15 7 16 8 17 9 18 10 19 11 8 12
REMARK SMILES IDX 7 13 6 14 5 15 4 16 3 17 2 18 1 19
REMARK H PARENT
REMARK Flexibility Score: inf
ROOT
ATOM      1  C   UNL     1      24.992   8.069  18.130  1.00  0.00     0.000 C 
ENDROOT
BRANCH   1   2
ATOM      2  C   UNL     1      23.953   7.206  18.866  1.00  0.00     0.000 C 
BRANCH   2   3
ATOM      3  C   UNL     1      23.007   8.032  19.747  1.00  0.00     0.000 C 
BRANCH   3   4
ATOM      4  C   UNL     1      21.553   7.894  19.275  1.00  0.00     0.000 C 
BRANCH   4   5
ATOM      5  C   UNL     1      20.948   9.265  18.951  1.00  0.00     0.001 C 
BRANCH   5   6
ATOM      6  C   UNL     1      21.651   9.902  17.738  1.00  0.00     0.009 C 
BRANCH   6   7
ATOM      7  C   UNL     1      20.798  10.947  16.984  1.00  0.00     0.032 C 
ATOM      8  C   UNL     1      19.292  10.769  17.224  1.00  0.00     0.014 C 
BRANCH   7   9
ATOM      9  C   UNL     1      21.253  12.353  17.277  1.00  0.00     0.044 C 
ATOM     10  O   UNL     1      21.623  13.121  16.349  1.00  0.00    -0.550 OA
ATOM     11  O   UNL     1      21.218  12.829  18.583  1.00  0.00    -0.550 OA
ENDBRANCH   7   9
ENDBRANCH   6   7
ENDBRANCH   5   6
ENDBRANCH   4   5
ENDBRANCH   3   4
ENDBRANCH   2   3
ENDBRANCH   1   2
BRANCH   1  12
ATOM     12  C   UNL     1      24.981   7.876  16.599  1.00  0.00     0.000 C 
BRANCH  12  13
ATOM     13  C   UNL     1      25.115   6.394  16.200  1.00  0.00    -0.000 C 
BRANCH  13  14
ATOM     14  C   UNL     1      24.797   6.147  14.718  1.00  0.00    -0.000 C 
BRANCH  14  15
ATOM     15  C   UNL     1      23.399   5.549  14.503  1.00  0.00    -0.000 C 
BRANCH  15  16
ATOM     16  C   UNL     1      22.888   4.875  15.784  1.00  0.00    -0.000 C 
BRANCH  16  17
ATOM     17  C   UNL     1      21.629   5.552  16.357  1.00  0.00    -0.000 C 
BRANCH  17  18
ATOM     18  C   UNL     1      21.284   6.915  15.730  1.00  0.00    -0.003 C 
ATOM     19  C   UNL     1      19.798   7.260  15.828  1.00  0.00     0.004 C 
ENDBRANCH  17  18
ENDBRANCH  16  17
ENDBRANCH  15  16
ENDBRANCH  14  15
ENDBRANCH  13  14
ENDBRANCH  12  13
ENDBRANCH   1  12
TORSDOF 14
ENDMDL
MODEL 3
REMARK VINA RESULT:    -3.031      1.488      3.468
REMARK INTER + INTRA:          -7.398
REMARK INTER:                  -5.119
REMARK INTRA:                  -2.279
REMARK UNBOUND:                -1.887
REMARK SMILES CCCCCCCCCCCCCC[C@@H](C)C(=O)[O-]
REMARK SMILES IDX 9 1 10 2 11 3 12 4 13 5 14 6 15 7 16 8 17 9 18 10 19 11 8 12
REMARK SMILES IDX 7 13 6 14 5 15 4 16 3 17 2 18 1 19
REMARK H PARENT
REMARK Flexibility Score: inf
ROOT
ATOM      1  C   UNL     1      21.669   9.088  17.067  1.00  0.00     0.000 C 
ENDROOT
BRANCH   1   2
ATOM      2  C   UNL     1      20.709   8.249  16.206  1.00  0.00     0.000 C 
BRANCH   2   3
ATOM      3  C   UNL     1      19.290   8.183  16.786  1.00  0.00     0.000 C 
BRANCH   3   4
ATOM      4  C   UNL     1      18.403   9.288  16.200  1.00  0.00     0.000 C 
BRANCH   4   5
ATOM      5  C   UNL     1      18.185  10.416  17.215  1.00  0.00     0.001 C 
BRANCH   5   6
ATOM      6  C   UNL     1      18.931  11.692  16.785  1.00  0.00     0.009 C 
BRANCH   6   7
ATOM      7  C   UNL     1      19.568  12.481  17.951  1.00  0.00     0.032 C 
ATOM      8  C   UNL     1      19.390  11.783  19.307  1.00  0.00     0.014 C 
BRANCH   7   9
ATOM      9  C   UNL     1      21.010  12.816  17.675  1.00  0.00     0.044 C 
ATOM     10  O   UNL     1      21.799  13.107  18.613  1.00  0.00    -0.550 OA
ATOM     11  O   UNL     1      21.493  12.755  16.373  1.00  0.00    -0.550 OA
ENDBRANCH   7   9
ENDBRANCH   6   7
ENDBRANCH   5   6
ENDBRANCH   4   5
ENDBRANCH   3   4
ENDBRANCH   2   3
ENDBRANCH   1   2
BRANCH   1  12
ATOM     12  C   UNL     1      21.693   8.667  18.552  1.00  0.00     0.000 C 
BRANCH  12  13
ATOM     13  C   UNL     1      22.387   9.714  19.441  1.00  0.00    -0.000 C 
BRANCH  13  14
ATOM     14  C   UNL     1      23.595   9.144  20.199  1.00  0.00    -0.000 C 
BRANCH  14  15
ATOM     15  C   UNL     1      24.195   7.906  19.514  1.00  0.00    -0.000 C 
BRANCH  15  16
ATOM     16  C   UNL     1      25.509   8.256  18.803  1.00  0.00    -0.000 C 
BRANCH  16  17
ATOM     17  C   UNL     1      25.491   7.910  17.303  1.00  0.00    -0.000 C 
BRANCH  17  18
ATOM     18  C   UNL     1      24.640   6.682  16.931  1.00  0.00    -0.003 C 
ATOM     19  C   UNL     1      24.583   6.427  15.425  1.00  0.00     0.004 C 
ENDBRANCH  17  18
ENDBRANCH  16  17
ENDBRANCH  15  16
ENDBRANCH  14  15
ENDBRANCH  13  14
ENDBRANCH  12  13
ENDBRANCH   1  12
TORSDOF 14
ENDMDL
MODEL 4
REMARK VINA RESULT:    -3.027      2.480      5.816
REMARK INTER + INTRA:          -7.392
REMARK INTER:                  -5.171
REMARK INTRA:                  -2.220
REMARK UNBOUND:                -1.887
REMARK SMILES CCCCCCCCCCCCCC[C@@H](C)C(=O)[O-]
REMARK SMILES IDX 9 1 10 2 11 3 12 4 13 5 14 6 15 7 16 8 17 9 18 10 19 11 8 12
REMARK SMILES IDX 7 13 6 14 5 15 4 16 3 17 2 18 1 19
REMARK H PARENT
REMARK Flexibility Score: inf
ROOT
ATOM      1  C   UNL     1      21.610   7.198  16.289  1.00  0.00     0.000 C 
ENDROOT
BRANCH   1   2
ATOM      2  C   UNL     1      21.791   5.973  17.202  1.00  0.00     0.000 C 
BRANCH   2   3
ATOM      3  C   UNL     1      22.326   6.338  18.592  1.00  0.00     0.000 C 
BRANCH   3   4
ATOM      4  C   UNL     1      21.872   7.744  19.006  1.00  0.00     0.000 C 
BRANCH   4   5
ATOM      5  C   UNL     1      23.066   8.603  19.439  1.00  0.00     0.001 C 
BRANCH   5   6
ATOM      6  C   UNL     1      24.331   7.739  19.602  1.00  0.00     0.009 C 
BRANCH   6   7
ATOM      7  C   UNL     1      25.570   8.280  18.853  1.00  0.00     0.032 C 
ATOM      8  C   UNL     1      26.880   8.024  19.612  1.00  0.00     0.014 C 
BRANCH   7   9
ATOM      9  C   UNL     1      25.631   7.770  17.437  1.00  0.00     0.044 C 
ATOM     10  O   UNL     1      26.313   6.752  17.144  1.00  0.00    -0.550 OA
ATOM     11  O   UNL     1      24.887   8.400  16.447  1.00  0.00    -0.550 OA
ENDBRANCH   7   9
ENDBRANCH   6   7
ENDBRANCH   5   6
ENDBRANCH   4   5
ENDBRANCH   3   4
ENDBRANCH   2   3
ENDBRANCH   1   2
BRANCH   1  12
ATOM     12  C   UNL     1      20.205   7.295  15.658  1.00  0.00     0.000 C 
BRANCH  12  13
ATOM     13  C   UNL     1      19.095   6.900  16.650  1.00  0.00    -0.000 C 
BRANCH  13  14
ATOM     14  C   UNL     1      18.332   8.114  17.201  1.00  0.00    -0.000 C 
BRANCH  14  15
ATOM     15  C   UNL     1      18.242   9.267  16.189  1.00  0.00    -0.000 C 
BRANCH  15  16
ATOM     16  C   UNL     1      18.651  10.597  16.836  1.00  0.00    -0.000 C 
BRANCH  16  17
ATOM     17  C   UNL     1      19.893  10.469  17.737  1.00  0.00    -0.000 C 
BRANCH  17  18
ATOM     18  C   UNL     1      21.217  10.903  17.081  1.00  0.00    -0.003 C 
ATOM     19  C   UNL     1      21.289  12.405  16.814  1.00  0.00     0.004 C 
ENDBRANCH  17  18
ENDBRANCH  16  17
ENDBRANCH  15  16
ENDBRANCH  14  15
ENDBRANCH  13  14
ENDBRANCH  12  13
ENDBRANCH   1  12
TORSDOF 14
ENDMDL
MODEL 5
REMARK VINA RESULT:    -2.986      1.955      3.632
REMARK INTER + INTRA:          -7.317
REMARK INTER:                  -5.502
REMARK INTRA:                  -1.815
REMARK UNBOUND:                -1.887
REMARK SMILES CCCCCCCCCCCCCC[C@@H](C)C(=O)[O-]
REMARK SMILES IDX 9 1 10 2 11 3 12 4 13 5 14 6 15 7 16 8 17 9 18 10 19 11 8 12
REMARK SMILES IDX 7 13 6 14 5 15 4 16 3 17 2 18 1 19
REMARK H PARENT
REMARK Flexibility Score: inf
ROOT
ATOM      1  C   UNL     1      20.318   7.271  15.936  1.00  0.00     0.000 C 
ENDROOT
BRANCH   1   2
ATOM      2  C   UNL     1      18.844   7.104  15.529  1.00  0.00     0.000 C 
BRANCH   2   3
ATOM      3  C   UNL     1      17.934   8.187  16.123  1.00  0.00     0.000 C 
BRANCH   3   4
ATOM      4  C   UNL     1      18.212   8.380  17.619  1.00  0.00     0.000 C 
BRANCH   4   5
ATOM      5  C   UNL     1      18.204   9.868  17.992  1.00  0.00     0.001 C 
BRANCH   5   6
ATOM      6  C   UNL     1      18.736  10.727  16.830  1.00  0.00     0.009 C 
BRANCH   6   7
ATOM      7  C   UNL     1      19.468  12.014  17.274  1.00  0.00     0.032 C 
ATOM      8  C   UNL     1      19.247  12.341  18.758  1.00  0.00     0.014 C 
BRANCH   7   9
ATOM      9  C   UNL     1      20.931  11.973  16.918  1.00  0.00     0.044 C 
ATOM     10  O   UNL     1      21.534  10.875  16.780  1.00  0.00    -0.550 OA
ATOM     11  O   UNL     1      21.616  13.160  16.690  1.00  0.00    -0.550 OA
ENDBRANCH   7   9
ENDBRANCH   6   7
ENDBRANCH   5   6
ENDBRANCH   4   5
ENDBRANCH   3   4
ENDBRANCH   2   3
ENDBRANCH   1   2
BRANCH   1  12
ATOM     12  C   UNL     1      20.971   5.965  16.437  1.00  0.00     0.000 C 
BRANCH  12  13
ATOM     13  C   UNL     1      22.004   6.223  17.550  1.00  0.00    -0.000 C 
BRANCH  13  14
ATOM     14  C   UNL     1      22.436   7.695  17.629  1.00  0.00    -0.000 C 
BRANCH  14  15
ATOM     15  C   UNL     1      23.806   7.947  16.981  1.00  0.00    -0.000 C 
BRANCH  15  16
ATOM     16  C   UNL     1      24.559   6.627  16.761  1.00  0.00    -0.000 C 
BRANCH  16  17
ATOM     17  C   UNL     1      24.923   6.382  15.285  1.00  0.00    -0.000 C 
BRANCH  17  18
ATOM     18  C   UNL     1      24.222   5.175  14.636  1.00  0.00    -0.003 C 
ATOM     19  C   UNL     1      23.166   5.579  13.607  1.00  0.00     0.004 C 
ENDBRANCH  17  18
ENDBRANCH  16  17
ENDBRANCH  15  16
ENDBRANCH  14  15
ENDBRANCH  13  14
ENDBRANCH  12  13
ENDBRANCH   1  12
TORSDOF 14
ENDMDL
MODEL 6
REMARK VINA RESULT:    -2.985      2.712      6.320
REMARK INTER + INTRA:          -7.315
REMARK INTER:                  -5.013
REMARK INTRA:                  -2.302
REMARK UNBOUND:                -1.887
REMARK SMILES CCCCCCCCCCCCCC[C@@H](C)C(=O)[O-]
REMARK SMILES IDX 9 1 10 2 11 3 12 4 13 5 14 6 15 7 16 8 17 9 18 10 19 11 8 12
REMARK SMILES IDX 7 13 6 14 5 15 4 16 3 17 2 18 1 19
REMARK H PARENT
REMARK Flexibility Score: inf
ROOT
ATOM      1  C   UNL     1      21.094   9.254  16.628  1.00  0.00     0.000 C 
ENDROOT
BRANCH   1   2
ATOM      2  C   UNL     1      21.873   9.221  17.955  1.00  0.00     0.000 C 
BRANCH   2   3
ATOM      3  C   UNL     1      21.239   8.290  18.996  1.00  0.00     0.000 C 
BRANCH   3   4
ATOM      4  C   UNL     1      22.201   7.159  19.383  1.00  0.00     0.000 C 
BRANCH   4   5
ATOM      5  C   UNL     1      22.147   6.017  18.361  1.00  0.00     0.001 C 
BRANCH   5   6
ATOM      6  C   UNL     1      23.561   5.494  18.049  1.00  0.00     0.009 C 
BRANCH   6   7
ATOM      7  C   UNL     1      24.095   5.896  16.656  1.00  0.00     0.032 C 
ATOM      8  C   UNL     1      22.971   6.217  15.659  1.00  0.00     0.014 C 
BRANCH   7   9
ATOM      9  C   UNL     1      25.103   7.011  16.746  1.00  0.00     0.044 C 
ATOM     10  O   UNL     1      24.781   8.199  16.474  1.00  0.00    -0.550 OA
ATOM     11  O   UNL     1      26.393   6.738  17.184  1.00  0.00    -0.550 OA
ENDBRANCH   7   9
ENDBRANCH   6   7
ENDBRANCH   5   6
ENDBRANCH   4   5
ENDBRANCH   3   4
ENDBRANCH   2   3
ENDBRANCH   1   2
BRANCH   1  12
ATOM     12  C   UNL     1      19.844   8.348  16.624  1.00  0.00     0.000 C 
BRANCH  12  13
ATOM     13  C   UNL     1      18.572   9.116  16.221  1.00  0.00    -0.000 C 
BRANCH  13  14
ATOM     14  C   UNL     1      18.142  10.146  17.276  1.00  0.00    -0.000 C 
BRANCH  14  15
ATOM     15  C   UNL     1      18.168  11.587  16.743  1.00  0.00    -0.000 C 
BRANCH  15  16
ATOM     16  C   UNL     1      18.582  12.572  17.845  1.00  0.00    -0.000 C 
BRANCH  16  17
ATOM     17  C   UNL     1      19.914  12.195  18.518  1.00  0.00    -0.000 C 
BRANCH  17  18
ATOM     18  C   UNL     1      21.106  13.095  18.145  1.00  0.00    -0.003 C 
ATOM     19  C   UNL     1      21.511  12.974  16.677  1.00  0.00     0.004 C 
ENDBRANCH  17  18
ENDBRANCH  16  17
ENDBRANCH  15  16
ENDBRANCH  14  15
ENDBRANCH  13  14
ENDBRANCH  12  13
ENDBRANCH   1  12
TORSDOF 14
ENDMDL
MODEL 7
REMARK VINA RESULT:    -2.982      2.417      5.166
REMARK INTER + INTRA:          -7.309
REMARK INTER:                  -4.948
REMARK INTRA:                  -2.361
REMARK UNBOUND:                -1.887
REMARK SMILES CCCCCCCCCCCCCC[C@@H](C)C(=O)[O-]
REMARK SMILES IDX 9 1 10 2 11 3 12 4 13 5 14 6 15 7 16 8 17 9 18 10 19 11 8 12
REMARK SMILES IDX 7 13 6 14 5 15 4 16 3 17 2 18 1 19
REMARK H PARENT
REMARK Flexibility Score: inf
ROOT
ATOM      1  C   UNL     1      22.554   5.621  14.981  1.00  0.00     0.000 C 
ENDROOT
BRANCH   1   2
ATOM      2  C   UNL     1      24.028   5.183  14.944  1.00  0.00     0.000 C 
BRANCH   2   3
ATOM      3  C   UNL     1      25.002   6.367  14.897  1.00  0.00     0.000 C 
BRANCH   3   4
ATOM      4  C   UNL     1      25.535   6.698  16.297  1.00  0.00     0.000 C 
BRANCH   4   5
ATOM      5  C   UNL     1      24.762   7.868  16.917  1.00  0.00     0.001 C 
BRANCH   5   6
ATOM      6  C   UNL     1      24.404   7.571  18.385  1.00  0.00     0.009 C 
BRANCH   6   7
ATOM      7  C   UNL     1      25.149   8.452  19.413  1.00  0.00     0.032 C 
ATOM      8  C   UNL     1      24.723   8.165  20.860  1.00  0.00     0.014 C 
BRANCH   7   9
ATOM      9  C   UNL     1      26.643   8.369  19.238  1.00  0.00     0.044 C 
ATOM     10  O   UNL     1      27.299   9.351  18.798  1.00  0.00    -0.550 OA
ATOM     11  O   UNL     1      27.316   7.213  19.613  1.00  0.00    -0.550 OA
ENDBRANCH   7   9
ENDBRANCH   6   7
ENDBRANCH   5   6
ENDBRANCH   4   5
ENDBRANCH   3   4
ENDBRANCH   2   3
ENDBRANCH   1   2
BRANCH   1  12
ATOM     12  C   UNL     1      21.866   5.356  16.337  1.00  0.00     0.000 C 
BRANCH  12  13
ATOM     13  C   UNL     1      21.185   6.617  16.899  1.00  0.00    -0.000 C 
BRANCH  13  14
ATOM     14  C   UNL     1      20.523   7.471  15.807  1.00  0.00    -0.000 C 
BRANCH  14  15
ATOM     15  C   UNL     1      20.261   8.915  16.260  1.00  0.00    -0.000 C 
BRANCH  15  16
ATOM     16  C   UNL     1      21.471   9.479  17.018  1.00  0.00    -0.000 C 
BRANCH  16  17
ATOM     17  C   UNL     1      21.072  10.360  18.215  1.00  0.00    -0.000 C 
BRANCH  17  18
ATOM     18  C   UNL     1      21.741   9.983  19.549  1.00  0.00    -0.003 C 
ATOM     19  C   UNL     1      21.055   8.813  20.253  1.00  0.00     0.004 C 
ENDBRANCH  17  18
ENDBRANCH  16  17
ENDBRANCH  15  16
ENDBRANCH  14  15
ENDBRANCH  13  14
ENDBRANCH  12  13
ENDBRANCH   1  12
TORSDOF 14
ENDMDL
MODEL 8
REMARK VINA RESULT:    -2.978      3.027      6.505
REMARK INTER + INTRA:          -7.303
REMARK INTER:                  -4.929
REMARK INTRA:                  -2.374
REMARK UNBOUND:                -1.887
REMARK SMILES CCCCCCCCCCCCCC[C@@H](C)C(=O)[O-]
REMARK SMILES IDX 9 1 10 2 11 3 12 4 13 5 14 6 15 7 16 8 17 9 18 10 19 11 8 12
REMARK SMILES IDX 7 13 6 14 5 15 4 16 3 17 2 18 1 19
REMARK H PARENT
REMARK Flexibility Score: inf
ROOT
ATOM      1  C   UNL     1      22.030   9.334  17.644  1.00  0.00     0.000 C 
ENDROOT
BRANCH   1   2
ATOM      2  C   UNL     1      21.577   9.190  19.107  1.00  0.00     0.000 C 
BRANCH   2   3
ATOM      3  C   UNL     1      22.128  10.297  20.015  1.00  0.00     0.000 C 
BRANCH   3   4
ATOM      4  C   UNL     1      23.509   9.920  20.567  1.00  0.00     0.000 C 
BRANCH   4   5
ATOM      5  C   UNL     1      23.572   8.429  20.920  1.00  0.00     0.001 C 
BRANCH   5   6
ATOM      6  C   UNL     1      24.903   7.811  20.452  1.00  0.00     0.009 C 
BRANCH   6   7
ATOM      7  C   UNL     1      25.333   8.230  19.028  1.00  0.00     0.032 C 
ATOM      8  C   UNL     1      26.754   8.811  18.984  1.00  0.00     0.014 C 
BRANCH   7   9
ATOM      9  C   UNL     1      25.151   7.109  18.039  1.00  0.00     0.044 C 
ATOM     10  O   UNL     1      24.083   6.442  18.004  1.00  0.00    -0.550 OA
ATOM     11  O   UNL     1      26.155   6.836  17.117  1.00  0.00    -0.550 OA
ENDBRANCH   7   9
ENDBRANCH   6   7
ENDBRANCH   5   6
ENDBRANCH   4   5
ENDBRANCH   3   4
ENDBRANCH   2   3
ENDBRANCH   1   2
BRANCH   1  12
ATOM     12  C   UNL     1      20.994   8.819  16.624  1.00  0.00     0.000 C 
BRANCH  12  13
ATOM     13  C   UNL     1      19.579   8.735  17.225  1.00  0.00    -0.000 C 
BRANCH  13  14
ATOM     14  C   UNL     1      18.583   9.677  16.533  1.00  0.00    -0.000 C 
BRANCH  14  15
ATOM     15  C   UNL     1      18.072  10.788  17.464  1.00  0.00    -0.000 C 
BRANCH  15  16
ATOM     16  C   UNL     1      18.808  12.109  17.196  1.00  0.00    -0.000 C 
BRANCH  16  17
ATOM     17  C   UNL     1      19.715  12.538  18.363  1.00  0.00    -0.000 C 
BRANCH  17  18
ATOM     18  C   UNL     1      21.067  13.143  17.944  1.00  0.00    -0.003 C 
ATOM     19  C   UNL     1      21.420  12.866  16.484  1.00  0.00     0.004 C 
ENDBRANCH  17  18
ENDBRANCH  16  17
ENDBRANCH  15  16
ENDBRANCH  14  15
ENDBRANCH  13  14
ENDBRANCH  12  13
ENDBRANCH   1  12
TORSDOF 14
ENDMDL
MODEL 9
REMARK VINA RESULT:    -2.910      1.197      2.611
REMARK INTER + INTRA:          -7.178
REMARK INTER:                  -5.482
REMARK INTRA:                  -1.696
REMARK UNBOUND:                -1.887
REMARK SMILES CCCCCCCCCCCCCC[C@@H](C)C(=O)[O-]
REMARK SMILES IDX 9 1 10 2 11 3 12 4 13 5 14 6 15 7 16 8 17 9 18 10 19 11 8 12
REMARK SMILES IDX 7 13 6 14 5 15 4 16 3 17 2 18 1 19
REMARK H PARENT
REMARK Flexibility Score: inf
ROOT
ATOM      1  C   UNL     1      21.670   7.689  17.497  1.00  0.00     0.000 C 
ENDROOT
BRANCH   1   2
ATOM      2  C   UNL     1      20.799   8.443  16.478  1.00  0.00     0.000 C 
BRANCH   2   3
ATOM      3  C   UNL     1      19.305   8.125  16.618  1.00  0.00     0.000 C 
BRANCH   3   4
ATOM      4  C   UNL     1      18.444   9.290  16.112  1.00  0.00     0.000 C 
BRANCH   4   5
ATOM      5  C   UNL     1      18.188  10.311  17.227  1.00  0.00     0.001 C 
BRANCH   5   6
ATOM      6  C   UNL     1      18.965  11.614  16.965  1.00  0.00     0.009 C 
BRANCH   6   7
ATOM      7  C   UNL     1      19.831  12.089  18.154  1.00  0.00     0.032 C 
ATOM      8  C   UNL     1      20.037  10.996  19.213  1.00  0.00     0.014 C 
BRANCH   7   9
ATOM      9  C   UNL     1      21.137  12.678  17.691  1.00  0.00     0.044 C 
ATOM     10  O   UNL     1      21.386  12.818  16.464  1.00  0.00    -0.550 OA
ATOM     11  O   UNL     1      22.062  13.121  18.629  1.00  0.00    -0.550 OA
ENDBRANCH   7   9
ENDBRANCH   6   7
ENDBRANCH   5   6
ENDBRANCH   4   5
ENDBRANCH   3   4
ENDBRANCH   2   3
ENDBRANCH   1   2
BRANCH   1  12
ATOM     12  C   UNL     1      21.995   6.239  17.077  1.00  0.00     0.000 C 
BRANCH  12  13
ATOM     13  C   UNL     1      22.435   6.147  15.604  1.00  0.00    -0.000 C 
BRANCH  13  14
ATOM     14  C   UNL     1      23.795   5.453  15.434  1.00  0.00    -0.000 C 
BRANCH  14  15
ATOM     15  C   UNL     1      24.923   6.437  15.089  1.00  0.00    -0.000 C 
BRANCH  15  16
ATOM     16  C   UNL     1      25.756   6.774  16.334  1.00  0.00    -0.000 C 
BRANCH  16  17
ATOM     17  C   UNL     1      25.338   8.100  16.994  1.00  0.00    -0.000 C 
BRANCH  17  18
ATOM     18  C   UNL     1      25.932   8.344  18.393  1.00  0.00    -0.003 C 
ATOM     19  C   UNL     1      24.870   8.438  19.487  1.00  0.00     0.004 C 
ENDBRANCH  17  18
ENDBRANCH  16  17
ENDBRANCH  15  16
ENDBRANCH  14  15
ENDBRANCH  13  14
ENDBRANCH  12  13
ENDBRANCH   1  12
TORSDOF 14
ENDMDL
