MODEL 1
REMARK VINA RESULT:    -4.058      0.000      0.000
REMARK INTER + INTRA:          -5.479
REMARK INTER:                  -6.192
REMARK INTRA:                   0.713
REMARK UNBOUND:                 0.713
REMARK SMILES CC1=CCC[C@@H](C)C(=O)C[C@@H](C(C)C)C(=O)C1
REMARK SMILES IDX 8 1 9 2 6 3 7 4 5 5 4 6 3 7 2 8 1 9 10 11 11 12 15 13 16 14
REMARK SMILES IDX 17 15 12 17 13 18 14 19
REMARK H PARENT
REMARK Flexibility Score: 70.00
ROOT
ATOM      1  C   UNL     1      27.129  21.604   4.262  1.00  0.00     0.136 C 
ATOM      2  O   UNL     1      27.494  20.579   3.703  1.00  0.00    -0.299 OA
ENDROOT
BRANCH   1   3
ATOM      3  C   UNL     1      27.838  22.056   5.528  1.00  0.00     0.053 C 
ATOM      4  C   UNL     1      29.236  21.428   5.616  1.00  0.00     0.016 C 
BRANCH   3   5
ATOM      5  C   UNL     1      27.000  21.710   6.779  1.00  0.00     0.015 C 
BRANCH   5   6
ATOM      6  C   UNL     1      26.670  20.205   6.846  1.00  0.00     0.028 C 
BRANCH   6   7
ATOM      7  C   UNL     1      25.272  19.928   7.334  1.00  0.00    -0.028 C 
ATOM      8  C   UNL     1      24.138  20.287   6.686  1.00  0.00    -0.070 CG0
ATOM      9  C   UNL     1      22.822  20.011   7.370  1.00  0.00     0.039 C 
ATOM     10  G   UNL     1      24.129  20.912   5.298  1.00  0.00     0.000 G0
ENDBRANCH   6   7
ENDBRANCH   5   6
ENDBRANCH   3   5
ENDBRANCH   1   3
BRANCH   1  11
ATOM     11  C   UNL     1      26.015  22.428   3.655  1.00  0.00     0.087 C 
BRANCH  11  12
ATOM     12  C   UNL     1      25.176  23.262   4.667  1.00  0.00     0.066 C 
BRANCH  12  13
ATOM     13  C   UNL     1      24.065  22.428   5.295  1.00  0.00     0.140 C 
ATOM     14  O   UNL     1      23.093  23.001   5.766  1.00  0.00    -0.299 OA
BRANCH  13  15
ATOM     15  C   UNL     1      24.097  20.914   5.286  1.00  0.00     0.106 CG0
ATOM     16  G   UNL     1      24.130  20.293   6.676  1.00  0.00     0.000 G0
ENDBRANCH  13  15
ENDBRANCH  12  13
BRANCH  12  17
ATOM     17  C   UNL     1      24.656  24.639   4.135  1.00  0.00    -0.006 C 
ATOM     18  C   UNL     1      24.906  25.755   5.167  1.00  0.00     0.008 C 
ATOM     19  C   UNL     1      25.316  25.044   2.804  1.00  0.00     0.008 C 
ENDBRANCH  12  17
ENDBRANCH  11  12
ENDBRANCH   1  11
TORSDOF 1
ENDMDL
MODEL 2
REMARK VINA RESULT:    -3.984      3.821      5.547
REMARK INTER + INTRA:          -5.366
REMARK INTER:                  -6.750
REMARK INTRA:                   1.383
REMARK UNBOUND:                 0.713
REMARK SMILES CC1=CCC[C@@H](C)C(=O)C[C@@H](C(C)C)C(=O)C1
REMARK SMILES IDX 8 1 9 2 6 3 7 4 5 5 4 6 3 7 2 8 1 9 10 11 11 12 15 13 16 14
REMARK SMILES IDX 17 15 12 17 13 18 14 19
REMARK H PARENT
REMARK Flexibility Score: 70.00
ROOT
ATOM      1  C   UNL     1      31.995  21.383   7.266  1.00  0.00     0.136 C 
ATOM      2  O   UNL     1      32.835  21.406   8.155  1.00  0.00    -0.299 OA
ENDROOT
BRANCH   1   3
ATOM      3  C   UNL     1      31.573  20.049   6.674  1.00  0.00     0.053 C 
ATOM      4  C   UNL     1      32.098  19.907   5.239  1.00  0.00     0.016 C 
BRANCH   3   5
ATOM      5  C   UNL     1      30.036  19.892   6.715  1.00  0.00     0.015 C 
BRANCH   5   6
ATOM      6  C   UNL     1      29.402  20.128   5.330  1.00  0.00     0.028 C 
BRANCH   6   7
ATOM      7  C   UNL     1      28.290  21.145   5.355  1.00  0.00    -0.028 C 
ATOM      8  C   UNL     1      27.928  21.874   6.438  1.00  0.00    -0.070 CG0
ATOM      9  C   UNL     1      26.728  22.777   6.307  1.00  0.00     0.039 C 
ATOM     10  G   UNL     1      28.695  21.854   7.754  1.00  0.00     0.000 G0
ENDBRANCH   6   7
ENDBRANCH   5   6
ENDBRANCH   3   5
ENDBRANCH   1   3
BRANCH   1  11
ATOM     11  C   UNL     1      31.356  22.676   6.810  1.00  0.00     0.087 C 
BRANCH  11  12
ATOM     12  C   UNL     1      30.739  23.549   7.942  1.00  0.00     0.066 C 
BRANCH  12  13
ATOM     13  C   UNL     1      29.275  23.199   8.185  1.00  0.00     0.140 C 
ATOM     14  O   UNL     1      28.537  24.051   8.659  1.00  0.00    -0.299 OA
BRANCH  13  15
ATOM     15  C   UNL     1      28.696  21.857   7.789  1.00  0.00     0.106 CG0
ATOM     16  G   UNL     1      27.961  21.875   6.455  1.00  0.00     0.000 G0
ENDBRANCH  13  15
ENDBRANCH  12  13
BRANCH  12  17
ATOM     17  C   UNL     1      30.964  25.092   7.799  1.00  0.00    -0.006 C 
ATOM     18  C   UNL     1      32.109  25.565   8.715  1.00  0.00     0.008 C 
ATOM     19  C   UNL     1      31.288  25.508   6.353  1.00  0.00     0.008 C 
ENDBRANCH  12  17
ENDBRANCH  11  12
ENDBRANCH   1  11
TORSDOF 1
ENDMDL
MODEL 3
REMARK VINA RESULT:    -3.918      1.492      3.822
REMARK INTER + INTRA:          -5.267
REMARK INTER:                  -5.349
REMARK INTRA:                   0.082
REMARK UNBOUND:                 0.713
REMARK SMILES CC1=CCC[C@@H](C)C(=O)C[C@@H](C(C)C)C(=O)C1
REMARK SMILES IDX 8 1 9 2 6 3 7 4 5 5 4 6 3 7 2 8 1 9 10 11 11 12 15 13 16 14
REMARK SMILES IDX 17 15 12 17 13 18 14 19
REMARK H PARENT
REMARK Flexibility Score: 70.00
ROOT
ATOM      1  C   UNL     1      26.085  22.999   4.319  1.00  0.00     0.136 C 
ATOM      2  O   UNL     1      26.501  22.406   3.334  1.00  0.00    -0.299 OA
ENDROOT
BRANCH   1   3
ATOM      3  C   UNL     1      24.896  23.935   4.180  1.00  0.00     0.053 C 
ATOM      4  C   UNL     1      25.361  25.398   4.165  1.00  0.00     0.016 C 
BRANCH   3   5
ATOM      5  C   UNL     1      23.874  23.695   5.313  1.00  0.00     0.015 C 
BRANCH   5   6
ATOM      6  C   UNL     1      23.242  22.290   5.223  1.00  0.00     0.028 C 
BRANCH   6   7
ATOM      7  C   UNL     1      23.201  21.576   6.549  1.00  0.00    -0.028 C 
ATOM      8  C   UNL     1      23.987  20.528   6.892  1.00  0.00    -0.070 CG0
ATOM      9  C   UNL     1      23.742  19.875   8.229  1.00  0.00     0.039 C 
ATOM     10  G   UNL     1      25.121  20.011   6.017  1.00  0.00     0.000 G0
ENDBRANCH   6   7
ENDBRANCH   5   6
ENDBRANCH   3   5
ENDBRANCH   1   3
BRANCH   1  11
ATOM     11  C   UNL     1      26.728  22.751   5.666  1.00  0.00     0.087 C 
BRANCH  11  12
ATOM     12  C   UNL     1      27.417  21.364   5.829  1.00  0.00     0.066 C 
BRANCH  12  13
ATOM     13  C   UNL     1      26.506  20.366   6.535  1.00  0.00     0.140 C 
ATOM     14  O   UNL     1      26.876  19.877   7.593  1.00  0.00    -0.299 OA
BRANCH  13  15
ATOM     15  C   UNL     1      25.131  20.020   6.003  1.00  0.00     0.106 CG0
ATOM     16  G   UNL     1      23.990  20.528   6.874  1.00  0.00     0.000 G0
ENDBRANCH  13  15
ENDBRANCH  12  13
BRANCH  12  17
ATOM     17  C   UNL     1      28.855  21.396   6.448  1.00  0.00    -0.006 C 
ATOM     18  C   UNL     1      29.846  20.607   5.572  1.00  0.00     0.008 C 
ATOM     19  C   UNL     1      29.388  22.829   6.624  1.00  0.00     0.008 C 
ENDBRANCH  12  17
ENDBRANCH  11  12
ENDBRANCH   1  11
TORSDOF 1
ENDMDL
MODEL 4
REMARK VINA RESULT:    -3.666      3.856      5.839
REMARK INTER + INTRA:          -4.881
REMARK INTER:                  -5.490
REMARK INTRA:                   0.609
REMARK UNBOUND:                 0.713
REMARK SMILES CC1=CCC[C@@H](C)C(=O)C[C@@H](C(C)C)C(=O)C1
REMARK SMILES IDX 8 1 9 2 6 3 7 4 5 5 4 6 3 7 2 8 1 9 10 11 11 12 15 13 16 14
REMARK SMILES IDX 17 15 12 17 13 18 14 19
REMARK H PARENT
REMARK Flexibility Score: 70.00
ROOT
ATOM      1  C   UNL     1      29.621  20.051   5.410  1.00  0.00     0.136 C 
ATOM      2  O   UNL     1      30.582  19.884   4.673  1.00  0.00    -0.299 OA
ENDROOT
BRANCH   1   3
ATOM      3  C   UNL     1      28.247  20.285   4.804  1.00  0.00     0.053 C 
ATOM      4  C   UNL     1      28.245  19.911   3.315  1.00  0.00     0.016 C 
BRANCH   3   5
ATOM      5  C   UNL     1      27.803  21.751   5.002  1.00  0.00     0.015 C 
BRANCH   5   6
ATOM      6  C   UNL     1      27.120  21.960   6.369  1.00  0.00     0.028 C 
BRANCH   6   7
ATOM      7  C   UNL     1      27.594  23.199   7.083  1.00  0.00    -0.028 C 
ATOM      8  C   UNL     1      28.317  23.207   8.228  1.00  0.00    -0.070 CG0
ATOM      9  C   UNL     1      28.624  24.544   8.855  1.00  0.00     0.039 C 
ATOM     10  G   UNL     1      28.863  21.945   8.882  1.00  0.00     0.000 G0
ENDBRANCH   6   7
ENDBRANCH   5   6
ENDBRANCH   3   5
ENDBRANCH   1   3
BRANCH   1  11
ATOM     11  C   UNL     1      29.808  19.969   6.909  1.00  0.00     0.087 C 
BRANCH  11  12
ATOM     12  C   UNL     1      30.883  20.927   7.499  1.00  0.00     0.066 C 
BRANCH  12  13
ATOM     13  C   UNL     1      30.345  21.703   8.697  1.00  0.00     0.140 C 
ATOM     14  O   UNL     1      31.141  22.197   9.484  1.00  0.00    -0.299 OA
BRANCH  13  15
ATOM     15  C   UNL     1      28.863  21.939   8.899  1.00  0.00     0.106 CG0
ATOM     16  G   UNL     1      28.347  23.205   8.228  1.00  0.00     0.000 G0
ENDBRANCH  13  15
ENDBRANCH  12  13
BRANCH  12  17
ATOM     17  C   UNL     1      31.597  21.858   6.462  1.00  0.00    -0.006 C 
ATOM     18  C   UNL     1      31.330  23.340   6.783  1.00  0.00     0.008 C 
ATOM     19  C   UNL     1      33.119  21.632   6.418  1.00  0.00     0.008 C 
ENDBRANCH  12  17
ENDBRANCH  11  12
ENDBRANCH   1  11
TORSDOF 1
ENDMDL
MODEL 5
REMARK VINA RESULT:    -3.649      1.673      3.625
REMARK INTER + INTRA:          -4.856
REMARK INTER:                  -5.729
REMARK INTRA:                   0.873
REMARK UNBOUND:                 0.713
REMARK SMILES CC1=CCC[C@@H](C)C(=O)C[C@@H](C(C)C)C(=O)C1
REMARK SMILES IDX 8 1 9 2 6 3 7 4 5 5 4 6 3 7 2 8 1 9 10 11 11 12 15 13 16 14
REMARK SMILES IDX 17 15 12 17 13 18 14 19
REMARK H PARENT
REMARK Flexibility Score: 70.00
ROOT
ATOM      1  C   UNL     1      23.819  20.701   5.618  1.00  0.00     0.136 C 
ATOM      2  O   UNL     1      23.774  20.088   4.561  1.00  0.00    -0.299 OA
ENDROOT
BRANCH   1   3
ATOM      3  C   UNL     1      23.861  19.931   6.927  1.00  0.00     0.053 C 
ATOM      4  C   UNL     1      22.827  20.491   7.915  1.00  0.00     0.016 C 
BRANCH   3   5
ATOM      5  C   UNL     1      25.279  19.965   7.538  1.00  0.00     0.015 C 
BRANCH   5   6
ATOM      6  C   UNL     1      26.370  19.877   6.451  1.00  0.00     0.028 C 
BRANCH   6   7
ATOM      7  C   UNL     1      27.645  20.581   6.837  1.00  0.00    -0.028 C 
ATOM      8  C   UNL     1      27.872  21.909   6.699  1.00  0.00    -0.070 CG0
ATOM      9  C   UNL     1      29.244  22.427   7.050  1.00  0.00     0.039 C 
ATOM     10  G   UNL     1      26.805  22.898   6.250  1.00  0.00     0.000 G0
ENDBRANCH   6   7
ENDBRANCH   5   6
ENDBRANCH   3   5
ENDBRANCH   1   3
BRANCH   1  11
ATOM     11  C   UNL     1      23.883  22.213   5.600  1.00  0.00     0.087 C 
BRANCH  11  12
ATOM     12  C   UNL     1      24.810  22.827   4.511  1.00  0.00     0.066 C 
BRANCH  12  13
ATOM     13  C   UNL     1      26.283  22.650   4.864  1.00  0.00     0.140 C 
ATOM     14  O   UNL     1      27.069  22.342   3.978  1.00  0.00    -0.299 OA
BRANCH  13  15
ATOM     15  C   UNL     1      26.810  22.915   6.259  1.00  0.00     0.106 CG0
ATOM     16  G   UNL     1      27.863  21.915   6.717  1.00  0.00     0.000 G0
ENDBRANCH  13  15
ENDBRANCH  12  13
BRANCH  12  17
ATOM     17  C   UNL     1      24.473  24.296   4.090  1.00  0.00    -0.006 C 
ATOM     18  C   UNL     1      24.623  25.256   5.286  1.00  0.00     0.008 C 
ATOM     19  C   UNL     1      25.366  24.800   2.942  1.00  0.00     0.008 C 
ENDBRANCH  12  17
ENDBRANCH  11  12
ENDBRANCH   1  11
TORSDOF 1
ENDMDL
MODEL 6
REMARK VINA RESULT:    -3.646      1.610      3.822
REMARK INTER + INTRA:          -4.851
REMARK INTER:                  -4.994
REMARK INTRA:                   0.142
REMARK UNBOUND:                 0.713
REMARK SMILES CC1=CCC[C@@H](C)C(=O)C[C@@H](C(C)C)C(=O)C1
REMARK SMILES IDX 8 1 9 2 6 3 7 4 5 5 4 6 3 7 2 8 1 9 10 11 11 12 15 13 16 14
REMARK SMILES IDX 17 15 12 17 13 18 14 19
REMARK H PARENT
REMARK Flexibility Score: 70.00
ROOT
ATOM      1  C   UNL     1      23.533  22.121   6.058  1.00  0.00     0.136 C 
ATOM      2  O   UNL     1      22.490  22.500   6.573  1.00  0.00    -0.299 OA
ENDROOT
BRANCH   1   3
ATOM      3  C   UNL     1      23.686  20.660   5.670  1.00  0.00     0.053 C 
ATOM      4  C   UNL     1      22.311  20.017   5.441  1.00  0.00     0.016 C 
BRANCH   3   5
ATOM      5  C   UNL     1      24.482  19.888   6.745  1.00  0.00     0.015 C 
BRANCH   5   6
ATOM      6  C   UNL     1      25.913  20.441   6.902  1.00  0.00     0.028 C 
BRANCH   6   7
ATOM      7  C   UNL     1      26.868  19.910   5.863  1.00  0.00    -0.028 C 
ATOM      8  C   UNL     1      27.411  20.642   4.861  1.00  0.00    -0.070 CG0
ATOM      9  C   UNL     1      28.273  19.923   3.855  1.00  0.00     0.039 C 
ATOM     10  G   UNL     1      27.225  22.148   4.729  1.00  0.00     0.000 G0
ENDBRANCH   6   7
ENDBRANCH   5   6
ENDBRANCH   3   5
ENDBRANCH   1   3
BRANCH   1  11
ATOM     11  C   UNL     1      24.629  23.124   5.771  1.00  0.00     0.087 C 
BRANCH  11  12
ATOM     12  C   UNL     1      24.920  23.378   4.263  1.00  0.00     0.066 C 
BRANCH  12  13
ATOM     13  C   UNL     1      26.111  22.560   3.777  1.00  0.00     0.140 C 
ATOM     14  O   UNL     1      26.181  22.268   2.591  1.00  0.00    -0.299 OA
BRANCH  13  15
ATOM     15  C   UNL     1      27.242  22.163   4.703  1.00  0.00     0.106 CG0
ATOM     16  G   UNL     1      27.411  20.658   4.856  1.00  0.00     0.000 G0
ENDBRANCH  13  15
ENDBRANCH  12  13
BRANCH  12  17
ATOM     17  C   UNL     1      25.022  24.882   3.841  1.00  0.00    -0.006 C 
ATOM     18  C   UNL     1      23.871  25.264   2.892  1.00  0.00     0.008 C 
ATOM     19  C   UNL     1      24.998  25.835   5.050  1.00  0.00     0.008 C 
ENDBRANCH  12  17
ENDBRANCH  11  12
ENDBRANCH   1  11
TORSDOF 1
ENDMDL
MODEL 7
REMARK VINA RESULT:    -3.626      3.116      5.373
REMARK INTER + INTRA:          -4.821
REMARK INTER:                  -5.386
REMARK INTRA:                   0.566
REMARK UNBOUND:                 0.713
REMARK SMILES CC1=CCC[C@@H](C)C(=O)C[C@@H](C(C)C)C(=O)C1
REMARK SMILES IDX 8 1 9 2 6 3 7 4 5 5 4 6 3 7 2 8 1 9 10 11 11 12 15 13 16 14
REMARK SMILES IDX 17 15 12 17 13 18 14 19
REMARK H PARENT
REMARK Flexibility Score: 70.00
ROOT
ATOM      1  C   UNL     1      26.976  22.454   5.587  1.00  0.00     0.136 C 
ATOM      2  O   UNL     1      26.023  21.792   5.974  1.00  0.00    -0.299 OA
ENDROOT
BRANCH   1   3
ATOM      3  C   UNL     1      27.251  22.566   4.097  1.00  0.00     0.053 C 
ATOM      4  C   UNL     1      26.291  23.572   3.447  1.00  0.00     0.016 C 
BRANCH   3   5
ATOM      5  C   UNL     1      27.144  21.184   3.415  1.00  0.00     0.015 C 
BRANCH   5   6
ATOM      6  C   UNL     1      27.733  20.065   4.298  1.00  0.00     0.028 C 
BRANCH   6   7
ATOM      7  C   UNL     1      29.239  20.078   4.342  1.00  0.00    -0.028 C 
ATOM      8  C   UNL     1      29.983  20.064   5.473  1.00  0.00    -0.070 CG0
ATOM      9  C   UNL     1      31.480  20.177   5.330  1.00  0.00     0.039 C 
ATOM     10  G   UNL     1      29.387  19.898   6.865  1.00  0.00     0.000 G0
ENDBRANCH   6   7
ENDBRANCH   5   6
ENDBRANCH   3   5
ENDBRANCH   1   3
BRANCH   1  11
ATOM     11  C   UNL     1      27.832  23.189   6.596  1.00  0.00     0.087 C 
BRANCH  11  12
ATOM     12  C   UNL     1      29.205  22.528   6.911  1.00  0.00     0.066 C 
BRANCH  12  13
ATOM     13  C   UNL     1      29.032  21.167   7.576  1.00  0.00     0.140 C 
ATOM     14  O   UNL     1      28.530  21.116   8.691  1.00  0.00    -0.299 OA
BRANCH  13  15
ATOM     15  C   UNL     1      29.394  19.877   6.870  1.00  0.00     0.106 CG0
ATOM     16  G   UNL     1      29.986  20.083   5.482  1.00  0.00     0.000 G0
ENDBRANCH  13  15
ENDBRANCH  12  13
BRANCH  12  17
ATOM     17  C   UNL     1      30.229  23.435   7.673  1.00  0.00    -0.006 C 
ATOM     18  C   UNL     1      31.463  22.622   8.108  1.00  0.00     0.008 C 
ATOM     19  C   UNL     1      30.702  24.629   6.825  1.00  0.00     0.008 C 
ENDBRANCH  12  17
ENDBRANCH  11  12
ENDBRANCH   1  11
TORSDOF 1
ENDMDL
MODEL 8
REMARK VINA RESULT:    -3.342      3.564      6.212
REMARK INTER + INTRA:          -4.387
REMARK INTER:                  -5.368
REMARK INTRA:                   0.981
REMARK UNBOUND:                 0.713
REMARK SMILES CC1=CCC[C@@H](C)C(=O)C[C@@H](C(C)C)C(=O)C1
REMARK SMILES IDX 8 1 9 2 6 3 7 4 5 5 4 6 3 7 2 8 1 9 10 11 11 12 15 13 16 14
REMARK SMILES IDX 17 15 12 17 13 18 14 19
REMARK H PARENT
REMARK Flexibility Score: 70.00
ROOT
ATOM      1  C   UNL     1      31.253  23.181   8.281  1.00  0.00     0.136 C 
ATOM      2  O   UNL     1      32.166  23.468   9.042  1.00  0.00    -0.299 OA
ENDROOT
BRANCH   1   3
ATOM      3  C   UNL     1      30.535  24.286   7.525  1.00  0.00     0.053 C 
ATOM      4  C   UNL     1      31.387  25.564   7.503  1.00  0.00     0.016 C 
BRANCH   3   5
ATOM      5  C   UNL     1      29.147  24.562   8.144  1.00  0.00     0.015 C 
BRANCH   5   6
ATOM      6  C   UNL     1      28.345  23.260   8.348  1.00  0.00     0.028 C 
BRANCH   6   7
ATOM      7  C   UNL     1      27.475  22.913   7.167  1.00  0.00    -0.028 C 
ATOM      8  C   UNL     1      27.575  21.776   6.437  1.00  0.00    -0.070 CG0
ATOM      9  C   UNL     1      26.682  21.638   5.229  1.00  0.00     0.039 C 
ATOM     10  G   UNL     1      28.506  20.628   6.799  1.00  0.00     0.000 G0
ENDBRANCH   6   7
ENDBRANCH   5   6
ENDBRANCH   3   5
ENDBRANCH   1   3
BRANCH   1  11
ATOM     11  C   UNL     1      30.890  21.727   8.068  1.00  0.00     0.087 C 
BRANCH  11  12
ATOM     12  C   UNL     1      31.114  21.191   6.624  1.00  0.00     0.066 C 
BRANCH  12  13
ATOM     13  C   UNL     1      29.826  20.632   6.029  1.00  0.00     0.140 C 
ATOM     14  O   UNL     1      29.863  20.120   4.918  1.00  0.00    -0.299 OA
BRANCH  13  15
ATOM     15  C   UNL     1      28.522  20.628   6.800  1.00  0.00     0.106 CG0
ATOM     16  G   UNL     1      27.587  21.772   6.431  1.00  0.00     0.000 G0
ENDBRANCH  13  15
ENDBRANCH  12  13
BRANCH  12  17
ATOM     17  C   UNL     1      32.321  20.210   6.450  1.00  0.00    -0.006 C 
ATOM     18  C   UNL     1      32.545  19.875   4.964  1.00  0.00     0.008 C 
ATOM     19  C   UNL     1      33.630  20.779   7.028  1.00  0.00     0.008 C 
ENDBRANCH  12  17
ENDBRANCH  11  12
ENDBRANCH   1  11
TORSDOF 1
ENDMDL
MODEL 9
REMARK VINA RESULT:    -3.339      2.880      5.446
REMARK INTER + INTRA:          -4.383
REMARK INTER:                  -4.319
REMARK INTRA:                  -0.064
REMARK UNBOUND:                 0.713
REMARK SMILES CC1=CCC[C@@H](C)C(=O)C[C@@H](C(C)C)C(=O)C1
REMARK SMILES IDX 8 1 9 2 6 3 7 4 5 5 4 6 3 7 2 8 1 9 10 11 11 12 15 13 16 14
REMARK SMILES IDX 17 15 12 17 13 18 14 19
REMARK H PARENT
REMARK Flexibility Score: 70.00
ROOT
ATOM      1  C   UNL     1      27.596  23.182   7.176  1.00  0.00     0.136 C 
ATOM      2  O   UNL     1      27.383  24.254   7.724  1.00  0.00    -0.299 OA
ENDROOT
BRANCH   1   3
ATOM      3  C   UNL     1      26.744  22.770   5.988  1.00  0.00     0.053 C 
ATOM      4  C   UNL     1      26.153  24.006   5.294  1.00  0.00     0.016 C 
BRANCH   3   5
ATOM      5  C   UNL     1      25.625  21.798   6.425  1.00  0.00     0.015 C 
BRANCH   5   6
ATOM      6  C   UNL     1      26.018  20.327   6.177  1.00  0.00     0.028 C 
BRANCH   6   7
ATOM      7  C   UNL     1      26.793  20.131   4.899  1.00  0.00    -0.028 C 
ATOM      8  C   UNL     1      28.139  20.002   4.819  1.00  0.00    -0.070 CG0
ATOM      9  C   UNL     1      28.754  19.908   3.445  1.00  0.00     0.039 C 
ATOM     10  G   UNL     1      29.045  19.908   6.039  1.00  0.00     0.000 G0
ENDBRANCH   6   7
ENDBRANCH   5   6
ENDBRANCH   3   5
ENDBRANCH   1   3
BRANCH   1  11
ATOM     11  C   UNL     1      28.735  22.311   7.659  1.00  0.00     0.087 C 
BRANCH  11  12
ATOM     12  C   UNL     1      29.994  22.295   6.744  1.00  0.00     0.066 C 
BRANCH  12  13
ATOM     13  C   UNL     1      30.164  20.948   6.050  1.00  0.00     0.140 C 
ATOM     14  O   UNL     1      31.244  20.681   5.540  1.00  0.00    -0.299 OA
BRANCH  13  15
ATOM     15  C   UNL     1      29.064  19.907   6.039  1.00  0.00     0.106 CG0
ATOM     16  G   UNL     1      28.152  19.993   4.823  1.00  0.00     0.000 G0
ENDBRANCH  13  15
ENDBRANCH  12  13
BRANCH  12  17
ATOM     17  C   UNL     1      31.320  22.788   7.416  1.00  0.00    -0.006 C 
ATOM     18  C   UNL     1      31.735  24.164   6.862  1.00  0.00     0.008 C 
ATOM     19  C   UNL     1      31.201  22.891   8.947  1.00  0.00     0.008 C 
ENDBRANCH  12  17
ENDBRANCH  11  12
ENDBRANCH   1  11
TORSDOF 1
ENDMDL
