MODEL 1
REMARK VINA RESULT:    -4.999      0.000      0.000
REMARK INTER + INTRA:          -5.651
REMARK INTER:                  -5.437
REMARK INTRA:                  -0.214
REMARK UNBOUND:                -0.214
REMARK SMILES O=C([O-])c1ccccc1O
REMARK SMILES IDX 4 1 9 2 5 3 8 4 6 5 7 6 2 7 1 8 3 9 10 10
REMARK H PARENT 10 11
REMARK Flexibility Score: inf
ROOT
ATOM      1  C   UNL     1       1.447  12.058  -6.342  1.00  0.00     0.039 A 
ATOM      2  C   UNL     1       2.698  11.389  -6.378  1.00  0.00     0.124 A 
ATOM      3  C   UNL     1       0.411  11.608  -7.183  1.00  0.00     0.014 A 
ATOM      4  C   UNL     1       2.898  10.342  -7.288  1.00  0.00     0.047 A 
ATOM      5  C   UNL     1       0.622  10.549  -8.070  1.00  0.00     0.001 A 
ATOM      6  C   UNL     1       1.866   9.923  -8.128  1.00  0.00     0.004 A 
ENDROOT
BRANCH   1   7
ATOM      7  C   UNL     1       1.189  13.233  -5.481  1.00  0.00     0.075 C 
ATOM      8  O   UNL     1       2.111  13.743  -4.792  1.00  0.00    -0.545 OA
ATOM      9  O   UNL     1      -0.066  13.831  -5.477  1.00  0.00    -0.545 OA
ENDBRANCH   1   7
BRANCH   2  10
ATOM     10  O   UNL     1       3.749  11.706  -5.514  1.00  0.00    -0.507 OA
ATOM     11  H   UNL     1       3.615  11.978  -4.550  1.00  0.00     0.293 HD
ENDBRANCH   2  10
TORSDOF 2
ENDMDL
MODEL 2
REMARK VINA RESULT:    -4.873     13.901     14.746
REMARK INTER + INTRA:          -5.514
REMARK INTER:                  -5.272
REMARK INTRA:                  -0.242
REMARK UNBOUND:                -0.214
REMARK SMILES O=C([O-])c1ccccc1O
REMARK SMILES IDX 4 1 9 2 5 3 8 4 6 5 7 6 2 7 1 8 3 9 10 10
REMARK H PARENT 10 11
REMARK Flexibility Score: inf
ROOT
ATOM      1  C   UNL     1       7.200  12.890 -19.626  1.00  0.00     0.039 A 
ATOM      2  C   UNL     1       7.053  12.226 -20.871  1.00  0.00     0.124 A 
ATOM      3  C   UNL     1       8.296  12.561 -18.805  1.00  0.00     0.014 A 
ATOM      4  C   UNL     1       7.958  11.218 -21.231  1.00  0.00     0.047 A 
ATOM      5  C   UNL     1       9.202  11.568 -19.189  1.00  0.00     0.001 A 
ATOM      6  C   UNL     1       9.027  10.892 -20.396  1.00  0.00     0.004 A 
ENDROOT
BRANCH   1   7
ATOM      7  C   UNL     1       6.232  13.893 -19.132  1.00  0.00     0.075 C 
ATOM      8  O   UNL     1       6.057  14.070 -17.898  1.00  0.00    -0.545 OA
ATOM      9  O   UNL     1       5.552  14.706 -20.032  1.00  0.00    -0.545 OA
ENDBRANCH   1   7
BRANCH   2  10
ATOM     10  O   UNL     1       6.051  12.555 -21.788  1.00  0.00    -0.507 OA
ATOM     11  H   UNL     1       5.162  12.952 -21.523  1.00  0.00     0.293 HD
ENDBRANCH   2  10
TORSDOF 2
ENDMDL
MODEL 3
REMARK VINA RESULT:    -4.772      1.826      3.379
REMARK INTER + INTRA:          -5.404
REMARK INTER:                  -5.162
REMARK INTRA:                  -0.242
REMARK UNBOUND:                -0.214
REMARK SMILES O=C([O-])c1ccccc1O
REMARK SMILES IDX 4 1 9 2 5 3 8 4 6 5 7 6 2 7 1 8 3 9 10 10
REMARK H PARENT 10 11
REMARK Flexibility Score: inf
ROOT
ATOM      1  C   UNL     1       1.482  11.658  -7.058  1.00  0.00     0.039 A 
ATOM      2  C   UNL     1       2.070  12.207  -5.889  1.00  0.00     0.124 A 
ATOM      3  C   UNL     1       0.210  12.112  -7.457  1.00  0.00     0.014 A 
ATOM      4  C   UNL     1       1.353  13.136  -5.123  1.00  0.00     0.047 A 
ATOM      5  C   UNL     1      -0.482  13.054  -6.693  1.00  0.00     0.001 A 
ATOM      6  C   UNL     1       0.085  13.559  -5.523  1.00  0.00     0.004 A 
ENDROOT
BRANCH   1   7
ATOM      7  C   UNL     1       2.134  10.602  -7.864  1.00  0.00     0.075 C 
ATOM      8  O   UNL     1       3.387  10.549  -7.968  1.00  0.00    -0.545 OA
ATOM      9  O   UNL     1       1.365   9.611  -8.463  1.00  0.00    -0.545 OA
ENDBRANCH   1   7
BRANCH   2  10
ATOM     10  O   UNL     1       3.365  11.885  -5.473  1.00  0.00    -0.507 OA
ATOM     11  H   UNL     1       4.180  12.426  -5.722  1.00  0.00     0.293 HD
ENDBRANCH   2  10
TORSDOF 2
ENDMDL
MODEL 4
REMARK VINA RESULT:    -4.623      1.843      3.006
REMARK INTER + INTRA:          -5.243
REMARK INTER:                  -4.998
REMARK INTRA:                  -0.245
REMARK UNBOUND:                -0.214
REMARK SMILES O=C([O-])c1ccccc1O
REMARK SMILES IDX 4 1 9 2 5 3 8 4 6 5 7 6 2 7 1 8 3 9 10 10
REMARK H PARENT 10 11
REMARK Flexibility Score: inf
ROOT
ATOM      1  C   UNL     1       0.464  11.369  -7.557  1.00  0.00     0.039 A 
ATOM      2  C   UNL     1       1.137  12.104  -6.546  1.00  0.00     0.124 A 
ATOM      3  C   UNL     1       1.125  10.285  -8.164  1.00  0.00     0.014 A 
ATOM      4  C   UNL     1       2.460  11.778  -6.218  1.00  0.00     0.047 A 
ATOM      5  C   UNL     1       2.437   9.961  -7.811  1.00  0.00     0.001 A 
ATOM      6  C   UNL     1       3.106  10.712  -6.845  1.00  0.00     0.004 A 
ENDROOT
BRANCH   1   7
ATOM      7  C   UNL     1      -0.896  11.713  -8.027  1.00  0.00     0.075 C 
ATOM      8  O   UNL     1      -1.680  10.822  -8.447  1.00  0.00    -0.545 OA
ATOM      9  O   UNL     1      -1.349  13.025  -7.944  1.00  0.00    -0.545 OA
ENDBRANCH   1   7
BRANCH   2  10
ATOM     10  O   UNL     1       0.525  13.132  -5.825  1.00  0.00    -0.507 OA
ATOM     11  H   UNL     1      -0.256  12.988  -5.201  1.00  0.00     0.293 HD
ENDBRANCH   2  10
TORSDOF 2
ENDMDL
MODEL 5
REMARK VINA RESULT:    -4.584      1.287      2.315
REMARK INTER + INTRA:          -5.199
REMARK INTER:                  -4.958
REMARK INTRA:                  -0.241
REMARK UNBOUND:                -0.214
REMARK SMILES O=C([O-])c1ccccc1O
REMARK SMILES IDX 4 1 9 2 5 3 8 4 6 5 7 6 2 7 1 8 3 9 10 10
REMARK H PARENT 10 11
REMARK Flexibility Score: inf
ROOT
ATOM      1  C   UNL     1       1.696  11.507  -6.219  1.00  0.00     0.039 A 
ATOM      2  C   UNL     1       0.556  11.013  -6.904  1.00  0.00     0.124 A 
ATOM      3  C   UNL     1       2.976  11.182  -6.706  1.00  0.00     0.014 A 
ATOM      4  C   UNL     1       0.724  10.164  -8.006  1.00  0.00     0.047 A 
ATOM      5  C   UNL     1       3.126  10.351  -7.820  1.00  0.00     0.001 A 
ATOM      6  C   UNL     1       2.001   9.836  -8.463  1.00  0.00     0.004 A 
ENDROOT
BRANCH   1   7
ATOM      7  C   UNL     1       1.602  12.327  -4.991  1.00  0.00     0.075 C 
ATOM      8  O   UNL     1       2.216  13.422  -4.896  1.00  0.00    -0.545 OA
ATOM      9  O   UNL     1       0.772  11.926  -3.950  1.00  0.00    -0.545 OA
ENDBRANCH   1   7
BRANCH   2  10
ATOM     10  O   UNL     1      -0.749  11.362  -6.547  1.00  0.00    -0.507 OA
ATOM     11  H   UNL     1      -1.043  11.519  -5.594  1.00  0.00     0.293 HD
ENDBRANCH   2  10
TORSDOF 2
ENDMDL
MODEL 6
REMARK VINA RESULT:    -4.536      4.410      6.008
REMARK INTER + INTRA:          -5.148
REMARK INTER:                  -4.913
REMARK INTRA:                  -0.235
REMARK UNBOUND:                -0.214
REMARK SMILES O=C([O-])c1ccccc1O
REMARK SMILES IDX 4 1 9 2 5 3 8 4 6 5 7 6 2 7 1 8 3 9 10 10
REMARK H PARENT 10 11
REMARK Flexibility Score: inf
ROOT
ATOM      1  C   UNL     1      -2.817  12.000  -8.652  1.00  0.00     0.039 A 
ATOM      2  C   UNL     1      -3.944  12.707  -8.157  1.00  0.00     0.124 A 
ATOM      3  C   UNL     1      -3.006  11.045  -9.668  1.00  0.00     0.014 A 
ATOM      4  C   UNL     1      -5.222  12.398  -8.641  1.00  0.00     0.047 A 
ATOM      5  C   UNL     1      -4.285  10.765 -10.154  1.00  0.00     0.001 A 
ATOM      6  C   UNL     1      -5.393  11.434  -9.635  1.00  0.00     0.004 A 
ENDROOT
BRANCH   1   7
ATOM      7  C   UNL     1      -1.450  12.199  -8.123  1.00  0.00     0.075 C 
ATOM      8  O   UNL     1      -1.109  13.296  -7.608  1.00  0.00    -0.545 OA
ATOM      9  O   UNL     1      -0.543  11.145  -8.126  1.00  0.00    -0.545 OA
ENDBRANCH   1   7
BRANCH   2  10
ATOM     10  O   UNL     1      -3.837  13.736  -7.218  1.00  0.00    -0.507 OA
ATOM     11  H   UNL     1      -4.477  13.854  -6.445  1.00  0.00     0.293 HD
ENDBRANCH   2  10
TORSDOF 2
ENDMDL
MODEL 7
REMARK VINA RESULT:    -4.479     14.238     15.309
REMARK INTER + INTRA:          -5.086
REMARK INTER:                  -4.835
REMARK INTRA:                  -0.252
REMARK UNBOUND:                -0.214
REMARK SMILES O=C([O-])c1ccccc1O
REMARK SMILES IDX 4 1 9 2 5 3 8 4 6 5 7 6 2 7 1 8 3 9 10 10
REMARK H PARENT 10 11
REMARK Flexibility Score: inf
ROOT
ATOM      1  C   UNL     1       8.833  11.802 -19.456  1.00  0.00     0.039 A 
ATOM      2  C   UNL     1       8.425  11.412 -20.758  1.00  0.00     0.124 A 
ATOM      3  C   UNL     1       7.990  12.641 -18.702  1.00  0.00     0.014 A 
ATOM      4  C   UNL     1       7.231  11.916 -21.290  1.00  0.00     0.047 A 
ATOM      5  C   UNL     1       6.793  13.118 -19.241  1.00  0.00     0.001 A 
ATOM      6  C   UNL     1       6.418  12.763 -20.536  1.00  0.00     0.004 A 
ENDROOT
BRANCH   1   7
ATOM      7  C   UNL     1      10.125  11.392 -18.863  1.00  0.00     0.075 C 
ATOM      8  O   UNL     1      10.823  12.208 -18.207  1.00  0.00    -0.545 OA
ATOM      9  O   UNL     1      10.549  10.072 -18.966  1.00  0.00    -0.545 OA
ENDBRANCH   1   7
BRANCH   2  10
ATOM     10  O   UNL     1       9.152  10.508 -21.538  1.00  0.00    -0.507 OA
ATOM     11  H   UNL     1      10.092  10.682 -21.861  1.00  0.00     0.293 HD
ENDBRANCH   2  10
TORSDOF 2
ENDMDL
MODEL 8
REMARK VINA RESULT:    -4.465     14.469     15.766
REMARK INTER + INTRA:          -5.071
REMARK INTER:                  -4.840
REMARK INTRA:                  -0.231
REMARK UNBOUND:                -0.214
REMARK SMILES O=C([O-])c1ccccc1O
REMARK SMILES IDX 4 1 9 2 5 3 8 4 6 5 7 6 2 7 1 8 3 9 10 10
REMARK H PARENT 10 11
REMARK Flexibility Score: inf
ROOT
ATOM      1  C   UNL     1      -1.472   5.321 -20.148  1.00  0.00     0.039 A 
ATOM      2  C   UNL     1      -2.593   5.975 -19.574  1.00  0.00     0.124 A 
ATOM      3  C   UNL     1      -1.504   4.988 -21.515  1.00  0.00     0.014 A 
ATOM      4  C   UNL     1      -3.728   6.219 -20.359  1.00  0.00     0.047 A 
ATOM      5  C   UNL     1      -2.636   5.258 -22.288  1.00  0.00     0.001 A 
ATOM      6  C   UNL     1      -3.750   5.865 -21.708  1.00  0.00     0.004 A 
ENDROOT
BRANCH   1   7
ATOM      7  C   UNL     1      -0.277   4.940 -19.362  1.00  0.00     0.075 C 
ATOM      8  O   UNL     1       0.022   5.552 -18.303  1.00  0.00    -0.545 OA
ATOM      9  O   UNL     1       0.493   3.851 -19.752  1.00  0.00    -0.545 OA
ENDBRANCH   1   7
BRANCH   2  10
ATOM     10  O   UNL     1      -2.610   6.425 -18.252  1.00  0.00    -0.507 OA
ATOM     11  H   UNL     1      -1.891   7.011 -17.853  1.00  0.00     0.293 HD
ENDBRANCH   2  10
TORSDOF 2
ENDMDL
MODEL 9
REMARK VINA RESULT:    -4.350     14.432     15.680
REMARK INTER + INTRA:          -4.945
REMARK INTER:                  -4.693
REMARK INTRA:                  -0.252
REMARK UNBOUND:                -0.214
REMARK SMILES O=C([O-])c1ccccc1O
REMARK SMILES IDX 4 1 9 2 5 3 8 4 6 5 7 6 2 7 1 8 3 9 10 10
REMARK H PARENT 10 11
REMARK Flexibility Score: inf
ROOT
ATOM      1  C   UNL     1       9.246  11.282 -20.162  1.00  0.00     0.039 A 
ATOM      2  C   UNL     1       8.853  12.050 -19.036  1.00  0.00     0.124 A 
ATOM      3  C   UNL     1       8.371  11.190 -21.262  1.00  0.00     0.014 A 
ATOM      4  C   UNL     1       7.585  12.646 -19.012  1.00  0.00     0.047 A 
ATOM      5  C   UNL     1       7.119  11.808 -21.229  1.00  0.00     0.001 A 
ATOM      6  C   UNL     1       6.723  12.528 -20.102  1.00  0.00     0.004 A 
ENDROOT
BRANCH   1   7
ATOM      7  C   UNL     1      10.526  10.542 -20.222  1.00  0.00     0.075 C 
ATOM      8  O   UNL     1      11.178  10.464 -21.297  1.00  0.00    -0.545 OA
ATOM      9  O   UNL     1      11.059   9.981 -19.068  1.00  0.00    -0.545 OA
ENDBRANCH   1   7
BRANCH   2  10
ATOM     10  O   UNL     1       9.695  12.272 -17.943  1.00  0.00    -0.507 OA
ATOM     11  H   UNL     1      10.703  12.258 -18.004  1.00  0.00     0.293 HD
ENDBRANCH   2  10
TORSDOF 2
ENDMDL
