MODEL 1
REMARK VINA RESULT:    -4.483      0.000      0.000
REMARK INTER + INTRA:          -5.558
REMARK INTER:                  -5.269
REMARK INTRA:                  -0.289
REMARK UNBOUND:                -0.289
REMARK SMILES O=c1c(O)c(-c2ccc(O)cc2)oc2cc(O)cc(O)c12
REMARK SMILES IDX 5 1 3 2 2 3 1 4 21 5 19 6 18 7 16 8 15 9 14 10 13 11 6 12
REMARK SMILES IDX 7 13 8 14 9 15 12 16 11 17 10 18 4 20 20 22 17 24
REMARK H PARENT 10 19 4 21 20 23 17 25
REMARK Flexibility Score: inf
ROOT
ATOM      1  C   UNL     1      40.490 -30.628  10.467  1.00  0.00     0.180 A 
ATOM      2  C   UNL     1      40.876 -31.746  11.227  1.00  0.00     0.208 A 
ATOM      3  C   UNL     1      42.226 -32.131  11.234  1.00  0.00     0.238 A 
ATOM      4  O   UNL     1      42.574 -33.100  11.959  1.00  0.00    -0.285 OA
ATOM      5  C   UNL     1      43.170 -31.405  10.469  1.00  0.00     0.111 A 
ATOM      6  C   UNL     1      44.556 -31.731  10.370  1.00  0.00     0.134 A 
ATOM      7  C   UNL     1      45.422 -30.866   9.689  1.00  0.00     0.093 A 
ATOM      8  C   UNL     1      44.940 -29.722   9.048  1.00  0.00     0.123 A 
ATOM      9  C   UNL     1      43.580 -29.427   9.088  1.00  0.00     0.094 A 
ATOM     10  C   UNL     1      42.697 -30.252   9.790  1.00  0.00     0.146 A 
ATOM     11  O   UNL     1      41.409 -29.929   9.813  1.00  0.00    -0.452 OA
ENDROOT
BRANCH   1  12
ATOM     12  C   UNL     1      39.082 -30.176  10.391  1.00  0.00     0.021 A 
ATOM     13  C   UNL     1      38.551 -29.267  11.325  1.00  0.00     0.016 A 
ATOM     14  C   UNL     1      37.211 -28.875  11.246  1.00  0.00     0.047 A 
ATOM     15  C   UNL     1      36.382 -29.395  10.244  1.00  0.00     0.115 A 
ATOM     16  C   UNL     1      38.238 -30.708   9.402  1.00  0.00     0.016 A 
ATOM     17  C   UNL     1      36.899 -30.313   9.325  1.00  0.00     0.047 A 
BRANCH  15  18
ATOM     18  O   UNL     1      35.047 -29.010  10.156  1.00  0.00    -0.508 OA
ATOM     19  H   UNL     1      34.325 -29.473  10.697  1.00  0.00     0.293 HD
ENDBRANCH  15  18
ENDBRANCH   1  12
BRANCH   2  20
ATOM     20  O   UNL     1      39.932 -32.436  11.993  1.00  0.00    -0.502 OA
ATOM     21  H   UNL     1      39.098 -31.992  12.358  1.00  0.00     0.293 HD
ENDBRANCH   2  20
BRANCH   6  22
ATOM     22  O   UNL     1      45.123 -32.897  10.894  1.00  0.00    -0.507 OA
ATOM     23  H   UNL     1      44.752 -33.415  11.676  1.00  0.00     0.293 HD
ENDBRANCH   6  22
BRANCH   8  24
ATOM     24  O   UNL     1      45.806 -28.875   8.360  1.00  0.00    -0.508 OA
ATOM     25  H   UNL     1      45.464 -28.202   7.684  1.00  0.00     0.293 HD
ENDBRANCH   8  24
TORSDOF 5
ENDMDL
MODEL 2
REMARK VINA RESULT:    -4.475      2.163      3.541
REMARK INTER + INTRA:          -5.549
REMARK INTER:                  -5.256
REMARK INTRA:                  -0.293
REMARK UNBOUND:                -0.289
REMARK SMILES O=c1c(O)c(-c2ccc(O)cc2)oc2cc(O)cc(O)c12
REMARK SMILES IDX 5 1 3 2 2 3 1 4 21 5 19 6 18 7 16 8 15 9 14 10 13 11 6 12
REMARK SMILES IDX 7 13 8 14 9 15 12 16 11 17 10 18 4 20 20 22 17 24
REMARK H PARENT 10 19 4 21 20 23 17 25
REMARK Flexibility Score: inf
ROOT
ATOM      1  C   UNL     1      41.100 -31.176  11.684  1.00  0.00     0.180 A 
ATOM      2  C   UNL     1      42.084 -30.173  11.644  1.00  0.00     0.208 A 
ATOM      3  C   UNL     1      43.408 -30.505  11.971  1.00  0.00     0.238 A 
ATOM      4  O   UNL     1      44.294 -29.616  11.881  1.00  0.00    -0.285 OA
ATOM      5  C   UNL     1      43.729 -31.831  12.349  1.00  0.00     0.111 A 
ATOM      6  C   UNL     1      45.030 -32.271  12.739  1.00  0.00     0.134 A 
ATOM      7  C   UNL     1      45.259 -33.634  12.967  1.00  0.00     0.093 A 
ATOM      8  C   UNL     1      44.219 -34.563  12.881  1.00  0.00     0.123 A 
ATOM      9  C   UNL     1      42.934 -34.135  12.560  1.00  0.00     0.094 A 
ATOM     10  C   UNL     1      42.681 -32.787  12.292  1.00  0.00     0.146 A 
ATOM     11  O   UNL     1      41.444 -32.423  11.978  1.00  0.00    -0.452 OA
ENDROOT
BRANCH   1  12
ATOM     12  C   UNL     1      39.678 -30.897  11.377  1.00  0.00     0.021 A 
ATOM     13  C   UNL     1      38.761 -30.560  12.390  1.00  0.00     0.016 A 
ATOM     14  C   UNL     1      37.418 -30.325  12.078  1.00  0.00     0.047 A 
ATOM     15  C   UNL     1      36.972 -30.437  10.755  1.00  0.00     0.115 A 
ATOM     16  C   UNL     1      39.218 -31.027  10.056  1.00  0.00     0.016 A 
ATOM     17  C   UNL     1      37.875 -30.790   9.747  1.00  0.00     0.047 A 
BRANCH  15  18
ATOM     18  O   UNL     1      35.638 -30.203  10.432  1.00  0.00    -0.508 OA
ATOM     19  H   UNL     1      35.359 -29.928   9.497  1.00  0.00     0.293 HD
ENDBRANCH  15  18
ENDBRANCH   1  12
BRANCH   2  20
ATOM     20  O   UNL     1      41.750 -28.875  11.248  1.00  0.00    -0.502 OA
ATOM     21  H   UNL     1      40.791 -28.572  11.130  1.00  0.00     0.293 HD
ENDBRANCH   2  20
BRANCH   6  22
ATOM     22  O   UNL     1      46.115 -31.412  12.943  1.00  0.00    -0.507 OA
ATOM     23  H   UNL     1      47.012 -31.504  12.493  1.00  0.00     0.293 HD
ENDBRANCH   6  22
BRANCH   8  24
ATOM     24  O   UNL     1      44.453 -35.915  13.124  1.00  0.00    -0.508 OA
ATOM     25  H   UNL     1      43.694 -36.556  13.327  1.00  0.00     0.293 HD
ENDBRANCH   8  24
TORSDOF 5
ENDMDL
MODEL 3
REMARK VINA RESULT:    -4.444      1.697      6.944
REMARK INTER + INTRA:          -5.513
REMARK INTER:                  -5.220
REMARK INTRA:                  -0.293
REMARK UNBOUND:                -0.289
REMARK SMILES O=c1c(O)c(-c2ccc(O)cc2)oc2cc(O)cc(O)c12
REMARK SMILES IDX 5 1 3 2 2 3 1 4 21 5 19 6 18 7 16 8 15 9 14 10 13 11 6 12
REMARK SMILES IDX 7 13 8 14 9 15 12 16 11 17 10 18 4 20 20 22 17 24
REMARK H PARENT 10 19 4 21 20 23 17 25
REMARK Flexibility Score: inf
ROOT
ATOM      1  C   UNL     1      40.035 -30.330  10.554  1.00  0.00     0.180 A 
ATOM      2  C   UNL     1      39.553 -29.814  11.771  1.00  0.00     0.208 A 
ATOM      3  C   UNL     1      38.179 -29.564  11.907  1.00  0.00     0.238 A 
ATOM      4  O   UNL     1      37.746 -29.154  13.015  1.00  0.00    -0.285 OA
ATOM      5  C   UNL     1      37.306 -29.817  10.821  1.00  0.00     0.111 A 
ATOM      6  C   UNL     1      35.902 -29.562  10.834  1.00  0.00     0.134 A 
ATOM      7  C   UNL     1      35.115 -29.973   9.751  1.00  0.00     0.093 A 
ATOM      8  C   UNL     1      35.692 -30.569   8.627  1.00  0.00     0.123 A 
ATOM      9  C   UNL     1      37.070 -30.768   8.579  1.00  0.00     0.094 A 
ATOM     10  C   UNL     1      37.876 -30.401   9.660  1.00  0.00     0.146 A 
ATOM     11  O   UNL     1      39.183 -30.618   9.579  1.00  0.00    -0.452 OA
ENDROOT
BRANCH   1  12
ATOM     12  C   UNL     1      41.474 -30.596  10.327  1.00  0.00     0.021 A 
ATOM     13  C   UNL     1      42.318 -29.627   9.751  1.00  0.00     0.016 A 
ATOM     14  C   UNL     1      43.668 -29.911   9.524  1.00  0.00     0.047 A 
ATOM     15  C   UNL     1      44.190 -31.168   9.856  1.00  0.00     0.115 A 
ATOM     16  C   UNL     1      42.001 -31.860  10.637  1.00  0.00     0.016 A 
ATOM     17  C   UNL     1      43.352 -32.141  10.410  1.00  0.00     0.047 A 
BRANCH  15  18
ATOM     18  O   UNL     1      45.533 -31.461   9.635  1.00  0.00    -0.508 OA
ATOM     19  H   UNL     1      46.016 -31.137   8.805  1.00  0.00     0.293 HD
ENDBRANCH  15  18
ENDBRANCH   1  12
BRANCH   2  20
ATOM     20  O   UNL     1      40.430 -29.592  12.837  1.00  0.00    -0.502 OA
ATOM     21  H   UNL     1      40.323 -28.815  13.477  1.00  0.00     0.293 HD
ENDBRANCH   2  20
BRANCH   6  22
ATOM     22  O   UNL     1      35.240 -28.890  11.867  1.00  0.00    -0.507 OA
ATOM     23  H   UNL     1      34.244 -28.737  11.907  1.00  0.00     0.293 HD
ENDBRANCH   6  22
BRANCH   8  24
ATOM     24  O   UNL     1      34.904 -30.961   7.547  1.00  0.00    -0.508 OA
ATOM     25  H   UNL     1      34.000 -30.539   7.370  1.00  0.00     0.293 HD
ENDBRANCH   8  24
TORSDOF 5
ENDMDL
MODEL 4
REMARK VINA RESULT:    -4.433      1.317      3.038
REMARK INTER + INTRA:          -5.500
REMARK INTER:                  -5.209
REMARK INTRA:                  -0.291
REMARK UNBOUND:                -0.289
REMARK SMILES O=c1c(O)c(-c2ccc(O)cc2)oc2cc(O)cc(O)c12
REMARK SMILES IDX 5 1 3 2 2 3 1 4 21 5 19 6 18 7 16 8 15 9 14 10 13 11 6 12
REMARK SMILES IDX 7 13 8 14 9 15 12 16 11 17 10 18 4 20 20 22 17 24
REMARK H PARENT 10 19 4 21 20 23 17 25
REMARK Flexibility Score: inf
ROOT
ATOM      1  C   UNL     1      40.786 -30.658  10.566  1.00  0.00     0.180 A 
ATOM      2  C   UNL     1      41.723 -29.965   9.777  1.00  0.00     0.208 A 
ATOM      3  C   UNL     1      43.053 -30.411   9.753  1.00  0.00     0.238 A 
ATOM      4  O   UNL     1      43.875 -29.820   9.003  1.00  0.00    -0.285 OA
ATOM      5  C   UNL     1      43.436 -31.531  10.529  1.00  0.00     0.111 A 
ATOM      6  C   UNL     1      44.765 -32.045  10.611  1.00  0.00     0.134 A 
ATOM      7  C   UNL     1      45.004 -33.236  11.307  1.00  0.00     0.093 A 
ATOM      8  C   UNL     1      43.972 -33.898  11.977  1.00  0.00     0.123 A 
ATOM      9  C   UNL     1      42.682 -33.373  11.953  1.00  0.00     0.094 A 
ATOM     10  C   UNL     1      42.407 -32.204  11.237  1.00  0.00     0.146 A 
ATOM     11  O   UNL     1      41.162 -31.743  11.230  1.00  0.00    -0.452 OA
ENDROOT
BRANCH   1  12
ATOM     12  C   UNL     1      39.371 -30.233  10.662  1.00  0.00     0.021 A 
ATOM     13  C   UNL     1      38.930 -29.376  11.687  1.00  0.00     0.016 A 
ATOM     14  C   UNL     1      37.583 -29.010  11.771  1.00  0.00     0.047 A 
ATOM     15  C   UNL     1      36.658 -29.505  10.842  1.00  0.00     0.115 A 
ATOM     16  C   UNL     1      38.433 -30.742   9.748  1.00  0.00     0.016 A 
ATOM     17  C   UNL     1      37.087 -30.372   9.834  1.00  0.00     0.047 A 
BRANCH  15  18
ATOM     18  O   UNL     1      35.315 -29.145  10.915  1.00  0.00    -0.508 OA
ATOM     19  H   UNL     1      34.644 -29.705  11.429  1.00  0.00     0.293 HD
ENDBRANCH  15  18
ENDBRANCH   1  12
BRANCH   2  20
ATOM     20  O   UNL     1      41.319 -28.875   9.002  1.00  0.00    -0.502 OA
ATOM     21  H   UNL     1      41.551 -28.790   8.020  1.00  0.00     0.293 HD
ENDBRANCH   2  20
BRANCH   6  22
ATOM     22  O   UNL     1      45.882 -31.412  10.056  1.00  0.00    -0.507 OA
ATOM     23  H   UNL     1      46.589 -31.873   9.504  1.00  0.00     0.293 HD
ENDBRANCH   6  22
BRANCH   8  24
ATOM     24  O   UNL     1      44.221 -35.075  12.680  1.00  0.00    -0.508 OA
ATOM     25  H   UNL     1      44.586 -35.061  13.626  1.00  0.00     0.293 HD
ENDBRANCH   8  24
TORSDOF 5
ENDMDL
MODEL 5
REMARK VINA RESULT:    -3.796      2.357      7.327
REMARK INTER + INTRA:          -4.751
REMARK INTER:                  -4.462
REMARK INTRA:                  -0.289
REMARK UNBOUND:                -0.289
REMARK SMILES O=c1c(O)c(-c2ccc(O)cc2)oc2cc(O)cc(O)c12
REMARK SMILES IDX 5 1 3 2 2 3 1 4 21 5 19 6 18 7 16 8 15 9 14 10 13 11 6 12
REMARK SMILES IDX 7 13 8 14 9 15 12 16 11 17 10 18 4 20 20 22 17 24
REMARK H PARENT 10 19 4 21 20 23 17 25
REMARK Flexibility Score: inf
ROOT
ATOM      1  C   UNL     1      39.857 -30.634  11.296  1.00  0.00     0.180 A 
ATOM      2  C   UNL     1      39.656 -29.892  10.119  1.00  0.00     0.208 A 
ATOM      3  C   UNL     1      38.344 -29.599   9.715  1.00  0.00     0.238 A 
ATOM      4  O   UNL     1      38.171 -28.889   8.690  1.00  0.00    -0.285 OA
ATOM      5  C   UNL     1      37.250 -30.066  10.483  1.00  0.00     0.111 A 
ATOM      6  C   UNL     1      35.878 -29.862  10.146  1.00  0.00     0.134 A 
ATOM      7  C   UNL     1      34.880 -30.254  11.046  1.00  0.00     0.093 A 
ATOM      8  C   UNL     1      35.202 -30.901  12.241  1.00  0.00     0.123 A 
ATOM      9  C   UNL     1      36.535 -31.158  12.552  1.00  0.00     0.094 A 
ATOM     10  C   UNL     1      37.555 -30.747  11.690  1.00  0.00     0.146 A 
ATOM     11  O   UNL     1      38.813 -31.001  12.029  1.00  0.00    -0.452 OA
ENDROOT
BRANCH   1  12
ATOM     12  C   UNL     1      41.210 -31.003  11.773  1.00  0.00     0.021 A 
ATOM     13  C   UNL     1      41.946 -30.155  12.621  1.00  0.00     0.016 A 
ATOM     14  C   UNL     1      43.232 -30.515  13.037  1.00  0.00     0.047 A 
ATOM     15  C   UNL     1      43.803 -31.717  12.601  1.00  0.00     0.115 A 
ATOM     16  C   UNL     1      41.799 -32.197  11.324  1.00  0.00     0.016 A 
ATOM     17  C   UNL     1      43.085 -32.554  11.742  1.00  0.00     0.047 A 
BRANCH  15  18
ATOM     18  O   UNL     1      45.082 -32.086  13.010  1.00  0.00    -0.508 OA
ATOM     19  H   UNL     1      45.241 -32.920  13.564  1.00  0.00     0.293 HD
ENDBRANCH  15  18
ENDBRANCH   1  12
BRANCH   2  20
ATOM     20  O   UNL     1      40.751 -29.423   9.388  1.00  0.00    -0.502 OA
ATOM     21  H   UNL     1      41.193 -28.533   9.580  1.00  0.00     0.293 HD
ENDBRANCH   2  20
BRANCH   6  22
ATOM     22  O   UNL     1      35.445 -29.310   8.936  1.00  0.00    -0.507 OA
ATOM     23  H   UNL     1      35.746 -28.418   8.571  1.00  0.00     0.293 HD
ENDBRANCH   6  22
BRANCH   8  24
ATOM     24  O   UNL     1      34.202 -31.302  13.125  1.00  0.00    -0.508 OA
ATOM     25  H   UNL     1      33.399 -31.836  12.810  1.00  0.00     0.293 HD
ENDBRANCH   8  24
TORSDOF 5
ENDMDL
MODEL 6
REMARK VINA RESULT:    -3.698      1.892      6.737
REMARK INTER + INTRA:          -4.636
REMARK INTER:                  -4.355
REMARK INTRA:                  -0.281
REMARK UNBOUND:                -0.289
REMARK SMILES O=c1c(O)c(-c2ccc(O)cc2)oc2cc(O)cc(O)c12
REMARK SMILES IDX 5 1 3 2 2 3 1 4 21 5 19 6 18 7 16 8 15 9 14 10 13 11 6 12
REMARK SMILES IDX 7 13 8 14 9 15 12 16 11 17 10 18 4 20 20 22 17 24
REMARK H PARENT 10 19 4 21 20 23 17 25
REMARK Flexibility Score: inf
ROOT
ATOM      1  C   UNL     1      40.105 -30.924  10.994  1.00  0.00     0.180 A 
ATOM      2  C   UNL     1      39.276 -31.401  12.025  1.00  0.00     0.208 A 
ATOM      3  C   UNL     1      37.887 -31.233  11.914  1.00  0.00     0.238 A 
ATOM      4  O   UNL     1      37.146 -31.710  12.813  1.00  0.00    -0.285 OA
ATOM      5  C   UNL     1      37.345 -30.576  10.783  1.00  0.00     0.111 A 
ATOM      6  C   UNL     1      35.956 -30.315  10.585  1.00  0.00     0.134 A 
ATOM      7  C   UNL     1      35.520 -29.775   9.369  1.00  0.00     0.093 A 
ATOM      8  C   UNL     1      36.431 -29.426   8.369  1.00  0.00     0.123 A 
ATOM      9  C   UNL     1      37.794 -29.622   8.575  1.00  0.00     0.094 A 
ATOM     10  C   UNL     1      38.256 -30.192   9.765  1.00  0.00     0.146 A 
ATOM     11  O   UNL     1      39.562 -30.372   9.917  1.00  0.00    -0.452 OA
ENDROOT
BRANCH   1  12
ATOM     12  C   UNL     1      41.580 -31.043  11.052  1.00  0.00     0.021 A 
ATOM     13  C   UNL     1      42.252 -32.131  10.465  1.00  0.00     0.016 A 
ATOM     14  C   UNL     1      43.644 -32.233  10.556  1.00  0.00     0.047 A 
ATOM     15  C   UNL     1      44.380 -31.259  11.244  1.00  0.00     0.115 A 
ATOM     16  C   UNL     1      42.323 -30.082  11.758  1.00  0.00     0.016 A 
ATOM     17  C   UNL     1      43.715 -30.187  11.845  1.00  0.00     0.047 A 
BRANCH  15  18
ATOM     18  O   UNL     1      45.766 -31.350  11.338  1.00  0.00    -0.508 OA
ATOM     19  H   UNL     1      46.305 -31.913  10.690  1.00  0.00     0.293 HD
ENDBRANCH  15  18
ENDBRANCH   1  12
BRANCH   2  20
ATOM     20  O   UNL     1      39.830 -32.066  13.122  1.00  0.00    -0.502 OA
ATOM     21  H   UNL     1      40.793 -31.937  13.408  1.00  0.00     0.293 HD
ENDBRANCH   2  20
BRANCH   6  22
ATOM     22  O   UNL     1      34.974 -30.540  11.555  1.00  0.00    -0.507 OA
ATOM     23  H   UNL     1      34.477 -29.814  12.049  1.00  0.00     0.293 HD
ENDBRANCH   6  22
BRANCH   8  24
ATOM     24  O   UNL     1      35.991 -28.875   7.167  1.00  0.00    -0.508 OA
ATOM     25  H   UNL     1      36.501 -29.013   6.302  1.00  0.00     0.293 HD
ENDBRANCH   8  24
TORSDOF 5
ENDMDL
MODEL 7
REMARK VINA RESULT:    -3.230      2.007      3.071
REMARK INTER + INTRA:          -4.086
REMARK INTER:                  -3.812
REMARK INTRA:                  -0.274
REMARK UNBOUND:                -0.289
REMARK SMILES O=c1c(O)c(-c2ccc(O)cc2)oc2cc(O)cc(O)c12
REMARK SMILES IDX 5 1 3 2 2 3 1 4 21 5 19 6 18 7 16 8 15 9 14 10 13 11 6 12
REMARK SMILES IDX 7 13 8 14 9 15 12 16 11 17 10 18 4 20 20 22 17 24
REMARK H PARENT 10 19 4 21 20 23 17 25
REMARK Flexibility Score: inf
ROOT
ATOM      1  C   UNL     1      40.557 -30.149  11.148  1.00  0.00     0.180 A 
ATOM      2  C   UNL     1      40.822 -29.545   9.906  1.00  0.00     0.208 A 
ATOM      3  C   UNL     1      42.156 -29.367   9.507  1.00  0.00     0.238 A 
ATOM      4  O   UNL     1      42.386 -28.876   8.371  1.00  0.00    -0.285 OA
ATOM      5  C   UNL     1      43.208 -29.778  10.360  1.00  0.00     0.111 A 
ATOM      6  C   UNL     1      44.596 -29.609  10.075  1.00  0.00     0.134 A 
ATOM      7  C   UNL     1      45.551 -30.172  10.931  1.00  0.00     0.093 A 
ATOM      8  C   UNL     1      45.168 -30.841  12.096  1.00  0.00     0.123 A 
ATOM      9  C   UNL     1      43.817 -30.959  12.414  1.00  0.00     0.094 A 
ATOM     10  C   UNL     1      42.841 -30.439  11.561  1.00  0.00     0.146 A 
ATOM     11  O   UNL     1      41.564 -30.583  11.896  1.00  0.00    -0.452 OA
ENDROOT
BRANCH   1  12
ATOM     12  C   UNL     1      39.178 -30.348  11.648  1.00  0.00     0.021 A 
ATOM     13  C   UNL     1      38.450 -29.294  12.233  1.00  0.00     0.016 A 
ATOM     14  C   UNL     1      37.158 -29.514  12.721  1.00  0.00     0.047 A 
ATOM     15  C   UNL     1      36.582 -30.789  12.644  1.00  0.00     0.115 A 
ATOM     16  C   UNL     1      38.601 -31.627  11.594  1.00  0.00     0.016 A 
ATOM     17  C   UNL     1      37.308 -31.843  12.082  1.00  0.00     0.047 A 
BRANCH  15  18
ATOM     18  O   UNL     1      35.296 -31.018  13.125  1.00  0.00    -0.508 OA
ATOM     19  H   UNL     1      34.901 -30.456  13.871  1.00  0.00     0.293 HD
ENDBRANCH  15  18
ENDBRANCH   1  12
BRANCH   2  20
ATOM     20  O   UNL     1      39.768 -29.166   9.070  1.00  0.00    -0.502 OA
ATOM     21  H   UNL     1      39.038 -29.808   8.790  1.00  0.00     0.293 HD
ENDBRANCH   2  20
BRANCH   6  22
ATOM     22  O   UNL     1      45.086 -28.879   8.987  1.00  0.00    -0.507 OA
ATOM     23  H   UNL     1      44.764 -27.962   8.718  1.00  0.00     0.293 HD
ENDBRANCH   6  22
BRANCH   8  24
ATOM     24  O   UNL     1      46.125 -31.384  12.950  1.00  0.00    -0.508 OA
ATOM     25  H   UNL     1      46.593 -32.257  12.736  1.00  0.00     0.293 HD
ENDBRANCH   8  24
TORSDOF 5
ENDMDL
MODEL 8
REMARK VINA RESULT:    -2.968      2.266      3.054
REMARK INTER + INTRA:          -3.777
REMARK INTER:                  -3.954
REMARK INTRA:                   0.177
REMARK UNBOUND:                -0.289
REMARK SMILES O=c1c(O)c(-c2ccc(O)cc2)oc2cc(O)cc(O)c12
REMARK SMILES IDX 5 1 3 2 2 3 1 4 21 5 19 6 18 7 16 8 15 9 14 10 13 11 6 12
REMARK SMILES IDX 7 13 8 14 9 15 12 16 11 17 10 18 4 20 20 22 17 24
REMARK H PARENT 10 19 4 21 20 23 17 25
REMARK Flexibility Score: inf
ROOT
ATOM      1  C   UNL     1      38.889 -30.671  10.568  1.00  0.00     0.180 A 
ATOM      2  C   UNL     1      39.314 -29.842  11.622  1.00  0.00     0.208 A 
ATOM      3  C   UNL     1      40.624 -29.976  12.106  1.00  0.00     0.238 A 
ATOM      4  O   UNL     1      41.017 -29.196  13.012  1.00  0.00    -0.285 OA
ATOM      5  C   UNL     1      41.488 -30.948  11.544  1.00  0.00     0.111 A 
ATOM      6  C   UNL     1      42.822 -31.198  11.984  1.00  0.00     0.134 A 
ATOM      7  C   UNL     1      43.629 -32.092  11.270  1.00  0.00     0.093 A 
ATOM      8  C   UNL     1      43.129 -32.793  10.170  1.00  0.00     0.123 A 
ATOM      9  C   UNL     1      41.809 -32.600   9.769  1.00  0.00     0.094 A 
ATOM     10  C   UNL     1      40.991 -31.688  10.441  1.00  0.00     0.146 A 
ATOM     11  O   UNL     1      39.742 -31.526  10.019  1.00  0.00    -0.452 OA
ENDROOT
BRANCH   1  12
ATOM     12  C   UNL     1      37.515 -30.606  10.021  1.00  0.00     0.021 A 
ATOM     13  C   UNL     1      37.275 -30.623   8.634  1.00  0.00     0.016 A 
ATOM     14  C   UNL     1      35.969 -30.534   8.142  1.00  0.00     0.047 A 
ATOM     15  C   UNL     1      34.889 -30.414   9.025  1.00  0.00     0.115 A 
ATOM     16  C   UNL     1      36.427 -30.464  10.899  1.00  0.00     0.016 A 
ATOM     17  C   UNL     1      35.122 -30.378  10.402  1.00  0.00     0.047 A 
BRANCH  15  18
ATOM     18  O   UNL     1      33.585 -30.327   8.545  1.00  0.00    -0.508 OA
ATOM     19  H   UNL     1      32.946 -31.113   8.602  1.00  0.00     0.293 HD
ENDBRANCH  15  18
ENDBRANCH   1  12
BRANCH   2  20
ATOM     20  O   UNL     1      38.453 -28.876  12.148  1.00  0.00    -0.502 OA
ATOM     21  H   UNL     1      38.778 -27.970  12.463  1.00  0.00     0.293 HD
ENDBRANCH   2  20
BRANCH   6  22
ATOM     22  O   UNL     1      43.389 -30.620  13.125  1.00  0.00    -0.507 OA
ATOM     23  H   UNL     1      43.151 -30.867  14.073  1.00  0.00     0.293 HD
ENDBRANCH   6  22
BRANCH   8  24
ATOM     24  O   UNL     1      43.934 -33.692   9.474  1.00  0.00    -0.508 OA
ATOM     25  H   UNL     1      44.441 -34.429   9.951  1.00  0.00     0.293 HD
ENDBRANCH   8  24
TORSDOF 5
ENDMDL
