MODEL 1
REMARK VINA RESULT:    -4.789      0.000      0.000
REMARK INTER + INTRA:          -5.148
REMARK INTER:                  -5.069
REMARK INTRA:                  -0.079
REMARK UNBOUND:                -0.079
REMARK SMILES CC(=O)c1cccc(C)c1
REMARK SMILES IDX 9 1 8 2 10 3 4 4 5 5 6 6 7 7 2 8 3 9 1 10
REMARK H PARENT
REMARK Flexibility Score: inf
ROOT
ATOM      1  C   UNL     1      43.515  35.806  47.901  1.00  0.00     0.044 C 
ATOM      2  C   UNL     1      42.393  36.258  48.788  1.00  0.00    -0.050 A 
ATOM      3  C   UNL     1      42.670  36.939  49.984  1.00  0.00     0.015 A 
ATOM      4  C   UNL     1      41.626  37.338  50.845  1.00  0.00     0.017 A 
ATOM      5  C   UNL     1      40.300  37.026  50.488  1.00  0.00     0.012 A 
ATOM      6  C   UNL     1      40.026  36.332  49.307  1.00  0.00     0.001 A 
ATOM      7  C   UNL     1      41.066  35.943  48.463  1.00  0.00     0.003 A 
ENDROOT
BRANCH   4   8
ATOM      8  C   UNL     1      41.902  38.070  52.110  1.00  0.00     0.159 C 
ATOM      9  O   UNL     1      43.091  38.196  52.513  1.00  0.00    -0.295 OA
ATOM     10  C   UNL     1      40.804  38.671  52.936  1.00  0.00     0.093 C 
ENDBRANCH   4   8
TORSDOF 1
ENDMDL
MODEL 2
REMARK VINA RESULT:    -4.728      0.622      2.302
REMARK INTER + INTRA:          -5.083
REMARK INTER:                  -5.007
REMARK INTRA:                  -0.076
REMARK UNBOUND:                -0.079
REMARK SMILES CC(=O)c1cccc(C)c1
REMARK SMILES IDX 9 1 8 2 10 3 4 4 5 5 6 6 7 7 2 8 3 9 1 10
REMARK H PARENT
REMARK Flexibility Score: inf
ROOT
ATOM      1  C   UNL     1      38.305  35.940  49.262  1.00  0.00     0.044 C 
ATOM      2  C   UNL     1      39.739  36.308  49.499  1.00  0.00    -0.050 A 
ATOM      3  C   UNL     1      40.108  36.999  50.665  1.00  0.00     0.015 A 
ATOM      4  C   UNL     1      41.448  37.382  50.882  1.00  0.00     0.017 A 
ATOM      5  C   UNL     1      42.407  37.072  49.900  1.00  0.00     0.012 A 
ATOM      6  C   UNL     1      42.037  36.401  48.731  1.00  0.00     0.001 A 
ATOM      7  C   UNL     1      40.709  36.026  48.527  1.00  0.00     0.003 A 
ENDROOT
BRANCH   4   8
ATOM      8  C   UNL     1      41.856  38.105  52.117  1.00  0.00     0.159 C 
ATOM      9  O   UNL     1      43.072  38.139  52.449  1.00  0.00    -0.295 OA
ATOM     10  C   UNL     1      40.860  38.804  52.993  1.00  0.00     0.093 C 
ENDBRANCH   4   8
TORSDOF 1
ENDMDL
MODEL 3
REMARK VINA RESULT:    -4.637      6.047      6.708
REMARK INTER + INTRA:          -4.987
REMARK INTER:                  -4.908
REMARK INTRA:                  -0.079
REMARK UNBOUND:                -0.079
REMARK SMILES CC(=O)c1cccc(C)c1
REMARK SMILES IDX 9 1 8 2 10 3 4 4 5 5 6 6 7 7 2 8 3 9 1 10
REMARK H PARENT
REMARK Flexibility Score: inf
ROOT
ATOM      1  C   UNL     1      43.723  34.856  51.093  1.00  0.00     0.044 C 
ATOM      2  C   UNL     1      44.176  33.467  51.435  1.00  0.00    -0.050 A 
ATOM      3  C   UNL     1      44.266  33.064  52.778  1.00  0.00     0.015 A 
ATOM      4  C   UNL     1      44.724  31.773  53.113  1.00  0.00     0.017 A 
ATOM      5  C   UNL     1      45.104  30.900  52.076  1.00  0.00     0.012 A 
ATOM      6  C   UNL     1      45.033  31.308  50.741  1.00  0.00     0.001 A 
ATOM      7  C   UNL     1      44.577  32.587  50.421  1.00  0.00     0.003 A 
ENDROOT
BRANCH   4   8
ATOM      8  C   UNL     1      44.815  31.328  54.530  1.00  0.00     0.159 C 
ATOM      9  O   UNL     1      44.579  32.146  55.459  1.00  0.00    -0.295 OA
ATOM     10  C   UNL     1      45.181  29.921  54.897  1.00  0.00     0.093 C 
ENDBRANCH   4   8
TORSDOF 1
ENDMDL
MODEL 4
REMARK VINA RESULT:    -4.362      2.238      3.924
REMARK INTER + INTRA:          -4.696
REMARK INTER:                  -4.620
REMARK INTRA:                  -0.076
REMARK UNBOUND:                -0.079
REMARK SMILES CC(=O)c1cccc(C)c1
REMARK SMILES IDX 9 1 8 2 10 3 4 4 5 5 6 6 7 7 2 8 3 9 1 10
REMARK H PARENT
REMARK Flexibility Score: inf
ROOT
ATOM      1  C   UNL     1      42.253  38.468  52.770  1.00  0.00     0.044 C 
ATOM      2  C   UNL     1      42.124  37.676  51.502  1.00  0.00    -0.050 A 
ATOM      3  C   UNL     1      40.855  37.372  50.986  1.00  0.00     0.015 A 
ATOM      4  C   UNL     1      40.720  36.598  49.814  1.00  0.00     0.017 A 
ATOM      5  C   UNL     1      41.884  36.124  49.180  1.00  0.00     0.012 A 
ATOM      6  C   UNL     1      43.147  36.411  49.705  1.00  0.00     0.001 A 
ATOM      7  C   UNL     1      43.268  37.178  50.864  1.00  0.00     0.003 A 
ENDROOT
BRANCH   4   8
ATOM      8  C   UNL     1      39.382  36.276  49.249  1.00  0.00     0.159 C 
ATOM      9  O   UNL     1      39.280  35.932  48.040  1.00  0.00    -0.295 OA
ATOM     10  C   UNL     1      38.133  36.346  50.075  1.00  0.00     0.093 C 
ENDBRANCH   4   8
TORSDOF 1
ENDMDL
MODEL 5
REMARK VINA RESULT:    -4.207      6.796      7.602
REMARK INTER + INTRA:          -4.532
REMARK INTER:                  -4.461
REMARK INTRA:                  -0.071
REMARK UNBOUND:                -0.079
REMARK SMILES CC(=O)c1cccc(C)c1
REMARK SMILES IDX 9 1 8 2 10 3 4 4 5 5 6 6 7 7 2 8 3 9 1 10
REMARK H PARENT
REMARK Flexibility Score: inf
ROOT
ATOM      1  C   UNL     1      46.739  30.712  55.330  1.00  0.00     0.044 C 
ATOM      2  C   UNL     1      45.576  31.218  54.529  1.00  0.00    -0.050 A 
ATOM      3  C   UNL     1      45.679  31.341  53.135  1.00  0.00     0.015 A 
ATOM      4  C   UNL     1      44.605  31.849  52.375  1.00  0.00     0.017 A 
ATOM      5  C   UNL     1      43.431  32.244  53.044  1.00  0.00     0.012 A 
ATOM      6  C   UNL     1      43.335  32.138  54.434  1.00  0.00     0.001 A 
ATOM      7  C   UNL     1      44.403  31.634  55.175  1.00  0.00     0.003 A 
ENDROOT
BRANCH   4   8
ATOM      8  C   UNL     1      44.695  31.976  50.895  1.00  0.00     0.159 C 
ATOM      9  O   UNL     1      45.014  30.974  50.199  1.00  0.00    -0.295 OA
ATOM     10  C   UNL     1      44.417  33.271  50.191  1.00  0.00     0.093 C 
ENDBRANCH   4   8
TORSDOF 1
ENDMDL
MODEL 6
REMARK VINA RESULT:    -4.178      4.891      5.873
REMARK INTER + INTRA:          -4.501
REMARK INTER:                  -4.424
REMARK INTRA:                  -0.077
REMARK UNBOUND:                -0.079
REMARK SMILES CC(=O)c1cccc(C)c1
REMARK SMILES IDX 9 1 8 2 10 3 4 4 5 5 6 6 7 7 2 8 3 9 1 10
REMARK H PARENT
REMARK Flexibility Score: inf
ROOT
ATOM      1  C   UNL     1      44.301  32.078  54.395  1.00  0.00     0.044 C 
ATOM      2  C   UNL     1      44.482  32.218  52.913  1.00  0.00    -0.050 A 
ATOM      3  C   UNL     1      43.994  33.354  52.246  1.00  0.00     0.015 A 
ATOM      4  C   UNL     1      44.127  33.481  50.848  1.00  0.00     0.017 A 
ATOM      5  C   UNL     1      44.746  32.439  50.130  1.00  0.00     0.012 A 
ATOM      6  C   UNL     1      45.215  31.301  50.791  1.00  0.00     0.001 A 
ATOM      7  C   UNL     1      45.079  31.186  52.175  1.00  0.00     0.003 A 
ENDROOT
BRANCH   4   8
ATOM      8  C   UNL     1      43.624  34.682  50.128  1.00  0.00     0.159 C 
ATOM      9  O   UNL     1      43.576  34.682  48.868  1.00  0.00    -0.295 OA
ATOM     10  C   UNL     1      43.166  35.910  50.857  1.00  0.00     0.093 C 
ENDBRANCH   4   8
TORSDOF 1
ENDMDL
MODEL 7
REMARK VINA RESULT:    -4.168      6.157      7.213
REMARK INTER + INTRA:          -4.491
REMARK INTER:                  -4.413
REMARK INTRA:                  -0.078
REMARK UNBOUND:                -0.079
REMARK SMILES CC(=O)c1cccc(C)c1
REMARK SMILES IDX 9 1 8 2 10 3 4 4 5 5 6 6 7 7 2 8 3 9 1 10
REMARK H PARENT
REMARK Flexibility Score: inf
ROOT
ATOM      1  C   UNL     1      44.627  32.125  55.749  1.00  0.00     0.044 C 
ATOM      2  C   UNL     1      44.619  31.669  54.320  1.00  0.00    -0.050 A 
ATOM      3  C   UNL     1      44.482  32.604  53.282  1.00  0.00     0.015 A 
ATOM      4  C   UNL     1      44.436  32.184  51.936  1.00  0.00     0.017 A 
ATOM      5  C   UNL     1      44.516  30.807  51.654  1.00  0.00     0.012 A 
ATOM      6  C   UNL     1      44.634  29.876  52.689  1.00  0.00     0.001 A 
ATOM      7  C   UNL     1      44.678  30.302  54.016  1.00  0.00     0.003 A 
ENDROOT
BRANCH   4   8
ATOM      8  C   UNL     1      44.301  33.163  50.824  1.00  0.00     0.159 C 
ATOM      9  O   UNL     1      43.880  34.328  51.062  1.00  0.00    -0.295 OA
ATOM     10  C   UNL     1      44.654  32.812  49.409  1.00  0.00     0.093 C 
ENDBRANCH   4   8
TORSDOF 1
ENDMDL
MODEL 8
REMARK VINA RESULT:    -4.063      4.068      5.220
REMARK INTER + INTRA:          -4.379
REMARK INTER:                  -4.313
REMARK INTRA:                  -0.066
REMARK UNBOUND:                -0.079
REMARK SMILES CC(=O)c1cccc(C)c1
REMARK SMILES IDX 9 1 8 2 10 3 4 4 5 5 6 6 7 7 2 8 3 9 1 10
REMARK H PARENT
REMARK Flexibility Score: inf
ROOT
ATOM      1  C   UNL     1      42.723  36.552  50.609  1.00  0.00     0.044 C 
ATOM      2  C   UNL     1      43.350  35.248  50.212  1.00  0.00    -0.050 A 
ATOM      3  C   UNL     1      43.790  34.348  51.195  1.00  0.00     0.015 A 
ATOM      4  C   UNL     1      44.413  33.135  50.835  1.00  0.00     0.017 A 
ATOM      5  C   UNL     1      44.599  32.851  49.468  1.00  0.00     0.012 A 
ATOM      6  C   UNL     1      44.178  33.755  48.490  1.00  0.00     0.001 A 
ATOM      7  C   UNL     1      43.562  34.952  48.858  1.00  0.00     0.003 A 
ENDROOT
BRANCH   4   8
ATOM      8  C   UNL     1      44.875  32.166  51.865  1.00  0.00     0.159 C 
ATOM      9  O   UNL     1      46.027  32.285  52.364  1.00  0.00    -0.295 OA
ATOM     10  C   UNL     1      44.009  31.037  52.338  1.00  0.00     0.093 C 
ENDBRANCH   4   8
TORSDOF 1
ENDMDL
MODEL 9
REMARK VINA RESULT:    -4.038      1.855      3.925
REMARK INTER + INTRA:          -4.354
REMARK INTER:                  -4.287
REMARK INTRA:                  -0.067
REMARK UNBOUND:                -0.079
REMARK SMILES CC(=O)c1cccc(C)c1
REMARK SMILES IDX 9 1 8 2 10 3 4 4 5 5 6 6 7 7 2 8 3 9 1 10
REMARK H PARENT
REMARK Flexibility Score: inf
ROOT
ATOM      1  C   UNL     1      42.868  38.756  53.010  1.00  0.00     0.044 C 
ATOM      2  C   UNL     1      42.241  37.918  51.936  1.00  0.00    -0.050 A 
ATOM      3  C   UNL     1      43.040  37.337  50.937  1.00  0.00     0.015 A 
ATOM      4  C   UNL     1      42.458  36.577  49.901  1.00  0.00     0.017 A 
ATOM      5  C   UNL     1      41.058  36.424  49.879  1.00  0.00     0.012 A 
ATOM      6  C   UNL     1      40.262  37.018  50.862  1.00  0.00     0.001 A 
ATOM      7  C   UNL     1      40.848  37.767  51.882  1.00  0.00     0.003 A 
ENDROOT
BRANCH   4   8
ATOM      8  C   UNL     1      43.291  35.947  48.842  1.00  0.00     0.159 C 
ATOM      9  O   UNL     1      43.705  36.642  47.875  1.00  0.00    -0.295 OA
ATOM     10  C   UNL     1      43.661  34.494  48.883  1.00  0.00     0.093 C 
ENDBRANCH   4   8
TORSDOF 1
ENDMDL
