MODEL 1
REMARK VINA RESULT:    -4.670      0.000      0.000
REMARK INTER + INTRA:          -7.136
REMARK INTER:                  -7.127
REMARK INTRA:                  -0.010
REMARK UNBOUND:                -0.010
REMARK SMILES CC1=CCC[C@@H](C)C(=O)C[C@H](C(C)C)C(=O)C1
REMARK SMILES IDX 8 1 9 2 6 3 7 4 5 5 4 6 3 7 2 8 1 9 10 11 11 12 15 13 16 14
REMARK SMILES IDX 17 15 12 17 13 18 14 19
REMARK H PARENT
REMARK Flexibility Score: 70.00
ROOT
ATOM      1  C   UNL     1     -12.923 -15.862  30.440  1.00  0.00     0.136 C 
ATOM      2  O   UNL     1     -14.009 -15.349  30.225  1.00  0.00    -0.299 OA
ENDROOT
BRANCH   1   3
ATOM      3  C   UNL     1     -12.613 -16.326  31.856  1.00  0.00     0.053 C 
ATOM      4  C   UNL     1     -13.545 -15.656  32.874  1.00  0.00     0.016 C 
BRANCH   3   5
ATOM      5  C   UNL     1     -11.133 -16.101  32.222  1.00  0.00     0.015 C 
BRANCH   5   6
ATOM      6  C   UNL     1     -10.314 -17.394  32.061  1.00  0.00     0.028 C 
BRANCH   6   7
ATOM      7  C   UNL     1     -11.087 -18.651  32.373  1.00  0.00    -0.028 C 
ATOM      8  C   UNL     1     -11.717 -19.453  31.478  1.00  0.00    -0.070 CG0
ATOM      9  C   UNL     1     -12.568 -20.568  32.037  1.00  0.00     0.039 C 
ATOM     10  G   UNL     1     -11.539 -19.379  29.964  1.00  0.00     0.000 G0
ENDBRANCH   6   7
ENDBRANCH   5   6
ENDBRANCH   3   5
ENDBRANCH   1   3
BRANCH   1  11
ATOM     11  C   UNL     1     -11.908 -15.962  29.317  1.00  0.00     0.087 C 
BRANCH  11  12
ATOM     12  C   UNL     1     -11.948 -17.267  28.466  1.00  0.00     0.066 C 
BRANCH  12  13
ATOM     13  C   UNL     1     -12.505 -18.469  29.218  1.00  0.00     0.140 C 
ATOM     14  O   UNL     1     -13.689 -18.762  29.134  1.00  0.00    -0.299 OA
BRANCH  13  15
ATOM     15  C   UNL     1     -11.556 -19.387  29.950  1.00  0.00     0.106 CG0
ATOM     16  G   UNL     1     -11.715 -19.440  31.467  1.00  0.00     0.000 G0
ENDBRANCH  13  15
ENDBRANCH  12  13
BRANCH  12  17
ATOM     17  C   UNL     1     -12.531 -17.126  27.019  1.00  0.00    -0.006 C 
ATOM     18  C   UNL     1     -13.516 -15.963  26.841  1.00  0.00     0.008 C 
ATOM     19  C   UNL     1     -11.417 -17.028  25.963  1.00  0.00     0.008 C 
ENDBRANCH  12  17
ENDBRANCH  11  12
ENDBRANCH   1  11
TORSDOF 1
ENDMDL
MODEL 2
REMARK VINA RESULT:    -4.622      1.554      3.883
REMARK INTER + INTRA:          -7.063
REMARK INTER:                  -6.850
REMARK INTRA:                  -0.213
REMARK UNBOUND:                -0.010
REMARK SMILES CC1=CCC[C@@H](C)C(=O)C[C@H](C(C)C)C(=O)C1
REMARK SMILES IDX 8 1 9 2 6 3 7 4 5 5 4 6 3 7 2 8 1 9 10 11 11 12 15 13 16 14
REMARK SMILES IDX 17 15 12 17 13 18 14 19
REMARK H PARENT
REMARK Flexibility Score: 70.00
ROOT
ATOM      1  C   UNL     1     -12.789 -15.721  28.582  1.00  0.00     0.136 C 
ATOM      2  O   UNL     1     -13.485 -14.837  28.109  1.00  0.00    -0.299 OA
ENDROOT
BRANCH   1   3
ATOM      3  C   UNL     1     -12.615 -17.005  27.785  1.00  0.00     0.053 C 
ATOM      4  C   UNL     1     -12.716 -16.738  26.278  1.00  0.00     0.016 C 
BRANCH   3   5
ATOM      5  C   UNL     1     -13.614 -18.093  28.226  1.00  0.00     0.015 C 
BRANCH   5   6
ATOM      6  C   UNL     1     -12.904 -19.435  28.476  1.00  0.00     0.028 C 
BRANCH   6   7
ATOM      7  C   UNL     1     -13.065 -19.960  29.880  1.00  0.00    -0.028 C 
ATOM      8  C   UNL     1     -12.221 -19.747  30.922  1.00  0.00    -0.070 CG0
ATOM      9  C   UNL     1     -12.500 -20.510  32.196  1.00  0.00     0.039 C 
ATOM     10  G   UNL     1     -11.092 -18.721  30.935  1.00  0.00     0.000 G0
ENDBRANCH   6   7
ENDBRANCH   5   6
ENDBRANCH   3   5
ENDBRANCH   1   3
BRANCH   1  11
ATOM     11  C   UNL     1     -12.177 -15.535  29.957  1.00  0.00     0.087 C 
BRANCH  11  12
ATOM     12  C   UNL     1     -12.586 -16.576  31.041  1.00  0.00     0.066 C 
BRANCH  12  13
ATOM     13  C   UNL     1     -11.415 -17.389  31.579  1.00  0.00     0.140 C 
ATOM     14  O   UNL     1     -10.816 -17.028  32.581  1.00  0.00    -0.299 OA
BRANCH  13  15
ATOM     15  C   UNL     1     -11.095 -18.726  30.953  1.00  0.00     0.106 CG0
ATOM     16  G   UNL     1     -12.232 -19.743  30.932  1.00  0.00     0.000 G0
ENDBRANCH  13  15
ENDBRANCH  12  13
BRANCH  12  17
ATOM     17  C   UNL     1     -13.540 -16.055  32.169  1.00  0.00    -0.006 C 
ATOM     18  C   UNL     1     -14.483 -14.926  31.733  1.00  0.00     0.008 C 
ATOM     19  C   UNL     1     -14.355 -17.196  32.800  1.00  0.00     0.008 C 
ENDBRANCH  12  17
ENDBRANCH  11  12
ENDBRANCH   1  11
TORSDOF 1
ENDMDL
MODEL 3
REMARK VINA RESULT:    -4.369      1.957      3.870
REMARK INTER + INTRA:          -6.678
REMARK INTER:                  -7.454
REMARK INTRA:                   0.776
REMARK UNBOUND:                -0.010
REMARK SMILES CC1=CCC[C@@H](C)C(=O)C[C@H](C(C)C)C(=O)C1
REMARK SMILES IDX 8 1 9 2 6 3 7 4 5 5 4 6 3 7 2 8 1 9 10 11 11 12 15 13 16 14
REMARK SMILES IDX 17 15 12 17 13 18 14 19
REMARK H PARENT
REMARK Flexibility Score: 70.00
ROOT
ATOM      1  C   UNL     1     -12.514 -19.513  29.699  1.00  0.00     0.136 C 
ATOM      2  O   UNL     1     -13.389 -20.120  29.104  1.00  0.00    -0.299 OA
ENDROOT
BRANCH   1   3
ATOM      3  C   UNL     1     -12.304 -19.815  31.176  1.00  0.00     0.053 C 
ATOM      4  C   UNL     1     -12.486 -21.310  31.466  1.00  0.00     0.016 C 
BRANCH   3   5
ATOM      5  C   UNL     1     -13.220 -18.958  32.072  1.00  0.00     0.015 C 
BRANCH   5   6
ATOM      6  C   UNL     1     -12.679 -17.525  32.217  1.00  0.00     0.028 C 
BRANCH   6   7
ATOM      7  C   UNL     1     -13.747 -16.488  32.456  1.00  0.00    -0.028 C 
ATOM      8  C   UNL     1     -14.117 -15.500  31.602  1.00  0.00    -0.070 CG0
ATOM      9  C   UNL     1     -15.097 -14.476  32.124  1.00  0.00     0.039 C 
ATOM     10  G   UNL     1     -13.705 -15.414  30.135  1.00  0.00     0.000 G0
ENDBRANCH   6   7
ENDBRANCH   5   6
ENDBRANCH   3   5
ENDBRANCH   1   3
BRANCH   1  11
ATOM     11  C   UNL     1     -11.715 -18.449  28.971  1.00  0.00     0.087 C 
BRANCH  11  12
ATOM     12  C   UNL     1     -12.481 -17.144  28.600  1.00  0.00     0.066 C 
BRANCH  12  13
ATOM     13  C   UNL     1     -12.444 -16.083  29.692  1.00  0.00     0.140 C 
ATOM     14  O   UNL     1     -11.377 -15.693  30.144  1.00  0.00    -0.299 OA
BRANCH  13  15
ATOM     15  C   UNL     1     -13.728 -15.407  30.109  1.00  0.00     0.106 CG0
ATOM     16  G   UNL     1     -14.080 -15.499  31.591  1.00  0.00     0.000 G0
ENDBRANCH  13  15
ENDBRANCH  12  13
BRANCH  12  17
ATOM     17  C   UNL     1     -12.198 -16.564  27.172  1.00  0.00    -0.006 C 
ATOM     18  C   UNL     1     -11.199 -17.380  26.341  1.00  0.00     0.008 C 
ATOM     19  C   UNL     1     -13.495 -16.363  26.371  1.00  0.00     0.008 C 
ENDBRANCH  12  17
ENDBRANCH  11  12
ENDBRANCH   1  11
TORSDOF 1
ENDMDL
MODEL 4
REMARK VINA RESULT:    -4.151      2.042      4.017
REMARK INTER + INTRA:          -6.345
REMARK INTER:                  -6.544
REMARK INTRA:                   0.198
REMARK UNBOUND:                -0.010
REMARK SMILES CC1=CCC[C@@H](C)C(=O)C[C@H](C(C)C)C(=O)C1
REMARK SMILES IDX 8 1 9 2 6 3 7 4 5 5 4 6 3 7 2 8 1 9 10 11 11 12 15 13 16 14
REMARK SMILES IDX 17 15 12 17 13 18 14 19
REMARK H PARENT
REMARK Flexibility Score: 70.00
ROOT
ATOM      1  C   UNL     1     -12.820 -16.270  32.315  1.00  0.00     0.136 C 
ATOM      2  O   UNL     1     -11.932 -15.923  33.076  1.00  0.00    -0.299 OA
ENDROOT
BRANCH   1   3
ATOM      3  C   UNL     1     -13.760 -15.205  31.770  1.00  0.00     0.053 C 
ATOM      4  C   UNL     1     -14.947 -14.980  32.715  1.00  0.00     0.016 C 
BRANCH   3   5
ATOM      5  C   UNL     1     -14.238 -15.538  30.343  1.00  0.00     0.015 C 
BRANCH   5   6
ATOM      6  C   UNL     1     -13.324 -14.898  29.284  1.00  0.00     0.028 C 
BRANCH   6   7
ATOM      7  C   UNL     1     -12.807 -15.871  28.254  1.00  0.00    -0.028 C 
ATOM      8  C   UNL     1     -11.612 -16.513  28.280  1.00  0.00    -0.070 CG0
ATOM      9  C   UNL     1     -11.239 -17.315  27.055  1.00  0.00     0.039 C 
ATOM     10  G   UNL     1     -10.680 -16.575  29.487  1.00  0.00     0.000 G0
ENDBRANCH   6   7
ENDBRANCH   5   6
ENDBRANCH   3   5
ENDBRANCH   1   3
BRANCH   1  11
ATOM     11  C   UNL     1     -12.991 -17.741  31.989  1.00  0.00     0.087 C 
BRANCH  11  12
ATOM     12  C   UNL     1     -12.321 -18.239  30.673  1.00  0.00     0.066 C 
BRANCH  12  13
ATOM     13  C   UNL     1     -10.908 -17.708  30.470  1.00  0.00     0.140 C 
ATOM     14  O   UNL     1      -9.952 -18.272  30.981  1.00  0.00    -0.299 OA
BRANCH  13  15
ATOM     15  C   UNL     1     -10.679 -16.566  29.509  1.00  0.00     0.106 CG0
ATOM     16  G   UNL     1     -11.602 -16.521  28.294  1.00  0.00     0.000 G0
ENDBRANCH  13  15
ENDBRANCH  12  13
BRANCH  12  17
ATOM     17  C   UNL     1     -12.449 -19.772  30.375  1.00  0.00    -0.006 C 
ATOM     18  C   UNL     1     -12.674 -20.645  31.616  1.00  0.00     0.008 C 
ATOM     19  C   UNL     1     -13.543 -20.061  29.333  1.00  0.00     0.008 C 
ENDBRANCH  12  17
ENDBRANCH  11  12
ENDBRANCH   1  11
TORSDOF 1
ENDMDL
MODEL 5
REMARK VINA RESULT:    -4.087      1.466      2.262
REMARK INTER + INTRA:          -6.247
REMARK INTER:                  -6.980
REMARK INTRA:                   0.734
REMARK UNBOUND:                -0.010
REMARK SMILES CC1=CCC[C@@H](C)C(=O)C[C@H](C(C)C)C(=O)C1
REMARK SMILES IDX 8 1 9 2 6 3 7 4 5 5 4 6 3 7 2 8 1 9 10 11 11 12 15 13 16 14
REMARK SMILES IDX 17 15 12 17 13 18 14 19
REMARK H PARENT
REMARK Flexibility Score: 70.00
ROOT
ATOM      1  C   UNL     1     -12.720 -16.043  31.064  1.00  0.00     0.136 C 
ATOM      2  O   UNL     1     -13.790 -15.495  30.856  1.00  0.00    -0.299 OA
ENDROOT
BRANCH   1   3
ATOM      3  C   UNL     1     -12.536 -16.792  32.376  1.00  0.00     0.053 C 
ATOM      4  C   UNL     1     -11.066 -17.171  32.594  1.00  0.00     0.016 C 
BRANCH   3   5
ATOM      5  C   UNL     1     -13.449 -18.030  32.461  1.00  0.00     0.015 C 
BRANCH   5   6
ATOM      6  C   UNL     1     -12.727 -19.293  31.958  1.00  0.00     0.028 C 
BRANCH   6   7
ATOM      7  C   UNL     1     -13.254 -19.818  30.647  1.00  0.00    -0.028 C 
ATOM      8  C   UNL     1     -12.793 -19.506  29.409  1.00  0.00    -0.070 CG0
ATOM      9  C   UNL     1     -13.584 -20.026  28.232  1.00  0.00     0.039 C 
ATOM     10  G   UNL     1     -11.486 -18.770  29.125  1.00  0.00     0.000 G0
ENDBRANCH   6   7
ENDBRANCH   5   6
ENDBRANCH   3   5
ENDBRANCH   1   3
BRANCH   1  11
ATOM     11  C   UNL     1     -11.602 -15.909  30.048  1.00  0.00     0.087 C 
BRANCH  11  12
ATOM     12  C   UNL     1     -11.968 -16.247  28.571  1.00  0.00     0.066 C 
BRANCH  12  13
ATOM     13  C   UNL     1     -11.516 -17.634  28.133  1.00  0.00     0.140 C 
ATOM     14  O   UNL     1     -11.079 -17.819  27.006  1.00  0.00    -0.299 OA
BRANCH  13  15
ATOM     15  C   UNL     1     -11.470 -18.751  29.148  1.00  0.00     0.106 CG0
ATOM     16  G   UNL     1     -12.788 -19.479  29.399  1.00  0.00     0.000 G0
ENDBRANCH  13  15
ENDBRANCH  12  13
BRANCH  12  17
ATOM     17  C   UNL     1     -13.434 -15.913  28.133  1.00  0.00    -0.006 C 
ATOM     18  C   UNL     1     -13.763 -14.415  28.101  1.00  0.00     0.008 C 
ATOM     19  C   UNL     1     -13.784 -16.549  26.776  1.00  0.00     0.008 C 
ENDBRANCH  12  17
ENDBRANCH  11  12
ENDBRANCH   1  11
TORSDOF 1
ENDMDL
MODEL 6
REMARK VINA RESULT:    -4.005      1.803      3.615
REMARK INTER + INTRA:          -6.121
REMARK INTER:                  -5.891
REMARK INTRA:                  -0.230
REMARK UNBOUND:                -0.010
REMARK SMILES CC1=CCC[C@@H](C)C(=O)C[C@H](C(C)C)C(=O)C1
REMARK SMILES IDX 8 1 9 2 6 3 7 4 5 5 4 6 3 7 2 8 1 9 10 11 11 12 15 13 16 14
REMARK SMILES IDX 17 15 12 17 13 18 14 19
REMARK H PARENT
REMARK Flexibility Score: 70.00
ROOT
ATOM      1  C   UNL     1     -13.254 -18.631  28.410  1.00  0.00     0.136 C 
ATOM      2  O   UNL     1     -14.363 -18.478  27.926  1.00  0.00    -0.299 OA
ENDROOT
BRANCH   1   3
ATOM      3  C   UNL     1     -12.986 -19.896  29.213  1.00  0.00     0.053 C 
ATOM      4  C   UNL     1     -13.884 -21.048  28.745  1.00  0.00     0.016 C 
BRANCH   3   5
ATOM      5  C   UNL     1     -13.133 -19.654  30.729  1.00  0.00     0.015 C 
BRANCH   5   6
ATOM      6  C   UNL     1     -11.774 -19.748  31.444  1.00  0.00     0.028 C 
BRANCH   6   7
ATOM      7  C   UNL     1     -11.477 -18.579  32.348  1.00  0.00    -0.028 C 
ATOM      8  C   UNL     1     -10.623 -17.555  32.089  1.00  0.00    -0.070 CG0
ATOM      9  C   UNL     1     -10.360 -16.581  33.212  1.00  0.00     0.039 C 
ATOM     10  G   UNL     1     -10.006 -17.259  30.725  1.00  0.00     0.000 G0
ENDBRANCH   6   7
ENDBRANCH   5   6
ENDBRANCH   3   5
ENDBRANCH   1   3
BRANCH   1  11
ATOM     11  C   UNL     1     -12.211 -17.542  28.249  1.00  0.00     0.087 C 
BRANCH  11  12
ATOM     12  C   UNL     1     -12.117 -16.499  29.403  1.00  0.00     0.066 C 
BRANCH  12  13
ATOM     13  C   UNL     1     -10.691 -16.224  29.862  1.00  0.00     0.140 C 
ATOM     14  O   UNL     1     -10.164 -15.144  29.642  1.00  0.00    -0.299 OA
BRANCH  13  15
ATOM     15  C   UNL     1      -9.983 -17.243  30.724  1.00  0.00     0.106 CG0
ATOM     16  G   UNL     1     -10.624 -17.530  32.079  1.00  0.00     0.000 G0
ENDBRANCH  13  15
ENDBRANCH  12  13
BRANCH  12  17
ATOM     17  C   UNL     1     -12.965 -15.195  29.221  1.00  0.00    -0.006 C 
ATOM     18  C   UNL     1     -13.704 -15.098  27.880  1.00  0.00     0.008 C 
ATOM     19  C   UNL     1     -13.960 -14.995  30.377  1.00  0.00     0.008 C 
ENDBRANCH  12  17
ENDBRANCH  11  12
ENDBRANCH   1  11
TORSDOF 1
ENDMDL
MODEL 7
REMARK VINA RESULT:    -3.885      1.439      4.008
REMARK INTER + INTRA:          -5.939
REMARK INTER:                  -6.511
REMARK INTRA:                   0.572
REMARK UNBOUND:                -0.010
REMARK SMILES CC1=CCC[C@@H](C)C(=O)C[C@H](C(C)C)C(=O)C1
REMARK SMILES IDX 8 1 9 2 6 3 7 4 5 5 4 6 3 7 2 8 1 9 10 11 11 12 15 13 16 14
REMARK SMILES IDX 17 15 12 17 13 18 14 19
REMARK H PARENT
REMARK Flexibility Score: 70.00
ROOT
ATOM      1  C   UNL     1     -12.978 -15.517  29.676  1.00  0.00     0.136 C 
ATOM      2  O   UNL     1     -13.925 -15.536  30.446  1.00  0.00    -0.299 OA
ENDROOT
BRANCH   1   3
ATOM      3  C   UNL     1     -13.214 -15.027  28.255  1.00  0.00     0.053 C 
ATOM      4  C   UNL     1     -14.348 -13.994  28.208  1.00  0.00     0.016 C 
BRANCH   3   5
ATOM      5  C   UNL     1     -13.482 -16.193  27.284  1.00  0.00     0.015 C 
BRANCH   5   6
ATOM      6  C   UNL     1     -12.523 -17.368  27.543  1.00  0.00     0.028 C 
BRANCH   6   7
ATOM      7  C   UNL     1     -13.205 -18.616  28.044  1.00  0.00    -0.028 C 
ATOM      8  C   UNL     1     -12.779 -19.417  29.053  1.00  0.00    -0.070 CG0
ATOM      9  C   UNL     1     -13.537 -20.705  29.271  1.00  0.00     0.039 C 
ATOM     10  G   UNL     1     -11.673 -19.061  30.043  1.00  0.00     0.000 G0
ENDBRANCH   6   7
ENDBRANCH   5   6
ENDBRANCH   3   5
ENDBRANCH   1   3
BRANCH   1  11
ATOM     11  C   UNL     1     -11.629 -16.032  30.139  1.00  0.00     0.087 C 
BRANCH  11  12
ATOM     12  C   UNL     1     -11.622 -16.862  31.458  1.00  0.00     0.066 C 
BRANCH  12  13
ATOM     13  C   UNL     1     -12.088 -18.301  31.275  1.00  0.00     0.140 C 
ATOM     14  O   UNL     1     -12.896 -18.796  32.047  1.00  0.00    -0.299 OA
BRANCH  13  15
ATOM     15  C   UNL     1     -11.659 -19.066  30.045  1.00  0.00     0.106 CG0
ATOM     16  G   UNL     1     -12.770 -19.426  29.063  1.00  0.00     0.000 G0
ENDBRANCH  13  15
ENDBRANCH  12  13
BRANCH  12  17
ATOM     17  C   UNL     1     -10.332 -16.742  32.338  1.00  0.00    -0.006 C 
ATOM     18  C   UNL     1     -10.314 -15.528  33.277  1.00  0.00     0.008 C 
ATOM     19  C   UNL     1     -10.071 -18.025  33.145  1.00  0.00     0.008 C 
ENDBRANCH  12  17
ENDBRANCH  11  12
ENDBRANCH   1  11
TORSDOF 1
ENDMDL
MODEL 8
REMARK VINA RESULT:    -3.726      1.729      3.237
REMARK INTER + INTRA:          -5.696
REMARK INTER:                  -7.240
REMARK INTRA:                   1.544
REMARK UNBOUND:                -0.010
REMARK SMILES CC1=CCC[C@@H](C)C(=O)C[C@H](C(C)C)C(=O)C1
REMARK SMILES IDX 8 1 9 2 6 3 7 4 5 5 4 6 3 7 2 8 1 9 10 11 11 12 15 13 16 14
REMARK SMILES IDX 17 15 12 17 13 18 14 19
REMARK H PARENT
REMARK Flexibility Score: 70.00
ROOT
ATOM      1  C   UNL     1     -13.112 -19.389  29.391  1.00  0.00     0.136 C 
ATOM      2  O   UNL     1     -14.056 -19.724  28.695  1.00  0.00    -0.299 OA
ENDROOT
BRANCH   1   3
ATOM      3  C   UNL     1     -13.168 -19.698  30.879  1.00  0.00     0.053 C 
ATOM      4  C   UNL     1     -13.783 -18.532  31.663  1.00  0.00     0.016 C 
BRANCH   3   5
ATOM      5  C   UNL     1     -11.782 -20.076  31.439  1.00  0.00     0.015 C 
BRANCH   5   6
ATOM      6  C   UNL     1     -10.745 -18.976  31.151  1.00  0.00     0.028 C 
BRANCH   6   7
ATOM      7  C   UNL     1     -10.622 -17.948  32.247  1.00  0.00    -0.028 C 
ATOM      8  C   UNL     1     -10.932 -16.630  32.155  1.00  0.00    -0.070 CG0
ATOM      9  C   UNL     1     -10.571 -15.757  33.334  1.00  0.00     0.039 C 
ATOM     10  G   UNL     1     -11.709 -15.995  31.006  1.00  0.00     0.000 G0
ENDBRANCH   6   7
ENDBRANCH   5   6
ENDBRANCH   3   5
ENDBRANCH   1   3
BRANCH   1  11
ATOM     11  C   UNL     1     -11.955 -18.632  28.766  1.00  0.00     0.087 C 
BRANCH  11  12
ATOM     12  C   UNL     1     -12.119 -17.086  28.660  1.00  0.00     0.066 C 
BRANCH  12  13
ATOM     13  C   UNL     1     -11.216 -16.310  29.610  1.00  0.00     0.140 C 
ATOM     14  O   UNL     1     -10.152 -15.852  29.221  1.00  0.00    -0.299 OA
BRANCH  13  15
ATOM     15  C   UNL     1     -11.712 -15.982  30.998  1.00  0.00     0.106 CG0
ATOM     16  G   UNL     1     -10.939 -16.617  32.151  1.00  0.00     0.000 G0
ENDBRANCH  13  15
ENDBRANCH  12  13
BRANCH  12  17
ATOM     17  C   UNL     1     -12.136 -16.495  27.210  1.00  0.00    -0.006 C 
ATOM     18  C   UNL     1     -11.376 -17.332  26.173  1.00  0.00     0.008 C 
ATOM     19  C   UNL     1     -13.569 -16.235  26.716  1.00  0.00     0.008 C 
ENDBRANCH  12  17
ENDBRANCH  11  12
ENDBRANCH   1  11
TORSDOF 1
ENDMDL
MODEL 9
REMARK VINA RESULT:    -3.497      2.095      4.709
REMARK INTER + INTRA:          -5.347
REMARK INTER:                  -6.035
REMARK INTRA:                   0.688
REMARK UNBOUND:                -0.010
REMARK SMILES CC1=CCC[C@@H](C)C(=O)C[C@H](C(C)C)C(=O)C1
REMARK SMILES IDX 8 1 9 2 6 3 7 4 5 5 4 6 3 7 2 8 1 9 10 11 11 12 15 13 16 14
REMARK SMILES IDX 17 15 12 17 13 18 14 19
REMARK H PARENT
REMARK Flexibility Score: 70.00
ROOT
ATOM      1  C   UNL     1     -13.363 -18.058  31.908  1.00  0.00     0.136 C 
ATOM      2  O   UNL     1     -14.003 -18.051  32.947  1.00  0.00    -0.299 OA
ENDROOT
BRANCH   1   3
ATOM      3  C   UNL     1     -13.211 -19.376  31.164  1.00  0.00     0.053 C 
ATOM      4  C   UNL     1     -12.531 -20.433  32.044  1.00  0.00     0.016 C 
BRANCH   3   5
ATOM      5  C   UNL     1     -12.464 -19.198  29.828  1.00  0.00     0.015 C 
BRANCH   5   6
ATOM      6  C   UNL     1     -13.423 -18.768  28.704  1.00  0.00     0.028 C 
BRANCH   6   7
ATOM      7  C   UNL     1     -12.736 -18.117  27.530  1.00  0.00    -0.028 C 
ATOM      8  C   UNL     1     -12.301 -16.833  27.461  1.00  0.00    -0.070 CG0
ATOM      9  C   UNL     1     -11.791 -16.354  26.123  1.00  0.00     0.039 C 
ATOM     10  G   UNL     1     -12.187 -15.885  28.652  1.00  0.00     0.000 G0
ENDBRANCH   6   7
ENDBRANCH   5   6
ENDBRANCH   3   5
ENDBRANCH   1   3
BRANCH   1  11
ATOM     11  C   UNL     1     -12.697 -16.781  31.432  1.00  0.00     0.087 C 
BRANCH  11  12
ATOM     12  C   UNL     1     -11.253 -16.926  30.864  1.00  0.00     0.066 C 
BRANCH  12  13
ATOM     13  C   UNL     1     -11.017 -16.129  29.588  1.00  0.00     0.140 C 
ATOM     14  O   UNL     1      -9.885 -15.805  29.258  1.00  0.00    -0.299 OA
BRANCH  13  15
ATOM     15  C   UNL     1     -12.175 -15.869  28.654  1.00  0.00     0.106 CG0
ATOM     16  G   UNL     1     -12.305 -16.825  27.472  1.00  0.00     0.000 G0
ENDBRANCH  13  15
ENDBRANCH  12  13
BRANCH  12  17
ATOM     17  C   UNL     1     -10.089 -16.780  31.903  1.00  0.00    -0.006 C 
ATOM     18  C   UNL     1     -10.120 -15.478  32.714  1.00  0.00     0.008 C 
ATOM     19  C   UNL     1     -10.023 -17.984  32.858  1.00  0.00     0.008 C 
ENDBRANCH  12  17
ENDBRANCH  11  12
ENDBRANCH   1  11
TORSDOF 1
ENDMDL
