MODEL 1
REMARK VINA RESULT:    -8.827      0.000      0.000
REMARK INTER + INTRA:          -9.085
REMARK INTER:                  -9.085
REMARK INTRA:                   0.000
REMARK UNBOUND:                 0.000
REMARK SMILES C[C@@H]1CC[C@@]2(OC1)O[C@H]1C[C@H]3[C@@H]4CC=C5C[C@@H](O)CC[C@@]5(C)[C@@H]4CC[C@@]3(C)[C@H]1[C@@H]2C
REMARK SMILES IDX 1 1 2 2 3 3 4 4 5 5 29 6 28 7 9 8 8 9 10 10 11 11 26 12
REMARK SMILES IDX 25 13 24 14 23 15 12 16 13 17 14 18 15 19 21 20 20 21 19 22
REMARK SMILES IDX 17 23 16 24 22 25 27 26 30 27 6 28 7 29 18 30
REMARK H PARENT 18 31
REMARK Flexibility Score: inf
ROOT
ATOM      1  C   UNL     1      21.729 -12.781  -6.624  1.00  0.00     0.010 C 
ATOM      2  C   UNL     1      22.755 -11.675  -6.351  1.00  0.00     0.012 C 
ATOM      3  C   UNL     1      22.604 -11.101  -4.923  1.00  0.00     0.011 C 
ATOM      4  C   UNL     1      21.756  -9.830  -4.935  1.00  0.00     0.066 C 
ATOM      5  C   UNL     1      22.370  -8.764  -5.903  1.00  0.00     0.171 C 
ATOM      6  C   UNL     1      23.195  -7.705  -5.109  1.00  0.00     0.052 C 
ATOM      7  C   UNL     1      22.681  -6.369  -5.648  1.00  0.00     0.033 C 
ATOM      8  C   UNL     1      21.756  -6.766  -6.777  1.00  0.00     0.126 C 
ATOM      9  O   UNL     1      21.310  -8.079  -6.540  1.00  0.00    -0.346 OA
ATOM     10  C   UNL     1      20.590  -5.779  -6.763  1.00  0.00     0.037 C 
ATOM     11  C   UNL     1      20.941  -4.712  -5.716  1.00  0.00     0.002 C 
ATOM     12  C   UNL     1      21.842  -5.452  -4.702  1.00  0.00    -0.024 C 
ATOM     13  C   UNL     1      20.962  -6.249  -3.691  1.00  0.00     0.008 C 
ATOM     14  C   UNL     1      19.898  -5.385  -3.015  1.00  0.00     0.005 C 
ATOM     15  C   UNL     1      18.914  -4.747  -4.023  1.00  0.00     0.003 C 
ATOM     16  C   UNL     1      19.666  -4.000  -5.164  1.00  0.00     0.000 C 
ATOM     17  C   UNL     1      19.894  -2.531  -4.774  1.00  0.00     0.031 C 
ATOM     18  C   UNL     1      18.544  -1.883  -4.675  1.00  0.00    -0.027 C 
ATOM     19  C   UNL     1      17.517  -2.547  -4.104  1.00  0.00    -0.065 C 
ATOM     20  C   UNL     1      17.771  -3.851  -3.331  1.00  0.00    -0.008 C 
ATOM     21  C   UNL     1      16.449  -4.671  -3.309  1.00  0.00     0.014 C 
ATOM     22  C   UNL     1      15.226  -3.901  -2.772  1.00  0.00     0.033 C 
ATOM     23  C   UNL     1      15.173  -2.407  -3.173  1.00  0.00     0.118 C 
ATOM     24  C   UNL     1      16.102  -2.066  -4.350  1.00  0.00     0.063 C 
ATOM     25  C   UNL     1      18.131  -3.435  -1.875  1.00  0.00     0.016 C 
ATOM     26  C   UNL     1      22.796  -4.488  -3.960  1.00  0.00     0.012 C 
ATOM     27  C   UNL     1      24.718  -7.840  -5.287  1.00  0.00     0.014 C 
ATOM     28  O   UNL     1      23.195  -9.355  -6.912  1.00  0.00    -0.349 OA
ATOM     29  C   UNL     1      22.639 -10.555  -7.408  1.00  0.00     0.167 C 
ENDROOT
BRANCH  23  30
ATOM     30  O   UNL     1      13.852  -2.063  -3.501  1.00  0.00    -0.393 OA
ATOM     31  H   UNL     1      13.367  -2.910  -3.681  1.00  0.00     0.210 HD
ENDBRANCH  23  30
TORSDOF 1
ENDMDL
MODEL 2
REMARK VINA RESULT:    -8.811      1.438      2.322
REMARK INTER + INTRA:          -9.068
REMARK INTER:                  -9.068
REMARK INTRA:                   0.000
REMARK UNBOUND:                 0.000
REMARK SMILES C[C@@H]1CC[C@@]2(OC1)O[C@H]1C[C@H]3[C@@H]4CC=C5C[C@@H](O)CC[C@@]5(C)[C@@H]4CC[C@@]3(C)[C@H]1[C@@H]2C
REMARK SMILES IDX 1 1 2 2 3 3 4 4 5 5 29 6 28 7 9 8 8 9 10 10 11 11 26 12
REMARK SMILES IDX 25 13 24 14 23 15 12 16 13 17 14 18 15 19 21 20 20 21 19 22
REMARK SMILES IDX 17 23 16 24 22 25 27 26 30 27 6 28 7 29 18 30
REMARK H PARENT 18 31
REMARK Flexibility Score: inf
ROOT
ATOM      1  C   UNL     1      20.627 -14.713  -5.248  1.00  0.00     0.010 C 
ATOM      2  C   UNL     1      21.895 -13.882  -5.481  1.00  0.00     0.012 C 
ATOM      3  C   UNL     1      22.189 -12.947  -4.285  1.00  0.00     0.011 C 
ATOM      4  C   UNL     1      21.642 -11.544  -4.545  1.00  0.00     0.066 C 
ATOM      5  C   UNL     1      22.233 -10.958  -5.871  1.00  0.00     0.171 C 
ATOM      6  C   UNL     1      23.416  -9.987  -5.569  1.00  0.00     0.052 C 
ATOM      7  C   UNL     1      23.083  -8.745  -6.397  1.00  0.00     0.033 C 
ATOM      8  C   UNL     1      21.868  -9.157  -7.198  1.00  0.00     0.126 C 
ATOM      9  O   UNL     1      21.223 -10.203  -6.512  1.00  0.00    -0.346 OA
ATOM     10  C   UNL     1      20.966  -7.928  -7.299  1.00  0.00     0.037 C 
ATOM     11  C   UNL     1      21.755  -6.762  -6.687  1.00  0.00     0.002 C 
ATOM     12  C   UNL     1      22.685  -7.431  -5.651  1.00  0.00    -0.024 C 
ATOM     13  C   UNL     1      21.907  -7.686  -4.324  1.00  0.00     0.008 C 
ATOM     14  C   UNL     1      21.224  -6.432  -3.782  1.00  0.00     0.005 C 
ATOM     15  C   UNL     1      20.194  -5.835  -4.769  1.00  0.00     0.003 C 
ATOM     16  C   UNL     1      20.812  -5.625  -6.184  1.00  0.00     0.000 C 
ATOM     17  C   UNL     1      21.421  -4.219  -6.291  1.00  0.00     0.031 C 
ATOM     18  C   UNL     1      20.291  -3.235  -6.182  1.00  0.00    -0.027 C 
ATOM     19  C   UNL     1      19.303  -3.440  -5.287  1.00  0.00    -0.065 C 
ATOM     20  C   UNL     1      19.446  -4.525  -4.208  1.00  0.00    -0.008 C 
ATOM     21  C   UNL     1      18.022  -4.937  -3.737  1.00  0.00     0.014 C 
ATOM     22  C   UNL     1      17.136  -3.763  -3.272  1.00  0.00     0.033 C 
ATOM     23  C   UNL     1      17.307  -2.459  -4.090  1.00  0.00     0.118 C 
ATOM     24  C   UNL     1      18.000  -2.684  -5.443  1.00  0.00     0.063 C 
ATOM     25  C   UNL     1      20.200  -3.865  -3.018  1.00  0.00     0.016 C 
ATOM     26  C   UNL     1      23.960  -6.595  -5.389  1.00  0.00     0.012 C 
ATOM     27  C   UNL     1      24.799 -10.557  -5.933  1.00  0.00     0.014 C 
ATOM     28  O   UNL     1      22.671 -11.979  -6.772  1.00  0.00    -0.349 OA
ATOM     29  C   UNL     1      21.782 -13.077  -6.794  1.00  0.00     0.167 C 
ENDROOT
BRANCH  23  30
ATOM     30  O   UNL     1      16.047  -1.875  -4.296  1.00  0.00    -0.393 OA
ATOM     31  H   UNL     1      15.441  -2.596  -4.612  1.00  0.00     0.210 HD
ENDBRANCH  23  30
TORSDOF 1
ENDMDL
MODEL 3
REMARK VINA RESULT:    -7.481      1.969      8.218
REMARK INTER + INTRA:          -7.699
REMARK INTER:                  -7.699
REMARK INTRA:                   0.000
REMARK UNBOUND:                 0.000
REMARK SMILES C[C@@H]1CC[C@@]2(OC1)O[C@H]1C[C@H]3[C@@H]4CC=C5C[C@@H](O)CC[C@@]5(C)[C@@H]4CC[C@@]3(C)[C@H]1[C@@H]2C
REMARK SMILES IDX 1 1 2 2 3 3 4 4 5 5 29 6 28 7 9 8 8 9 10 10 11 11 26 12
REMARK SMILES IDX 25 13 24 14 23 15 12 16 13 17 14 18 15 19 21 20 20 21 19 22
REMARK SMILES IDX 17 23 16 24 22 25 27 26 30 27 6 28 7 29 18 30
REMARK H PARENT 18 31
REMARK Flexibility Score: inf
ROOT
ATOM      1  C   UNL     1      14.836  -2.250  -3.750  1.00  0.00     0.010 C 
ATOM      2  C   UNL     1      16.217  -2.083  -3.105  1.00  0.00     0.012 C 
ATOM      3  C   UNL     1      17.319  -1.875  -4.168  1.00  0.00     0.011 C 
ATOM      4  C   UNL     1      18.016  -3.195  -4.493  1.00  0.00     0.066 C 
ATOM      5  C   UNL     1      18.607  -3.843  -3.195  1.00  0.00     0.171 C 
ATOM      6  C   UNL     1      20.134  -3.548  -3.075  1.00  0.00     0.052 C 
ATOM      7  C   UNL     1      20.743  -4.919  -2.781  1.00  0.00     0.033 C 
ATOM      8  C   UNL     1      19.541  -5.821  -2.604  1.00  0.00     0.126 C 
ATOM      9  O   UNL     1      18.456  -5.245  -3.290  1.00  0.00    -0.346 OA
ATOM     10  C   UNL     1      19.912  -7.177  -3.201  1.00  0.00     0.037 C 
ATOM     11  C   UNL     1      21.399  -7.092  -3.574  1.00  0.00     0.002 C 
ATOM     12  C   UNL     1      21.634  -5.595  -3.872  1.00  0.00    -0.024 C 
ATOM     13  C   UNL     1      21.183  -5.264  -5.328  1.00  0.00     0.008 C 
ATOM     14  C   UNL     1      21.818  -6.181  -6.372  1.00  0.00     0.005 C 
ATOM     15  C   UNL     1      21.475  -7.672  -6.150  1.00  0.00     0.003 C 
ATOM     16  C   UNL     1      21.777  -8.118  -4.688  1.00  0.00     0.000 C 
ATOM     17  C   UNL     1      23.215  -8.647  -4.583  1.00  0.00     0.031 C 
ATOM     18  C   UNL     1      23.293  -9.892  -5.420  1.00  0.00    -0.027 C 
ATOM     19  C   UNL     1      22.678  -9.937  -6.621  1.00  0.00    -0.065 C 
ATOM     20  C   UNL     1      22.115  -8.654  -7.252  1.00  0.00    -0.008 C 
ATOM     21  C   UNL     1      21.000  -9.054  -8.260  1.00  0.00     0.014 C 
ATOM     22  C   UNL     1      21.435 -10.086  -9.321  1.00  0.00     0.033 C 
ATOM     23  C   UNL     1      22.404 -11.178  -8.803  1.00  0.00     0.118 C 
ATOM     24  C   UNL     1      22.429 -11.282  -7.270  1.00  0.00     0.063 C 
ATOM     25  C   UNL     1      23.289  -7.997  -8.033  1.00  0.00     0.016 C 
ATOM     26  C   UNL     1      23.107  -5.181  -3.646  1.00  0.00     0.012 C 
ATOM     27  C   UNL     1      20.487  -2.524  -1.981  1.00  0.00     0.014 C 
ATOM     28  O   UNL     1      17.939  -3.397  -2.011  1.00  0.00    -0.349 OA
ATOM     29  C   UNL     1      16.543  -3.293  -2.203  1.00  0.00     0.167 C 
ENDROOT
BRANCH  23  30
ATOM     30  O   UNL     1      22.040 -12.417  -9.355  1.00  0.00    -0.393 OA
ATOM     31  H   UNL     1      21.074 -12.364  -9.577  1.00  0.00     0.210 HD
ENDBRANCH  23  30
TORSDOF 1
ENDMDL
MODEL 4
REMARK VINA RESULT:    -7.015      2.078      8.224
REMARK INTER + INTRA:          -7.220
REMARK INTER:                  -7.220
REMARK INTRA:                   0.000
REMARK UNBOUND:                 0.000
REMARK SMILES C[C@@H]1CC[C@@]2(OC1)O[C@H]1C[C@H]3[C@@H]4CC=C5C[C@@H](O)CC[C@@]5(C)[C@@H]4CC[C@@]3(C)[C@H]1[C@@H]2C
REMARK SMILES IDX 1 1 2 2 3 3 4 4 5 5 29 6 28 7 9 8 8 9 10 10 11 11 26 12
REMARK SMILES IDX 25 13 24 14 23 15 12 16 13 17 14 18 15 19 21 20 20 21 19 22
REMARK SMILES IDX 17 23 16 24 22 25 27 26 30 27 6 28 7 29 18 30
REMARK H PARENT 18 31
REMARK Flexibility Score: inf
ROOT
ATOM      1  C   UNL     1      16.175  -2.436  -1.875  1.00  0.00     0.010 C 
ATOM      2  C   UNL     1      17.143  -1.997  -2.981  1.00  0.00     0.012 C 
ATOM      3  C   UNL     1      16.960  -2.841  -4.263  1.00  0.00     0.011 C 
ATOM      4  C   UNL     1      17.975  -3.983  -4.310  1.00  0.00     0.066 C 
ATOM      5  C   UNL     1      19.436  -3.429  -4.209  1.00  0.00     0.171 C 
ATOM      6  C   UNL     1      20.095  -3.343  -5.620  1.00  0.00     0.052 C 
ATOM      7  C   UNL     1      21.453  -4.018  -5.425  1.00  0.00     0.033 C 
ATOM      8  C   UNL     1      21.519  -4.279  -3.937  1.00  0.00     0.126 C 
ATOM      9  O   UNL     1      20.203  -4.336  -3.442  1.00  0.00    -0.346 OA
ATOM     10  C   UNL     1      22.234  -5.617  -3.752  1.00  0.00     0.037 C 
ATOM     11  C   UNL     1      22.722  -6.040  -5.145  1.00  0.00     0.002 C 
ATOM     12  C   UNL     1      21.713  -5.394  -6.118  1.00  0.00    -0.024 C 
ATOM     13  C   UNL     1      20.435  -6.281  -6.226  1.00  0.00     0.008 C 
ATOM     14  C   UNL     1      20.746  -7.735  -6.576  1.00  0.00     0.005 C 
ATOM     15  C   UNL     1      21.653  -8.424  -5.531  1.00  0.00     0.003 C 
ATOM     16  C   UNL     1      22.933  -7.584  -5.240  1.00  0.00     0.000 C 
ATOM     17  C   UNL     1      24.065  -7.999  -6.192  1.00  0.00     0.031 C 
ATOM     18  C   UNL     1      24.421  -9.421  -5.866  1.00  0.00    -0.027 C 
ATOM     19  C   UNL     1      23.447 -10.316  -5.598  1.00  0.00    -0.065 C 
ATOM     20  C   UNL     1      21.975  -9.964  -5.868  1.00  0.00    -0.008 C 
ATOM     21  C   UNL     1      21.084 -10.862  -4.964  1.00  0.00     0.014 C 
ATOM     22  C   UNL     1      21.357 -12.374  -5.093  1.00  0.00     0.033 C 
ATOM     23  C   UNL     1      22.847 -12.749  -5.285  1.00  0.00     0.118 C 
ATOM     24  C   UNL     1      23.808 -11.612  -4.903  1.00  0.00     0.063 C 
ATOM     25  C   UNL     1      21.704 -10.322  -7.358  1.00  0.00     0.016 C 
ATOM     26  C   UNL     1      22.329  -5.146  -7.515  1.00  0.00     0.012 C 
ATOM     27  C   UNL     1      20.247  -1.905  -6.150  1.00  0.00     0.014 C 
ATOM     28  O   UNL     1      19.491  -2.147  -3.576  1.00  0.00    -0.349 OA
ATOM     29  C   UNL     1      18.602  -2.063  -2.481  1.00  0.00     0.167 C 
ENDROOT
BRANCH  23  30
ATOM     30  O   UNL     1      23.139 -13.890  -4.520  1.00  0.00    -0.393 OA
ATOM     31  H   UNL     1      24.067 -14.161  -4.744  1.00  0.00     0.210 HD
ENDBRANCH  23  30
TORSDOF 1
ENDMDL
MODEL 5
REMARK VINA RESULT:    -6.345      1.158      1.284
REMARK INTER + INTRA:          -6.530
REMARK INTER:                  -6.530
REMARK INTRA:                   0.000
REMARK UNBOUND:                 0.000
REMARK SMILES C[C@@H]1CC[C@@]2(OC1)O[C@H]1C[C@H]3[C@@H]4CC=C5C[C@@H](O)CC[C@@]5(C)[C@@H]4CC[C@@]3(C)[C@H]1[C@@H]2C
REMARK SMILES IDX 1 1 2 2 3 3 4 4 5 5 29 6 28 7 9 8 8 9 10 10 11 11 26 12
REMARK SMILES IDX 25 13 24 14 23 15 12 16 13 17 14 18 15 19 21 20 20 21 19 22
REMARK SMILES IDX 17 23 16 24 22 25 27 26 30 27 6 28 7 29 18 30
REMARK H PARENT 18 31
REMARK Flexibility Score: inf
ROOT
ATOM      1  C   UNL     1      21.768 -12.303  -9.329  1.00  0.00     0.010 C 
ATOM      2  C   UNL     1      22.814 -11.565  -8.485  1.00  0.00     0.012 C 
ATOM      3  C   UNL     1      22.426 -11.548  -6.989  1.00  0.00     0.011 C 
ATOM      4  C   UNL     1      21.721 -10.242  -6.625  1.00  0.00     0.066 C 
ATOM      5  C   UNL     1      22.619  -9.010  -6.985  1.00  0.00     0.171 C 
ATOM      6  C   UNL     1      23.357  -8.475  -5.720  1.00  0.00     0.052 C 
ATOM      7  C   UNL     1      23.092  -6.970  -5.757  1.00  0.00     0.033 C 
ATOM      8  C   UNL     1      22.387  -6.757  -7.078  1.00  0.00     0.126 C 
ATOM      9  O   UNL     1      21.781  -7.971  -7.453  1.00  0.00    -0.346 OA
ATOM     10  C   UNL     1      21.340  -5.668  -6.852  1.00  0.00     0.037 C 
ATOM     11  C   UNL     1      21.566  -5.142  -5.427  1.00  0.00     0.002 C 
ATOM     12  C   UNL     1      22.166  -6.344  -4.665  1.00  0.00    -0.024 C 
ATOM     13  C   UNL     1      21.026  -7.302  -4.201  1.00  0.00     0.008 C 
ATOM     14  C   UNL     1      19.932  -6.588  -3.410  1.00  0.00     0.005 C 
ATOM     15  C   UNL     1      19.239  -5.467  -4.220  1.00  0.00     0.003 C 
ATOM     16  C   UNL     1      20.277  -4.484  -4.841  1.00  0.00     0.000 C 
ATOM     17  C   UNL     1      20.556  -3.327  -3.870  1.00  0.00     0.031 C 
ATOM     18  C   UNL     1      19.280  -2.547  -3.730  1.00  0.00    -0.027 C 
ATOM     19  C   UNL     1      18.101  -3.195  -3.634  1.00  0.00    -0.065 C 
ATOM     20  C   UNL     1      18.067  -4.716  -3.413  1.00  0.00    -0.008 C 
ATOM     21  C   UNL     1      16.699  -5.253  -3.921  1.00  0.00     0.014 C 
ATOM     22  C   UNL     1      15.468  -4.547  -3.317  1.00  0.00     0.033 C 
ATOM     23  C   UNL     1      15.639  -3.024  -3.096  1.00  0.00     0.118 C 
ATOM     24  C   UNL     1      16.818  -2.430  -3.883  1.00  0.00     0.063 C 
ATOM     25  C   UNL     1      18.158  -4.938  -1.876  1.00  0.00     0.016 C 
ATOM     26  C   UNL     1      23.032  -5.898  -3.465  1.00  0.00     0.012 C 
ATOM     27  C   UNL     1      24.865  -8.785  -5.701  1.00  0.00     0.014 C 
ATOM     28  O   UNL     1      23.575  -9.311  -8.006  1.00  0.00    -0.349 OA
ATOM     29  C   UNL     1      23.024 -10.131  -9.016  1.00  0.00     0.167 C 
ENDROOT
BRANCH  23  30
ATOM     30  O   UNL     1      14.452  -2.369  -3.458  1.00  0.00    -0.393 OA
ATOM     31  H   UNL     1      14.668  -1.779  -4.228  1.00  0.00     0.210 HD
ENDBRANCH  23  30
TORSDOF 1
ENDMDL
