MODEL 1
REMARK VINA RESULT:    -4.038      0.000      0.000
REMARK INTER + INTRA:          -4.293
REMARK INTER:                  -4.275
REMARK INTRA:                  -0.018
REMARK UNBOUND:                -0.018
REMARK SMILES O=C([O-])c1cccnc1
REMARK SMILES IDX 4 1 5 2 9 3 6 4 8 5 7 6 2 7 1 8 3 9
REMARK H PARENT
REMARK Flexibility Score: inf
ROOT
ATOM      1  C   UNL     1      99.260  91.472  87.178  1.00  0.00     0.016 A 
ATOM      2  C   UNL     1      99.054  91.720  85.810  1.00  0.00     0.013 A 
ATOM      3  C   UNL     1      99.678  90.188  87.569  1.00  0.00     0.120 A 
ATOM      4  C   UNL     1      99.263  90.705  84.875  1.00  0.00     0.021 A 
ATOM      5  N   UNL     1      99.874  89.217  86.638  1.00  0.00    -0.264 NA
ATOM      6  C   UNL     1      99.678  89.446  85.313  1.00  0.00     0.111 A 
ENDROOT
BRANCH   1   7
ATOM      7  C   UNL     1      99.044  92.534  88.186  1.00  0.00     0.073 C 
ATOM      8  O   UNL     1      99.958  92.842  88.995  1.00  0.00    -0.545 OA
ATOM      9  O   UNL     1      97.829  93.205  88.251  1.00  0.00    -0.545 OA
ENDBRANCH   1   7
TORSDOF 1
ENDMDL
MODEL 2
REMARK VINA RESULT:    -4.013      2.295      2.966
REMARK INTER + INTRA:          -4.266
REMARK INTER:                  -4.242
REMARK INTRA:                  -0.024
REMARK UNBOUND:                -0.018
REMARK SMILES O=C([O-])c1cccnc1
REMARK SMILES IDX 4 1 5 2 9 3 6 4 8 5 7 6 2 7 1 8 3 9
REMARK H PARENT
REMARK Flexibility Score: inf
ROOT
ATOM      1  C   UNL     1      99.634  89.860  87.277  1.00  0.00     0.016 A 
ATOM      2  C   UNL     1      99.598  89.223  86.025  1.00  0.00     0.013 A 
ATOM      3  C   UNL     1      99.346  91.235  87.337  1.00  0.00     0.120 A 
ATOM      4  C   UNL     1      99.281  89.951  84.877  1.00  0.00     0.021 A 
ATOM      5  N   UNL     1      99.040  91.920  86.203  1.00  0.00    -0.264 NA
ATOM      6  C   UNL     1      99.002  91.314  84.987  1.00  0.00     0.111 A 
ENDROOT
BRANCH   1   7
ATOM      7  C   UNL     1      99.968  89.107  88.506  1.00  0.00     0.073 C 
ATOM      8  O   UNL     1     100.435  87.939  88.434  1.00  0.00    -0.545 OA
ATOM      9  O   UNL     1      99.770  89.678  89.758  1.00  0.00    -0.545 OA
ENDBRANCH   1   7
TORSDOF 1
ENDMDL
MODEL 3
REMARK VINA RESULT:    -3.948      1.917      2.591
REMARK INTER + INTRA:          -4.197
REMARK INTER:                  -4.174
REMARK INTRA:                  -0.023
REMARK UNBOUND:                -0.018
REMARK SMILES O=C([O-])c1cccnc1
REMARK SMILES IDX 4 1 5 2 9 3 6 4 8 5 7 6 2 7 1 8 3 9
REMARK H PARENT
REMARK Flexibility Score: inf
ROOT
ATOM      1  C   UNL     1      99.508  90.253  86.760  1.00  0.00     0.016 A 
ATOM      2  C   UNL     1     100.056  89.297  85.888  1.00  0.00     0.013 A 
ATOM      3  C   UNL     1      99.631  90.044  88.144  1.00  0.00     0.120 A 
ATOM      4  C   UNL     1     100.705  88.172  86.400  1.00  0.00     0.021 A 
ATOM      5  N   UNL     1     100.267  88.940  88.617  1.00  0.00    -0.264 NA
ATOM      6  C   UNL     1     100.801  88.009  87.782  1.00  0.00     0.111 A 
ENDROOT
BRANCH   1   7
ATOM      7  C   UNL     1      98.817  91.453  86.238  1.00  0.00     0.073 C 
ATOM      8  O   UNL     1      98.168  92.205  87.012  1.00  0.00    -0.545 OA
ATOM      9  O   UNL     1      98.875  91.766  84.884  1.00  0.00    -0.545 OA
ENDBRANCH   1   7
TORSDOF 1
ENDMDL
MODEL 4
REMARK VINA RESULT:    -3.922      1.242      1.873
REMARK INTER + INTRA:          -4.170
REMARK INTER:                  -4.150
REMARK INTRA:                  -0.020
REMARK UNBOUND:                -0.018
REMARK SMILES O=C([O-])c1cccnc1
REMARK SMILES IDX 4 1 5 2 9 3 6 4 8 5 7 6 2 7 1 8 3 9
REMARK H PARENT
REMARK Flexibility Score: inf
ROOT
ATOM      1  C   UNL     1      99.417  91.198  87.311  1.00  0.00     0.016 A 
ATOM      2  C   UNL     1     100.127  89.989  87.218  1.00  0.00     0.013 A 
ATOM      3  C   UNL     1      98.799  91.702  86.154  1.00  0.00     0.120 A 
ATOM      4  C   UNL     1     100.207  89.316  85.997  1.00  0.00     0.021 A 
ATOM      5  N   UNL     1      98.893  91.028  84.977  1.00  0.00    -0.264 NA
ATOM      6  C   UNL     1      99.577  89.858  84.875  1.00  0.00     0.111 A 
ENDROOT
BRANCH   1   7
ATOM      7  C   UNL     1      99.319  91.926  88.596  1.00  0.00     0.073 C 
ATOM      8  O   UNL     1      99.466  93.176  88.635  1.00  0.00    -0.545 OA
ATOM      9  O   UNL     1      99.062  91.239  89.777  1.00  0.00    -0.545 OA
ENDBRANCH   1   7
TORSDOF 1
ENDMDL
MODEL 5
REMARK VINA RESULT:    -3.880      2.542      3.526
REMARK INTER + INTRA:          -4.125
REMARK INTER:                  -4.109
REMARK INTRA:                  -0.016
REMARK UNBOUND:                -0.018
REMARK SMILES O=C([O-])c1cccnc1
REMARK SMILES IDX 4 1 5 2 9 3 6 4 8 5 7 6 2 7 1 8 3 9
REMARK H PARENT
REMARK Flexibility Score: inf
ROOT
ATOM      1  C   UNL     1     100.026  90.933  87.226  1.00  0.00     0.016 A 
ATOM      2  C   UNL     1      99.422  92.066  87.796  1.00  0.00     0.013 A 
ATOM      3  C   UNL     1     100.007  89.729  87.950  1.00  0.00     0.120 A 
ATOM      4  C   UNL     1      98.819  91.981  89.053  1.00  0.00     0.021 A 
ATOM      5  N   UNL     1      99.414  89.673  89.173  1.00  0.00    -0.264 NA
ATOM      6  C   UNL     1      98.826  90.763  89.734  1.00  0.00     0.111 A 
ENDROOT
BRANCH   1   7
ATOM      7  C   UNL     1     100.670  91.002  85.895  1.00  0.00     0.073 C 
ATOM      8  O   UNL     1     100.085  90.544  84.878  1.00  0.00    -0.545 OA
ATOM      9  O   UNL     1     101.929  91.573  85.751  1.00  0.00    -0.545 OA
ENDBRANCH   1   7
TORSDOF 1
ENDMDL
MODEL 6
REMARK VINA RESULT:    -3.848      2.910      3.798
REMARK INTER + INTRA:          -4.091
REMARK INTER:                  -4.070
REMARK INTRA:                  -0.022
REMARK UNBOUND:                -0.018
REMARK SMILES O=C([O-])c1cccnc1
REMARK SMILES IDX 4 1 5 2 9 3 6 4 8 5 7 6 2 7 1 8 3 9
REMARK H PARENT
REMARK Flexibility Score: inf
ROOT
ATOM      1  C   UNL     1      99.826  89.899  87.327  1.00  0.00     0.016 A 
ATOM      2  C   UNL     1      99.388  91.234  87.297  1.00  0.00     0.013 A 
ATOM      3  C   UNL     1      99.909  89.251  88.572  1.00  0.00     0.120 A 
ATOM      4  C   UNL     1      99.046  91.887  88.483  1.00  0.00     0.021 A 
ATOM      5  N   UNL     1      99.570  89.910  89.712  1.00  0.00    -0.264 NA
ATOM      6  C   UNL     1      99.146  91.201  89.694  1.00  0.00     0.111 A 
ENDROOT
BRANCH   1   7
ATOM      7  C   UNL     1     100.192  89.189  86.082  1.00  0.00     0.073 C 
ATOM      8  O   UNL     1     101.051  88.268  86.100  1.00  0.00    -0.545 OA
ATOM      9  O   UNL     1      99.591  89.529  84.875  1.00  0.00    -0.545 OA
ENDBRANCH   1   7
TORSDOF 1
ENDMDL
MODEL 7
REMARK VINA RESULT:    -3.814      2.327      3.114
REMARK INTER + INTRA:          -4.056
REMARK INTER:                  -4.033
REMARK INTRA:                  -0.023
REMARK UNBOUND:                -0.018
REMARK SMILES O=C([O-])c1cccnc1
REMARK SMILES IDX 4 1 5 2 9 3 6 4 8 5 7 6 2 7 1 8 3 9
REMARK H PARENT
REMARK Flexibility Score: inf
ROOT
ATOM      1  C   UNL     1      99.377  90.547  89.073  1.00  0.00     0.016 A 
ATOM      2  C   UNL     1      98.874  91.858  89.028  1.00  0.00     0.013 A 
ATOM      3  C   UNL     1      99.618  89.881  87.859  1.00  0.00     0.120 A 
ATOM      4  C   UNL     1      98.625  92.471  87.798  1.00  0.00     0.021 A 
ATOM      5  N   UNL     1      99.367  90.500  86.675  1.00  0.00    -0.264 NA
ATOM      6  C   UNL     1      98.880  91.768  86.620  1.00  0.00     0.111 A 
ENDROOT
BRANCH   1   7
ATOM      7  C   UNL     1      99.648  89.880  90.366  1.00  0.00     0.073 C 
ATOM      8  O   UNL     1     100.431  88.895  90.425  1.00  0.00    -0.545 OA
ATOM      9  O   UNL     1      99.043  90.332  91.532  1.00  0.00    -0.545 OA
ENDBRANCH   1   7
TORSDOF 1
ENDMDL
MODEL 8
REMARK VINA RESULT:    -3.727      3.423      4.583
REMARK INTER + INTRA:          -3.963
REMARK INTER:                  -3.940
REMARK INTRA:                  -0.023
REMARK UNBOUND:                -0.018
REMARK SMILES O=C([O-])c1cccnc1
REMARK SMILES IDX 4 1 5 2 9 3 6 4 8 5 7 6 2 7 1 8 3 9
REMARK H PARENT
REMARK Flexibility Score: inf
ROOT
ATOM      1  C   UNL     1      99.473  90.073  89.677  1.00  0.00     0.016 A 
ATOM      2  C   UNL     1      98.551  90.623  90.584  1.00  0.00     0.013 A 
ATOM      3  C   UNL     1     100.335  89.060  90.132  1.00  0.00     0.120 A 
ATOM      4  C   UNL     1      98.505  90.163  91.902  1.00  0.00     0.021 A 
ATOM      5  N   UNL     1     100.269  88.630  91.420  1.00  0.00    -0.264 NA
ATOM      6  C   UNL     1      99.382  89.155  92.306  1.00  0.00     0.111 A 
ENDROOT
BRANCH   1   7
ATOM      7  C   UNL     1      99.538  90.545  88.277  1.00  0.00     0.073 C 
ATOM      8  O   UNL     1      99.056  91.663  87.956  1.00  0.00    -0.545 OA
ATOM      9  O   UNL     1     100.135  89.761  87.296  1.00  0.00    -0.545 OA
ENDBRANCH   1   7
TORSDOF 1
ENDMDL
