MODEL 1
REMARK VINA RESULT:    -3.653      0.000      0.000
REMARK INTER + INTRA:          -6.089
REMARK INTER:                  -5.575
REMARK INTRA:                  -0.514
REMARK UNBOUND:                -0.514
REMARK SMILES CC1=CCC[C@@H](C)C(=O)C[C@@H](C(C)C)C(=O)C1
REMARK SMILES IDX 8 1 9 2 6 3 7 4 5 5 4 6 3 7 2 8 1 9 10 11 11 12 15 13 16 14
REMARK SMILES IDX 17 15 12 17 13 18 14 19
REMARK H PARENT
REMARK Flexibility Score: 70.00
ROOT
ATOM      1  C   UNL     1     -14.963  -4.865   7.983  1.00  0.00     0.136 C 
ATOM      2  O   UNL     1     -14.182  -4.629   8.896  1.00  0.00    -0.299 OA
ENDROOT
BRANCH   1   3
ATOM      3  C   UNL     1     -15.027  -6.266   7.386  1.00  0.00     0.053 C 
ATOM      4  C   UNL     1     -15.561  -7.305   8.387  1.00  0.00     0.016 C 
BRANCH   3   5
ATOM      5  C   UNL     1     -13.637  -6.708   6.846  1.00  0.00     0.015 C 
BRANCH   5   6
ATOM      6  C   UNL     1     -13.261  -6.217   5.431  1.00  0.00     0.028 C 
BRANCH   6   7
ATOM      7  C   UNL     1     -12.340  -5.021   5.300  1.00  0.00    -0.028 C 
ATOM      8  C   UNL     1     -12.673  -3.764   4.918  1.00  0.00    -0.070 CG0
ATOM      9  C   UNL     1     -11.624  -2.690   5.086  1.00  0.00     0.039 C 
ATOM     10  G   UNL     1     -13.994  -3.376   4.269  1.00  0.00     0.000 G0
ENDBRANCH   6   7
ENDBRANCH   5   6
ENDBRANCH   3   5
ENDBRANCH   1   3
BRANCH   1  11
ATOM     11  C   UNL     1     -15.866  -3.740   7.503  1.00  0.00     0.087 C 
BRANCH  11  12
ATOM     12  C   UNL     1     -16.035  -3.684   5.965  1.00  0.00     0.066 C 
BRANCH  12  13
ATOM     13  C   UNL     1     -15.007  -2.828   5.228  1.00  0.00     0.140 C 
ATOM     14  O   UNL     1     -14.964  -1.639   5.515  1.00  0.00    -0.299 OA
BRANCH  13  15
ATOM     15  C   UNL     1     -13.982  -3.369   4.239  1.00  0.00     0.106 CG0
ATOM     16  G   UNL     1     -12.694  -3.766   4.945  1.00  0.00     0.000 G0
ENDBRANCH  13  15
ENDBRANCH  12  13
BRANCH  12  17
ATOM     17  C   UNL     1     -17.500  -3.336   5.556  1.00  0.00    -0.006 C 
ATOM     18  C   UNL     1     -17.765  -3.435   4.045  1.00  0.00     0.008 C 
ATOM     19  C   UNL     1     -18.523  -4.187   6.325  1.00  0.00     0.008 C 
ENDBRANCH  12  17
ENDBRANCH  11  12
ENDBRANCH   1  11
TORSDOF 1
ENDMDL
MODEL 2
REMARK VINA RESULT:    -3.622      1.696      4.187
REMARK INTER + INTRA:          -6.041
REMARK INTER:                  -5.939
REMARK INTRA:                  -0.102
REMARK UNBOUND:                -0.514
REMARK SMILES CC1=CCC[C@@H](C)C(=O)C[C@@H](C(C)C)C(=O)C1
REMARK SMILES IDX 8 1 9 2 6 3 7 4 5 5 4 6 3 7 2 8 1 9 10 11 11 12 15 13 16 14
REMARK SMILES IDX 17 15 12 17 13 18 14 19
REMARK H PARENT
REMARK Flexibility Score: 70.00
ROOT
ATOM      1  C   UNL     1     -14.366  -3.627   7.305  1.00  0.00     0.136 C 
ATOM      2  O   UNL     1     -13.963  -2.977   8.260  1.00  0.00    -0.299 OA
ENDROOT
BRANCH   1   3
ATOM      3  C   UNL     1     -15.465  -4.665   7.506  1.00  0.00     0.053 C 
ATOM      4  C   UNL     1     -15.149  -5.996   6.803  1.00  0.00     0.016 C 
BRANCH   3   5
ATOM      5  C   UNL     1     -16.841  -4.120   7.030  1.00  0.00     0.015 C 
BRANCH   5   6
ATOM      6  C   UNL     1     -17.251  -4.458   5.580  1.00  0.00     0.028 C 
BRANCH   6   7
ATOM      7  C   UNL     1     -17.801  -3.350   4.706  1.00  0.00    -0.028 C 
ATOM      8  C   UNL     1     -17.140  -2.645   3.756  1.00  0.00    -0.070 CG0
ATOM      9  C   UNL     1     -17.964  -1.751   2.860  1.00  0.00     0.039 C 
ATOM     10  G   UNL     1     -15.628  -2.637   3.578  1.00  0.00     0.000 G0
ENDBRANCH   6   7
ENDBRANCH   5   6
ENDBRANCH   3   5
ENDBRANCH   1   3
BRANCH   1  11
ATOM     11  C   UNL     1     -13.764  -3.343   5.938  1.00  0.00     0.087 C 
BRANCH  11  12
ATOM     12  C   UNL     1     -13.882  -1.863   5.496  1.00  0.00     0.066 C 
BRANCH  12  13
ATOM     13  C   UNL     1     -14.985  -1.575   4.479  1.00  0.00     0.140 C 
ATOM     14  O   UNL     1     -15.326  -0.408   4.344  1.00  0.00    -0.299 OA
BRANCH  13  15
ATOM     15  C   UNL     1     -15.614  -2.622   3.568  1.00  0.00     0.106 CG0
ATOM     16  G   UNL     1     -17.128  -2.652   3.730  1.00  0.00     0.000 G0
ENDBRANCH  13  15
ENDBRANCH  12  13
BRANCH  12  17
ATOM     17  C   UNL     1     -12.503  -1.279   5.057  1.00  0.00    -0.006 C 
ATOM     18  C   UNL     1     -12.013  -0.115   5.934  1.00  0.00     0.008 C 
ATOM     19  C   UNL     1     -11.422  -2.368   4.979  1.00  0.00     0.008 C 
ENDBRANCH  12  17
ENDBRANCH  11  12
ENDBRANCH   1  11
TORSDOF 1
ENDMDL
MODEL 3
REMARK VINA RESULT:    -3.586      1.963      3.926
REMARK INTER + INTRA:          -5.987
REMARK INTER:                  -6.016
REMARK INTRA:                   0.029
REMARK UNBOUND:                -0.514
REMARK SMILES CC1=CCC[C@@H](C)C(=O)C[C@@H](C(C)C)C(=O)C1
REMARK SMILES IDX 8 1 9 2 6 3 7 4 5 5 4 6 3 7 2 8 1 9 10 11 11 12 15 13 16 14
REMARK SMILES IDX 17 15 12 17 13 18 14 19
REMARK H PARENT
REMARK Flexibility Score: 70.00
ROOT
ATOM      1  C   UNL     1     -14.593  -3.393   7.236  1.00  0.00     0.136 C 
ATOM      2  O   UNL     1     -13.932  -2.943   8.162  1.00  0.00    -0.299 OA
ENDROOT
BRANCH   1   3
ATOM      3  C   UNL     1     -14.274  -2.970   5.805  1.00  0.00     0.053 C 
ATOM      4  C   UNL     1     -13.884  -1.486   5.706  1.00  0.00     0.016 C 
BRANCH   3   5
ATOM      5  C   UNL     1     -15.466  -3.276   4.854  1.00  0.00     0.015 C 
BRANCH   5   6
ATOM      6  C   UNL     1     -15.236  -4.374   3.793  1.00  0.00     0.028 C 
BRANCH   6   7
ATOM      7  C   UNL     1     -13.943  -5.163   3.835  1.00  0.00    -0.028 C 
ATOM      8  C   UNL     1     -13.706  -6.317   4.504  1.00  0.00    -0.070 CG0
ATOM      9  C   UNL     1     -12.409  -7.033   4.206  1.00  0.00     0.039 C 
ATOM     10  G   UNL     1     -14.613  -6.900   5.578  1.00  0.00     0.000 G0
ENDBRANCH   6   7
ENDBRANCH   5   6
ENDBRANCH   3   5
ENDBRANCH   1   3
BRANCH   1  11
ATOM     11  C   UNL     1     -15.695  -4.389   7.558  1.00  0.00     0.087 C 
BRANCH  11  12
ATOM     12  C   UNL     1     -15.176  -5.789   7.967  1.00  0.00     0.066 C 
BRANCH  12  13
ATOM     13  C   UNL     1     -14.221  -6.444   6.971  1.00  0.00     0.140 C 
ATOM     14  O   UNL     1     -13.084  -6.677   7.361  1.00  0.00    -0.299 OA
BRANCH  13  15
ATOM     15  C   UNL     1     -14.614  -6.906   5.573  1.00  0.00     0.106 CG0
ATOM     16  G   UNL     1     -13.690  -6.311   4.519  1.00  0.00     0.000 G0
ENDBRANCH  13  15
ENDBRANCH  12  13
BRANCH  12  17
ATOM     17  C   UNL     1     -16.342  -6.739   8.384  1.00  0.00    -0.006 C 
ATOM     18  C   UNL     1     -17.527  -6.737   7.404  1.00  0.00     0.008 C 
ATOM     19  C   UNL     1     -15.851  -8.178   8.610  1.00  0.00     0.008 C 
ENDBRANCH  12  17
ENDBRANCH  11  12
ENDBRANCH   1  11
TORSDOF 1
ENDMDL
MODEL 4
REMARK VINA RESULT:    -3.464      2.177      5.181
REMARK INTER + INTRA:          -5.800
REMARK INTER:                  -5.417
REMARK INTRA:                  -0.383
REMARK UNBOUND:                -0.514
REMARK SMILES CC1=CCC[C@@H](C)C(=O)C[C@@H](C(C)C)C(=O)C1
REMARK SMILES IDX 8 1 9 2 6 3 7 4 5 5 4 6 3 7 2 8 1 9 10 11 11 12 15 13 16 14
REMARK SMILES IDX 17 15 12 17 13 18 14 19
REMARK H PARENT
REMARK Flexibility Score: 70.00
ROOT
ATOM      1  C   UNL     1     -14.787  -2.574   5.846  1.00  0.00     0.136 C 
ATOM      2  O   UNL     1     -14.619  -1.560   6.510  1.00  0.00    -0.299 OA
ENDROOT
BRANCH   1   3
ATOM      3  C   UNL     1     -15.888  -2.614   4.791  1.00  0.00     0.053 C 
ATOM      4  C   UNL     1     -15.802  -1.432   3.812  1.00  0.00     0.016 C 
BRANCH   3   5
ATOM      5  C   UNL     1     -17.294  -2.661   5.453  1.00  0.00     0.015 C 
BRANCH   5   6
ATOM      6  C   UNL     1     -17.899  -4.063   5.683  1.00  0.00     0.028 C 
BRANCH   6   7
ATOM      7  C   UNL     1     -18.113  -4.536   7.106  1.00  0.00    -0.028 C 
ATOM      8  C   UNL     1     -17.403  -5.475   7.777  1.00  0.00    -0.070 CG0
ATOM      9  C   UNL     1     -17.661  -5.607   9.260  1.00  0.00     0.039 C 
ATOM     10  G   UNL     1     -16.426  -6.447   7.133  1.00  0.00     0.000 G0
ENDBRANCH   6   7
ENDBRANCH   5   6
ENDBRANCH   3   5
ENDBRANCH   1   3
BRANCH   1  11
ATOM     11  C   UNL     1     -13.857  -3.753   6.088  1.00  0.00     0.087 C 
BRANCH  11  12
ATOM     12  C   UNL     1     -14.503  -5.131   5.804  1.00  0.00     0.066 C 
BRANCH  12  13
ATOM     13  C   UNL     1     -15.025  -5.871   7.034  1.00  0.00     0.140 C 
ATOM     14  O   UNL     1     -14.289  -5.915   8.011  1.00  0.00    -0.299 OA
BRANCH  13  15
ATOM     15  C   UNL     1     -16.421  -6.469   7.154  1.00  0.00     0.106 CG0
ATOM     16  G   UNL     1     -17.391  -5.478   7.781  1.00  0.00     0.000 G0
ENDBRANCH  13  15
ENDBRANCH  12  13
BRANCH  12  17
ATOM     17  C   UNL     1     -13.585  -6.028   4.917  1.00  0.00    -0.006 C 
ATOM     18  C   UNL     1     -14.004  -6.076   3.438  1.00  0.00     0.008 C 
ATOM     19  C   UNL     1     -12.108  -5.620   5.031  1.00  0.00     0.008 C 
ENDBRANCH  12  17
ENDBRANCH  11  12
ENDBRANCH   1  11
TORSDOF 1
ENDMDL
MODEL 5
REMARK VINA RESULT:    -3.410      2.660      4.895
REMARK INTER + INTRA:          -5.717
REMARK INTER:                  -5.119
REMARK INTRA:                  -0.598
REMARK UNBOUND:                -0.514
REMARK SMILES CC1=CCC[C@@H](C)C(=O)C[C@@H](C(C)C)C(=O)C1
REMARK SMILES IDX 8 1 9 2 6 3 7 4 5 5 4 6 3 7 2 8 1 9 10 11 11 12 15 13 16 14
REMARK SMILES IDX 17 15 12 17 13 18 14 19
REMARK H PARENT
REMARK Flexibility Score: 70.00
ROOT
ATOM      1  C   UNL     1     -14.172  -6.854   6.989  1.00  0.00     0.136 C 
ATOM      2  O   UNL     1     -12.982  -6.666   7.204  1.00  0.00    -0.299 OA
ENDROOT
BRANCH   1   3
ATOM      3  C   UNL     1     -14.740  -6.590   5.599  1.00  0.00     0.053 C 
ATOM      4  C   UNL     1     -14.248  -7.612   4.561  1.00  0.00     0.016 C 
BRANCH   3   5
ATOM      5  C   UNL     1     -14.412  -5.146   5.127  1.00  0.00     0.015 C 
BRANCH   5   6
ATOM      6  C   UNL     1     -15.013  -3.995   5.963  1.00  0.00     0.028 C 
BRANCH   6   7
ATOM      7  C   UNL     1     -16.521  -3.875   6.053  1.00  0.00    -0.028 C 
ATOM      8  C   UNL     1     -17.298  -4.067   7.147  1.00  0.00    -0.070 CG0
ATOM      9  C   UNL     1     -18.750  -3.664   7.041  1.00  0.00     0.039 C 
ATOM     10  G   UNL     1     -16.830  -4.723   8.438  1.00  0.00     0.000 G0
ENDBRANCH   6   7
ENDBRANCH   5   6
ENDBRANCH   3   5
ENDBRANCH   1   3
BRANCH   1  11
ATOM     11  C   UNL     1     -15.032  -7.380   8.128  1.00  0.00     0.087 C 
BRANCH  11  12
ATOM     12  C   UNL     1     -16.553  -7.326   7.842  1.00  0.00     0.066 C 
BRANCH  12  13
ATOM     13  C   UNL     1     -17.299  -6.171   8.506  1.00  0.00     0.140 C 
ATOM     14  O   UNL     1     -18.272  -6.456   9.191  1.00  0.00    -0.299 OA
BRANCH  13  15
ATOM     15  C   UNL     1     -16.859  -4.712   8.448  1.00  0.00     0.106 CG0
ATOM     16  G   UNL     1     -17.306  -4.056   7.150  1.00  0.00     0.000 G0
ENDBRANCH  13  15
ENDBRANCH  12  13
BRANCH  12  17
ATOM     17  C   UNL     1     -17.239  -8.703   8.101  1.00  0.00    -0.006 C 
ATOM     18  C   UNL     1     -18.099  -9.201   6.928  1.00  0.00     0.008 C 
ATOM     19  C   UNL     1     -16.219  -9.782   8.499  1.00  0.00     0.008 C 
ENDBRANCH  12  17
ENDBRANCH  11  12
ENDBRANCH   1  11
TORSDOF 1
ENDMDL
MODEL 6
REMARK VINA RESULT:    -3.310      2.163      4.675
REMARK INTER + INTRA:          -5.566
REMARK INTER:                  -5.342
REMARK INTRA:                  -0.223
REMARK UNBOUND:                -0.514
REMARK SMILES CC1=CCC[C@@H](C)C(=O)C[C@@H](C(C)C)C(=O)C1
REMARK SMILES IDX 8 1 9 2 6 3 7 4 5 5 4 6 3 7 2 8 1 9 10 11 11 12 15 13 16 14
REMARK SMILES IDX 17 15 12 17 13 18 14 19
REMARK H PARENT
REMARK Flexibility Score: 70.00
ROOT
ATOM      1  C   UNL     1     -14.485  -3.760   7.443  1.00  0.00     0.136 C 
ATOM      2  O   UNL     1     -13.843  -2.939   8.084  1.00  0.00    -0.299 OA
ENDROOT
BRANCH   1   3
ATOM      3  C   UNL     1     -14.548  -3.652   5.923  1.00  0.00     0.053 C 
ATOM      4  C   UNL     1     -13.173  -3.852   5.265  1.00  0.00     0.016 C 
BRANCH   3   5
ATOM      5  C   UNL     1     -15.159  -2.290   5.485  1.00  0.00     0.015 C 
BRANCH   5   6
ATOM      6  C   UNL     1     -16.464  -2.355   4.663  1.00  0.00     0.028 C 
BRANCH   6   7
ATOM      7  C   UNL     1     -17.074  -3.711   4.376  1.00  0.00    -0.028 C 
ATOM      8  C   UNL     1     -17.973  -4.386   5.133  1.00  0.00    -0.070 CG0
ATOM      9  C   UNL     1     -18.605  -5.615   4.523  1.00  0.00     0.039 C 
ATOM     10  G   UNL     1     -18.333  -4.036   6.570  1.00  0.00     0.000 G0
ENDBRANCH   6   7
ENDBRANCH   5   6
ENDBRANCH   3   5
ENDBRANCH   1   3
BRANCH   1  11
ATOM     11  C   UNL     1     -15.174  -4.884   8.202  1.00  0.00     0.087 C 
BRANCH  11  12
ATOM     12  C   UNL     1     -16.298  -5.585   7.401  1.00  0.00     0.066 C 
BRANCH  12  13
ATOM     13  C   UNL     1     -17.691  -4.981   7.570  1.00  0.00     0.140 C 
ATOM     14  O   UNL     1     -18.283  -5.229   8.612  1.00  0.00    -0.299 OA
BRANCH  13  15
ATOM     15  C   UNL     1     -18.344  -4.026   6.578  1.00  0.00     0.106 CG0
ATOM     16  G   UNL     1     -17.963  -4.375   5.147  1.00  0.00     0.000 G0
ENDBRANCH  13  15
ENDBRANCH  12  13
BRANCH  12  17
ATOM     17  C   UNL     1     -16.290  -7.130   7.623  1.00  0.00    -0.006 C 
ATOM     18  C   UNL     1     -16.008  -7.940   6.347  1.00  0.00     0.008 C 
ATOM     19  C   UNL     1     -15.309  -7.540   8.732  1.00  0.00     0.008 C 
ENDBRANCH  12  17
ENDBRANCH  11  12
ENDBRANCH   1  11
TORSDOF 1
ENDMDL
MODEL 7
REMARK VINA RESULT:    -3.290     13.975     16.301
REMARK INTER + INTRA:          -5.534
REMARK INTER:                  -5.140
REMARK INTRA:                  -0.394
REMARK UNBOUND:                -0.514
REMARK SMILES CC1=CCC[C@@H](C)C(=O)C[C@@H](C(C)C)C(=O)C1
REMARK SMILES IDX 8 1 9 2 6 3 7 4 5 5 4 6 3 7 2 8 1 9 10 11 11 12 15 13 16 14
REMARK SMILES IDX 17 15 12 17 13 18 14 19
REMARK H PARENT
REMARK Flexibility Score: 70.00
ROOT
ATOM      1  C   UNL     1      -5.921   5.365  11.056  1.00  0.00     0.136 C 
ATOM      2  O   UNL     1      -7.070   4.964  11.178  1.00  0.00    -0.299 OA
ENDROOT
BRANCH   1   3
ATOM      3  C   UNL     1      -5.092   4.932   9.850  1.00  0.00     0.053 C 
ATOM      4  C   UNL     1      -5.969   4.490   8.666  1.00  0.00     0.016 C 
BRANCH   3   5
ATOM      5  C   UNL     1      -4.098   3.800  10.233  1.00  0.00     0.015 C 
BRANCH   5   6
ATOM      6  C   UNL     1      -2.603   4.185  10.281  1.00  0.00     0.028 C 
BRANCH   6   7
ATOM      7  C   UNL     1      -1.897   4.183  11.621  1.00  0.00    -0.028 C 
ATOM      8  C   UNL     1      -1.617   5.252  12.405  1.00  0.00    -0.070 CG0
ATOM      9  C   UNL     1      -1.111   4.971  13.801  1.00  0.00     0.039 C 
ATOM     10  G   UNL     1      -1.705   6.703  11.956  1.00  0.00     0.000 G0
ENDBRANCH   6   7
ENDBRANCH   5   6
ENDBRANCH   3   5
ENDBRANCH   1   3
BRANCH   1  11
ATOM     11  C   UNL     1      -5.376   6.313  12.112  1.00  0.00     0.087 C 
BRANCH  11  12
ATOM     12  C   UNL     1      -4.312   7.304  11.577  1.00  0.00     0.066 C 
BRANCH  12  13
ATOM     13  C   UNL     1      -3.015   7.361  12.381  1.00  0.00     0.140 C 
ATOM     14  O   UNL     1      -3.063   7.897  13.480  1.00  0.00    -0.299 OA
BRANCH  13  15
ATOM     15  C   UNL     1      -1.702   6.718  11.948  1.00  0.00     0.106 CG0
ATOM     16  G   UNL     1      -1.621   5.271  12.410  1.00  0.00     0.000 G0
ENDBRANCH  13  15
ENDBRANCH  12  13
BRANCH  12  17
ATOM     17  C   UNL     1      -4.916   8.720  11.324  1.00  0.00    -0.006 C 
ATOM     18  C   UNL     1      -4.676   9.254   9.903  1.00  0.00     0.008 C 
ATOM     19  C   UNL     1      -6.416   8.767  11.655  1.00  0.00     0.008 C 
ENDBRANCH  12  17
ENDBRANCH  11  12
ENDBRANCH   1  11
TORSDOF 1
ENDMDL
MODEL 8
REMARK VINA RESULT:    -3.285     16.748     19.027
REMARK INTER + INTRA:          -5.528
REMARK INTER:                  -5.115
REMARK INTRA:                  -0.413
REMARK UNBOUND:                -0.514
REMARK SMILES CC1=CCC[C@@H](C)C(=O)C[C@@H](C(C)C)C(=O)C1
REMARK SMILES IDX 8 1 9 2 6 3 7 4 5 5 4 6 3 7 2 8 1 9 10 11 11 12 15 13 16 14
REMARK SMILES IDX 17 15 12 17 13 18 14 19
REMARK H PARENT
REMARK Flexibility Score: 70.00
ROOT
ATOM      1  C   UNL     1      -0.668   6.282  15.008  1.00  0.00     0.136 C 
ATOM      2  O   UNL     1      -0.063   6.123  16.059  1.00  0.00    -0.299 OA
ENDROOT
BRANCH   1   3
ATOM      3  C   UNL     1      -1.237   5.073  14.272  1.00  0.00     0.053 C 
ATOM      4  C   UNL     1      -0.902   3.748  14.977  1.00  0.00     0.016 C 
BRANCH   3   5
ATOM      5  C   UNL     1      -0.746   5.034  12.797  1.00  0.00     0.015 C 
BRANCH   5   6
ATOM      6  C   UNL     1      -1.805   5.328  11.712  1.00  0.00     0.028 C 
BRANCH   6   7
ATOM      7  C   UNL     1      -3.227   5.614  12.146  1.00  0.00    -0.028 C 
ATOM      8  C   UNL     1      -3.808   6.827  12.316  1.00  0.00    -0.070 CG0
ATOM      9  C   UNL     1      -5.303   6.854  12.531  1.00  0.00     0.039 C 
ATOM     10  G   UNL     1      -3.053   8.148  12.379  1.00  0.00     0.000 G0
ENDBRANCH   6   7
ENDBRANCH   5   6
ENDBRANCH   3   5
ENDBRANCH   1   3
BRANCH   1  11
ATOM     11  C   UNL     1      -0.852   7.701  14.493  1.00  0.00     0.087 C 
BRANCH  11  12
ATOM     12  C   UNL     1      -2.191   8.353  14.915  1.00  0.00     0.066 C 
BRANCH  12  13
ATOM     13  C   UNL     1      -3.103   8.769  13.763  1.00  0.00     0.140 C 
ATOM     14  O   UNL     1      -3.864   9.706  13.965  1.00  0.00    -0.299 OA
BRANCH  13  15
ATOM     15  C   UNL     1      -3.063   8.159  12.367  1.00  0.00     0.106 CG0
ATOM     16  G   UNL     1      -3.814   6.837  12.323  1.00  0.00     0.000 G0
ENDBRANCH  13  15
ENDBRANCH  12  13
BRANCH  12  17
ATOM     17  C   UNL     1      -1.973   9.505  15.945  1.00  0.00    -0.006 C 
ATOM     18  C   UNL     1      -2.782   9.342  17.242  1.00  0.00     0.008 C 
ATOM     19  C   UNL     1      -0.485   9.700  16.276  1.00  0.00     0.008 C 
ENDBRANCH  12  17
ENDBRANCH  11  12
ENDBRANCH   1  11
TORSDOF 1
ENDMDL
MODEL 9
REMARK VINA RESULT:    -3.251      2.132      5.007
REMARK INTER + INTRA:          -5.476
REMARK INTER:                  -5.032
REMARK INTRA:                  -0.444
REMARK UNBOUND:                -0.514
REMARK SMILES CC1=CCC[C@@H](C)C(=O)C[C@@H](C(C)C)C(=O)C1
REMARK SMILES IDX 8 1 9 2 6 3 7 4 5 5 4 6 3 7 2 8 1 9 10 11 11 12 15 13 16 14
REMARK SMILES IDX 17 15 12 17 13 18 14 19
REMARK H PARENT
REMARK Flexibility Score: 70.00
ROOT
ATOM      1  C   UNL     1     -16.198  -3.098   5.848  1.00  0.00     0.136 C 
ATOM      2  O   UNL     1     -16.400  -1.933   5.534  1.00  0.00    -0.299 OA
ENDROOT
BRANCH   1   3
ATOM      3  C   UNL     1     -17.263  -4.153   5.565  1.00  0.00     0.053 C 
ATOM      4  C   UNL     1     -18.023  -3.881   4.255  1.00  0.00     0.016 C 
BRANCH   3   5
ATOM      5  C   UNL     1     -18.263  -4.270   6.750  1.00  0.00     0.015 C 
BRANCH   5   6
ATOM      6  C   UNL     1     -17.697  -4.824   8.075  1.00  0.00     0.028 C 
BRANCH   6   7
ATOM      7  C   UNL     1     -17.239  -6.268   8.120  1.00  0.00    -0.028 C 
ATOM      8  C   UNL     1     -15.989  -6.727   8.371  1.00  0.00    -0.070 CG0
ATOM      9  C   UNL     1     -15.830  -8.214   8.589  1.00  0.00     0.039 C 
ATOM     10  G   UNL     1     -14.734  -5.866   8.377  1.00  0.00     0.000 G0
ENDBRANCH   6   7
ENDBRANCH   5   6
ENDBRANCH   3   5
ENDBRANCH   1   3
BRANCH   1  11
ATOM     11  C   UNL     1     -14.864  -3.449   6.488  1.00  0.00     0.087 C 
BRANCH  11  12
ATOM     12  C   UNL     1     -14.246  -4.770   5.967  1.00  0.00     0.066 C 
BRANCH  12  13
ATOM     13  C   UNL     1     -14.041  -5.852   7.024  1.00  0.00     0.140 C 
ATOM     14  O   UNL     1     -13.214  -6.720   6.780  1.00  0.00    -0.299 OA
BRANCH  13  15
ATOM     15  C   UNL     1     -14.724  -5.869   8.387  1.00  0.00     0.106 CG0
ATOM     16  G   UNL     1     -15.988  -6.717   8.358  1.00  0.00     0.000 G0
ENDBRANCH  13  15
ENDBRANCH  12  13
BRANCH  12  17
ATOM     17  C   UNL     1     -12.959  -4.513   5.123  1.00  0.00    -0.006 C 
ATOM     18  C   UNL     1     -13.086  -4.936   3.650  1.00  0.00     0.008 C 
ATOM     19  C   UNL     1     -12.504  -3.048   5.210  1.00  0.00     0.008 C 
ENDBRANCH  12  17
ENDBRANCH  11  12
ENDBRANCH   1  11
TORSDOF 1
ENDMDL
