MODEL 1
REMARK VINA RESULT:    -2.944      0.000      0.000
REMARK INTER + INTRA:          -8.882
REMARK INTER:                  -5.699
REMARK INTRA:                  -3.183
REMARK UNBOUND:                -3.183
REMARK SMILES CCCCCCCCCCCCCCCCCC(=O)[O-]
REMARK SMILES IDX 10 1 11 2 12 3 13 4 14 5 15 6 16 7 17 8 18 9 19 10 20 11
REMARK SMILES IDX 9 12 8 13 7 14 6 15 5 16 4 17 3 18 2 19 1 20
REMARK H PARENT
REMARK Flexibility Score: inf
ROOT
ATOM      1  C   UNL     1      28.589  59.613  86.838  1.00  0.00     0.000 C 
ENDROOT
BRANCH   1   2
ATOM      2  C   UNL     1      29.058  58.165  87.062  1.00  0.00     0.000 C 
BRANCH   2   3
ATOM      3  C   UNL     1      29.261  57.400  85.742  1.00  0.00     0.000 C 
BRANCH   3   4
ATOM      4  C   UNL     1      28.840  58.224  84.513  1.00  0.00     0.000 C 
BRANCH   4   5
ATOM      5  C   UNL     1      28.192  57.362  83.418  1.00  0.00     0.000 C 
BRANCH   5   6
ATOM      6  C   UNL     1      27.867  58.161  82.147  1.00  0.00     0.000 C 
BRANCH   6   7
ATOM      7  C   UNL     1      29.028  59.094  81.773  1.00  0.00     0.006 C 
BRANCH   7   8
ATOM      8  C   UNL     1      30.081  58.393  80.905  1.00  0.00     0.053 C 
BRANCH   8   9
ATOM      9  C   UNL     1      31.433  58.405  81.550  1.00  0.00     0.041 C 
ATOM     10  O   UNL     1      32.305  59.235  81.179  1.00  0.00    -0.550 OA
ATOM     11  O   UNL     1      31.720  57.521  82.583  1.00  0.00    -0.550 OA
ENDBRANCH   8   9
ENDBRANCH   7   8
ENDBRANCH   6   7
ENDBRANCH   5   6
ENDBRANCH   4   5
ENDBRANCH   3   4
ENDBRANCH   2   3
ENDBRANCH   1   2
BRANCH   1  12
ATOM     12  C   UNL     1      27.376  59.982  87.708  1.00  0.00     0.000 C 
BRANCH  12  13
ATOM     13  C   UNL     1      26.809  58.774  88.473  1.00  0.00    -0.000 C 
BRANCH  13  14
ATOM     14  C   UNL     1      25.480  58.266  87.885  1.00  0.00    -0.000 C 
BRANCH  14  15
ATOM     15  C   UNL     1      25.620  57.228  86.754  1.00  0.00    -0.000 C 
BRANCH  15  16
ATOM     16  C   UNL     1      25.044  57.660  85.390  1.00  0.00    -0.000 C 
BRANCH  16  17
ATOM     17  C   UNL     1      24.604  59.133  85.312  1.00  0.00    -0.000 C 
BRANCH  17  18
ATOM     18  C   UNL     1      25.266  59.890  84.149  1.00  0.00    -0.000 C 
BRANCH  18  19
ATOM     19  C   UNL     1      25.972  61.175  84.609  1.00  0.00    -0.003 C 
ATOM     20  C   UNL     1      27.197  61.511  83.759  1.00  0.00     0.004 C 
ENDBRANCH  18  19
ENDBRANCH  17  18
ENDBRANCH  16  17
ENDBRANCH  15  16
ENDBRANCH  14  15
ENDBRANCH  13  14
ENDBRANCH  12  13
ENDBRANCH   1  12
TORSDOF 16
ENDMDL
MODEL 2
REMARK VINA RESULT:    -2.835      2.052      3.823
REMARK INTER + INTRA:          -8.671
REMARK INTER:                  -6.348
REMARK INTRA:                  -2.323
REMARK UNBOUND:                -3.183
REMARK SMILES CCCCCCCCCCCCCCCCCC(=O)[O-]
REMARK SMILES IDX 10 1 11 2 12 3 13 4 14 5 15 6 16 7 17 8 18 9 19 10 20 11
REMARK SMILES IDX 9 12 8 13 7 14 6 15 5 16 4 17 3 18 2 19 1 20
REMARK H PARENT
REMARK Flexibility Score: inf
ROOT
ATOM      1  C   UNL     1      26.092  59.435  86.520  1.00  0.00     0.000 C 
ENDROOT
BRANCH   1   2
ATOM      2  C   UNL     1      27.183  60.521  86.517  1.00  0.00     0.000 C 
BRANCH   2   3
ATOM      3  C   UNL     1      28.521  60.014  87.082  1.00  0.00     0.000 C 
BRANCH   3   4
ATOM      4  C   UNL     1      28.468  58.529  87.483  1.00  0.00     0.000 C 
BRANCH   4   5
ATOM      5  C   UNL     1      29.399  57.653  86.630  1.00  0.00     0.000 C 
BRANCH   5   6
ATOM      6  C   UNL     1      30.246  58.471  85.643  1.00  0.00     0.000 C 
BRANCH   6   7
ATOM      7  C   UNL     1      31.035  57.550  84.701  1.00  0.00     0.006 C 
BRANCH   7   8
ATOM      8  C   UNL     1      30.357  57.400  83.333  1.00  0.00     0.053 C 
BRANCH   8   9
ATOM      9  C   UNL     1      31.280  57.767  82.211  1.00  0.00     0.041 C 
ATOM     10  O   UNL     1      32.528  57.723  82.378  1.00  0.00    -0.550 OA
ATOM     11  O   UNL     1      30.763  58.127  80.973  1.00  0.00    -0.550 OA
ENDBRANCH   8   9
ENDBRANCH   7   8
ENDBRANCH   6   7
ENDBRANCH   5   6
ENDBRANCH   4   5
ENDBRANCH   3   4
ENDBRANCH   2   3
ENDBRANCH   1   2
BRANCH   1  12
ATOM     12  C   UNL     1      25.579  59.109  85.108  1.00  0.00     0.000 C 
BRANCH  12  13
ATOM     13  C   UNL     1      26.602  58.316  84.276  1.00  0.00    -0.000 C 
BRANCH  13  14
ATOM     14  C   UNL     1      26.878  58.956  82.903  1.00  0.00    -0.000 C 
BRANCH  14  15
ATOM     15  C   UNL     1      27.961  60.053  82.899  1.00  0.00    -0.000 C 
BRANCH  15  16
ATOM     16  C   UNL     1      27.429  61.500  82.930  1.00  0.00    -0.000 C 
BRANCH  16  17
ATOM     17  C   UNL     1      27.605  62.281  81.615  1.00  0.00    -0.000 C 
BRANCH  17  18
ATOM     18  C   UNL     1      26.456  62.039  80.622  1.00  0.00    -0.000 C 
BRANCH  18  19
ATOM     19  C   UNL     1      25.081  62.382  81.218  1.00  0.00    -0.003 C 
ATOM     20  C   UNL     1      24.399  63.543  80.496  1.00  0.00     0.004 C 
ENDBRANCH  18  19
ENDBRANCH  17  18
ENDBRANCH  16  17
ENDBRANCH  15  16
ENDBRANCH  14  15
ENDBRANCH  13  14
ENDBRANCH  12  13
ENDBRANCH   1  12
TORSDOF 16
ENDMDL
MODEL 3
REMARK VINA RESULT:    -2.822      2.560      4.958
REMARK INTER + INTRA:          -8.644
REMARK INTER:                  -6.237
REMARK INTRA:                  -2.407
REMARK UNBOUND:                -3.183
REMARK SMILES CCCCCCCCCCCCCCCCCC(=O)[O-]
REMARK SMILES IDX 10 1 11 2 12 3 13 4 14 5 15 6 16 7 17 8 18 9 19 10 20 11
REMARK SMILES IDX 9 12 8 13 7 14 6 15 5 16 4 17 3 18 2 19 1 20
REMARK H PARENT
REMARK Flexibility Score: inf
ROOT
ATOM      1  C   UNL     1      29.490  58.802  81.727  1.00  0.00     0.000 C 
ENDROOT
BRANCH   1   2
ATOM      2  C   UNL     1      28.358  57.968  82.351  1.00  0.00     0.000 C 
BRANCH   2   3
ATOM      3  C   UNL     1      27.272  58.841  83.004  1.00  0.00     0.000 C 
BRANCH   3   4
ATOM      4  C   UNL     1      27.852  60.100  83.674  1.00  0.00     0.000 C 
BRANCH   4   5
ATOM      5  C   UNL     1      26.992  61.349  83.429  1.00  0.00     0.000 C 
BRANCH   5   6
ATOM      6  C   UNL     1      25.743  61.055  82.583  1.00  0.00     0.000 C 
BRANCH   6   7
ATOM      7  C   UNL     1      25.741  61.895  81.297  1.00  0.00     0.006 C 
BRANCH   7   8
ATOM      8  C   UNL     1      27.157  62.136  80.758  1.00  0.00     0.053 C 
BRANCH   8   9
ATOM      9  C   UNL     1      27.495  61.197  79.641  1.00  0.00     0.041 C 
ATOM     10  O   UNL     1      28.448  61.458  78.860  1.00  0.00    -0.550 OA
ATOM     11  O   UNL     1      26.777  60.018  79.480  1.00  0.00    -0.550 OA
ENDBRANCH   8   9
ENDBRANCH   7   8
ENDBRANCH   6   7
ENDBRANCH   5   6
ENDBRANCH   4   5
ENDBRANCH   3   4
ENDBRANCH   2   3
ENDBRANCH   1   2
BRANCH   1  12
ATOM     12  C   UNL     1      30.876  58.418  82.271  1.00  0.00     0.000 C 
BRANCH  12  13
ATOM     13  C   UNL     1      30.836  57.158  83.151  1.00  0.00    -0.000 C 
BRANCH  13  14
ATOM     14  C   UNL     1      31.542  57.354  84.506  1.00  0.00    -0.000 C 
BRANCH  14  15
ATOM     15  C   UNL     1      30.730  58.133  85.559  1.00  0.00    -0.000 C 
BRANCH  15  16
ATOM     16  C   UNL     1      29.515  57.382  86.139  1.00  0.00    -0.000 C 
BRANCH  16  17
ATOM     17  C   UNL     1      28.600  58.230  87.041  1.00  0.00    -0.000 C 
BRANCH  17  18
ATOM     18  C   UNL     1      28.857  59.740  86.895  1.00  0.00    -0.000 C 
BRANCH  18  19
ATOM     19  C   UNL     1      27.688  60.589  87.420  1.00  0.00    -0.003 C 
ATOM     20  C   UNL     1      28.113  62.008  87.794  1.00  0.00     0.004 C 
ENDBRANCH  18  19
ENDBRANCH  17  18
ENDBRANCH  16  17
ENDBRANCH  15  16
ENDBRANCH  14  15
ENDBRANCH  13  14
ENDBRANCH  12  13
ENDBRANCH   1  12
TORSDOF 16
ENDMDL
MODEL 4
REMARK VINA RESULT:    -2.768      2.663      5.177
REMARK INTER + INTRA:          -8.541
REMARK INTER:                  -6.068
REMARK INTRA:                  -2.473
REMARK UNBOUND:                -3.183
REMARK SMILES CCCCCCCCCCCCCCCCCC(=O)[O-]
REMARK SMILES IDX 10 1 11 2 12 3 13 4 14 5 15 6 16 7 17 8 18 9 19 10 20 11
REMARK SMILES IDX 9 12 8 13 7 14 6 15 5 16 4 17 3 18 2 19 1 20
REMARK H PARENT
REMARK Flexibility Score: inf
ROOT
ATOM      1  C   UNL     1      26.828  59.277  83.332  1.00  0.00     0.000 C 
ENDROOT
BRANCH   1   2
ATOM      2  C   UNL     1      27.260  60.657  83.860  1.00  0.00     0.000 C 
BRANCH   2   3
ATOM      3  C   UNL     1      26.083  61.461  84.439  1.00  0.00     0.000 C 
BRANCH   3   4
ATOM      4  C   UNL     1      24.750  61.142  83.740  1.00  0.00     0.000 C 
BRANCH   4   5
ATOM      5  C   UNL     1      24.189  62.342  82.960  1.00  0.00     0.000 C 
BRANCH   5   6
ATOM      6  C   UNL     1      23.928  62.020  81.481  1.00  0.00     0.000 C 
BRANCH   6   7
ATOM      7  C   UNL     1      24.914  62.771  80.573  1.00  0.00     0.006 C 
BRANCH   7   8
ATOM      8  C   UNL     1      25.779  61.816  79.740  1.00  0.00     0.053 C 
BRANCH   8   9
ATOM      9  C   UNL     1      27.186  61.751  80.251  1.00  0.00     0.041 C 
ATOM     10  O   UNL     1      27.589  62.586  81.103  1.00  0.00    -0.550 OA
ATOM     11  O   UNL     1      28.041  60.750  79.810  1.00  0.00    -0.550 OA
ENDBRANCH   8   9
ENDBRANCH   7   8
ENDBRANCH   6   7
ENDBRANCH   5   6
ENDBRANCH   4   5
ENDBRANCH   3   4
ENDBRANCH   2   3
ENDBRANCH   1   2
BRANCH   1  12
ATOM     12  C   UNL     1      27.950  58.563  82.560  1.00  0.00     0.000 C 
BRANCH  12  13
ATOM     13  C   UNL     1      29.346  59.104  82.911  1.00  0.00    -0.000 C 
BRANCH  13  14
ATOM     14  C   UNL     1      30.148  58.147  83.812  1.00  0.00    -0.000 C 
BRANCH  14  15
ATOM     15  C   UNL     1      30.176  58.524  85.306  1.00  0.00    -0.000 C 
BRANCH  15  16
ATOM     16  C   UNL     1      29.547  57.487  86.258  1.00  0.00    -0.000 C 
BRANCH  16  17
ATOM     17  C   UNL     1      28.056  57.714  86.566  1.00  0.00    -0.000 C 
BRANCH  17  18
ATOM     18  C   UNL     1      27.831  58.491  87.874  1.00  0.00    -0.000 C 
BRANCH  18  19
ATOM     19  C   UNL     1      27.198  59.871  87.638  1.00  0.00    -0.003 C 
ATOM     20  C   UNL     1      28.239  60.967  87.414  1.00  0.00     0.004 C 
ENDBRANCH  18  19
ENDBRANCH  17  18
ENDBRANCH  16  17
ENDBRANCH  15  16
ENDBRANCH  14  15
ENDBRANCH  13  14
ENDBRANCH  12  13
ENDBRANCH   1  12
TORSDOF 16
ENDMDL
MODEL 5
REMARK VINA RESULT:    -2.747      1.687      4.334
REMARK INTER + INTRA:          -8.500
REMARK INTER:                  -5.959
REMARK INTRA:                  -2.541
REMARK UNBOUND:                -3.183
REMARK SMILES CCCCCCCCCCCCCCCCCC(=O)[O-]
REMARK SMILES IDX 10 1 11 2 12 3 13 4 14 5 15 6 16 7 17 8 18 9 19 10 20 11
REMARK SMILES IDX 9 12 8 13 7 14 6 15 5 16 4 17 3 18 2 19 1 20
REMARK H PARENT
REMARK Flexibility Score: inf
ROOT
ATOM      1  C   UNL     1      27.541  61.511  83.050  1.00  0.00     0.000 C 
ENDROOT
BRANCH   1   2
ATOM      2  C   UNL     1      27.496  62.111  81.633  1.00  0.00     0.000 C 
BRANCH   2   3
ATOM      3  C   UNL     1      26.173  61.811  80.908  1.00  0.00     0.000 C 
BRANCH   3   4
ATOM      4  C   UNL     1      26.364  60.896  79.685  1.00  0.00     0.000 C 
BRANCH   4   5
ATOM      5  C   UNL     1      27.436  59.819  79.915  1.00  0.00     0.000 C 
BRANCH   5   6
ATOM      6  C   UNL     1      28.592  59.906  78.907  1.00  0.00     0.000 C 
BRANCH   6   7
ATOM      7  C   UNL     1      29.788  59.061  79.370  1.00  0.00     0.006 C 
BRANCH   7   8
ATOM      8  C   UNL     1      29.583  58.484  80.776  1.00  0.00     0.053 C 
BRANCH   8   9
ATOM      9  C   UNL     1      30.885  58.275  81.487  1.00  0.00     0.041 C 
ATOM     10  O   UNL     1      31.002  57.352  82.336  1.00  0.00    -0.550 OA
ATOM     11  O   UNL     1      31.978  59.079  81.190  1.00  0.00    -0.550 OA
ENDBRANCH   8   9
ENDBRANCH   7   8
ENDBRANCH   6   7
ENDBRANCH   5   6
ENDBRANCH   4   5
ENDBRANCH   3   4
ENDBRANCH   2   3
ENDBRANCH   1   2
BRANCH   1  12
ATOM     12  C   UNL     1      26.139  61.245  83.623  1.00  0.00     0.000 C 
BRANCH  12  13
ATOM     13  C   UNL     1      25.955  59.789  84.084  1.00  0.00    -0.000 C 
BRANCH  13  14
ATOM     14  C   UNL     1      26.954  58.823  83.421  1.00  0.00    -0.000 C 
BRANCH  14  15
ATOM     15  C   UNL     1      27.796  57.981  84.399  1.00  0.00    -0.000 C 
BRANCH  15  16
ATOM     16  C   UNL     1      29.059  58.677  84.946  1.00  0.00    -0.000 C 
BRANCH  16  17
ATOM     17  C   UNL     1      29.094  58.845  86.475  1.00  0.00    -0.000 C 
BRANCH  17  18
ATOM     18  C   UNL     1      28.260  60.042  86.961  1.00  0.00    -0.000 C 
BRANCH  18  19
ATOM     19  C   UNL     1      27.298  59.667  88.099  1.00  0.00    -0.003 C 
ATOM     20  C   UNL     1      26.107  58.840  87.614  1.00  0.00     0.004 C 
ENDBRANCH  18  19
ENDBRANCH  17  18
ENDBRANCH  16  17
ENDBRANCH  15  16
ENDBRANCH  14  15
ENDBRANCH  13  14
ENDBRANCH  12  13
ENDBRANCH   1  12
TORSDOF 16
ENDMDL
MODEL 6
REMARK VINA RESULT:    -2.743      3.314      6.082
REMARK INTER + INTRA:          -8.493
REMARK INTER:                  -6.159
REMARK INTRA:                  -2.334
REMARK UNBOUND:                -3.183
REMARK SMILES CCCCCCCCCCCCCCCCCC(=O)[O-]
REMARK SMILES IDX 10 1 11 2 12 3 13 4 14 5 15 6 16 7 17 8 18 9 19 10 20 11
REMARK SMILES IDX 9 12 8 13 7 14 6 15 5 16 4 17 3 18 2 19 1 20
REMARK H PARENT
REMARK Flexibility Score: inf
ROOT
ATOM      1  C   UNL     1      28.954  57.951  81.271  1.00  0.00     0.000 C 
ENDROOT
BRANCH   1   2
ATOM      2  C   UNL     1      30.258  58.722  81.002  1.00  0.00     0.000 C 
BRANCH   2   3
ATOM      3  C   UNL     1      31.430  58.216  81.861  1.00  0.00     0.000 C 
BRANCH   3   4
ATOM      4  C   UNL     1      30.973  57.265  82.981  1.00  0.00     0.000 C 
BRANCH   4   5
ATOM      5  C   UNL     1      30.968  57.938  84.363  1.00  0.00     0.000 C 
BRANCH   5   6
ATOM      6  C   UNL     1      29.655  57.715  85.128  1.00  0.00     0.000 C 
BRANCH   6   7
ATOM      7  C   UNL     1      29.464  58.784  86.215  1.00  0.00     0.006 C 
BRANCH   7   8
ATOM      8  C   UNL     1      28.040  59.356  86.224  1.00  0.00     0.053 C 
BRANCH   8   9
ATOM      9  C   UNL     1      27.804  60.240  87.410  1.00  0.00     0.041 C 
ATOM     10  O   UNL     1      27.128  59.822  88.387  1.00  0.00    -0.550 OA
ATOM     11  O   UNL     1      28.355  61.515  87.449  1.00  0.00    -0.550 OA
ENDBRANCH   8   9
ENDBRANCH   7   8
ENDBRANCH   6   7
ENDBRANCH   5   6
ENDBRANCH   4   5
ENDBRANCH   3   4
ENDBRANCH   2   3
ENDBRANCH   1   2
BRANCH   1  12
ATOM     12  C   UNL     1      27.783  58.880  81.632  1.00  0.00     0.000 C 
BRANCH  12  13
ATOM     13  C   UNL     1      28.188  59.984  82.623  1.00  0.00    -0.000 C 
BRANCH  13  14
ATOM     14  C   UNL     1      27.655  61.371  82.221  1.00  0.00    -0.000 C 
BRANCH  14  15
ATOM     15  C   UNL     1      26.199  61.392  81.718  1.00  0.00    -0.000 C 
BRANCH  15  16
ATOM     16  C   UNL     1      25.975  62.128  80.382  1.00  0.00    -0.000 C 
BRANCH  16  17
ATOM     17  C   UNL     1      26.060  61.236  79.130  1.00  0.00    -0.000 C 
BRANCH  17  18
ATOM     18  C   UNL     1      27.165  61.681  78.157  1.00  0.00    -0.000 C 
BRANCH  18  19
ATOM     19  C   UNL     1      28.505  60.979  78.426  1.00  0.00    -0.003 C 
ATOM     20  C   UNL     1      28.543  59.552  77.881  1.00  0.00     0.004 C 
ENDBRANCH  18  19
ENDBRANCH  17  18
ENDBRANCH  16  17
ENDBRANCH  15  16
ENDBRANCH  14  15
ENDBRANCH  13  14
ENDBRANCH  12  13
ENDBRANCH   1  12
TORSDOF 16
ENDMDL
MODEL 7
REMARK VINA RESULT:    -2.743      1.943      4.200
REMARK INTER + INTRA:          -8.492
REMARK INTER:                  -5.910
REMARK INTRA:                  -2.582
REMARK UNBOUND:                -3.183
REMARK SMILES CCCCCCCCCCCCCCCCCC(=O)[O-]
REMARK SMILES IDX 10 1 11 2 12 3 13 4 14 5 15 6 16 7 17 8 18 9 19 10 20 11
REMARK SMILES IDX 9 12 8 13 7 14 6 15 5 16 4 17 3 18 2 19 1 20
REMARK H PARENT
REMARK Flexibility Score: inf
ROOT
ATOM      1  C   UNL     1      26.872  61.382  85.281  1.00  0.00     0.000 C 
ENDROOT
BRANCH   1   2
ATOM      2  C   UNL     1      26.760  60.217  86.281  1.00  0.00     0.000 C 
BRANCH   2   3
ATOM      3  C   UNL     1      28.002  60.092  87.181  1.00  0.00     0.000 C 
BRANCH   3   4
ATOM      4  C   UNL     1      28.645  58.696  87.109  1.00  0.00     0.000 C 
BRANCH   4   5
ATOM      5  C   UNL     1      29.387  58.454  85.786  1.00  0.00     0.000 C 
BRANCH   5   6
ATOM      6  C   UNL     1      28.716  57.380  84.916  1.00  0.00     0.000 C 
BRANCH   6   7
ATOM      7  C   UNL     1      29.337  57.345  83.511  1.00  0.00     0.006 C 
BRANCH   7   8
ATOM      8  C   UNL     1      30.259  58.544  83.253  1.00  0.00     0.053 C 
BRANCH   8   9
ATOM      9  C   UNL     1      31.373  58.197  82.313  1.00  0.00     0.041 C 
ATOM     10  O   UNL     1      31.513  58.834  81.236  1.00  0.00    -0.550 OA
ATOM     11  O   UNL     1      32.274  57.192  82.641  1.00  0.00    -0.550 OA
ENDBRANCH   8   9
ENDBRANCH   7   8
ENDBRANCH   6   7
ENDBRANCH   5   6
ENDBRANCH   4   5
ENDBRANCH   3   4
ENDBRANCH   2   3
ENDBRANCH   1   2
BRANCH   1  12
ATOM     12  C   UNL     1      27.241  60.911  83.865  1.00  0.00     0.000 C 
BRANCH  12  13
ATOM     13  C   UNL     1      26.347  59.759  83.373  1.00  0.00    -0.000 C 
BRANCH  13  14
ATOM     14  C   UNL     1      25.253  60.228  82.397  1.00  0.00    -0.000 C 
BRANCH  14  15
ATOM     15  C   UNL     1      25.264  61.736  82.077  1.00  0.00    -0.000 C 
BRANCH  15  16
ATOM     16  C   UNL     1      25.740  62.102  80.657  1.00  0.00    -0.000 C 
BRANCH  16  17
ATOM     17  C   UNL     1      27.267  62.197  80.491  1.00  0.00    -0.000 C 
BRANCH  17  18
ATOM     18  C   UNL     1      27.781  61.414  79.271  1.00  0.00    -0.000 C 
BRANCH  18  19
ATOM     19  C   UNL     1      27.305  59.953  79.266  1.00  0.00    -0.003 C 
ATOM     20  C   UNL     1      28.143  59.057  80.178  1.00  0.00     0.004 C 
ENDBRANCH  18  19
ENDBRANCH  17  18
ENDBRANCH  16  17
ENDBRANCH  15  16
ENDBRANCH  14  15
ENDBRANCH  13  14
ENDBRANCH  12  13
ENDBRANCH   1  12
TORSDOF 16
ENDMDL
MODEL 8
REMARK VINA RESULT:    -2.726      2.064      3.536
REMARK INTER + INTRA:          -8.458
REMARK INTER:                  -5.681
REMARK INTRA:                  -2.777
REMARK UNBOUND:                -3.183
REMARK SMILES CCCCCCCCCCCCCCCCCC(=O)[O-]
REMARK SMILES IDX 10 1 11 2 12 3 13 4 14 5 15 6 16 7 17 8 18 9 19 10 20 11
REMARK SMILES IDX 9 12 8 13 7 14 6 15 5 16 4 17 3 18 2 19 1 20
REMARK H PARENT
REMARK Flexibility Score: inf
ROOT
ATOM      1  C   UNL     1      27.294  61.395  86.520  1.00  0.00     0.000 C 
ENDROOT
BRANCH   1   2
ATOM      2  C   UNL     1      27.302  61.202  84.993  1.00  0.00     0.000 C 
BRANCH   2   3
ATOM      3  C   UNL     1      25.901  61.345  84.374  1.00  0.00     0.000 C 
BRANCH   3   4
ATOM      4  C   UNL     1      25.933  61.343  82.835  1.00  0.00     0.000 C 
BRANCH   4   5
ATOM      5  C   UNL     1      27.317  61.704  82.272  1.00  0.00     0.000 C 
BRANCH   5   6
ATOM      6  C   UNL     1      27.285  62.010  80.767  1.00  0.00     0.000 C 
BRANCH   6   7
ATOM      7  C   UNL     1      27.290  60.713  79.943  1.00  0.00     0.006 C 
BRANCH   7   8
ATOM      8  C   UNL     1      28.475  60.648  78.971  1.00  0.00     0.053 C 
BRANCH   8   9
ATOM      9  C   UNL     1      29.140  59.305  78.994  1.00  0.00     0.041 C 
ATOM     10  O   UNL     1      28.795  58.413  78.174  1.00  0.00    -0.550 OA
ATOM     11  O   UNL     1      30.161  59.050  79.900  1.00  0.00    -0.550 OA
ENDBRANCH   8   9
ENDBRANCH   7   8
ENDBRANCH   6   7
ENDBRANCH   5   6
ENDBRANCH   4   5
ENDBRANCH   3   4
ENDBRANCH   2   3
ENDBRANCH   1   2
BRANCH   1  12
ATOM     12  C   UNL     1      28.162  60.357  87.250  1.00  0.00     0.000 C 
BRANCH  12  13
ATOM     13  C   UNL     1      27.326  59.252  87.918  1.00  0.00    -0.000 C 
BRANCH  13  14
ATOM     14  C   UNL     1      27.245  57.970  87.068  1.00  0.00    -0.000 C 
BRANCH  14  15
ATOM     15  C   UNL     1      25.981  57.842  86.196  1.00  0.00    -0.000 C 
BRANCH  15  16
ATOM     16  C   UNL     1      26.239  57.639  84.690  1.00  0.00    -0.000 C 
BRANCH  16  17
ATOM     17  C   UNL     1      27.706  57.356  84.318  1.00  0.00    -0.000 C 
BRANCH  17  18
ATOM     18  C   UNL     1      28.191  58.199  83.127  1.00  0.00    -0.000 C 
BRANCH  18  19
ATOM     19  C   UNL     1      29.600  58.773  83.347  1.00  0.00    -0.003 C 
ATOM     20  C   UNL     1      30.137  58.496  84.750  1.00  0.00     0.004 C 
ENDBRANCH  18  19
ENDBRANCH  17  18
ENDBRANCH  16  17
ENDBRANCH  15  16
ENDBRANCH  14  15
ENDBRANCH  13  14
ENDBRANCH  12  13
ENDBRANCH   1  12
TORSDOF 16
ENDMDL
MODEL 9
REMARK VINA RESULT:    -2.722      2.132      4.544
REMARK INTER + INTRA:          -8.450
REMARK INTER:                  -5.604
REMARK INTRA:                  -2.847
REMARK UNBOUND:                -3.183
REMARK SMILES CCCCCCCCCCCCCCCCCC(=O)[O-]
REMARK SMILES IDX 10 1 11 2 12 3 13 4 14 5 15 6 16 7 17 8 18 9 19 10 20 11
REMARK SMILES IDX 9 12 8 13 7 14 6 15 5 16 4 17 3 18 2 19 1 20
REMARK H PARENT
REMARK Flexibility Score: inf
ROOT
ATOM      1  C   UNL     1      26.865  61.381  84.191  1.00  0.00     0.000 C 
ENDROOT
BRANCH   1   2
ATOM      2  C   UNL     1      25.349  61.127  84.114  1.00  0.00     0.000 C 
BRANCH   2   3
ATOM      3  C   UNL     1      24.656  62.012  83.063  1.00  0.00     0.000 C 
BRANCH   3   4
ATOM      4  C   UNL     1      24.616  61.355  81.672  1.00  0.00     0.000 C 
BRANCH   4   5
ATOM      5  C   UNL     1      25.300  62.210  80.594  1.00  0.00     0.000 C 
BRANCH   5   6
ATOM      6  C   UNL     1      26.819  62.312  80.792  1.00  0.00     0.000 C 
BRANCH   6   7
ATOM      7  C   UNL     1      27.569  61.532  79.702  1.00  0.00     0.006 C 
BRANCH   7   8
ATOM      8  C   UNL     1      27.528  60.017  79.940  1.00  0.00     0.053 C 
BRANCH   8   9
ATOM      9  C   UNL     1      28.889  59.400  79.838  1.00  0.00     0.041 C 
ATOM     10  O   UNL     1      29.468  59.324  78.722  1.00  0.00    -0.550 OA
ATOM     11  O   UNL     1      29.531  58.937  80.980  1.00  0.00    -0.550 OA
ENDBRANCH   8   9
ENDBRANCH   7   8
ENDBRANCH   6   7
ENDBRANCH   5   6
ENDBRANCH   4   5
ENDBRANCH   3   4
ENDBRANCH   2   3
ENDBRANCH   1   2
BRANCH   1  12
ATOM     12  C   UNL     1      27.690  60.199  83.655  1.00  0.00     0.000 C 
BRANCH  12  13
ATOM     13  C   UNL     1      26.845  58.929  83.462  1.00  0.00    -0.000 C 
BRANCH  13  14
ATOM     14  C   UNL     1      27.569  57.654  83.934  1.00  0.00    -0.000 C 
BRANCH  14  15
ATOM     15  C   UNL     1      28.875  57.894  84.714  1.00  0.00    -0.000 C 
BRANCH  15  16
ATOM     16  C   UNL     1      29.026  57.074  86.012  1.00  0.00    -0.000 C 
BRANCH  16  17
ATOM     17  C   UNL     1      28.696  57.842  87.304  1.00  0.00    -0.000 C 
BRANCH  17  18
ATOM     18  C   UNL     1      28.592  59.360  87.083  1.00  0.00    -0.000 C 
BRANCH  18  19
ATOM     19  C   UNL     1      27.260  59.939  87.587  1.00  0.00    -0.003 C 
ATOM     20  C   UNL     1      26.056  59.098  87.167  1.00  0.00     0.004 C 
ENDBRANCH  18  19
ENDBRANCH  17  18
ENDBRANCH  16  17
ENDBRANCH  15  16
ENDBRANCH  14  15
ENDBRANCH  13  14
ENDBRANCH  12  13
ENDBRANCH   1  12
TORSDOF 16
ENDMDL
