MODEL 1
REMARK VINA RESULT:    -3.808      0.000      0.000
REMARK INTER + INTRA:          -9.087
REMARK INTER:                  -7.148
REMARK INTRA:                  -1.939
REMARK UNBOUND:                -1.939
REMARK SMILES O=C([O-])CCCCCCCCCCCCCCC(=O)[O-]
REMARK SMILES IDX 10 1 9 2 8 3 7 4 6 5 5 6 4 7 2 8 1 9 3 10 11 11 12 12 13 13
REMARK SMILES IDX 14 14 15 15 16 16 17 17 18 18 19 19 20 20
REMARK H PARENT
REMARK Flexibility Score: inf
ROOT
ATOM      1  C   UNL     1      40.937  23.077 222.347  1.00  0.00     0.000 C 
ENDROOT
BRANCH   1   2
ATOM      2  C   UNL     1      41.547  23.198 223.752  1.00  0.00     0.000 C 
BRANCH   2   3
ATOM      3  C   UNL     1      41.757  21.835 224.429  1.00  0.00     0.000 C 
BRANCH   3   4
ATOM      4  C   UNL     1      40.855  21.692 225.665  1.00  0.00     0.000 C 
BRANCH   4   5
ATOM      5  C   UNL     1      39.528  20.972 225.361  1.00  0.00     0.000 C 
BRANCH   5   6
ATOM      6  C   UNL     1      39.529  20.123 224.078  1.00  0.00     0.006 C 
BRANCH   6   7
ATOM      7  C   UNL     1      39.537  18.615 224.358  1.00  0.00     0.053 C 
BRANCH   7   8
ATOM      8  C   UNL     1      38.337  18.227 225.163  1.00  0.00     0.041 C 
ATOM      9  O   UNL     1      37.182  18.344 224.676  1.00  0.00    -0.550 OA
ATOM     10  O   UNL     1      38.499  17.686 226.432  1.00  0.00    -0.550 OA
ENDBRANCH   7   8
ENDBRANCH   6   7
ENDBRANCH   5   6
ENDBRANCH   4   5
ENDBRANCH   3   4
ENDBRANCH   2   3
ENDBRANCH   1   2
BRANCH   1  11
ATOM     11  C   UNL     1      39.560  23.755 222.239  1.00  0.00     0.000 C 
BRANCH  11  12
ATOM     12  C   UNL     1      39.261  24.676 223.433  1.00  0.00     0.000 C 
BRANCH  12  13
ATOM     13  C   UNL     1      38.074  24.186 224.278  1.00  0.00     0.000 C 
BRANCH  13  14
ATOM     14  C   UNL     1      37.151  23.280 223.449  1.00  0.00     0.000 C 
BRANCH  14  15
ATOM     15  C   UNL     1      35.899  24.012 222.931  1.00  0.00     0.000 C 
BRANCH  15  16
ATOM     16  C   UNL     1      35.456  23.621 221.506  1.00  0.00     0.006 C 
BRANCH  16  17
ATOM     17  C   UNL     1      35.992  24.538 220.396  1.00  0.00     0.053 C 
BRANCH  17  18
ATOM     18  C   UNL     1      35.541  24.098 219.038  1.00  0.00     0.041 C 
ATOM     19  O   UNL     1      34.329  24.197 218.710  1.00  0.00    -0.550 OA
ATOM     20  O   UNL     1      36.463  23.609 218.122  1.00  0.00    -0.550 OA
ENDBRANCH  17  18
ENDBRANCH  16  17
ENDBRANCH  15  16
ENDBRANCH  14  15
ENDBRANCH  13  14
ENDBRANCH  12  13
ENDBRANCH  11  12
ENDBRANCH   1  11
TORSDOF 15
ENDMDL
MODEL 2
REMARK VINA RESULT:    -3.755      1.752      6.726
REMARK INTER + INTRA:          -8.987
REMARK INTER:                  -7.224
REMARK INTRA:                  -1.764
REMARK UNBOUND:                -1.939
REMARK SMILES O=C([O-])CCCCCCCCCCCCCCC(=O)[O-]
REMARK SMILES IDX 10 1 9 2 8 3 7 4 6 5 5 6 4 7 2 8 1 9 3 10 11 11 12 12 13 13
REMARK SMILES IDX 14 14 15 15 16 16 17 17 18 18 19 19 20 20
REMARK H PARENT
REMARK Flexibility Score: inf
ROOT
ATOM      1  C   UNL     1      39.205  24.624 225.258  1.00  0.00     0.000 C 
ENDROOT
BRANCH   1   2
ATOM      2  C   UNL     1      37.734  24.348 224.911  1.00  0.00     0.000 C 
BRANCH   2   3
ATOM      3  C   UNL     1      37.166  25.346 223.891  1.00  0.00     0.000 C 
BRANCH   3   4
ATOM      4  C   UNL     1      35.919  24.772 223.200  1.00  0.00     0.000 C 
BRANCH   4   5
ATOM      5  C   UNL     1      36.127  23.340 222.674  1.00  0.00     0.000 C 
BRANCH   5   6
ATOM      6  C   UNL     1      36.408  23.237 221.164  1.00  0.00     0.006 C 
BRANCH   6   7
ATOM      7  C   UNL     1      35.957  24.479 220.385  1.00  0.00     0.053 C 
BRANCH   7   8
ATOM      8  C   UNL     1      35.438  24.090 219.037  1.00  0.00     0.041 C 
ATOM      9  O   UNL     1      36.228  23.666 218.152  1.00  0.00    -0.550 OA
ATOM     10  O   UNL     1      34.076  24.147 218.774  1.00  0.00    -0.550 OA
ENDBRANCH   7   8
ENDBRANCH   6   7
ENDBRANCH   5   6
ENDBRANCH   4   5
ENDBRANCH   3   4
ENDBRANCH   2   3
ENDBRANCH   1   2
BRANCH   1  11
ATOM     11  C   UNL     1      40.159  23.563 224.681  1.00  0.00     0.000 C 
BRANCH  11  12
ATOM     12  C   UNL     1      40.978  24.092 223.491  1.00  0.00     0.000 C 
BRANCH  12  13
ATOM     13  C   UNL     1      40.199  24.043 222.167  1.00  0.00     0.000 C 
BRANCH  13  14
ATOM     14  C   UNL     1      40.074  22.599 221.659  1.00  0.00     0.000 C 
BRANCH  14  15
ATOM     15  C   UNL     1      41.396  21.815 221.749  1.00  0.00     0.000 C 
BRANCH  15  16
ATOM     16  C   UNL     1      41.271  20.295 221.516  1.00  0.00     0.006 C 
BRANCH  16  17
ATOM     17  C   UNL     1      41.645  19.430 222.729  1.00  0.00     0.053 C 
BRANCH  17  18
ATOM     18  C   UNL     1      40.937  19.872 223.972  1.00  0.00     0.041 C 
ATOM     19  O   UNL     1      41.594  20.292 224.960  1.00  0.00    -0.550 OA
ATOM     20  O   UNL     1      39.549  19.852 224.028  1.00  0.00    -0.550 OA
ENDBRANCH  17  18
ENDBRANCH  16  17
ENDBRANCH  15  16
ENDBRANCH  14  15
ENDBRANCH  13  14
ENDBRANCH  12  13
ENDBRANCH  11  12
ENDBRANCH   1  11
TORSDOF 15
ENDMDL
MODEL 3
REMARK VINA RESULT:    -3.724      1.447      6.658
REMARK INTER + INTRA:          -8.930
REMARK INTER:                  -6.585
REMARK INTRA:                  -2.344
REMARK UNBOUND:                -1.939
REMARK SMILES O=C([O-])CCCCCCCCCCCCCCC(=O)[O-]
REMARK SMILES IDX 10 1 9 2 8 3 7 4 6 5 5 6 4 7 2 8 1 9 3 10 11 11 12 12 13 13
REMARK SMILES IDX 14 14 15 15 16 16 17 17 18 18 19 19 20 20
REMARK H PARENT
REMARK Flexibility Score: inf
ROOT
ATOM      1  C   UNL     1      40.171  24.692 223.394  1.00  0.00     0.000 C 
ENDROOT
BRANCH   1   2
ATOM      2  C   UNL     1      38.903  25.506 223.695  1.00  0.00     0.000 C 
BRANCH   2   3
ATOM      3  C   UNL     1      38.220  25.082 225.003  1.00  0.00     0.000 C 
BRANCH   3   4
ATOM      4  C   UNL     1      36.967  24.239 224.720  1.00  0.00     0.000 C 
BRANCH   4   5
ATOM      5  C   UNL     1      36.369  24.500 223.325  1.00  0.00     0.000 C 
BRANCH   5   6
ATOM      6  C   UNL     1      36.172  23.244 222.457  1.00  0.00     0.006 C 
BRANCH   6   7
ATOM      7  C   UNL     1      36.514  23.477 220.981  1.00  0.00     0.053 C 
BRANCH   7   8
ATOM      8  C   UNL     1      35.302  23.927 220.228  1.00  0.00     0.041 C 
ATOM      9  O   UNL     1      35.411  24.353 219.049  1.00  0.00    -0.550 OA
ATOM     10  O   UNL     1      34.045  23.828 220.812  1.00  0.00    -0.550 OA
ENDBRANCH   7   8
ENDBRANCH   6   7
ENDBRANCH   5   6
ENDBRANCH   4   5
ENDBRANCH   3   4
ENDBRANCH   2   3
ENDBRANCH   1   2
BRANCH   1  11
ATOM     11  C   UNL     1      40.000  23.754 222.186  1.00  0.00     0.000 C 
BRANCH  11  12
ATOM     12  C   UNL     1      39.807  22.286 222.601  1.00  0.00     0.000 C 
BRANCH  12  13
ATOM     13  C   UNL     1      40.521  21.944 223.918  1.00  0.00     0.000 C 
BRANCH  13  14
ATOM     14  C   UNL     1      39.507  21.576 225.011  1.00  0.00     0.000 C 
BRANCH  14  15
ATOM     15  C   UNL     1      38.323  20.749 224.478  1.00  0.00     0.000 C 
BRANCH  15  16
ATOM     16  C   UNL     1      38.316  19.267 224.907  1.00  0.00     0.006 C 
BRANCH  16  17
ATOM     17  C   UNL     1      39.419  18.411 224.265  1.00  0.00     0.053 C 
BRANCH  17  18
ATOM     18  C   UNL     1      40.256  17.714 225.293  1.00  0.00     0.041 C 
ATOM     19  O   UNL     1      40.099  16.484 225.509  1.00  0.00    -0.550 OA
ATOM     20  O   UNL     1      41.233  18.415 225.988  1.00  0.00    -0.550 OA
ENDBRANCH  17  18
ENDBRANCH  16  17
ENDBRANCH  15  16
ENDBRANCH  14  15
ENDBRANCH  13  14
ENDBRANCH  12  13
ENDBRANCH  11  12
ENDBRANCH   1  11
TORSDOF 15
ENDMDL
MODEL 4
REMARK VINA RESULT:    -3.691      1.776      3.100
REMARK INTER + INTRA:          -8.867
REMARK INTER:                  -6.987
REMARK INTRA:                  -1.880
REMARK UNBOUND:                -1.939
REMARK SMILES O=C([O-])CCCCCCCCCCCCCCC(=O)[O-]
REMARK SMILES IDX 10 1 9 2 8 3 7 4 6 5 5 6 4 7 2 8 1 9 3 10 11 11 12 12 13 13
REMARK SMILES IDX 14 14 15 15 16 16 17 17 18 18 19 19 20 20
REMARK H PARENT
REMARK Flexibility Score: inf
ROOT
ATOM      1  C   UNL     1      42.871  21.392 222.832  1.00  0.00     0.000 C 
ENDROOT
BRANCH   1   2
ATOM      2  C   UNL     1      42.437  19.921 222.921  1.00  0.00     0.000 C 
BRANCH   2   3
ATOM      3  C   UNL     1      41.019  19.685 222.379  1.00  0.00     0.000 C 
BRANCH   3   4
ATOM      4  C   UNL     1      39.961  20.163 223.385  1.00  0.00     0.000 C 
BRANCH   4   5
ATOM      5  C   UNL     1      40.036  19.425 224.734  1.00  0.00     0.000 C 
BRANCH   5   6
ATOM      6  C   UNL     1      39.113  18.199 224.857  1.00  0.00     0.006 C 
BRANCH   6   7
ATOM      7  C   UNL     1      38.197  18.260 226.085  1.00  0.00     0.053 C 
BRANCH   7   8
ATOM      8  C   UNL     1      36.795  17.895 225.710  1.00  0.00     0.041 C 
ATOM      9  O   UNL     1      35.982  17.517 226.594  1.00  0.00    -0.550 OA
ATOM     10  O   UNL     1      36.373  18.021 224.393  1.00  0.00    -0.550 OA
ENDBRANCH   7   8
ENDBRANCH   6   7
ENDBRANCH   5   6
ENDBRANCH   4   5
ENDBRANCH   3   4
ENDBRANCH   2   3
ENDBRANCH   1   2
BRANCH   1  11
ATOM     11  C   UNL     1      43.006  22.054 224.214  1.00  0.00     0.000 C 
BRANCH  11  12
ATOM     12  C   UNL     1      42.357  23.447 224.267  1.00  0.00     0.000 C 
BRANCH  12  13
ATOM     13  C   UNL     1      40.841  23.386 224.511  1.00  0.00     0.000 C 
BRANCH  13  14
ATOM     14  C   UNL     1      40.096  24.345 223.570  1.00  0.00     0.000 C 
BRANCH  14  15
ATOM     15  C   UNL     1      40.306  24.010 222.083  1.00  0.00     0.000 C 
BRANCH  15  16
ATOM     16  C   UNL     1      39.149  23.237 221.417  1.00  0.00     0.006 C 
BRANCH  16  17
ATOM     17  C   UNL     1      37.849  23.203 222.237  1.00  0.00     0.053 C 
BRANCH  17  18
ATOM     18  C   UNL     1      36.779  24.055 221.626  1.00  0.00     0.041 C 
ATOM     19  O   UNL     1      36.077  23.609 220.682  1.00  0.00    -0.550 OA
ATOM     20  O   UNL     1      36.535  25.329 222.123  1.00  0.00    -0.550 OA
ENDBRANCH  17  18
ENDBRANCH  16  17
ENDBRANCH  15  16
ENDBRANCH  14  15
ENDBRANCH  13  14
ENDBRANCH  12  13
ENDBRANCH  11  12
ENDBRANCH   1  11
TORSDOF 15
ENDMDL
MODEL 5
REMARK VINA RESULT:    -3.681      1.732      6.419
REMARK INTER + INTRA:          -8.848
REMARK INTER:                  -6.653
REMARK INTRA:                  -2.195
REMARK UNBOUND:                -1.939
REMARK SMILES O=C([O-])CCCCCCCCCCCCCCC(=O)[O-]
REMARK SMILES IDX 10 1 9 2 8 3 7 4 6 5 5 6 4 7 2 8 1 9 3 10 11 11 12 12 13 13
REMARK SMILES IDX 14 14 15 15 16 16 17 17 18 18 19 19 20 20
REMARK H PARENT
REMARK Flexibility Score: inf
ROOT
ATOM      1  C   UNL     1      40.253  22.528 221.736  1.00  0.00     0.000 C 
ENDROOT
BRANCH   1   2
ATOM      2  C   UNL     1      40.061  24.006 222.108  1.00  0.00     0.000 C 
BRANCH   2   3
ATOM      3  C   UNL     1      40.316  24.284 223.597  1.00  0.00     0.000 C 
BRANCH   3   4
ATOM      4  C   UNL     1      39.003  24.607 224.327  1.00  0.00     0.000 C 
BRANCH   4   5
ATOM      5  C   UNL     1      37.806  24.764 223.372  1.00  0.00     0.000 C 
BRANCH   5   6
ATOM      6  C   UNL     1      36.662  23.757 223.593  1.00  0.00     0.006 C 
BRANCH   6   7
ATOM      7  C   UNL     1      36.571  22.702 222.485  1.00  0.00     0.053 C 
BRANCH   7   8
ATOM      8  C   UNL     1      36.190  23.339 221.186  1.00  0.00     0.041 C 
ATOM      9  O   UNL     1      36.974  23.288 220.202  1.00  0.00    -0.550 OA
ATOM     10  O   UNL     1      34.948  23.944 221.047  1.00  0.00    -0.550 OA
ENDBRANCH   7   8
ENDBRANCH   6   7
ENDBRANCH   5   6
ENDBRANCH   4   5
ENDBRANCH   3   4
ENDBRANCH   2   3
ENDBRANCH   1   2
BRANCH   1  11
ATOM     11  C   UNL     1      41.637  21.991 222.140  1.00  0.00     0.000 C 
BRANCH  11  12
ATOM     12  C   UNL     1      41.937  20.613 221.529  1.00  0.00     0.000 C 
BRANCH  12  13
ATOM     13  C   UNL     1      41.034  19.505 222.094  1.00  0.00     0.000 C 
BRANCH  13  14
ATOM     14  C   UNL     1      41.101  19.474 223.628  1.00  0.00     0.000 C 
BRANCH  14  15
ATOM     15  C   UNL     1      39.711  19.468 224.290  1.00  0.00     0.000 C 
BRANCH  15  16
ATOM     16  C   UNL     1      39.184  20.855 224.713  1.00  0.00     0.006 C 
BRANCH  16  17
ATOM     17  C   UNL     1      38.278  20.841 225.955  1.00  0.00     0.053 C 
BRANCH  17  18
ATOM     18  C   UNL     1      38.925  20.150 227.114  1.00  0.00     0.041 C 
ATOM     19  O   UNL     1      39.986  20.609 227.613  1.00  0.00    -0.550 OA
ATOM     20  O   UNL     1      38.340  19.017 227.665  1.00  0.00    -0.550 OA
ENDBRANCH  17  18
ENDBRANCH  16  17
ENDBRANCH  15  16
ENDBRANCH  14  15
ENDBRANCH  13  14
ENDBRANCH  12  13
ENDBRANCH  11  12
ENDBRANCH   1  11
TORSDOF 15
ENDMDL
MODEL 6
REMARK VINA RESULT:    -3.627      1.923      2.644
REMARK INTER + INTRA:          -8.747
REMARK INTER:                  -6.279
REMARK INTRA:                  -2.468
REMARK UNBOUND:                -1.939
REMARK SMILES O=C([O-])CCCCCCCCCCCCCCC(=O)[O-]
REMARK SMILES IDX 10 1 9 2 8 3 7 4 6 5 5 6 4 7 2 8 1 9 3 10 11 11 12 12 13 13
REMARK SMILES IDX 14 14 15 15 16 16 17 17 18 18 19 19 20 20
REMARK H PARENT
REMARK Flexibility Score: inf
ROOT
ATOM      1  C   UNL     1      41.901  24.647 224.546  1.00  0.00     0.000 C 
ENDROOT
BRANCH   1   2
ATOM      2  C   UNL     1      42.585  23.277 224.671  1.00  0.00     0.000 C 
BRANCH   2   3
ATOM      3  C   UNL     1      42.277  22.347 223.487  1.00  0.00     0.000 C 
BRANCH   3   4
ATOM      4  C   UNL     1      41.217  22.968 222.564  1.00  0.00     0.000 C 
BRANCH   4   5
ATOM      5  C   UNL     1      39.913  22.151 222.510  1.00  0.00     0.000 C 
BRANCH   5   6
ATOM      6  C   UNL     1      39.796  21.043 223.572  1.00  0.00     0.006 C 
BRANCH   6   7
ATOM      7  C   UNL     1      38.812  21.392 224.695  1.00  0.00     0.053 C 
BRANCH   7   8
ATOM      8  C   UNL     1      39.400  21.055 226.029  1.00  0.00     0.041 C 
ATOM      9  O   UNL     1      38.692  21.121 227.068  1.00  0.00    -0.550 OA
ATOM     10  O   UNL     1      40.716  20.618 226.118  1.00  0.00    -0.550 OA
ENDBRANCH   7   8
ENDBRANCH   6   7
ENDBRANCH   5   6
ENDBRANCH   4   5
ENDBRANCH   3   4
ENDBRANCH   2   3
ENDBRANCH   1   2
BRANCH   1  11
ATOM     11  C   UNL     1      40.960  24.949 225.725  1.00  0.00     0.000 C 
BRANCH  11  12
ATOM     12  C   UNL     1      39.476  24.847 225.337  1.00  0.00     0.000 C 
BRANCH  12  13
ATOM     13  C   UNL     1      39.015  26.009 224.443  1.00  0.00     0.000 C 
BRANCH  13  14
ATOM     14  C   UNL     1      38.545  25.493 223.075  1.00  0.00     0.000 C 
BRANCH  14  15
ATOM     15  C   UNL     1      37.020  25.295 223.000  1.00  0.00     0.000 C 
BRANCH  15  16
ATOM     16  C   UNL     1      36.531  23.867 223.318  1.00  0.00     0.006 C 
BRANCH  16  17
ATOM     17  C   UNL     1      36.233  23.003 222.082  1.00  0.00     0.053 C 
BRANCH  17  18
ATOM     18  C   UNL     1      35.362  23.717 221.097  1.00  0.00     0.041 C 
ATOM     19  O   UNL     1      34.162  23.974 221.380  1.00  0.00    -0.550 OA
ATOM     20  O   UNL     1      35.883  24.131 219.877  1.00  0.00    -0.550 OA
ENDBRANCH  17  18
ENDBRANCH  16  17
ENDBRANCH  15  16
ENDBRANCH  14  15
ENDBRANCH  13  14
ENDBRANCH  12  13
ENDBRANCH  11  12
ENDBRANCH   1  11
TORSDOF 15
ENDMDL
MODEL 7
REMARK VINA RESULT:    -3.606      1.123      6.694
REMARK INTER + INTRA:          -8.708
REMARK INTER:                  -7.026
REMARK INTRA:                  -1.681
REMARK UNBOUND:                -1.939
REMARK SMILES O=C([O-])CCCCCCCCCCCCCCC(=O)[O-]
REMARK SMILES IDX 10 1 9 2 8 3 7 4 6 5 5 6 4 7 2 8 1 9 3 10 11 11 12 12 13 13
REMARK SMILES IDX 14 14 15 15 16 16 17 17 18 18 19 19 20 20
REMARK H PARENT
REMARK Flexibility Score: inf
ROOT
ATOM      1  C   UNL     1      40.401  23.941 222.337  1.00  0.00     0.000 C 
ENDROOT
BRANCH   1   2
ATOM      2  C   UNL     1      39.149  24.756 222.695  1.00  0.00     0.000 C 
BRANCH   2   3
ATOM      3  C   UNL     1      38.439  24.236 223.954  1.00  0.00     0.000 C 
BRANCH   3   4
ATOM      4  C   UNL     1      37.212  23.389 223.580  1.00  0.00     0.000 C 
BRANCH   4   5
ATOM      5  C   UNL     1      35.981  24.239 223.220  1.00  0.00     0.000 C 
BRANCH   5   6
ATOM      6  C   UNL     1      35.593  24.222 221.730  1.00  0.00     0.006 C 
BRANCH   6   7
ATOM      7  C   UNL     1      36.476  23.289 220.893  1.00  0.00     0.053 C 
BRANCH   7   8
ATOM      8  C   UNL     1      36.425  23.676 219.449  1.00  0.00     0.041 C 
ATOM      9  O   UNL     1      35.745  24.670 219.083  1.00  0.00    -0.550 OA
ATOM     10  O   UNL     1      37.171  22.970 218.513  1.00  0.00    -0.550 OA
ENDBRANCH   7   8
ENDBRANCH   6   7
ENDBRANCH   5   6
ENDBRANCH   4   5
ENDBRANCH   3   4
ENDBRANCH   2   3
ENDBRANCH   1   2
BRANCH   1  11
ATOM     11  C   UNL     1      40.062  22.574 221.720  1.00  0.00     0.000 C 
BRANCH  11  12
ATOM     12  C   UNL     1      40.729  21.407 222.467  1.00  0.00     0.000 C 
BRANCH  12  13
ATOM     13  C   UNL     1      41.284  21.821 223.838  1.00  0.00     0.000 C 
BRANCH  13  14
ATOM     14  C   UNL     1      40.379  21.313 224.971  1.00  0.00     0.000 C 
BRANCH  14  15
ATOM     15  C   UNL     1      39.515  20.109 224.554  1.00  0.00     0.000 C 
BRANCH  15  16
ATOM     16  C   UNL     1      38.205  19.938 225.352  1.00  0.00     0.006 C 
BRANCH  16  17
ATOM     17  C   UNL     1      38.288  18.927 226.506  1.00  0.00     0.053 C 
BRANCH  17  18
ATOM     18  C   UNL     1      37.426  17.728 226.264  1.00  0.00     0.041 C 
ATOM     19  O   UNL     1      37.742  16.611 226.751  1.00  0.00    -0.550 OA
ATOM     20  O   UNL     1      36.254  17.850 225.528  1.00  0.00    -0.550 OA
ENDBRANCH  17  18
ENDBRANCH  16  17
ENDBRANCH  15  16
ENDBRANCH  14  15
ENDBRANCH  13  14
ENDBRANCH  12  13
ENDBRANCH  11  12
ENDBRANCH   1  11
TORSDOF 15
ENDMDL
MODEL 8
REMARK VINA RESULT:    -3.573      2.217      6.617
REMARK INTER + INTRA:          -8.646
REMARK INTER:                  -6.287
REMARK INTRA:                  -2.359
REMARK UNBOUND:                -1.939
REMARK SMILES O=C([O-])CCCCCCCCCCCCCCC(=O)[O-]
REMARK SMILES IDX 10 1 9 2 8 3 7 4 6 5 5 6 4 7 2 8 1 9 3 10 11 11 12 12 13 13
REMARK SMILES IDX 14 14 15 15 16 16 17 17 18 18 19 19 20 20
REMARK H PARENT
REMARK Flexibility Score: inf
ROOT
ATOM      1  C   UNL     1      43.083  20.563 224.519  1.00  0.00     0.000 C 
ENDROOT
BRANCH   1   2
ATOM      2  C   UNL     1      43.162  21.376 223.218  1.00  0.00     0.000 C 
BRANCH   2   3
ATOM      3  C   UNL     1      42.422  20.705 222.050  1.00  0.00     0.000 C 
BRANCH   3   4
ATOM      4  C   UNL     1      41.050  21.357 221.823  1.00  0.00     0.000 C 
BRANCH   4   5
ATOM      5  C   UNL     1      41.017  22.844 222.221  1.00  0.00     0.000 C 
BRANCH   5   6
ATOM      6  C   UNL     1      39.920  23.221 223.233  1.00  0.00     0.006 C 
BRANCH   6   7
ATOM      7  C   UNL     1      38.652  22.371 223.085  1.00  0.00     0.053 C 
BRANCH   7   8
ATOM      8  C   UNL     1      37.577  23.153 222.398  1.00  0.00     0.041 C 
ATOM      9  O   UNL     1      37.659  23.395 221.165  1.00  0.00    -0.550 OA
ATOM     10  O   UNL     1      36.459  23.569 223.109  1.00  0.00    -0.550 OA
ENDBRANCH   7   8
ENDBRANCH   6   7
ENDBRANCH   5   6
ENDBRANCH   4   5
ENDBRANCH   3   4
ENDBRANCH   2   3
ENDBRANCH   1   2
BRANCH   1  11
ATOM     11  C   UNL     1      42.083  21.155 225.528  1.00  0.00     0.000 C 
BRANCH  11  12
ATOM     12  C   UNL     1      40.814  20.299 225.673  1.00  0.00     0.000 C 
BRANCH  12  13
ATOM     13  C   UNL     1      40.959  18.910 225.030  1.00  0.00     0.000 C 
BRANCH  13  14
ATOM     14  C   UNL     1      39.684  18.526 224.264  1.00  0.00     0.000 C 
BRANCH  14  15
ATOM     15  C   UNL     1      38.420  19.200 224.827  1.00  0.00     0.000 C 
BRANCH  15  16
ATOM     16  C   UNL     1      37.195  18.274 224.973  1.00  0.00     0.006 C 
BRANCH  16  17
ATOM     17  C   UNL     1      36.729  18.055 226.421  1.00  0.00     0.053 C 
BRANCH  17  18
ATOM     18  C   UNL     1      37.824  17.514 227.287  1.00  0.00     0.041 C 
ATOM     19  O   UNL     1      38.187  18.141 228.316  1.00  0.00    -0.550 OA
ATOM     20  O   UNL     1      38.421  16.299 226.976  1.00  0.00    -0.550 OA
ENDBRANCH  17  18
ENDBRANCH  16  17
ENDBRANCH  15  16
ENDBRANCH  14  15
ENDBRANCH  13  14
ENDBRANCH  12  13
ENDBRANCH  11  12
ENDBRANCH   1  11
TORSDOF 15
ENDMDL
MODEL 9
REMARK VINA RESULT:    -3.542      3.005      6.146
REMARK INTER + INTRA:          -8.588
REMARK INTER:                  -6.029
REMARK INTRA:                  -2.559
REMARK UNBOUND:                -1.939
REMARK SMILES O=C([O-])CCCCCCCCCCCCCCC(=O)[O-]
REMARK SMILES IDX 10 1 9 2 8 3 7 4 6 5 5 6 4 7 2 8 1 9 3 10 11 11 12 12 13 13
REMARK SMILES IDX 14 14 15 15 16 16 17 17 18 18 19 19 20 20
REMARK H PARENT
REMARK Flexibility Score: inf
ROOT
ATOM      1  C   UNL     1      41.937  19.128 223.467  1.00  0.00     0.000 C 
ENDROOT
BRANCH   1   2
ATOM      2  C   UNL     1      40.497  19.635 223.298  1.00  0.00     0.000 C 
BRANCH   2   3
ATOM      3  C   UNL     1      40.096  20.660 224.370  1.00  0.00     0.000 C 
BRANCH   3   4
ATOM      4  C   UNL     1      39.479  21.912 223.728  1.00  0.00     0.000 C 
BRANCH   4   5
ATOM      5  C   UNL     1      40.073  22.234 222.345  1.00  0.00     0.000 C 
BRANCH   5   6
ATOM      6  C   UNL     1      39.527  23.513 221.685  1.00  0.00     0.006 C 
BRANCH   6   7
ATOM      7  C   UNL     1      38.126  23.890 222.181  1.00  0.00     0.053 C 
BRANCH   7   8
ATOM      8  C   UNL     1      37.081  23.359 221.251  1.00  0.00     0.041 C 
ATOM      9  O   UNL     1      35.959  23.001 221.696  1.00  0.00    -0.550 OA
ATOM     10  O   UNL     1      37.330  23.306 219.885  1.00  0.00    -0.550 OA
ENDBRANCH   7   8
ENDBRANCH   6   7
ENDBRANCH   5   6
ENDBRANCH   4   5
ENDBRANCH   3   4
ENDBRANCH   2   3
ENDBRANCH   1   2
BRANCH   1  11
ATOM     11  C   UNL     1      42.918  19.794 222.487  1.00  0.00     0.000 C 
BRANCH  11  12
ATOM     12  C   UNL     1      43.657  20.989 223.112  1.00  0.00     0.000 C 
BRANCH  12  13
ATOM     13  C   UNL     1      43.944  20.790 224.609  1.00  0.00     0.000 C 
BRANCH  13  14
ATOM     14  C   UNL     1      43.484  22.011 225.420  1.00  0.00     0.000 C 
BRANCH  14  15
ATOM     15  C   UNL     1      42.881  23.122 224.543  1.00  0.00     0.000 C 
BRANCH  15  16
ATOM     16  C   UNL     1      42.164  24.248 225.316  1.00  0.00     0.006 C 
BRANCH  16  17
ATOM     17  C   UNL     1      41.451  25.280 224.427  1.00  0.00     0.053 C 
BRANCH  17  18
ATOM     18  C   UNL     1      40.047  25.533 224.879  1.00  0.00     0.041 C 
ATOM     19  O   UNL     1      39.510  24.782 225.735  1.00  0.00    -0.550 OA
ATOM     20  O   UNL     1      39.340  26.621 224.380  1.00  0.00    -0.550 OA
ENDBRANCH  17  18
ENDBRANCH  16  17
ENDBRANCH  15  16
ENDBRANCH  14  15
ENDBRANCH  13  14
ENDBRANCH  12  13
ENDBRANCH  11  12
ENDBRANCH   1  11
TORSDOF 15
ENDMDL
