MODEL 1
REMARK VINA RESULT:    -3.733      0.000      0.000
REMARK INTER + INTRA:          -6.100
REMARK INTER:                  -5.479
REMARK INTRA:                  -0.621
REMARK UNBOUND:                -0.621
REMARK SMILES O=C([O-])CCCCCCCC(=O)[O-]
REMARK SMILES IDX 7 1 6 2 5 3 4 4 2 5 1 6 3 7 8 8 9 9 10 10 11 11 12 12 13 13
REMARK H PARENT
REMARK Flexibility Score: inf
ROOT
ATOM      1  C   UNL     1     -22.336   6.612  17.404  1.00  0.00     0.000 C 
ENDROOT
BRANCH   1   2
ATOM      2  C   UNL     1     -21.277   6.050  16.449  1.00  0.00     0.000 C 
BRANCH   2   3
ATOM      3  C   UNL     1     -20.252   7.125  16.066  1.00  0.00     0.006 C 
BRANCH   3   4
ATOM      4  C   UNL     1     -18.823   6.592  16.191  1.00  0.00     0.053 C 
BRANCH   4   5
ATOM      5  C   UNL     1     -18.469   6.375  17.628  1.00  0.00     0.041 C 
ATOM      6  O   UNL     1     -18.142   5.230  18.035  1.00  0.00    -0.550 OA
ATOM      7  O   UNL     1     -18.451   7.449  18.509  1.00  0.00    -0.550 OA
ENDBRANCH   4   5
ENDBRANCH   3   4
ENDBRANCH   2   3
ENDBRANCH   1   2
BRANCH   1   8
ATOM      8  C   UNL     1     -21.895   7.968  17.977  1.00  0.00     0.000 C 
BRANCH   8   9
ATOM      9  C   UNL     1     -22.038   8.042  19.509  1.00  0.00     0.006 C 
BRANCH   9  10
ATOM     10  C   UNL     1     -23.489   8.155  20.003  1.00  0.00     0.053 C 
BRANCH  10  11
ATOM     11  C   UNL     1     -23.901   6.963  20.810  1.00  0.00     0.041 C 
ATOM     12  O   UNL     1     -24.972   6.987  21.473  1.00  0.00    -0.550 OA
ATOM     13  O   UNL     1     -23.120   5.815  20.804  1.00  0.00    -0.550 OA
ENDBRANCH  10  11
ENDBRANCH   9  10
ENDBRANCH   8   9
ENDBRANCH   1   8
TORSDOF 8
ENDMDL
MODEL 2
REMARK VINA RESULT:    -3.681      0.487      5.486
REMARK INTER + INTRA:          -6.024
REMARK INTER:                  -5.484
REMARK INTRA:                  -0.540
REMARK UNBOUND:                -0.621
REMARK SMILES O=C([O-])CCCCCCCC(=O)[O-]
REMARK SMILES IDX 7 1 6 2 5 3 4 4 2 5 1 6 3 7 8 8 9 9 10 10 11 11 12 12 13 13
REMARK H PARENT
REMARK Flexibility Score: inf
ROOT
ATOM      1  C   UNL     1     -22.375   6.431  17.750  1.00  0.00     0.000 C 
ENDROOT
BRANCH   1   2
ATOM      2  C   UNL     1     -22.040   7.813  18.323  1.00  0.00     0.000 C 
BRANCH   2   3
ATOM      3  C   UNL     1     -23.192   8.348  19.182  1.00  0.00     0.006 C 
BRANCH   3   4
ATOM      4  C   UNL     1     -22.975   8.015  20.661  1.00  0.00     0.053 C 
BRANCH   4   5
ATOM      5  C   UNL     1     -23.856   6.879  21.076  1.00  0.00     0.041 C 
ATOM      6  O   UNL     1     -25.039   7.097  21.446  1.00  0.00    -0.550 OA
ATOM      7  O   UNL     1     -23.385   5.574  21.008  1.00  0.00    -0.550 OA
ENDBRANCH   4   5
ENDBRANCH   3   4
ENDBRANCH   2   3
ENDBRANCH   1   2
BRANCH   1   8
ATOM      8  C   UNL     1     -21.446   6.082  16.576  1.00  0.00     0.000 C 
BRANCH   8   9
ATOM      9  C   UNL     1     -20.479   7.227  16.222  1.00  0.00     0.006 C 
BRANCH   9  10
ATOM     10  C   UNL     1     -18.994   6.830  16.245  1.00  0.00     0.053 C 
BRANCH  10  11
ATOM     11  C   UNL     1     -18.508   6.556  17.634  1.00  0.00     0.041 C 
ATOM     12  O   UNL     1     -18.088   5.410  17.944  1.00  0.00    -0.550 OA
ATOM     13  O   UNL     1     -18.488   7.575  18.578  1.00  0.00    -0.550 OA
ENDBRANCH  10  11
ENDBRANCH   9  10
ENDBRANCH   8   9
ENDBRANCH   1   8
TORSDOF 8
ENDMDL
MODEL 3
REMARK VINA RESULT:    -3.592      2.260      5.360
REMARK INTER + INTRA:          -5.893
REMARK INTER:                  -5.171
REMARK INTRA:                  -0.722
REMARK UNBOUND:                -0.621
REMARK SMILES O=C([O-])CCCCCCCC(=O)[O-]
REMARK SMILES IDX 7 1 6 2 5 3 4 4 2 5 1 6 3 7 8 8 9 9 10 10 11 11 12 12 13 13
REMARK H PARENT
REMARK Flexibility Score: inf
ROOT
ATOM      1  C   UNL     1     -22.129   8.114  21.017  1.00  0.00     0.000 C 
ENDROOT
BRANCH   1   2
ATOM      2  C   UNL     1     -23.637   8.081  20.744  1.00  0.00     0.000 C 
BRANCH   2   3
ATOM      3  C   UNL     1     -24.201   6.667  20.933  1.00  0.00     0.006 C 
BRANCH   3   4
ATOM      4  C   UNL     1     -23.187   5.760  21.635  1.00  0.00     0.053 C 
BRANCH   4   5
ATOM      5  C   UNL     1     -23.878   4.597  22.274  1.00  0.00     0.041 C 
ATOM      6  O   UNL     1     -24.429   4.727  23.398  1.00  0.00    -0.550 OA
ATOM      7  O   UNL     1     -23.956   3.383  21.605  1.00  0.00    -0.550 OA
ENDBRANCH   4   5
ENDBRANCH   3   4
ENDBRANCH   2   3
ENDBRANCH   1   2
BRANCH   1   8
ATOM      8  C   UNL     1     -21.378   8.808  19.870  1.00  0.00     0.000 C 
BRANCH   8   9
ATOM      9  C   UNL     1     -22.050   8.593  18.501  1.00  0.00     0.006 C 
BRANCH   9  10
ATOM     10  C   UNL     1     -21.349   7.556  17.609  1.00  0.00     0.053 C 
BRANCH  10  11
ATOM     11  C   UNL     1     -21.854   6.169  17.858  1.00  0.00     0.041 C 
ATOM     12  O   UNL     1     -22.869   5.745  17.244  1.00  0.00    -0.550 OA
ATOM     13  O   UNL     1     -21.185   5.333  18.742  1.00  0.00    -0.550 OA
ENDBRANCH  10  11
ENDBRANCH   9  10
ENDBRANCH   8   9
ENDBRANCH   1   8
TORSDOF 8
ENDMDL
MODEL 4
REMARK VINA RESULT:    -3.583      1.934      3.426
REMARK INTER + INTRA:          -5.880
REMARK INTER:                  -5.032
REMARK INTRA:                  -0.848
REMARK UNBOUND:                -0.621
REMARK SMILES O=C([O-])CCCCCCCC(=O)[O-]
REMARK SMILES IDX 7 1 6 2 5 3 4 4 2 5 1 6 3 7 8 8 9 9 10 10 11 11 12 12 13 13
REMARK H PARENT
REMARK Flexibility Score: inf
ROOT
ATOM      1  C   UNL     1     -23.348   8.106  20.758  1.00  0.00     0.000 C 
ENDROOT
BRANCH   1   2
ATOM      2  C   UNL     1     -23.338   8.361  19.246  1.00  0.00     0.000 C 
BRANCH   2   3
ATOM      3  C   UNL     1     -21.904   8.427  18.707  1.00  0.00     0.006 C 
BRANCH   3   4
ATOM      4  C   UNL     1     -21.733   7.516  17.488  1.00  0.00     0.053 C 
BRANCH   4   5
ATOM      5  C   UNL     1     -20.307   7.081  17.356  1.00  0.00     0.041 C 
ATOM      6  O   UNL     1     -19.933   6.437  16.341  1.00  0.00    -0.550 OA
ATOM      7  O   UNL     1     -19.381   7.430  18.330  1.00  0.00    -0.550 OA
ENDBRANCH   4   5
ENDBRANCH   3   4
ENDBRANCH   2   3
ENDBRANCH   1   2
BRANCH   1   8
ATOM      8  C   UNL     1     -24.242   6.907  21.107  1.00  0.00     0.000 C 
BRANCH   8   9
ATOM      9  C   UNL     1     -23.435   5.651  21.486  1.00  0.00     0.006 C 
BRANCH   9  10
ATOM     10  C   UNL     1     -22.803   4.921  20.291  1.00  0.00     0.053 C 
BRANCH  10  11
ATOM     11  C   UNL     1     -21.308   5.011  20.305  1.00  0.00     0.041 C 
ATOM     12  O   UNL     1     -20.621   4.258  19.565  1.00  0.00    -0.550 OA
ATOM     13  O   UNL     1     -20.675   5.949  21.111  1.00  0.00    -0.550 OA
ENDBRANCH  10  11
ENDBRANCH   9  10
ENDBRANCH   8   9
ENDBRANCH   1   8
TORSDOF 8
ENDMDL
MODEL 5
REMARK VINA RESULT:    -3.542      2.576      4.002
REMARK INTER + INTRA:          -5.820
REMARK INTER:                  -4.883
REMARK INTRA:                  -0.937
REMARK UNBOUND:                -0.621
REMARK SMILES O=C([O-])CCCCCCCC(=O)[O-]
REMARK SMILES IDX 7 1 6 2 5 3 4 4 2 5 1 6 3 7 8 8 9 9 10 10 11 11 12 12 13 13
REMARK H PARENT
REMARK Flexibility Score: inf
ROOT
ATOM      1  C   UNL     1     -21.689   5.859  17.829  1.00  0.00     0.000 C 
ENDROOT
BRANCH   1   2
ATOM      2  C   UNL     1     -20.571   5.719  18.868  1.00  0.00     0.000 C 
BRANCH   2   3
ATOM      3  C   UNL     1     -20.981   4.762  19.994  1.00  0.00     0.006 C 
BRANCH   3   4
ATOM      4  C   UNL     1     -22.491   4.511  19.980  1.00  0.00     0.053 C 
BRANCH   4   5
ATOM      5  C   UNL     1     -22.981   4.185  21.355  1.00  0.00     0.041 C 
ATOM      6  O   UNL     1     -22.647   4.902  22.334  1.00  0.00    -0.550 OA
ATOM      7  O   UNL     1     -23.847   3.116  21.548  1.00  0.00    -0.550 OA
ENDBRANCH   4   5
ENDBRANCH   3   4
ENDBRANCH   2   3
ENDBRANCH   1   2
BRANCH   1   8
ATOM      8  C   UNL     1     -21.801   7.310  17.334  1.00  0.00     0.000 C 
BRANCH   8   9
ATOM      9  C   UNL     1     -21.804   8.333  18.485  1.00  0.00     0.006 C 
BRANCH   9  10
ATOM     10  C   UNL     1     -23.175   8.535  19.149  1.00  0.00     0.053 C 
BRANCH  10  11
ATOM     11  C   UNL     1     -23.197   8.025  20.557  1.00  0.00     0.041 C 
ATOM     12  O   UNL     1     -24.272   7.605  21.062  1.00  0.00    -0.550 OA
ATOM     13  O   UNL     1     -22.024   7.983  21.300  1.00  0.00    -0.550 OA
ENDBRANCH  10  11
ENDBRANCH   9  10
ENDBRANCH   8   9
ENDBRANCH   1   8
TORSDOF 8
ENDMDL
MODEL 6
REMARK VINA RESULT:    -3.524      1.815      3.084
REMARK INTER + INTRA:          -5.793
REMARK INTER:                  -5.190
REMARK INTRA:                  -0.603
REMARK UNBOUND:                -0.621
REMARK SMILES O=C([O-])CCCCCCCC(=O)[O-]
REMARK SMILES IDX 7 1 6 2 5 3 4 4 2 5 1 6 3 7 8 8 9 9 10 10 11 11 12 12 13 13
REMARK H PARENT
REMARK Flexibility Score: inf
ROOT
ATOM      1  C   UNL     1     -22.133   8.113  20.429  1.00  0.00     0.000 C 
ENDROOT
BRANCH   1   2
ATOM      2  C   UNL     1     -21.649   8.389  19.000  1.00  0.00     0.000 C 
BRANCH   2   3
ATOM      3  C   UNL     1     -22.509   7.644  17.972  1.00  0.00     0.006 C 
BRANCH   3   4
ATOM      4  C   UNL     1     -21.860   6.317  17.571  1.00  0.00     0.053 C 
BRANCH   4   5
ATOM      5  C   UNL     1     -20.512   6.555  16.968  1.00  0.00     0.041 C 
ATOM      6  O   UNL     1     -20.405   7.170  15.875  1.00  0.00    -0.550 OA
ATOM      7  O   UNL     1     -19.368   6.139  17.638  1.00  0.00    -0.550 OA
ENDBRANCH   4   5
ENDBRANCH   3   4
ENDBRANCH   2   3
ENDBRANCH   1   2
BRANCH   1   8
ATOM      8  C   UNL     1     -23.668   8.080  20.491  1.00  0.00     0.000 C 
BRANCH   8   9
ATOM      9  C   UNL     1     -24.211   6.798  21.150  1.00  0.00     0.006 C 
BRANCH   9  10
ATOM     10  C   UNL     1     -23.150   5.711  21.386  1.00  0.00     0.053 C 
BRANCH  10  11
ATOM     11  C   UNL     1     -23.738   4.478  22.001  1.00  0.00     0.041 C 
ATOM     12  O   UNL     1     -23.520   3.349  21.487  1.00  0.00    -0.550 OA
ATOM     13  O   UNL     1     -24.497   4.573  23.160  1.00  0.00    -0.550 OA
ENDBRANCH  10  11
ENDBRANCH   9  10
ENDBRANCH   8   9
ENDBRANCH   1   8
TORSDOF 8
ENDMDL
MODEL 7
REMARK VINA RESULT:    -3.489      2.532      4.425
REMARK INTER + INTRA:          -5.743
REMARK INTER:                  -5.013
REMARK INTRA:                  -0.729
REMARK UNBOUND:                -0.621
REMARK SMILES O=C([O-])CCCCCCCC(=O)[O-]
REMARK SMILES IDX 7 1 6 2 5 3 4 4 2 5 1 6 3 7 8 8 9 9 10 10 11 11 12 12 13 13
REMARK H PARENT
REMARK Flexibility Score: inf
ROOT
ATOM      1  C   UNL     1     -21.443   6.129  17.732  1.00  0.00     0.000 C 
ENDROOT
BRANCH   1   2
ATOM      2  C   UNL     1     -21.674   7.593  17.339  1.00  0.00     0.000 C 
BRANCH   2   3
ATOM      3  C   UNL     1     -21.871   8.472  18.580  1.00  0.00     0.006 C 
BRANCH   3   4
ATOM      4  C   UNL     1     -23.310   8.383  19.094  1.00  0.00     0.053 C 
BRANCH   4   5
ATOM      5  C   UNL     1     -23.334   7.856  20.494  1.00  0.00     0.041 C 
ATOM      6  O   UNL     1     -24.411   7.441  20.997  1.00  0.00    -0.550 OA
ATOM      7  O   UNL     1     -22.157   7.778  21.228  1.00  0.00    -0.550 OA
ENDBRANCH   4   5
ENDBRANCH   3   4
ENDBRANCH   2   3
ENDBRANCH   1   2
BRANCH   1   8
ATOM      8  C   UNL     1     -20.144   5.976  18.540  1.00  0.00     0.000 C 
BRANCH   8   9
ATOM      9  C   UNL     1     -20.290   5.000  19.723  1.00  0.00     0.006 C 
BRANCH   9  10
ATOM     10  C   UNL     1     -21.725   4.503  19.959  1.00  0.00     0.053 C 
BRANCH  10  11
ATOM     11  C   UNL     1     -21.757   3.080  20.423  1.00  0.00     0.041 C 
ATOM     12  O   UNL     1     -22.835   2.569  20.826  1.00  0.00    -0.550 OA
ATOM     13  O   UNL     1     -20.602   2.308  20.379  1.00  0.00    -0.550 OA
ENDBRANCH  10  11
ENDBRANCH   9  10
ENDBRANCH   8   9
ENDBRANCH   1   8
TORSDOF 8
ENDMDL
MODEL 8
REMARK VINA RESULT:    -3.480      1.633      2.514
REMARK INTER + INTRA:          -5.728
REMARK INTER:                  -4.952
REMARK INTRA:                  -0.776
REMARK UNBOUND:                -0.621
REMARK SMILES O=C([O-])CCCCCCCC(=O)[O-]
REMARK SMILES IDX 7 1 6 2 5 3 4 4 2 5 1 6 3 7 8 8 9 9 10 10 11 11 12 12 13 13
REMARK H PARENT
REMARK Flexibility Score: inf
ROOT
ATOM      1  C   UNL     1     -20.425   7.200  16.116  1.00  0.00     0.000 C 
ENDROOT
BRANCH   1   2
ATOM      2  C   UNL     1     -18.987   6.683  16.242  1.00  0.00     0.000 C 
BRANCH   2   3
ATOM      3  C   UNL     1     -18.457   6.870  17.669  1.00  0.00     0.006 C 
BRANCH   3   4
ATOM      4  C   UNL     1     -18.232   5.519  18.353  1.00  0.00     0.053 C 
BRANCH   4   5
ATOM      5  C   UNL     1     -19.225   5.317  19.454  1.00  0.00     0.041 C 
ATOM      6  O   UNL     1     -19.734   4.183  19.649  1.00  0.00    -0.550 OA
ATOM      7  O   UNL     1     -19.550   6.372  20.297  1.00  0.00    -0.550 OA
ENDBRANCH   4   5
ENDBRANCH   3   4
ENDBRANCH   2   3
ENDBRANCH   1   2
BRANCH   1   8
ATOM      8  C   UNL     1     -21.435   6.134  16.567  1.00  0.00     0.000 C 
BRANCH   8   9
ATOM      9  C   UNL     1     -22.334   6.615  17.722  1.00  0.00     0.006 C 
BRANCH   9  10
ATOM     10  C   UNL     1     -22.049   8.052  18.188  1.00  0.00     0.053 C 
BRANCH  10  11
ATOM     11  C   UNL     1     -22.551   8.301  19.576  1.00  0.00     0.041 C 
ATOM     12  O   UNL     1     -21.799   8.829  20.437  1.00  0.00    -0.550 OA
ATOM     13  O   UNL     1     -23.861   7.980  19.910  1.00  0.00    -0.550 OA
ENDBRANCH  10  11
ENDBRANCH   9  10
ENDBRANCH   8   9
ENDBRANCH   1   8
TORSDOF 8
ENDMDL
MODEL 9
REMARK VINA RESULT:    -3.451      1.535      2.558
REMARK INTER + INTRA:          -5.687
REMARK INTER:                  -4.799
REMARK INTRA:                  -0.888
REMARK UNBOUND:                -0.621
REMARK SMILES O=C([O-])CCCCCCCC(=O)[O-]
REMARK SMILES IDX 7 1 6 2 5 3 4 4 2 5 1 6 3 7 8 8 9 9 10 10 11 11 12 12 13 13
REMARK H PARENT
REMARK Flexibility Score: inf
ROOT
ATOM      1  C   UNL     1     -20.447   7.178  15.971  1.00  0.00     0.000 C 
ENDROOT
BRANCH   1   2
ATOM      2  C   UNL     1     -18.971   6.874  16.253  1.00  0.00     0.000 C 
BRANCH   2   3
ATOM      3  C   UNL     1     -18.798   6.207  17.624  1.00  0.00     0.006 C 
BRANCH   3   4
ATOM      4  C   UNL     1     -18.320   7.217  18.670  1.00  0.00     0.053 C 
BRANCH   4   5
ATOM      5  C   UNL     1     -19.449   7.613  19.569  1.00  0.00     0.041 C 
ATOM      6  O   UNL     1     -20.160   8.613  19.290  1.00  0.00    -0.550 OA
ATOM      7  O   UNL     1     -19.745   6.848  20.690  1.00  0.00    -0.550 OA
ENDBRANCH   4   5
ENDBRANCH   3   4
ENDBRANCH   2   3
ENDBRANCH   1   2
BRANCH   1   8
ATOM      8  C   UNL     1     -21.355   6.088  16.562  1.00  0.00     0.000 C 
BRANCH   8   9
ATOM      9  C   UNL     1     -22.438   6.658  17.499  1.00  0.00     0.006 C 
BRANCH   9  10
ATOM     10  C   UNL     1     -22.661   5.838  18.779  1.00  0.00     0.053 C 
BRANCH  10  11
ATOM     11  C   UNL     1     -23.220   6.673  19.889  1.00  0.00     0.041 C 
ATOM     12  O   UNL     1     -23.294   6.207  21.057  1.00  0.00    -0.550 OA
ATOM     13  O   UNL     1     -23.627   7.978  19.642  1.00  0.00    -0.550 OA
ENDBRANCH  10  11
ENDBRANCH   9  10
ENDBRANCH   8   9
ENDBRANCH   1   8
TORSDOF 8
ENDMDL
