MODEL 1
REMARK VINA RESULT:    -5.782      0.000      0.000
REMARK INTER + INTRA:         -16.018
REMARK INTER:                 -13.217
REMARK INTRA:                  -2.801
REMARK UNBOUND:                -2.801
REMARK SMILES CCCCCCCCCCCCCCCCCCCCCCCC(=O)[O-]
REMARK SMILES IDX 13 1 14 2 15 3 16 4 17 5 18 6 19 7 20 8 21 9 22 10 23 11
REMARK SMILES IDX 24 12 25 13 26 14 12 15 11 16 10 17 9 18 8 19 7 20 6 21 5 22
REMARK SMILES IDX 4 23 3 24 2 25 1 26
REMARK H PARENT
REMARK Flexibility Score: inf
ROOT
ATOM      1  C   UNL     1      -0.359 -27.044   7.326  1.00  0.00     0.000 C 
ENDROOT
BRANCH   1   2
ATOM      2  C   UNL     1      -0.200 -27.186   5.803  1.00  0.00     0.000 C 
BRANCH   2   3
ATOM      3  C   UNL     1      -0.440 -28.623   5.310  1.00  0.00     0.000 C 
BRANCH   3   4
ATOM      4  C   UNL     1       0.869 -29.376   5.028  1.00  0.00     0.000 C 
BRANCH   4   5
ATOM      5  C   UNL     1       1.560 -28.904   3.739  1.00  0.00     0.000 C 
BRANCH   5   6
ATOM      6  C   UNL     1       1.452 -29.965   2.638  1.00  0.00     0.000 C 
BRANCH   6   7
ATOM      7  C   UNL     1       0.183 -29.756   1.797  1.00  0.00     0.000 C 
BRANCH   7   8
ATOM      8  C   UNL     1      -0.156 -28.270   1.588  1.00  0.00     0.000 C 
BRANCH   8   9
ATOM      9  C   UNL     1      -1.662 -27.945   1.578  1.00  0.00     0.000 C 
BRANCH   9  10
ATOM     10  C   UNL     1      -1.985 -26.480   1.945  1.00  0.00     0.006 C 
BRANCH  10  11
ATOM     11  C   UNL     1      -2.505 -25.679   0.744  1.00  0.00     0.053 C 
BRANCH  11  12
ATOM     12  C   UNL     1      -1.652 -24.474   0.509  1.00  0.00     0.041 C 
ATOM     13  O   UNL     1      -1.596 -23.558   1.372  1.00  0.00    -0.550 OA
ATOM     14  O   UNL     1      -0.956 -24.337  -0.686  1.00  0.00    -0.550 OA
ENDBRANCH  11  12
ENDBRANCH  10  11
ENDBRANCH   9  10
ENDBRANCH   8   9
ENDBRANCH   7   8
ENDBRANCH   6   7
ENDBRANCH   5   6
ENDBRANCH   4   5
ENDBRANCH   3   4
ENDBRANCH   2   3
ENDBRANCH   1   2
BRANCH   1  15
ATOM     15  C   UNL     1       0.961 -26.997   8.120  1.00  0.00     0.000 C 
BRANCH  15  16
ATOM     16  C   UNL     1       1.432 -28.376   8.631  1.00  0.00     0.000 C 
BRANCH  16  17
ATOM     17  C   UNL     1       0.255 -29.319   8.933  1.00  0.00     0.000 C 
BRANCH  17  18
ATOM     18  C   UNL     1       0.053 -29.547  10.446  1.00  0.00    -0.000 C 
BRANCH  18  19
ATOM     19  C   UNL     1       1.104 -28.842  11.325  1.00  0.00    -0.000 C 
BRANCH  19  20
ATOM     20  C   UNL     1       0.536 -27.781  12.287  1.00  0.00    -0.000 C 
BRANCH  20  21
ATOM     21  C   UNL     1       0.141 -26.444  11.627  1.00  0.00    -0.000 C 
BRANCH  21  22
ATOM     22  C   UNL     1      -1.362 -26.113  11.670  1.00  0.00    -0.000 C 
BRANCH  22  23
ATOM     23  C   UNL     1      -2.031 -26.188  10.291  1.00  0.00    -0.000 C 
BRANCH  23  24
ATOM     24  C   UNL     1      -3.560 -26.248  10.425  1.00  0.00    -0.000 C 
BRANCH  24  25
ATOM     25  C   UNL     1      -4.240 -24.927  10.031  1.00  0.00    -0.003 C 
ATOM     26  C   UNL     1      -4.253 -23.907  11.168  1.00  0.00     0.004 C 
ENDBRANCH  24  25
ENDBRANCH  23  24
ENDBRANCH  22  23
ENDBRANCH  21  22
ENDBRANCH  20  21
ENDBRANCH  19  20
ENDBRANCH  18  19
ENDBRANCH  17  18
ENDBRANCH  16  17
ENDBRANCH  15  16
ENDBRANCH   1  15
TORSDOF 22
ENDMDL
MODEL 2
REMARK VINA RESULT:    -5.614      2.992      8.315
REMARK INTER + INTRA:         -15.636
REMARK INTER:                 -12.568
REMARK INTRA:                  -3.068
REMARK UNBOUND:                -2.801
REMARK SMILES CCCCCCCCCCCCCCCCCCCCCCCC(=O)[O-]
REMARK SMILES IDX 13 1 14 2 15 3 16 4 17 5 18 6 19 7 20 8 21 9 22 10 23 11
REMARK SMILES IDX 24 12 25 13 26 14 12 15 11 16 10 17 9 18 8 19 7 20 6 21 5 22
REMARK SMILES IDX 4 23 3 24 2 25 1 26
REMARK H PARENT
REMARK Flexibility Score: inf
ROOT
ATOM      1  C   UNL     1      -0.518 -27.011   8.017  1.00  0.00     0.000 C 
ENDROOT
BRANCH   1   2
ATOM      2  C   UNL     1      -1.026 -28.357   8.558  1.00  0.00     0.000 C 
BRANCH   2   3
ATOM      3  C   UNL     1       0.106 -29.378   8.774  1.00  0.00     0.000 C 
BRANCH   3   4
ATOM      4  C   UNL     1       0.017 -30.075  10.141  1.00  0.00     0.000 C 
BRANCH   4   5
ATOM      5  C   UNL     1       1.189 -29.718  11.068  1.00  0.00     0.000 C 
BRANCH   5   6
ATOM      6  C   UNL     1       0.833 -28.534  11.974  1.00  0.00     0.000 C 
BRANCH   6   7
ATOM      7  C   UNL     1       1.434 -27.228  11.432  1.00  0.00     0.000 C 
BRANCH   7   8
ATOM      8  C   UNL     1       0.391 -26.106  11.291  1.00  0.00     0.000 C 
BRANCH   8   9
ATOM      9  C   UNL     1      -1.001 -26.440  11.861  1.00  0.00     0.000 C 
BRANCH   9  10
ATOM     10  C   UNL     1      -2.119 -25.495  11.368  1.00  0.00     0.006 C 
BRANCH  10  11
ATOM     11  C   UNL     1      -3.110 -26.202  10.435  1.00  0.00     0.053 C 
BRANCH  11  12
ATOM     12  C   UNL     1      -4.393 -25.438  10.359  1.00  0.00     0.041 C 
ATOM     13  O   UNL     1      -4.526 -24.357  10.992  1.00  0.00    -0.550 OA
ATOM     14  O   UNL     1      -5.462 -25.945   9.631  1.00  0.00    -0.550 OA
ENDBRANCH  11  12
ENDBRANCH  10  11
ENDBRANCH   9  10
ENDBRANCH   8   9
ENDBRANCH   7   8
ENDBRANCH   6   7
ENDBRANCH   5   6
ENDBRANCH   4   5
ENDBRANCH   3   4
ENDBRANCH   2   3
ENDBRANCH   1   2
BRANCH   1  15
ATOM     15  C   UNL     1       0.948 -27.008   7.541  1.00  0.00     0.000 C 
BRANCH  15  16
ATOM     16  C   UNL     1       1.106 -27.003   6.005  1.00  0.00     0.000 C 
BRANCH  16  17
ATOM     17  C   UNL     1      -0.165 -27.489   5.287  1.00  0.00     0.000 C 
BRANCH  17  18
ATOM     18  C   UNL     1      -0.165 -29.014   5.048  1.00  0.00    -0.000 C 
BRANCH  18  19
ATOM     19  C   UNL     1       1.198 -29.568   4.589  1.00  0.00    -0.000 C 
BRANCH  19  20
ATOM     20  C   UNL     1       1.534 -29.312   3.107  1.00  0.00    -0.000 C 
BRANCH  20  21
ATOM     21  C   UNL     1       0.382 -29.590   2.119  1.00  0.00    -0.000 C 
BRANCH  21  22
ATOM     22  C   UNL     1      -0.169 -28.349   1.392  1.00  0.00    -0.000 C 
BRANCH  22  23
ATOM     23  C   UNL     1      -1.633 -28.049   1.747  1.00  0.00    -0.000 C 
BRANCH  23  24
ATOM     24  C   UNL     1      -1.815 -26.569   2.114  1.00  0.00    -0.000 C 
BRANCH  24  25
ATOM     25  C   UNL     1      -2.417 -25.744   0.966  1.00  0.00    -0.003 C 
ATOM     26  C   UNL     1      -1.392 -25.397  -0.112  1.00  0.00     0.004 C 
ENDBRANCH  24  25
ENDBRANCH  23  24
ENDBRANCH  22  23
ENDBRANCH  21  22
ENDBRANCH  20  21
ENDBRANCH  19  20
ENDBRANCH  18  19
ENDBRANCH  17  18
ENDBRANCH  16  17
ENDBRANCH  15  16
ENDBRANCH   1  15
TORSDOF 22
ENDMDL
MODEL 3
REMARK VINA RESULT:    -5.524      2.970      8.458
REMARK INTER + INTRA:         -15.430
REMARK INTER:                 -12.445
REMARK INTRA:                  -2.984
REMARK UNBOUND:                -2.801
REMARK SMILES CCCCCCCCCCCCCCCCCCCCCCCC(=O)[O-]
REMARK SMILES IDX 13 1 14 2 15 3 16 4 17 5 18 6 19 7 20 8 21 9 22 10 23 11
REMARK SMILES IDX 24 12 25 13 26 14 12 15 11 16 10 17 9 18 8 19 7 20 6 21 5 22
REMARK SMILES IDX 4 23 3 24 2 25 1 26
REMARK H PARENT
REMARK Flexibility Score: inf
ROOT
ATOM      1  C   UNL     1      -0.179 -26.981   5.735  1.00  0.00     0.000 C 
ENDROOT
BRANCH   1   2
ATOM      2  C   UNL     1      -0.103 -27.137   7.262  1.00  0.00     0.000 C 
BRANCH   2   3
ATOM      3  C   UNL     1      -0.840 -28.389   7.771  1.00  0.00     0.000 C 
BRANCH   3   4
ATOM      4  C   UNL     1       0.113 -29.421   8.392  1.00  0.00     0.000 C 
BRANCH   4   5
ATOM      5  C   UNL     1       1.512 -28.849   8.668  1.00  0.00     0.000 C 
BRANCH   5   6
ATOM      6  C   UNL     1       1.868 -28.959  10.155  1.00  0.00     0.000 C 
BRANCH   6   7
ATOM      7  C   UNL     1       0.603 -28.919  11.026  1.00  0.00     0.000 C 
BRANCH   7   8
ATOM      8  C   UNL     1       0.429 -27.580  11.763  1.00  0.00     0.000 C 
BRANCH   8   9
ATOM      9  C   UNL     1      -0.160 -26.442  10.907  1.00  0.00     0.000 C 
BRANCH   9  10
ATOM     10  C   UNL     1      -1.537 -25.943  11.395  1.00  0.00     0.006 C 
BRANCH  10  11
ATOM     11  C   UNL     1      -2.663 -26.285  10.411  1.00  0.00     0.053 C 
BRANCH  11  12
ATOM     12  C   UNL     1      -3.767 -25.282  10.511  1.00  0.00     0.041 C 
ATOM     13  O   UNL     1      -3.672 -24.310  11.307  1.00  0.00    -0.550 OA
ATOM     14  O   UNL     1      -4.925 -25.446   9.760  1.00  0.00    -0.550 OA
ENDBRANCH  11  12
ENDBRANCH  10  11
ENDBRANCH   9  10
ENDBRANCH   8   9
ENDBRANCH   7   8
ENDBRANCH   6   7
ENDBRANCH   5   6
ENDBRANCH   4   5
ENDBRANCH   3   4
ENDBRANCH   2   3
ENDBRANCH   1   2
BRANCH   1  15
ATOM     15  C   UNL     1       1.161 -27.158   4.993  1.00  0.00     0.000 C 
BRANCH  15  16
ATOM     16  C   UNL     1       1.508 -28.627   4.672  1.00  0.00     0.000 C 
BRANCH  16  17
ATOM     17  C   UNL     1       1.853 -28.835   3.187  1.00  0.00     0.000 C 
BRANCH  17  18
ATOM     18  C   UNL     1       1.061 -29.999   2.553  1.00  0.00    -0.000 C 
BRANCH  18  19
ATOM     19  C   UNL     1      -0.086 -29.539   1.632  1.00  0.00    -0.000 C 
BRANCH  19  20
ATOM     20  C   UNL     1      -0.314 -28.015   1.596  1.00  0.00    -0.000 C 
BRANCH  20  21
ATOM     21  C   UNL     1      -1.714 -27.553   2.051  1.00  0.00    -0.000 C 
BRANCH  21  22
ATOM     22  C   UNL     1      -1.776 -26.127   2.629  1.00  0.00    -0.000 C 
BRANCH  22  23
ATOM     23  C   UNL     1      -0.803 -25.160   1.940  1.00  0.00    -0.000 C 
BRANCH  23  24
ATOM     24  C   UNL     1      -1.525 -24.320   0.876  1.00  0.00    -0.000 C 
BRANCH  24  25
ATOM     25  C   UNL     1      -1.529 -24.992  -0.506  1.00  0.00    -0.003 C 
ATOM     26  C   UNL     1      -2.926 -25.424  -0.948  1.00  0.00     0.004 C 
ENDBRANCH  24  25
ENDBRANCH  23  24
ENDBRANCH  22  23
ENDBRANCH  21  22
ENDBRANCH  20  21
ENDBRANCH  19  20
ENDBRANCH  18  19
ENDBRANCH  17  18
ENDBRANCH  16  17
ENDBRANCH  15  16
ENDBRANCH   1  15
TORSDOF 22
ENDMDL
MODEL 4
REMARK VINA RESULT:    -5.523      2.976      8.341
REMARK INTER + INTRA:         -15.427
REMARK INTER:                 -12.327
REMARK INTRA:                  -3.100
REMARK UNBOUND:                -2.801
REMARK SMILES CCCCCCCCCCCCCCCCCCCCCCCC(=O)[O-]
REMARK SMILES IDX 13 1 14 2 15 3 16 4 17 5 18 6 19 7 20 8 21 9 22 10 23 11
REMARK SMILES IDX 24 12 25 13 26 14 12 15 11 16 10 17 9 18 8 19 7 20 6 21 5 22
REMARK SMILES IDX 4 23 3 24 2 25 1 26
REMARK H PARENT
REMARK Flexibility Score: inf
ROOT
ATOM      1  C   UNL     1      -0.384 -27.235   7.307  1.00  0.00     0.000 C 
ENDROOT
BRANCH   1   2
ATOM      2  C   UNL     1       0.961 -27.387   8.037  1.00  0.00     0.000 C 
BRANCH   2   3
ATOM      3  C   UNL     1       1.202 -28.817   8.552  1.00  0.00     0.000 C 
BRANCH   3   4
ATOM      4  C   UNL     1      -0.039 -29.415   9.232  1.00  0.00     0.000 C 
BRANCH   4   5
ATOM      5  C   UNL     1       0.250 -29.932  10.649  1.00  0.00     0.000 C 
BRANCH   5   6
ATOM      6  C   UNL     1       1.327 -29.082  11.335  1.00  0.00     0.000 C 
BRANCH   6   7
ATOM      7  C   UNL     1       0.712 -28.196  12.428  1.00  0.00     0.000 C 
BRANCH   7   8
ATOM      8  C   UNL     1       0.844 -26.694  12.121  1.00  0.00     0.000 C 
BRANCH   8   9
ATOM      9  C   UNL     1      -0.095 -26.174  11.015  1.00  0.00     0.000 C 
BRANCH   9  10
ATOM     10  C   UNL     1      -1.592 -26.235  11.389  1.00  0.00     0.006 C 
BRANCH  10  11
ATOM     11  C   UNL     1      -2.503 -26.172  10.156  1.00  0.00     0.053 C 
BRANCH  11  12
ATOM     12  C   UNL     1      -3.669 -25.273  10.414  1.00  0.00     0.041 C 
ATOM     13  O   UNL     1      -3.540 -24.261  11.152  1.00  0.00    -0.550 OA
ATOM     14  O   UNL     1      -4.915 -25.579   9.878  1.00  0.00    -0.550 OA
ENDBRANCH  11  12
ENDBRANCH  10  11
ENDBRANCH   9  10
ENDBRANCH   8   9
ENDBRANCH   7   8
ENDBRANCH   6   7
ENDBRANCH   5   6
ENDBRANCH   4   5
ENDBRANCH   3   4
ENDBRANCH   2   3
ENDBRANCH   1   2
BRANCH   1  15
ATOM     15  C   UNL     1      -0.295 -27.226   5.768  1.00  0.00     0.000 C 
BRANCH  15  16
ATOM     16  C   UNL     1      -0.104 -28.626   5.145  1.00  0.00     0.000 C 
BRANCH  16  17
ATOM     17  C   UNL     1       1.366 -28.914   4.794  1.00  0.00     0.000 C 
BRANCH  17  18
ATOM     18  C   UNL     1       1.641 -28.823   3.278  1.00  0.00    -0.000 C 
BRANCH  18  19
ATOM     19  C   UNL     1       1.027 -29.980   2.467  1.00  0.00    -0.000 C 
BRANCH  19  20
ATOM     20  C   UNL     1      -0.204 -29.596   1.623  1.00  0.00    -0.000 C 
BRANCH  20  21
ATOM     21  C   UNL     1      -0.472 -28.081   1.511  1.00  0.00    -0.000 C 
BRANCH  21  22
ATOM     22  C   UNL     1      -1.948 -27.666   1.655  1.00  0.00    -0.000 C 
BRANCH  22  23
ATOM     23  C   UNL     1      -2.136 -26.145   1.741  1.00  0.00    -0.000 C 
BRANCH  23  24
ATOM     24  C   UNL     1      -1.264 -25.546   2.854  1.00  0.00    -0.000 C 
BRANCH  24  25
ATOM     25  C   UNL     1      -0.038 -24.798   2.308  1.00  0.00    -0.003 C 
ATOM     26  C   UNL     1       1.209 -25.001   3.167  1.00  0.00     0.004 C 
ENDBRANCH  24  25
ENDBRANCH  23  24
ENDBRANCH  22  23
ENDBRANCH  21  22
ENDBRANCH  20  21
ENDBRANCH  19  20
ENDBRANCH  18  19
ENDBRANCH  17  18
ENDBRANCH  16  17
ENDBRANCH  15  16
ENDBRANCH   1  15
TORSDOF 22
ENDMDL
MODEL 5
REMARK VINA RESULT:    -5.486      1.934      2.895
REMARK INTER + INTRA:         -15.343
REMARK INTER:                 -13.118
REMARK INTRA:                  -2.225
REMARK UNBOUND:                -2.801
REMARK SMILES CCCCCCCCCCCCCCCCCCCCCCCC(=O)[O-]
REMARK SMILES IDX 13 1 14 2 15 3 16 4 17 5 18 6 19 7 20 8 21 9 22 10 23 11
REMARK SMILES IDX 24 12 25 13 26 14 12 15 11 16 10 17 9 18 8 19 7 20 6 21 5 22
REMARK SMILES IDX 4 23 3 24 2 25 1 26
REMARK H PARENT
REMARK Flexibility Score: inf
ROOT
ATOM      1  C   UNL     1      -0.185 -26.855   8.269  1.00  0.00     0.000 C 
ENDROOT
BRANCH   1   2
ATOM      2  C   UNL     1      -0.489 -27.429   6.876  1.00  0.00     0.000 C 
BRANCH   2   3
ATOM      3  C   UNL     1      -0.393 -28.964   6.829  1.00  0.00     0.000 C 
BRANCH   3   4
ATOM      4  C   UNL     1      -0.131 -29.495   5.411  1.00  0.00     0.000 C 
BRANCH   4   5
ATOM      5  C   UNL     1       1.234 -29.059   4.855  1.00  0.00     0.000 C 
BRANCH   5   6
ATOM      6  C   UNL     1       1.229 -29.063   3.323  1.00  0.00     0.000 C 
BRANCH   6   7
ATOM      7  C   UNL     1       1.562 -27.669   2.769  1.00  0.00     0.000 C 
BRANCH   7   8
ATOM      8  C   UNL     1       1.390 -26.556   3.817  1.00  0.00     0.000 C 
BRANCH   8   9
ATOM      9  C   UNL     1       0.268 -25.545   3.510  1.00  0.00     0.000 C 
BRANCH   9  10
ATOM     10  C   UNL     1      -1.152 -26.096   3.762  1.00  0.00     0.006 C 
BRANCH  10  11
ATOM     11  C   UNL     1      -2.053 -25.973   2.526  1.00  0.00     0.053 C 
BRANCH  11  12
ATOM     12  C   UNL     1      -1.634 -26.948   1.474  1.00  0.00     0.041 C 
ATOM     13  O   UNL     1      -1.026 -26.550   0.444  1.00  0.00    -0.550 OA
ATOM     14  O   UNL     1      -1.957 -28.293   1.604  1.00  0.00    -0.550 OA
ENDBRANCH  11  12
ENDBRANCH  10  11
ENDBRANCH   9  10
ENDBRANCH   8   9
ENDBRANCH   7   8
ENDBRANCH   6   7
ENDBRANCH   5   6
ENDBRANCH   4   5
ENDBRANCH   3   4
ENDBRANCH   2   3
ENDBRANCH   1   2
BRANCH   1  15
ATOM     15  C   UNL     1      -1.262 -27.128   9.338  1.00  0.00     0.000 C 
BRANCH  15  16
ATOM     16  C   UNL     1      -0.932 -26.532  10.724  1.00  0.00     0.000 C 
BRANCH  16  17
ATOM     17  C   UNL     1       0.567 -26.624  11.056  1.00  0.00     0.000 C 
BRANCH  17  18
ATOM     18  C   UNL     1       0.956 -25.762  12.276  1.00  0.00    -0.000 C 
BRANCH  18  19
ATOM     19  C   UNL     1      -0.138 -25.689  13.358  1.00  0.00    -0.000 C 
BRANCH  19  20
ATOM     20  C   UNL     1      -0.434 -24.271  13.884  1.00  0.00    -0.000 C 
BRANCH  20  21
ATOM     21  C   UNL     1      -1.874 -24.049  14.390  1.00  0.00    -0.000 C 
BRANCH  21  22
ATOM     22  C   UNL     1      -2.836 -23.420  13.366  1.00  0.00    -0.000 C 
BRANCH  22  23
ATOM     23  C   UNL     1      -2.841 -24.155  12.018  1.00  0.00    -0.000 C 
BRANCH  23  24
ATOM     24  C   UNL     1      -4.216 -24.052  11.342  1.00  0.00    -0.000 C 
BRANCH  24  25
ATOM     25  C   UNL     1      -4.285 -24.833  10.020  1.00  0.00    -0.003 C 
ATOM     26  C   UNL     1      -4.985 -26.183  10.168  1.00  0.00     0.004 C 
ENDBRANCH  24  25
ENDBRANCH  23  24
ENDBRANCH  22  23
ENDBRANCH  21  22
ENDBRANCH  20  21
ENDBRANCH  19  20
ENDBRANCH  18  19
ENDBRANCH  17  18
ENDBRANCH  16  17
ENDBRANCH  15  16
ENDBRANCH   1  15
TORSDOF 22
ENDMDL
MODEL 6
REMARK VINA RESULT:    -5.382      4.241      9.804
REMARK INTER + INTRA:         -15.105
REMARK INTER:                 -13.152
REMARK INTRA:                  -1.954
REMARK UNBOUND:                -2.801
REMARK SMILES CCCCCCCCCCCCCCCCCCCCCCCC(=O)[O-]
REMARK SMILES IDX 13 1 14 2 15 3 16 4 17 5 18 6 19 7 20 8 21 9 22 10 23 11
REMARK SMILES IDX 24 12 25 13 26 14 12 15 11 16 10 17 9 18 8 19 7 20 6 21 5 22
REMARK SMILES IDX 4 23 3 24 2 25 1 26
REMARK H PARENT
REMARK Flexibility Score: inf
ROOT
ATOM      1  C   UNL     1       0.242 -26.907   7.966  1.00  0.00     0.000 C 
ENDROOT
BRANCH   1   2
ATOM      2  C   UNL     1       0.636 -26.480   9.390  1.00  0.00     0.000 C 
BRANCH   2   3
ATOM      3  C   UNL     1      -0.555 -26.481  10.364  1.00  0.00     0.000 C 
BRANCH   3   4
ATOM      4  C   UNL     1      -1.909 -26.501   9.638  1.00  0.00     0.000 C 
BRANCH   4   5
ATOM      5  C   UNL     1      -3.103 -26.509  10.606  1.00  0.00     0.000 C 
BRANCH   5   6
ATOM      6  C   UNL     1      -4.275 -25.700  10.039  1.00  0.00     0.000 C 
BRANCH   6   7
ATOM      7  C   UNL     1      -4.710 -24.604  11.023  1.00  0.00     0.000 C 
BRANCH   7   8
ATOM      8  C   UNL     1      -3.574 -23.625  11.365  1.00  0.00     0.000 C 
BRANCH   8   9
ATOM      9  C   UNL     1      -3.250 -23.510  12.867  1.00  0.00     0.000 C 
BRANCH   9  10
ATOM     10  C   UNL     1      -1.941 -24.219  13.278  1.00  0.00     0.006 C 
BRANCH  10  11
ATOM     11  C   UNL     1      -1.705 -24.174  14.793  1.00  0.00     0.053 C 
BRANCH  11  12
ATOM     12  C   UNL     1      -0.695 -25.200  15.196  1.00  0.00     0.041 C 
ATOM     13  O   UNL     1       0.122 -24.957  16.123  1.00  0.00    -0.550 OA
ATOM     14  O   UNL     1      -0.623 -26.409  14.515  1.00  0.00    -0.550 OA
ENDBRANCH  11  12
ENDBRANCH  10  11
ENDBRANCH   9  10
ENDBRANCH   8   9
ENDBRANCH   7   8
ENDBRANCH   6   7
ENDBRANCH   5   6
ENDBRANCH   4   5
ENDBRANCH   3   4
ENDBRANCH   2   3
ENDBRANCH   1   2
BRANCH   1  15
ATOM     15  C   UNL     1       1.386 -26.871   6.933  1.00  0.00     0.000 C 
BRANCH  15  16
ATOM     16  C   UNL     1       0.912 -27.021   5.471  1.00  0.00     0.000 C 
BRANCH  16  17
ATOM     17  C   UNL     1      -0.365 -27.871   5.357  1.00  0.00     0.000 C 
BRANCH  17  18
ATOM     18  C   UNL     1      -0.067 -29.346   5.011  1.00  0.00    -0.000 C 
BRANCH  18  19
ATOM     19  C   UNL     1       1.036 -29.522   3.950  1.00  0.00    -0.000 C 
BRANCH  19  20
ATOM     20  C   UNL     1       0.527 -29.621   2.499  1.00  0.00    -0.000 C 
BRANCH  20  21
ATOM     21  C   UNL     1       0.114 -28.280   1.858  1.00  0.00    -0.000 C 
BRANCH  21  22
ATOM     22  C   UNL     1      -1.400 -28.093   1.651  1.00  0.00    -0.000 C 
BRANCH  22  23
ATOM     23  C   UNL     1      -1.895 -26.702   2.073  1.00  0.00    -0.000 C 
BRANCH  23  24
ATOM     24  C   UNL     1      -2.324 -25.878   0.851  1.00  0.00    -0.000 C 
BRANCH  24  25
ATOM     25  C   UNL     1      -1.129 -25.374   0.027  1.00  0.00    -0.003 C 
ATOM     26  C   UNL     1      -0.598 -24.028   0.520  1.00  0.00     0.004 C 
ENDBRANCH  24  25
ENDBRANCH  23  24
ENDBRANCH  22  23
ENDBRANCH  21  22
ENDBRANCH  20  21
ENDBRANCH  19  20
ENDBRANCH  18  19
ENDBRANCH  17  18
ENDBRANCH  16  17
ENDBRANCH  15  16
ENDBRANCH   1  15
TORSDOF 22
ENDMDL
MODEL 7
REMARK VINA RESULT:    -5.377      1.455      2.233
REMARK INTER + INTRA:         -15.092
REMARK INTER:                 -12.574
REMARK INTRA:                  -2.518
REMARK UNBOUND:                -2.801
REMARK SMILES CCCCCCCCCCCCCCCCCCCCCCCC(=O)[O-]
REMARK SMILES IDX 13 1 14 2 15 3 16 4 17 5 18 6 19 7 20 8 21 9 22 10 23 11
REMARK SMILES IDX 24 12 25 13 26 14 12 15 11 16 10 17 9 18 8 19 7 20 6 21 5 22
REMARK SMILES IDX 4 23 3 24 2 25 1 26
REMARK H PARENT
REMARK Flexibility Score: inf
ROOT
ATOM      1  C   UNL     1      -0.047 -28.668   7.052  1.00  0.00     0.000 C 
ENDROOT
BRANCH   1   2
ATOM      2  C   UNL     1      -0.125 -29.435   5.722  1.00  0.00     0.000 C 
BRANCH   2   3
ATOM      3  C   UNL     1       1.211 -29.440   4.957  1.00  0.00     0.000 C 
BRANCH   3   4
ATOM      4  C   UNL     1       1.047 -29.864   3.489  1.00  0.00     0.000 C 
BRANCH   4   5
ATOM      5  C   UNL     1       0.595 -28.708   2.583  1.00  0.00     0.000 C 
BRANCH   5   6
ATOM      6  C   UNL     1       1.218 -27.381   3.033  1.00  0.00     0.000 C 
BRANCH   6   7
ATOM      7  C   UNL     1       0.203 -26.234   2.922  1.00  0.00     0.000 C 
BRANCH   7   8
ATOM      8  C   UNL     1      -1.218 -26.653   3.334  1.00  0.00     0.000 C 
BRANCH   8   9
ATOM      9  C   UNL     1      -2.263 -26.600   2.202  1.00  0.00     0.000 C 
BRANCH   9  10
ATOM     10  C   UNL     1      -2.118 -25.372   1.278  1.00  0.00     0.006 C 
BRANCH  10  11
ATOM     11  C   UNL     1      -1.630 -25.753  -0.125  1.00  0.00     0.053 C 
BRANCH  11  12
ATOM     12  C   UNL     1      -2.393 -24.999  -1.167  1.00  0.00     0.041 C 
ATOM     13  O   UNL     1      -3.613 -25.247  -1.364  1.00  0.00    -0.550 OA
ATOM     14  O   UNL     1      -1.746 -24.057  -1.958  1.00  0.00    -0.550 OA
ENDBRANCH  11  12
ENDBRANCH  10  11
ENDBRANCH   9  10
ENDBRANCH   8   9
ENDBRANCH   7   8
ENDBRANCH   6   7
ENDBRANCH   5   6
ENDBRANCH   4   5
ENDBRANCH   3   4
ENDBRANCH   2   3
ENDBRANCH   1   2
BRANCH   1  15
ATOM     15  C   UNL     1       0.229 -27.156   6.920  1.00  0.00     0.000 C 
BRANCH  15  16
ATOM     16  C   UNL     1       0.906 -26.535   8.161  1.00  0.00     0.000 C 
BRANCH  16  17
ATOM     17  C   UNL     1       1.733 -27.563   8.951  1.00  0.00     0.000 C 
BRANCH  17  18
ATOM     18  C   UNL     1       1.364 -27.594  10.450  1.00  0.00    -0.000 C 
BRANCH  18  19
ATOM     19  C   UNL     1       0.903 -26.232  11.002  1.00  0.00    -0.000 C 
BRANCH  19  20
ATOM     20  C   UNL     1      -0.533 -26.213  11.560  1.00  0.00    -0.000 C 
BRANCH  20  21
ATOM     21  C   UNL     1      -1.555 -27.050  10.762  1.00  0.00    -0.000 C 
BRANCH  21  22
ATOM     22  C   UNL     1      -2.563 -26.234   9.934  1.00  0.00    -0.000 C 
BRANCH  22  23
ATOM     23  C   UNL     1      -3.141 -25.038  10.704  1.00  0.00    -0.000 C 
BRANCH  23  24
ATOM     24  C   UNL     1      -4.653 -25.203  10.918  1.00  0.00    -0.000 C 
BRANCH  24  25
ATOM     25  C   UNL     1      -5.171 -26.571  10.449  1.00  0.00    -0.003 C 
ATOM     26  C   UNL     1      -5.987 -27.293  11.520  1.00  0.00     0.004 C 
ENDBRANCH  24  25
ENDBRANCH  23  24
ENDBRANCH  22  23
ENDBRANCH  21  22
ENDBRANCH  20  21
ENDBRANCH  19  20
ENDBRANCH  18  19
ENDBRANCH  17  18
ENDBRANCH  16  17
ENDBRANCH  15  16
ENDBRANCH   1  15
TORSDOF 22
ENDMDL
MODEL 8
REMARK VINA RESULT:    -5.336      2.972      8.551
REMARK INTER + INTRA:         -14.999
REMARK INTER:                 -11.888
REMARK INTRA:                  -3.111
REMARK UNBOUND:                -2.801
REMARK SMILES CCCCCCCCCCCCCCCCCCCCCCCC(=O)[O-]
REMARK SMILES IDX 13 1 14 2 15 3 16 4 17 5 18 6 19 7 20 8 21 9 22 10 23 11
REMARK SMILES IDX 24 12 25 13 26 14 12 15 11 16 10 17 9 18 8 19 7 20 6 21 5 22
REMARK SMILES IDX 4 23 3 24 2 25 1 26
REMARK H PARENT
REMARK Flexibility Score: inf
ROOT
ATOM      1  C   UNL     1      -0.297 -27.382   7.633  1.00  0.00     0.000 C 
ENDROOT
BRANCH   1   2
ATOM      2  C   UNL     1      -0.645 -28.854   7.909  1.00  0.00     0.000 C 
BRANCH   2   3
ATOM      3  C   UNL     1       0.396 -29.557   8.797  1.00  0.00     0.000 C 
BRANCH   3   4
ATOM      4  C   UNL     1      -0.114 -29.793  10.227  1.00  0.00     0.000 C 
BRANCH   4   5
ATOM      5  C   UNL     1       0.933 -29.445  11.296  1.00  0.00     0.000 C 
BRANCH   5   6
ATOM      6  C   UNL     1       1.803 -28.264  10.851  1.00  0.00     0.000 C 
BRANCH   6   7
ATOM      7  C   UNL     1       1.468 -27.001  11.658  1.00  0.00     0.000 C 
BRANCH   7   8
ATOM      8  C   UNL     1       0.447 -26.094  10.950  1.00  0.00     0.000 C 
BRANCH   8   9
ATOM      9  C   UNL     1      -1.014 -26.291  11.399  1.00  0.00     0.000 C 
BRANCH   9  10
ATOM     10  C   UNL     1      -2.046 -26.090  10.268  1.00  0.00     0.006 C 
BRANCH  10  11
ATOM     11  C   UNL     1      -3.470 -26.455  10.706  1.00  0.00     0.053 C 
BRANCH  11  12
ATOM     12  C   UNL     1      -4.420 -25.350  10.371  1.00  0.00     0.041 C 
ATOM     13  O   UNL     1      -4.367 -24.257  10.995  1.00  0.00    -0.550 OA
ATOM     14  O   UNL     1      -5.398 -25.543   9.404  1.00  0.00    -0.550 OA
ENDBRANCH  11  12
ENDBRANCH  10  11
ENDBRANCH   9  10
ENDBRANCH   8   9
ENDBRANCH   7   8
ENDBRANCH   6   7
ENDBRANCH   5   6
ENDBRANCH   4   5
ENDBRANCH   3   4
ENDBRANCH   2   3
ENDBRANCH   1   2
BRANCH   1  15
ATOM     15  C   UNL     1       1.164 -27.124   7.212  1.00  0.00     0.000 C 
BRANCH  15  16
ATOM     16  C   UNL     1       1.328 -26.744   5.725  1.00  0.00     0.000 C 
BRANCH  16  17
ATOM     17  C   UNL     1      -0.003 -26.808   4.956  1.00  0.00     0.000 C 
BRANCH  17  18
ATOM     18  C   UNL     1      -0.090 -25.752   3.833  1.00  0.00    -0.000 C 
BRANCH  18  19
ATOM     19  C   UNL     1      -1.510 -25.570   3.263  1.00  0.00    -0.000 C 
BRANCH  19  20
ATOM     20  C   UNL     1      -1.588 -25.525   1.725  1.00  0.00    -0.000 C 
BRANCH  20  21
ATOM     21  C   UNL     1      -2.029 -26.842   1.054  1.00  0.00    -0.000 C 
BRANCH  21  22
ATOM     22  C   UNL     1      -1.597 -28.125   1.787  1.00  0.00    -0.000 C 
BRANCH  22  23
ATOM     23  C   UNL     1      -0.182 -28.584   1.407  1.00  0.00    -0.000 C 
BRANCH  23  24
ATOM     24  C   UNL     1       0.283 -29.736   2.310  1.00  0.00    -0.000 C 
BRANCH  24  25
ATOM     25  C   UNL     1       1.697 -29.515   2.870  1.00  0.00    -0.003 C 
ATOM     26  C   UNL     1       1.853 -30.034   4.299  1.00  0.00     0.004 C 
ENDBRANCH  24  25
ENDBRANCH  23  24
ENDBRANCH  22  23
ENDBRANCH  21  22
ENDBRANCH  20  21
ENDBRANCH  19  20
ENDBRANCH  18  19
ENDBRANCH  17  18
ENDBRANCH  16  17
ENDBRANCH  15  16
ENDBRANCH   1  15
TORSDOF 22
ENDMDL
MODEL 9
REMARK VINA RESULT:    -5.296      3.248      8.730
REMARK INTER + INTRA:         -14.909
REMARK INTER:                 -12.194
REMARK INTRA:                  -2.715
REMARK UNBOUND:                -2.801
REMARK SMILES CCCCCCCCCCCCCCCCCCCCCCCC(=O)[O-]
REMARK SMILES IDX 13 1 14 2 15 3 16 4 17 5 18 6 19 7 20 8 21 9 22 10 23 11
REMARK SMILES IDX 24 12 25 13 26 14 12 15 11 16 10 17 9 18 8 19 7 20 6 21 5 22
REMARK SMILES IDX 4 23 3 24 2 25 1 26
REMARK H PARENT
REMARK Flexibility Score: inf
ROOT
ATOM      1  C   UNL     1       2.019 -25.468   4.057  1.00  0.00     0.000 C 
ENDROOT
BRANCH   1   2
ATOM      2  C   UNL     1       2.017 -26.849   4.732  1.00  0.00     0.000 C 
BRANCH   2   3
ATOM      3  C   UNL     1       1.019 -26.941   5.900  1.00  0.00     0.000 C 
BRANCH   3   4
ATOM      4  C   UNL     1      -0.231 -27.760   5.542  1.00  0.00     0.000 C 
BRANCH   4   5
ATOM      5  C   UNL     1      -0.261 -29.131   6.235  1.00  0.00     0.000 C 
BRANCH   5   6
ATOM      6  C   UNL     1       0.752 -29.188   7.385  1.00  0.00     0.000 C 
BRANCH   6   7
ATOM      7  C   UNL     1       0.045 -29.428   8.727  1.00  0.00     0.000 C 
BRANCH   7   8
ATOM      8  C   UNL     1      -1.223 -28.573   8.894  1.00  0.00     0.000 C 
BRANCH   8   9
ATOM      9  C   UNL     1      -1.136 -27.493   9.990  1.00  0.00     0.000 C 
BRANCH   9  10
ATOM     10  C   UNL     1      -1.986 -26.238   9.696  1.00  0.00     0.006 C 
BRANCH  10  11
ATOM     11  C   UNL     1      -2.729 -25.733  10.939  1.00  0.00     0.053 C 
BRANCH  11  12
ATOM     12  C   UNL     1      -4.126 -25.335  10.588  1.00  0.00     0.041 C 
ATOM     13  O   UNL     1      -4.587 -24.228  10.975  1.00  0.00    -0.550 OA
ATOM     14  O   UNL     1      -4.940 -26.207   9.875  1.00  0.00    -0.550 OA
ENDBRANCH  11  12
ENDBRANCH  10  11
ENDBRANCH   9  10
ENDBRANCH   8   9
ENDBRANCH   7   8
ENDBRANCH   6   7
ENDBRANCH   5   6
ENDBRANCH   4   5
ENDBRANCH   3   4
ENDBRANCH   2   3
ENDBRANCH   1   2
BRANCH   1  15
ATOM     15  C   UNL     1       0.650 -24.998   3.526  1.00  0.00     0.000 C 
BRANCH  15  16
ATOM     16  C   UNL     1       0.667 -24.579   2.040  1.00  0.00     0.000 C 
BRANCH  16  17
ATOM     17  C   UNL     1      -0.572 -23.753   1.653  1.00  0.00     0.000 C 
BRANCH  17  18
ATOM     18  C   UNL     1      -0.986 -23.962   0.180  1.00  0.00    -0.000 C 
BRANCH  18  19
ATOM     19  C   UNL     1      -1.049 -25.442  -0.242  1.00  0.00    -0.000 C 
BRANCH  19  20
ATOM     20  C   UNL     1      -2.389 -26.142   0.054  1.00  0.00    -0.000 C 
BRANCH  20  21
ATOM     21  C   UNL     1      -2.751 -26.255   1.549  1.00  0.00    -0.000 C 
BRANCH  21  22
ATOM     22  C   UNL     1      -1.796 -27.122   2.389  1.00  0.00    -0.000 C 
BRANCH  22  23
ATOM     23  C   UNL     1      -1.263 -28.340   1.621  1.00  0.00    -0.000 C 
BRANCH  23  24
ATOM     24  C   UNL     1       0.222 -28.579   1.933  1.00  0.00    -0.000 C 
BRANCH  24  25
ATOM     25  C   UNL     1       0.510 -30.024   2.368  1.00  0.00    -0.003 C 
ATOM     26  C   UNL     1       1.837 -30.163   3.113  1.00  0.00     0.004 C 
ENDBRANCH  24  25
ENDBRANCH  23  24
ENDBRANCH  22  23
ENDBRANCH  21  22
ENDBRANCH  20  21
ENDBRANCH  19  20
ENDBRANCH  18  19
ENDBRANCH  17  18
ENDBRANCH  16  17
ENDBRANCH  15  16
ENDBRANCH   1  15
TORSDOF 22
ENDMDL
