MODEL 1
REMARK VINA RESULT:    -6.643      0.000      0.000
REMARK INTER + INTRA:          -6.643
REMARK INTER:                  -6.643
REMARK INTRA:                   0.000
REMARK UNBOUND:                 0.000
REMARK SMILES Cc1cc2cc3c(C)cc(=O)oc3c(C)c2o1
REMARK SMILES IDX 8 1 7 2 9 3 10 4 11 5 12 6 13 7 6 8 5 9 4 10 3 11 2 12 17 13
REMARK SMILES IDX 16 14 14 15 15 16 1 17
REMARK H PARENT
REMARK Flexibility Score: inf
ROOT
ATOM      1  C   UNL     1      -7.583  26.674  48.927  1.00  0.00     0.045 C 
ATOM      2  C   UNL     1      -6.316  26.426  49.704  1.00  0.00    -0.033 A 
ATOM      3  C   UNL     1      -5.861  27.403  50.601  1.00  0.00     0.098 A 
ATOM      4  C   UNL     1      -4.689  27.181  51.326  1.00  0.00     0.336 A 
ATOM      5  O   UNL     1      -4.276  28.054  52.133  1.00  0.00    -0.246 OA
ATOM      6  O   UNL     1      -4.004  26.054  51.173  1.00  0.00    -0.422 OA
ATOM      7  C   UNL     1      -4.379  25.087  50.340  1.00  0.00     0.145 A 
ATOM      8  C   UNL     1      -5.571  25.235  49.561  1.00  0.00     0.022 A 
ATOM      9  C   UNL     1      -5.966  24.196  48.684  1.00  0.00     0.024 A 
ATOM     10  C   UNL     1      -5.172  23.058  48.618  1.00  0.00     0.022 A 
ATOM     11  C   UNL     1      -5.319  21.908  47.877  1.00  0.00     0.054 A 
ATOM     12  C   UNL     1      -4.224  21.129  48.234  1.00  0.00     0.102 A 
ATOM     13  O   UNL     1      -3.475  21.754  49.123  1.00  0.00    -0.461 OA
ATOM     14  C   UNL     1      -4.033  22.916  49.362  1.00  0.00     0.140 A 
ATOM     15  C   UNL     1      -3.590  23.916  50.233  1.00  0.00     0.036 A 
ATOM     16  C   UNL     1      -2.352  23.731  51.064  1.00  0.00     0.052 C 
ATOM     17  C   UNL     1      -3.933  19.764  47.711  1.00  0.00     0.087 C 
ENDROOT
TORSDOF 0
ENDMDL
MODEL 2
REMARK VINA RESULT:    -6.332      2.998      7.196
REMARK INTER + INTRA:          -6.332
REMARK INTER:                  -6.332
REMARK INTRA:                   0.000
REMARK UNBOUND:                 0.000
REMARK SMILES Cc1cc2cc3c(C)cc(=O)oc3c(C)c2o1
REMARK SMILES IDX 8 1 7 2 9 3 10 4 11 5 12 6 13 7 6 8 5 9 4 10 3 11 2 12 17 13
REMARK SMILES IDX 16 14 14 15 15 16 1 17
REMARK H PARENT
REMARK Flexibility Score: inf
ROOT
ATOM      1  C   UNL     1      -2.931  17.243  45.750  1.00  0.00     0.045 C 
ATOM      2  C   UNL     1      -1.925  18.217  46.307  1.00  0.00    -0.033 A 
ATOM      3  C   UNL     1      -0.561  17.897  46.256  1.00  0.00     0.098 A 
ATOM      4  C   UNL     1       0.378  18.793  46.768  1.00  0.00     0.336 A 
ATOM      5  O   UNL     1       1.603  18.511  46.724  1.00  0.00    -0.246 OA
ATOM      6  O   UNL     1      -0.011  19.945  47.302  1.00  0.00    -0.422 OA
ATOM      7  C   UNL     1      -1.287  20.311  47.383  1.00  0.00     0.145 A 
ATOM      8  C   UNL     1      -2.312  19.449  46.879  1.00  0.00     0.022 A 
ATOM      9  C   UNL     1      -3.667  19.853  46.961  1.00  0.00     0.024 A 
ATOM     10  C   UNL     1      -3.949  21.087  47.533  1.00  0.00     0.022 A 
ATOM     11  C   UNL     1      -5.151  21.727  47.728  1.00  0.00     0.054 A 
ATOM     12  C   UNL     1      -4.804  22.928  48.335  1.00  0.00     0.102 A 
ATOM     13  O   UNL     1      -3.495  23.013  48.493  1.00  0.00    -0.461 OA
ATOM     14  C   UNL     1      -2.969  21.910  48.016  1.00  0.00     0.140 A 
ATOM     15  C   UNL     1      -1.618  21.556  47.971  1.00  0.00     0.036 A 
ATOM     16  C   UNL     1      -0.553  22.486  48.481  1.00  0.00     0.052 C 
ATOM     17  C   UNL     1      -5.762  23.997  48.740  1.00  0.00     0.087 C 
ENDROOT
TORSDOF 0
ENDMDL
MODEL 3
REMARK VINA RESULT:    -6.281      2.092      4.272
REMARK INTER + INTRA:          -6.281
REMARK INTER:                  -6.281
REMARK INTRA:                   0.000
REMARK UNBOUND:                 0.000
REMARK SMILES Cc1cc2cc3c(C)cc(=O)oc3c(C)c2o1
REMARK SMILES IDX 8 1 7 2 9 3 10 4 11 5 12 6 13 7 6 8 5 9 4 10 3 11 2 12 17 13
REMARK SMILES IDX 16 14 14 15 15 16 1 17
REMARK H PARENT
REMARK Flexibility Score: inf
ROOT
ATOM      1  C   UNL     1      -5.371  23.260  48.423  1.00  0.00     0.045 C 
ATOM      2  C   UNL     1      -5.436  24.446  49.351  1.00  0.00    -0.033 A 
ATOM      3  C   UNL     1      -6.450  25.397  49.176  1.00  0.00     0.098 A 
ATOM      4  C   UNL     1      -6.519  26.498  50.031  1.00  0.00     0.336 A 
ATOM      5  O   UNL     1      -7.428  27.354  49.879  1.00  0.00    -0.246 OA
ATOM      6  O   UNL     1      -5.632  26.650  51.007  1.00  0.00    -0.422 OA
ATOM      7  C   UNL     1      -4.645  25.787  51.229  1.00  0.00     0.145 A 
ATOM      8  C   UNL     1      -4.506  24.630  50.398  1.00  0.00     0.022 A 
ATOM      9  C   UNL     1      -3.456  23.712  50.648  1.00  0.00     0.024 A 
ATOM     10  C   UNL     1      -2.596  23.974  51.707  1.00  0.00     0.022 A 
ATOM     11  C   UNL     1      -1.517  23.262  52.179  1.00  0.00     0.054 A 
ATOM     12  C   UNL     1      -1.059  24.011  53.256  1.00  0.00     0.102 A 
ATOM     13  O   UNL     1      -1.801  25.089  53.428  1.00  0.00    -0.461 OA
ATOM     14  C   UNL     1      -2.729  25.081  52.501  1.00  0.00     0.140 A 
ATOM     15  C   UNL     1      -3.738  26.024  52.290  1.00  0.00     0.036 A 
ATOM     16  C   UNL     1      -3.885  27.218  53.190  1.00  0.00     0.052 C 
ATOM     17  C   UNL     1       0.098  23.649  54.125  1.00  0.00     0.087 C 
ENDROOT
TORSDOF 0
ENDMDL
MODEL 4
REMARK VINA RESULT:    -6.232      2.082      5.441
REMARK INTER + INTRA:          -6.232
REMARK INTER:                  -6.232
REMARK INTRA:                   0.000
REMARK UNBOUND:                 0.000
REMARK SMILES Cc1cc2cc3c(C)cc(=O)oc3c(C)c2o1
REMARK SMILES IDX 8 1 7 2 9 3 10 4 11 5 12 6 13 7 6 8 5 9 4 10 3 11 2 12 17 13
REMARK SMILES IDX 16 14 14 15 15 16 1 17
REMARK H PARENT
REMARK Flexibility Score: inf
ROOT
ATOM      1  C   UNL     1      -5.660  22.110  47.734  1.00  0.00     0.045 C 
ATOM      2  C   UNL     1      -4.219  22.098  48.175  1.00  0.00    -0.033 A 
ATOM      3  C   UNL     1      -3.300  21.292  47.489  1.00  0.00     0.098 A 
ATOM      4  C   UNL     1      -1.964  21.275  47.891  1.00  0.00     0.336 A 
ATOM      5  O   UNL     1      -1.134  20.555  47.278  1.00  0.00    -0.246 OA
ATOM      6  O   UNL     1      -1.557  22.016  48.915  1.00  0.00    -0.422 OA
ATOM      7  C   UNL     1      -2.376  22.802  49.609  1.00  0.00     0.145 A 
ATOM      8  C   UNL     1      -3.762  22.878  49.260  1.00  0.00     0.022 A 
ATOM      9  C   UNL     1      -4.623  23.725  50.000  1.00  0.00     0.024 A 
ATOM     10  C   UNL     1      -4.079  24.460  51.045  1.00  0.00     0.022 A 
ATOM     11  C   UNL     1      -4.667  25.356  51.908  1.00  0.00     0.054 A 
ATOM     12  C   UNL     1      -3.625  25.773  52.729  1.00  0.00     0.102 A 
ATOM     13  O   UNL     1      -2.495  25.182  52.390  1.00  0.00    -0.461 OA
ATOM     14  C   UNL     1      -2.754  24.387  51.379  1.00  0.00     0.140 A 
ATOM     15  C   UNL     1      -1.863  23.559  50.691  1.00  0.00     0.036 A 
ATOM     16  C   UNL     1      -0.406  23.513  51.053  1.00  0.00     0.052 C 
ATOM     17  C   UNL     1      -3.745  26.769  53.832  1.00  0.00     0.087 C 
ENDROOT
TORSDOF 0
ENDMDL
MODEL 5
REMARK VINA RESULT:    -6.009      2.535      3.883
REMARK INTER + INTRA:          -6.009
REMARK INTER:                  -6.009
REMARK INTRA:                   0.000
REMARK UNBOUND:                 0.000
REMARK SMILES Cc1cc2cc3c(C)cc(=O)oc3c(C)c2o1
REMARK SMILES IDX 8 1 7 2 9 3 10 4 11 5 12 6 13 7 6 8 5 9 4 10 3 11 2 12 17 13
REMARK SMILES IDX 16 14 14 15 15 16 1 17
REMARK H PARENT
REMARK Flexibility Score: inf
ROOT
ATOM      1  C   UNL     1      -3.869  26.986  54.115  1.00  0.00     0.045 C 
ATOM      2  C   UNL     1      -2.760  26.156  53.523  1.00  0.00    -0.033 A 
ATOM      3  C   UNL     1      -1.492  26.182  54.119  1.00  0.00     0.098 A 
ATOM      4  C   UNL     1      -0.459  25.415  53.578  1.00  0.00     0.336 A 
ATOM      5  O   UNL     1       0.681  25.433  54.110  1.00  0.00    -0.246 OA
ATOM      6  O   UNL     1      -0.669  24.662  52.504  1.00  0.00    -0.422 OA
ATOM      7  C   UNL     1      -1.846  24.591  51.889  1.00  0.00     0.145 A 
ATOM      8  C   UNL     1      -2.958  25.345  52.383  1.00  0.00     0.022 A 
ATOM      9  C   UNL     1      -4.210  25.256  51.726  1.00  0.00     0.024 A 
ATOM     10  C   UNL     1      -4.309  24.425  50.617  1.00  0.00     0.022 A 
ATOM     11  C   UNL     1      -5.385  24.141  49.808  1.00  0.00     0.054 A 
ATOM     12  C   UNL     1      -4.881  23.243  48.874  1.00  0.00     0.102 A 
ATOM     13  O   UNL     1      -3.604  22.998  49.099  1.00  0.00    -0.461 OA
ATOM     14  C   UNL     1      -3.246  23.705  50.145  1.00  0.00     0.140 A 
ATOM     15  C   UNL     1      -1.986  23.766  50.747  1.00  0.00     0.036 A 
ATOM     16  C   UNL     1      -0.838  22.945  50.232  1.00  0.00     0.052 C 
ATOM     17  C   UNL     1      -5.668  22.614  47.774  1.00  0.00     0.087 C 
ENDROOT
TORSDOF 0
ENDMDL
MODEL 6
REMARK VINA RESULT:    -5.977      2.132      4.962
REMARK INTER + INTRA:          -5.977
REMARK INTER:                  -5.977
REMARK INTRA:                   0.000
REMARK UNBOUND:                 0.000
REMARK SMILES Cc1cc2cc3c(C)cc(=O)oc3c(C)c2o1
REMARK SMILES IDX 8 1 7 2 9 3 10 4 11 5 12 6 13 7 6 8 5 9 4 10 3 11 2 12 17 13
REMARK SMILES IDX 16 14 14 15 15 16 1 17
REMARK H PARENT
REMARK Flexibility Score: inf
ROOT
ATOM      1  C   UNL     1      -2.795  27.357  54.091  1.00  0.00     0.045 C 
ATOM      2  C   UNL     1      -2.842  26.140  53.204  1.00  0.00    -0.033 A 
ATOM      3  C   UNL     1      -1.964  25.076  53.453  1.00  0.00     0.098 A 
ATOM      4  C   UNL     1      -2.002  23.944  52.638  1.00  0.00     0.336 A 
ATOM      5  O   UNL     1      -1.216  22.986  52.857  1.00  0.00    -0.246 OA
ATOM      6  O   UNL     1      -2.863  23.867  51.630  1.00  0.00    -0.422 OA
ATOM      7  C   UNL     1      -3.723  24.839  51.338  1.00  0.00     0.145 A 
ATOM      8  C   UNL     1      -3.750  26.032  52.127  1.00  0.00     0.022 A 
ATOM      9  C   UNL     1      -4.677  27.057  51.814  1.00  0.00     0.024 A 
ATOM     10  C   UNL     1      -5.536  26.856  50.740  1.00  0.00     0.022 A 
ATOM     11  C   UNL     1      -6.527  27.661  50.228  1.00  0.00     0.054 A 
ATOM     12  C   UNL     1      -7.045  26.929  49.166  1.00  0.00     0.102 A 
ATOM     13  O   UNL     1      -6.422  25.771  49.045  1.00  0.00    -0.461 OA
ATOM     14  C   UNL     1      -5.509  25.715  49.986  1.00  0.00     0.140 A 
ATOM     15  C   UNL     1      -4.608  24.679  50.244  1.00  0.00     0.036 A 
ATOM     16  C   UNL     1      -4.613  23.422  49.422  1.00  0.00     0.052 C 
ATOM     17  C   UNL     1      -8.166  27.366  48.285  1.00  0.00     0.087 C 
ENDROOT
TORSDOF 0
ENDMDL
MODEL 7
REMARK VINA RESULT:    -5.914      5.207      7.161
REMARK INTER + INTRA:          -5.914
REMARK INTER:                  -5.914
REMARK INTRA:                   0.000
REMARK UNBOUND:                 0.000
REMARK SMILES Cc1cc2cc3c(C)cc(=O)oc3c(C)c2o1
REMARK SMILES IDX 8 1 7 2 9 3 10 4 11 5 12 6 13 7 6 8 5 9 4 10 3 11 2 12 17 13
REMARK SMILES IDX 16 14 14 15 15 16 1 17
REMARK H PARENT
REMARK Flexibility Score: inf
ROOT
ATOM      1  C   UNL     1      -4.879  21.243  47.914  1.00  0.00     0.045 C 
ATOM      2  C   UNL     1      -3.737  20.262  47.977  1.00  0.00    -0.033 A 
ATOM      3  C   UNL     1      -3.944  19.006  48.565  1.00  0.00     0.098 A 
ATOM      4  C   UNL     1      -2.893  18.091  48.627  1.00  0.00     0.336 A 
ATOM      5  O   UNL     1      -3.073  16.962  49.153  1.00  0.00    -0.246 OA
ATOM      6  O   UNL     1      -1.700  18.399  48.132  1.00  0.00    -0.422 OA
ATOM      7  C   UNL     1      -1.435  19.571  47.561  1.00  0.00     0.145 A 
ATOM      8  C   UNL     1      -2.459  20.565  47.456  1.00  0.00     0.022 A 
ATOM      9  C   UNL     1      -2.169  21.806  46.838  1.00  0.00     0.024 A 
ATOM     10  C   UNL     1      -0.885  22.009  46.349  1.00  0.00     0.022 A 
ATOM     11  C   UNL     1      -0.337  23.092  45.702  1.00  0.00     0.054 A 
ATOM     12  C   UNL     1       0.976  22.711  45.450  1.00  0.00     0.102 A 
ATOM     13  O   UNL     1       1.206  21.493  45.905  1.00  0.00    -0.461 OA
ATOM     14  C   UNL     1       0.095  21.059  46.449  1.00  0.00     0.140 A 
ATOM     15  C   UNL     1      -0.134  19.823  47.060  1.00  0.00     0.036 A 
ATOM     16  C   UNL     1       0.946  18.782  47.136  1.00  0.00     0.052 C 
ATOM     17  C   UNL     1       1.994  23.543  44.746  1.00  0.00     0.087 C 
ENDROOT
TORSDOF 0
ENDMDL
MODEL 8
REMARK VINA RESULT:    -5.877      1.768      3.657
REMARK INTER + INTRA:          -5.877
REMARK INTER:                  -5.877
REMARK INTRA:                   0.000
REMARK UNBOUND:                 0.000
REMARK SMILES Cc1cc2cc3c(C)cc(=O)oc3c(C)c2o1
REMARK SMILES IDX 8 1 7 2 9 3 10 4 11 5 12 6 13 7 6 8 5 9 4 10 3 11 2 12 17 13
REMARK SMILES IDX 16 14 14 15 15 16 1 17
REMARK H PARENT
REMARK Flexibility Score: inf
ROOT
ATOM      1  C   UNL     1      -0.205  24.233  52.924  1.00  0.00     0.045 C 
ATOM      2  C   UNL     1      -1.623  24.613  52.587  1.00  0.00    -0.033 A 
ATOM      3  C   UNL     1      -2.300  25.526  53.408  1.00  0.00     0.098 A 
ATOM      4  C   UNL     1      -3.614  25.885  53.103  1.00  0.00     0.336 A 
ATOM      5  O   UNL     1      -4.226  26.705  53.835  1.00  0.00    -0.246 OA
ATOM      6  O   UNL     1      -4.225  25.370  52.043  1.00  0.00    -0.422 OA
ATOM      7  C   UNL     1      -3.642  24.500  51.223  1.00  0.00     0.145 A 
ATOM      8  C   UNL     1      -2.295  24.081  51.464  1.00  0.00     0.022 A 
ATOM      9  C   UNL     1      -1.680  23.161  50.580  1.00  0.00     0.024 A 
ATOM     10  C   UNL     1      -2.419  22.700  49.498  1.00  0.00     0.022 A 
ATOM     11  C   UNL     1      -2.077  21.828  48.490  1.00  0.00     0.054 A 
ATOM     12  C   UNL     1      -3.218  21.758  47.698  1.00  0.00     0.102 A 
ATOM     13  O   UNL     1      -4.174  22.528  48.183  1.00  0.00    -0.461 OA
ATOM     14  C   UNL     1      -3.707  23.100  49.268  1.00  0.00     0.140 A 
ATOM     15  C   UNL     1      -4.365  23.995  50.115  1.00  0.00     0.036 A 
ATOM     16  C   UNL     1      -5.770  24.445  49.830  1.00  0.00     0.052 C 
ATOM     17  C   UNL     1      -3.353  20.947  46.454  1.00  0.00     0.087 C 
ENDROOT
TORSDOF 0
ENDMDL
MODEL 9
REMARK VINA RESULT:    -5.817      2.535      3.482
REMARK INTER + INTRA:          -5.817
REMARK INTER:                  -5.817
REMARK INTRA:                   0.000
REMARK UNBOUND:                 0.000
REMARK SMILES Cc1cc2cc3c(C)cc(=O)oc3c(C)c2o1
REMARK SMILES IDX 8 1 7 2 9 3 10 4 11 5 12 6 13 7 6 8 5 9 4 10 3 11 2 12 17 13
REMARK SMILES IDX 16 14 14 15 15 16 1 17
REMARK H PARENT
REMARK Flexibility Score: inf
ROOT
ATOM      1  C   UNL     1      -6.122  24.142  48.874  1.00  0.00     0.045 C 
ATOM      2  C   UNL     1      -4.642  24.116  48.593  1.00  0.00    -0.033 A 
ATOM      3  C   UNL     1      -3.943  25.326  48.490  1.00  0.00     0.098 A 
ATOM      4  C   UNL     1      -2.572  25.311  48.231  1.00  0.00     0.336 A 
ATOM      5  O   UNL     1      -1.939  26.395  48.138  1.00  0.00    -0.246 OA
ATOM      6  O   UNL     1      -1.926  24.161  48.083  1.00  0.00    -0.422 OA
ATOM      7  C   UNL     1      -2.527  22.977  48.167  1.00  0.00     0.145 A 
ATOM      8  C   UNL     1      -3.932  22.905  48.433  1.00  0.00     0.022 A 
ATOM      9  C   UNL     1      -4.561  21.640  48.531  1.00  0.00     0.024 A 
ATOM     10  C   UNL     1      -3.777  20.505  48.367  1.00  0.00     0.022 A 
ATOM     11  C   UNL     1      -4.113  19.172  48.422  1.00  0.00     0.054 A 
ATOM     12  C   UNL     1      -2.914  18.508  48.188  1.00  0.00     0.102 A 
ATOM     13  O   UNL     1      -1.928  19.368  48.009  1.00  0.00    -0.461 OA
ATOM     14  C   UNL     1      -2.434  20.574  48.112  1.00  0.00     0.140 A 
ATOM     15  C   UNL     1      -1.766  21.796  47.994  1.00  0.00     0.036 A 
ATOM     16  C   UNL     1      -0.286  21.851  47.742  1.00  0.00     0.052 C 
ATOM     17  C   UNL     1      -2.742  17.027  48.161  1.00  0.00     0.087 C 
ENDROOT
TORSDOF 0
ENDMDL
