MODEL 1
REMARK VINA RESULT:    -4.844      0.000      0.000
REMARK INTER + INTRA:          -6.785
REMARK INTER:                  -6.542
REMARK INTRA:                  -0.243
REMARK UNBOUND:                -0.243
REMARK SMILES CCCCCCCC(=O)[O-]
REMARK SMILES IDX 5 1 6 2 7 3 8 4 9 5 10 6 4 7 3 8 2 9 1 10
REMARK H PARENT
REMARK Flexibility Score: inf
ROOT
ATOM      1  C   UNL     1      86.773 324.620 193.203  1.00  0.00     0.000 C 
ENDROOT
BRANCH   1   2
ATOM      2  C   UNL     1      88.090 325.376 193.414  1.00  0.00     0.006 C 
BRANCH   2   3
ATOM      3  C   UNL     1      87.853 326.698 194.149  1.00  0.00     0.053 C 
BRANCH   3   4
ATOM      4  C   UNL     1      87.779 326.471 195.627  1.00  0.00     0.041 C 
ATOM      5  O   UNL     1      88.834 326.333 196.299  1.00  0.00    -0.550 OA
ATOM      6  O   UNL     1      86.547 326.463 196.268  1.00  0.00    -0.550 OA
ENDBRANCH   3   4
ENDBRANCH   2   3
ENDBRANCH   1   2
BRANCH   1   7
ATOM      7  C   UNL     1      86.787 323.854 191.871  1.00  0.00     0.000 C 
BRANCH   7   8
ATOM      8  C   UNL     1      88.144 323.936 191.154  1.00  0.00    -0.000 C 
BRANCH   8   9
ATOM      9  C   UNL     1      88.153 323.178 189.818  1.00  0.00    -0.003 C 
ATOM     10  C   UNL     1      89.332 323.609 188.951  1.00  0.00     0.004 C 
ENDBRANCH   8   9
ENDBRANCH   7   8
ENDBRANCH   1   7
TORSDOF 6
ENDMDL
MODEL 2
REMARK VINA RESULT:    -4.843     19.164     20.704
REMARK INTER + INTRA:          -6.785
REMARK INTER:                  -6.548
REMARK INTRA:                  -0.237
REMARK UNBOUND:                -0.243
REMARK SMILES CCCCCCCC(=O)[O-]
REMARK SMILES IDX 5 1 6 2 7 3 8 4 9 5 10 6 4 7 3 8 2 9 1 10
REMARK H PARENT
REMARK Flexibility Score: inf
ROOT
ATOM      1  C   UNL     1     105.534 313.398 192.127  1.00  0.00     0.000 C 
ENDROOT
BRANCH   1   2
ATOM      2  C   UNL     1     104.215 312.787 192.615  1.00  0.00     0.006 C 
BRANCH   2   3
ATOM      3  C   UNL     1     104.452 311.431 193.284  1.00  0.00     0.053 C 
BRANCH   3   4
ATOM      4  C   UNL     1     104.739 311.608 194.742  1.00  0.00     0.041 C 
ATOM      5  O   UNL     1     105.925 311.569 195.163  1.00  0.00    -0.550 OA
ATOM      6  O   UNL     1     103.702 311.868 195.629  1.00  0.00    -0.550 OA
ENDBRANCH   3   4
ENDBRANCH   2   3
ENDBRANCH   1   2
BRANCH   1   7
ATOM      7  C   UNL     1     105.312 314.255 190.872  1.00  0.00     0.000 C 
BRANCH   7   8
ATOM      8  C   UNL     1     103.894 314.106 190.296  1.00  0.00    -0.000 C 
BRANCH   8   9
ATOM      9  C   UNL     1     103.720 314.839 188.957  1.00  0.00    -0.003 C 
ATOM     10  C   UNL     1     102.427 314.418 188.266  1.00  0.00     0.004 C 
ENDBRANCH   8   9
ENDBRANCH   7   8
ENDBRANCH   1   7
TORSDOF 6
ENDMDL
MODEL 3
REMARK VINA RESULT:    -4.817     20.098     21.323
REMARK INTER + INTRA:          -6.750
REMARK INTER:                  -6.457
REMARK INTRA:                  -0.292
REMARK UNBOUND:                -0.243
REMARK SMILES CCCCCCCC(=O)[O-]
REMARK SMILES IDX 5 1 6 2 7 3 8 4 9 5 10 6 4 7 3 8 2 9 1 10
REMARK H PARENT
REMARK Flexibility Score: inf
ROOT
ATOM      1  C   UNL     1     105.647 311.985 193.233  1.00  0.00     0.000 C 
ENDROOT
BRANCH   1   2
ATOM      2  C   UNL     1     105.626 313.178 192.271  1.00  0.00     0.006 C 
BRANCH   2   3
ATOM      3  C   UNL     1     104.239 313.357 191.648  1.00  0.00     0.053 C 
BRANCH   3   4
ATOM      4  C   UNL     1     104.334 314.127 190.369  1.00  0.00     0.041 C 
ATOM      5  O   UNL     1     103.394 314.082 189.532  1.00  0.00    -0.550 OA
ATOM      6  O   UNL     1     105.437 314.934 190.122  1.00  0.00    -0.550 OA
ENDBRANCH   3   4
ENDBRANCH   2   3
ENDBRANCH   1   2
BRANCH   1   7
ATOM      7  C   UNL     1     104.259 311.336 193.336  1.00  0.00     0.000 C 
BRANCH   7   8
ATOM      8  C   UNL     1     103.631 311.496 194.730  1.00  0.00    -0.000 C 
BRANCH   8   9
ATOM      9  C   UNL     1     104.661 311.887 195.800  1.00  0.00    -0.003 C 
ATOM     10  C   UNL     1     104.053 311.813 197.198  1.00  0.00     0.004 C 
ENDBRANCH   8   9
ENDBRANCH   7   8
ENDBRANCH   1   7
TORSDOF 6
ENDMDL
MODEL 4
REMARK VINA RESULT:    -4.774      3.704      5.935
REMARK INTER + INTRA:          -6.691
REMARK INTER:                  -6.527
REMARK INTRA:                  -0.164
REMARK UNBOUND:                -0.243
REMARK SMILES CCCCCCCC(=O)[O-]
REMARK SMILES IDX 5 1 6 2 7 3 8 4 9 5 10 6 4 7 3 8 2 9 1 10
REMARK H PARENT
REMARK Flexibility Score: inf
ROOT
ATOM      1  C   UNL     1      87.449 324.720 193.036  1.00  0.00     0.000 C 
ENDROOT
BRANCH   1   2
ATOM      2  C   UNL     1      88.120 324.584 191.665  1.00  0.00     0.006 C 
BRANCH   2   3
ATOM      3  C   UNL     1      87.864 323.201 191.061  1.00  0.00     0.053 C 
BRANCH   3   4
ATOM      4  C   UNL     1      88.223 323.188 189.608  1.00  0.00     0.041 C 
ATOM      5  O   UNL     1      89.212 323.848 189.195  1.00  0.00    -0.550 OA
ATOM      6  O   UNL     1      87.495 322.407 188.718  1.00  0.00    -0.550 OA
ENDBRANCH   3   4
ENDBRANCH   2   3
ENDBRANCH   1   2
BRANCH   1   7
ATOM      7  C   UNL     1      88.036 325.902 193.822  1.00  0.00     0.000 C 
BRANCH   7   8
ATOM      8  C   UNL     1      86.953 326.846 194.370  1.00  0.00    -0.000 C 
BRANCH   8   9
ATOM      9  C   UNL     1      86.494 326.461 195.784  1.00  0.00    -0.003 C 
ATOM     10  C   UNL     1      87.687 326.158 196.685  1.00  0.00     0.004 C 
ENDBRANCH   8   9
ENDBRANCH   7   8
ENDBRANCH   1   7
TORSDOF 6
ENDMDL
MODEL 5
REMARK VINA RESULT:    -4.750     19.603     20.994
REMARK INTER + INTRA:          -6.659
REMARK INTER:                  -6.350
REMARK INTRA:                  -0.309
REMARK UNBOUND:                -0.243
REMARK SMILES CCCCCCCC(=O)[O-]
REMARK SMILES IDX 5 1 6 2 7 3 8 4 9 5 10 6 4 7 3 8 2 9 1 10
REMARK H PARENT
REMARK Flexibility Score: inf
ROOT
ATOM      1  C   UNL     1     104.488 312.399 192.803  1.00  0.00     0.000 C 
ENDROOT
BRANCH   1   2
ATOM      2  C   UNL     1     105.007 311.193 193.595  1.00  0.00     0.006 C 
BRANCH   2   3
ATOM      3  C   UNL     1     105.663 311.637 194.905  1.00  0.00     0.053 C 
BRANCH   3   4
ATOM      4  C   UNL     1     104.629 312.119 195.873  1.00  0.00     0.041 C 
ATOM      5  O   UNL     1     103.877 311.296 196.458  1.00  0.00    -0.550 OA
ATOM      6  O   UNL     1     104.529 313.473 196.167  1.00  0.00    -0.550 OA
ENDBRANCH   3   4
ENDBRANCH   2   3
ENDBRANCH   1   2
BRANCH   1   7
ATOM      7  C   UNL     1     105.650 313.285 192.327  1.00  0.00     0.000 C 
BRANCH   7   8
ATOM      8  C   UNL     1     105.292 314.111 191.081  1.00  0.00    -0.000 C 
BRANCH   8   9
ATOM      9  C   UNL     1     103.880 313.811 190.558  1.00  0.00    -0.003 C 
ATOM     10  C   UNL     1     103.576 314.624 189.303  1.00  0.00     0.004 C 
ENDBRANCH   8   9
ENDBRANCH   7   8
ENDBRANCH   1   7
TORSDOF 6
ENDMDL
MODEL 6
REMARK VINA RESULT:    -4.732     20.043     21.136
REMARK INTER + INTRA:          -6.635
REMARK INTER:                  -6.280
REMARK INTRA:                  -0.355
REMARK UNBOUND:                -0.243
REMARK SMILES CCCCCCCC(=O)[O-]
REMARK SMILES IDX 5 1 6 2 7 3 8 4 9 5 10 6 4 7 3 8 2 9 1 10
REMARK H PARENT
REMARK Flexibility Score: inf
ROOT
ATOM      1  C   UNL     1     105.638 311.520 195.143  1.00  0.00     0.000 C 
ENDROOT
BRANCH   1   2
ATOM      2  C   UNL     1     104.307 312.039 195.696  1.00  0.00     0.006 C 
BRANCH   2   3
ATOM      3  C   UNL     1     103.905 311.282 196.965  1.00  0.00     0.053 C 
BRANCH   3   4
ATOM      4  C   UNL     1     103.834 312.214 198.133  1.00  0.00     0.041 C 
ATOM      5  O   UNL     1     103.726 313.455 197.946  1.00  0.00    -0.550 OA
ATOM      6  O   UNL     1     103.838 311.710 199.427  1.00  0.00    -0.550 OA
ENDBRANCH   3   4
ENDBRANCH   2   3
ENDBRANCH   1   2
BRANCH   1   7
ATOM      7  C   UNL     1     105.627 311.505 193.606  1.00  0.00     0.000 C 
BRANCH   7   8
ATOM      8  C   UNL     1     104.231 311.774 193.021  1.00  0.00    -0.000 C 
BRANCH   8   9
ATOM      9  C   UNL     1     104.225 312.938 192.019  1.00  0.00    -0.003 C 
ATOM     10  C   UNL     1     103.894 314.256 192.712  1.00  0.00     0.004 C 
ENDBRANCH   8   9
ENDBRANCH   7   8
ENDBRANCH   1   7
TORSDOF 6
ENDMDL
MODEL 7
REMARK VINA RESULT:    -4.730     19.370     20.945
REMARK INTER + INTRA:          -6.632
REMARK INTER:                  -6.456
REMARK INTRA:                  -0.176
REMARK UNBOUND:                -0.243
REMARK SMILES CCCCCCCC(=O)[O-]
REMARK SMILES IDX 5 1 6 2 7 3 8 4 9 5 10 6 4 7 3 8 2 9 1 10
REMARK H PARENT
REMARK Flexibility Score: inf
ROOT
ATOM      1  C   UNL     1     104.205 313.653 192.277  1.00  0.00     0.000 C 
ENDROOT
BRANCH   1   2
ATOM      2  C   UNL     1     103.963 313.556 190.767  1.00  0.00     0.006 C 
BRANCH   2   3
ATOM      3  C   UNL     1     104.134 314.921 190.094  1.00  0.00     0.053 C 
BRANCH   3   4
ATOM      4  C   UNL     1     103.548 314.904 188.717  1.00  0.00     0.041 C 
ATOM      5  O   UNL     1     104.100 315.548 187.786  1.00  0.00    -0.550 OA
ATOM      6  O   UNL     1     102.421 314.137 188.450  1.00  0.00    -0.550 OA
ENDBRANCH   3   4
ENDBRANCH   2   3
ENDBRANCH   1   2
BRANCH   1   7
ATOM      7  C   UNL     1     104.521 312.272 192.873  1.00  0.00     0.000 C 
BRANCH   7   8
ATOM      8  C   UNL     1     105.984 312.143 193.326  1.00  0.00    -0.000 C 
BRANCH   8   9
ATOM      9  C   UNL     1     106.124 311.418 194.673  1.00  0.00    -0.003 C 
ATOM     10  C   UNL     1     104.995 311.805 195.623  1.00  0.00     0.004 C 
ENDBRANCH   8   9
ENDBRANCH   7   8
ENDBRANCH   1   7
TORSDOF 6
ENDMDL
MODEL 8
REMARK VINA RESULT:    -4.638      1.802      3.022
REMARK INTER + INTRA:          -6.508
REMARK INTER:                  -6.159
REMARK INTRA:                  -0.349
REMARK UNBOUND:                -0.243
REMARK SMILES CCCCCCCC(=O)[O-]
REMARK SMILES IDX 5 1 6 2 7 3 8 4 9 5 10 6 4 7 3 8 2 9 1 10
REMARK H PARENT
REMARK Flexibility Score: inf
ROOT
ATOM      1  C   UNL     1      88.143 326.668 194.411  1.00  0.00     0.000 C 
ENDROOT
BRANCH   1   2
ATOM      2  C   UNL     1      88.874 326.525 195.750  1.00  0.00     0.006 C 
BRANCH   2   3
ATOM      3  C   UNL     1      88.337 325.332 196.546  1.00  0.00     0.053 C 
BRANCH   3   4
ATOM      4  C   UNL     1      88.865 325.355 197.946  1.00  0.00     0.041 C 
ATOM      5  O   UNL     1      88.882 326.431 198.599  1.00  0.00    -0.550 OA
ATOM      6  O   UNL     1      89.292 324.177 198.547  1.00  0.00    -0.550 OA
ENDBRANCH   3   4
ENDBRANCH   2   3
ENDBRANCH   1   2
BRANCH   1   7
ATOM      7  C   UNL     1      86.785 325.951 194.447  1.00  0.00     0.000 C 
BRANCH   7   8
ATOM      8  C   UNL     1      86.642 324.896 193.337  1.00  0.00    -0.000 C 
BRANCH   8   9
ATOM      9  C   UNL     1      87.996 324.339 192.874  1.00  0.00    -0.003 C 
ATOM     10  C   UNL     1      88.055 324.234 191.353  1.00  0.00     0.004 C 
ENDBRANCH   8   9
ENDBRANCH   7   8
ENDBRANCH   1   7
TORSDOF 6
ENDMDL
