MODEL 1
REMARK VINA RESULT:    -5.373      0.000      0.000
REMARK INTER + INTRA:          -5.373
REMARK INTER:                  -5.373
REMARK INTRA:                   0.000
REMARK UNBOUND:                 0.000
REMARK SMILES O=c1ccc2ccc3occc3c2o1
REMARK SMILES IDX 6 1 7 2 8 3 12 4 11 5 10 6 9 7 13 8 5 9 4 10 3 11 2 12 1 13
REMARK SMILES IDX 14 14
REMARK H PARENT
REMARK Flexibility Score: inf
ROOT
ATOM      1  C   UNL     1      -6.066 -24.366  32.683  1.00  0.00     0.016 A 
ATOM      2  C   UNL     1      -5.478 -25.070  33.752  1.00  0.00     0.048 A 
ATOM      3  C   UNL     1      -5.990 -24.865  35.032  1.00  0.00     0.137 A 
ATOM      4  C   UNL     1      -7.031 -24.008  35.267  1.00  0.00     0.064 A 
ATOM      5  C   UNL     1      -7.280 -24.041  36.619  1.00  0.00     0.054 A 
ATOM      6  C   UNL     1      -6.347 -24.941  37.124  1.00  0.00     0.196 A 
ATOM      7  O   UNL     1      -5.590 -25.416  36.152  1.00  0.00    -0.464 OA
ATOM      8  C   UNL     1      -7.639 -23.294  34.237  1.00  0.00     0.149 A 
ATOM      9  C   UNL     1      -7.144 -23.479  32.921  1.00  0.00     0.018 A 
ATOM     10  C   UNL     1      -7.749 -22.764  31.882  1.00  0.00     0.019 A 
ATOM     11  C   UNL     1      -8.809 -21.902  32.172  1.00  0.00     0.094 A 
ATOM     12  C   UNL     1      -9.241 -21.773  33.498  1.00  0.00     0.336 A 
ATOM     13  O   UNL     1     -10.195 -21.000  33.774  1.00  0.00    -0.246 OA
ATOM     14  O   UNL     1      -8.651 -22.462  34.471  1.00  0.00    -0.422 OA
ENDROOT
TORSDOF 0
ENDMDL
MODEL 2
REMARK VINA RESULT:    -5.353      2.206      4.564
REMARK INTER + INTRA:          -5.353
REMARK INTER:                  -5.353
REMARK INTRA:                   0.000
REMARK UNBOUND:                 0.000
REMARK SMILES O=c1ccc2ccc3occc3c2o1
REMARK SMILES IDX 6 1 7 2 8 3 12 4 11 5 10 6 9 7 13 8 5 9 4 10 3 11 2 12 1 13
REMARK SMILES IDX 14 14
REMARK H PARENT
REMARK Flexibility Score: inf
ROOT
ATOM      1  C   UNL     1      -5.182 -24.131  36.860  1.00  0.00     0.016 A 
ATOM      2  C   UNL     1      -5.182 -22.773  36.488  1.00  0.00     0.048 A 
ATOM      3  C   UNL     1      -5.834 -22.416  35.309  1.00  0.00     0.137 A 
ATOM      4  C   UNL     1      -6.462 -23.341  34.520  1.00  0.00     0.064 A 
ATOM      5  C   UNL     1      -6.994 -22.661  33.450  1.00  0.00     0.054 A 
ATOM      6  C   UNL     1      -6.643 -21.333  33.670  1.00  0.00     0.196 A 
ATOM      7  O   UNL     1      -5.950 -21.218  34.789  1.00  0.00    -0.464 OA
ATOM      8  C   UNL     1      -6.485 -24.694  34.853  1.00  0.00     0.149 A 
ATOM      9  C   UNL     1      -5.831 -25.093  36.047  1.00  0.00     0.018 A 
ATOM     10  C   UNL     1      -5.849 -26.449  36.387  1.00  0.00     0.019 A 
ATOM     11  C   UNL     1      -6.503 -27.356  35.550  1.00  0.00     0.094 A 
ATOM     12  C   UNL     1      -7.125 -26.884  34.388  1.00  0.00     0.336 A 
ATOM     13  O   UNL     1      -7.719 -27.690  33.624  1.00  0.00    -0.246 OA
ATOM     14  O   UNL     1      -7.096 -25.589  34.083  1.00  0.00    -0.422 OA
ENDROOT
TORSDOF 0
ENDMDL
MODEL 3
REMARK VINA RESULT:    -5.309      2.222      3.905
REMARK INTER + INTRA:          -5.309
REMARK INTER:                  -5.309
REMARK INTRA:                   0.000
REMARK UNBOUND:                 0.000
REMARK SMILES O=c1ccc2ccc3occc3c2o1
REMARK SMILES IDX 6 1 7 2 8 3 12 4 11 5 10 6 9 7 13 8 5 9 4 10 3 11 2 12 1 13
REMARK SMILES IDX 14 14
REMARK H PARENT
REMARK Flexibility Score: inf
ROOT
ATOM      1  C   UNL     1      -5.343 -25.116  34.387  1.00  0.00     0.016 A 
ATOM      2  C   UNL     1      -5.055 -23.834  33.881  1.00  0.00     0.048 A 
ATOM      3  C   UNL     1      -5.978 -22.816  34.112  1.00  0.00     0.137 A 
ATOM      4  C   UNL     1      -7.138 -23.033  34.805  1.00  0.00     0.064 A 
ATOM      5  C   UNL     1      -7.810 -21.834  34.848  1.00  0.00     0.054 A 
ATOM      6  C   UNL     1      -6.989 -20.948  34.158  1.00  0.00     0.196 A 
ATOM      7  O   UNL     1      -5.902 -21.564  33.730  1.00  0.00    -0.464 OA
ATOM      8  C   UNL     1      -7.459 -24.287  35.322  1.00  0.00     0.149 A 
ATOM      9  C   UNL     1      -6.541 -25.346  35.107  1.00  0.00     0.018 A 
ATOM     10  C   UNL     1      -6.858 -26.607  35.621  1.00  0.00     0.019 A 
ATOM     11  C   UNL     1      -8.053 -26.779  36.323  1.00  0.00     0.094 A 
ATOM     12  C   UNL     1      -8.908 -25.683  36.494  1.00  0.00     0.336 A 
ATOM     13  O   UNL     1      -9.989 -25.824  37.125  1.00  0.00    -0.246 OA
ATOM     14  O   UNL     1      -8.588 -24.492  35.996  1.00  0.00    -0.422 OA
ENDROOT
TORSDOF 0
ENDMDL
MODEL 4
REMARK VINA RESULT:    -5.304      4.572      5.706
REMARK INTER + INTRA:          -5.304
REMARK INTER:                  -5.304
REMARK INTRA:                   0.000
REMARK UNBOUND:                 0.000
REMARK SMILES O=c1ccc2ccc3occc3c2o1
REMARK SMILES IDX 6 1 7 2 8 3 12 4 11 5 10 6 9 7 13 8 5 9 4 10 3 11 2 12 1 13
REMARK SMILES IDX 14 14
REMARK H PARENT
REMARK Flexibility Score: inf
ROOT
ATOM      1  C   UNL     1      -6.821 -18.617  36.065  1.00  0.00     0.016 A 
ATOM      2  C   UNL     1      -5.724 -17.754  35.886  1.00  0.00     0.048 A 
ATOM      3  C   UNL     1      -4.870 -17.991  34.811  1.00  0.00     0.137 A 
ATOM      4  C   UNL     1      -5.072 -19.029  33.942  1.00  0.00     0.064 A 
ATOM      5  C   UNL     1      -4.059 -18.977  33.012  1.00  0.00     0.054 A 
ATOM      6  C   UNL     1      -3.293 -17.880  33.393  1.00  0.00     0.196 A 
ATOM      7  O   UNL     1      -3.802 -17.312  34.471  1.00  0.00    -0.464 OA
ATOM      8  C   UNL     1      -6.146 -19.906  34.084  1.00  0.00     0.149 A 
ATOM      9  C   UNL     1      -7.035 -19.693  35.168  1.00  0.00     0.018 A 
ATOM     10  C   UNL     1      -8.114 -20.570  35.317  1.00  0.00     0.019 A 
ATOM     11  C   UNL     1      -8.279 -21.614  34.405  1.00  0.00     0.094 A 
ATOM     12  C   UNL     1      -7.357 -21.759  33.360  1.00  0.00     0.336 A 
ATOM     13  O   UNL     1      -7.493 -22.695  32.530  1.00  0.00    -0.246 OA
ATOM     14  O   UNL     1      -6.337 -20.913  33.237  1.00  0.00    -0.422 OA
ENDROOT
TORSDOF 0
ENDMDL
MODEL 5
REMARK VINA RESULT:    -5.187      2.623      3.329
REMARK INTER + INTRA:          -5.187
REMARK INTER:                  -5.187
REMARK INTRA:                   0.000
REMARK UNBOUND:                 0.000
REMARK SMILES O=c1ccc2ccc3occc3c2o1
REMARK SMILES IDX 6 1 7 2 8 3 12 4 11 5 10 6 9 7 13 8 5 9 4 10 3 11 2 12 1 13
REMARK SMILES IDX 14 14
REMARK H PARENT
REMARK Flexibility Score: inf
ROOT
ATOM      1  C   UNL     1      -7.007 -26.853  33.713  1.00  0.00     0.016 A 
ATOM      2  C   UNL     1      -8.062 -27.339  34.508  1.00  0.00     0.048 A 
ATOM      3  C   UNL     1      -8.566 -26.510  35.508  1.00  0.00     0.137 A 
ATOM      4  C   UNL     1      -8.065 -25.256  35.729  1.00  0.00     0.064 A 
ATOM      5  C   UNL     1      -8.779 -24.718  36.775  1.00  0.00     0.054 A 
ATOM      6  C   UNL     1      -9.688 -25.711  37.124  1.00  0.00     0.196 A 
ATOM      7  O   UNL     1      -9.537 -26.770  36.350  1.00  0.00    -0.464 OA
ATOM      8  C   UNL     1      -7.022 -24.738  34.964  1.00  0.00     0.149 A 
ATOM      9  C   UNL     1      -6.486 -25.555  33.937  1.00  0.00     0.018 A 
ATOM     10  C   UNL     1      -5.438 -25.041  33.166  1.00  0.00     0.019 A 
ATOM     11  C   UNL     1      -4.961 -23.756  33.429  1.00  0.00     0.094 A 
ATOM     12  C   UNL     1      -5.543 -23.010  34.462  1.00  0.00     0.336 A 
ATOM     13  O   UNL     1      -5.123 -21.849  34.711  1.00  0.00    -0.246 OA
ATOM     14  O   UNL     1      -6.539 -23.518  35.184  1.00  0.00    -0.422 OA
ENDROOT
TORSDOF 0
ENDMDL
MODEL 6
REMARK VINA RESULT:    -5.180      3.124      3.892
REMARK INTER + INTRA:          -5.180
REMARK INTER:                  -5.180
REMARK INTRA:                   0.000
REMARK UNBOUND:                 0.000
REMARK SMILES O=c1ccc2ccc3occc3c2o1
REMARK SMILES IDX 6 1 7 2 8 3 12 4 11 5 10 6 9 7 13 8 5 9 4 10 3 11 2 12 1 13
REMARK SMILES IDX 14 14
REMARK H PARENT
REMARK Flexibility Score: inf
ROOT
ATOM      1  C   UNL     1      -5.759 -24.763  33.020  1.00  0.00     0.016 A 
ATOM      2  C   UNL     1      -4.945 -23.778  33.612  1.00  0.00     0.048 A 
ATOM      3  C   UNL     1      -4.886 -23.726  35.003  1.00  0.00     0.137 A 
ATOM      4  C   UNL     1      -5.591 -24.595  35.792  1.00  0.00     0.064 A 
ATOM      5  C   UNL     1      -5.310 -24.269  37.098  1.00  0.00     0.054 A 
ATOM      6  C   UNL     1      -4.431 -23.195  37.009  1.00  0.00     0.196 A 
ATOM      7  O   UNL     1      -4.196 -22.893  35.745  1.00  0.00    -0.464 OA
ATOM      8  C   UNL     1      -6.407 -25.583  35.245  1.00  0.00     0.149 A 
ATOM      9  C   UNL     1      -6.490 -25.666  33.831  1.00  0.00     0.018 A 
ATOM     10  C   UNL     1      -7.307 -26.655  33.276  1.00  0.00     0.019 A 
ATOM     11  C   UNL     1      -8.006 -27.519  34.121  1.00  0.00     0.094 A 
ATOM     12  C   UNL     1      -7.873 -27.374  35.508  1.00  0.00     0.336 A 
ATOM     13  O   UNL     1      -8.497 -28.146  36.282  1.00  0.00    -0.246 OA
ATOM     14  O   UNL     1      -7.090 -26.425  36.015  1.00  0.00    -0.422 OA
ENDROOT
TORSDOF 0
ENDMDL
MODEL 7
REMARK VINA RESULT:    -5.115      1.866      2.574
REMARK INTER + INTRA:          -5.115
REMARK INTER:                  -5.115
REMARK INTRA:                   0.000
REMARK UNBOUND:                 0.000
REMARK SMILES O=c1ccc2ccc3occc3c2o1
REMARK SMILES IDX 6 1 7 2 8 3 12 4 11 5 10 6 9 7 13 8 5 9 4 10 3 11 2 12 1 13
REMARK SMILES IDX 14 14
REMARK H PARENT
REMARK Flexibility Score: inf
ROOT
ATOM      1  C   UNL     1      -5.249 -23.222  36.248  1.00  0.00     0.016 A 
ATOM      2  C   UNL     1      -5.204 -24.559  36.687  1.00  0.00     0.048 A 
ATOM      3  C   UNL     1      -5.891 -25.516  35.944  1.00  0.00     0.137 A 
ATOM      4  C   UNL     1      -6.597 -25.190  34.817  1.00  0.00     0.064 A 
ATOM      5  C   UNL     1      -7.146 -26.356  34.336  1.00  0.00     0.054 A 
ATOM      6  C   UNL     1      -6.724 -27.335  35.229  1.00  0.00     0.196 A 
ATOM      7  O   UNL     1      -5.976 -26.803  36.179  1.00  0.00    -0.464 OA
ATOM      8  C   UNL     1      -6.665 -23.879  34.349  1.00  0.00     0.149 A 
ATOM      9  C   UNL     1      -5.976 -22.878  35.082  1.00  0.00     0.018 A 
ATOM     10  C   UNL     1      -6.042 -21.561  34.619  1.00  0.00     0.019 A 
ATOM     11  C   UNL     1      -6.773 -21.277  33.464  1.00  0.00     0.094 A 
ATOM     12  C   UNL     1      -7.427 -22.320  32.796  1.00  0.00     0.336 A 
ATOM     13  O   UNL     1      -8.090 -22.079  31.753  1.00  0.00    -0.246 OA
ATOM     14  O   UNL     1      -7.352 -23.567  33.254  1.00  0.00    -0.422 OA
ENDROOT
TORSDOF 0
ENDMDL
MODEL 8
REMARK VINA RESULT:    -5.093      1.846      2.064
REMARK INTER + INTRA:          -5.093
REMARK INTER:                  -5.093
REMARK INTRA:                   0.000
REMARK UNBOUND:                 0.000
REMARK SMILES O=c1ccc2ccc3occc3c2o1
REMARK SMILES IDX 6 1 7 2 8 3 12 4 11 5 10 6 9 7 13 8 5 9 4 10 3 11 2 12 1 13
REMARK SMILES IDX 14 14
REMARK H PARENT
REMARK Flexibility Score: inf
ROOT
ATOM      1  C   UNL     1      -6.650 -24.118  32.597  1.00  0.00     0.016 A 
ATOM      2  C   UNL     1      -6.607 -25.495  32.883  1.00  0.00     0.048 A 
ATOM      3  C   UNL     1      -6.904 -25.905  34.181  1.00  0.00     0.137 A 
ATOM      4  C   UNL     1      -7.228 -25.012  35.166  1.00  0.00     0.064 A 
ATOM      5  C   UNL     1      -7.457 -25.742  36.309  1.00  0.00     0.054 A 
ATOM      6  C   UNL     1      -7.250 -27.064  35.928  1.00  0.00     0.196 A 
ATOM      7  O   UNL     1      -6.921 -27.130  34.650  1.00  0.00    -0.464 OA
ATOM      8  C   UNL     1      -7.281 -23.641  34.924  1.00  0.00     0.149 A 
ATOM      9  C   UNL     1      -6.986 -23.189  33.612  1.00  0.00     0.018 A 
ATOM     10  C   UNL     1      -7.036 -21.814  33.362  1.00  0.00     0.019 A 
ATOM     11  C   UNL     1      -7.373 -20.942  34.400  1.00  0.00     0.094 A 
ATOM     12  C   UNL     1      -7.651 -21.466  35.669  1.00  0.00     0.336 A 
ATOM     13  O   UNL     1      -7.956 -20.691  36.613  1.00  0.00    -0.246 OA
ATOM     14  O   UNL     1      -7.597 -22.778  35.885  1.00  0.00    -0.422 OA
ENDROOT
TORSDOF 0
ENDMDL
MODEL 9
REMARK VINA RESULT:    -4.958      2.227      4.066
REMARK INTER + INTRA:          -4.958
REMARK INTER:                  -4.958
REMARK INTRA:                   0.000
REMARK UNBOUND:                 0.000
REMARK SMILES O=c1ccc2ccc3occc3c2o1
REMARK SMILES IDX 6 1 7 2 8 3 12 4 11 5 10 6 9 7 13 8 5 9 4 10 3 11 2 12 1 13
REMARK SMILES IDX 14 14
REMARK H PARENT
REMARK Flexibility Score: inf
ROOT
ATOM      1  C   UNL     1      -5.109 -24.588  34.294  1.00  0.00     0.016 A 
ATOM      2  C   UNL     1      -5.760 -24.797  33.063  1.00  0.00     0.048 A 
ATOM      3  C   UNL     1      -6.682 -23.843  32.638  1.00  0.00     0.137 A 
ATOM      4  C   UNL     1      -6.963 -22.727  33.379  1.00  0.00     0.064 A 
ATOM      5  C   UNL     1      -7.903 -22.007  32.679  1.00  0.00     0.054 A 
ATOM      6  C   UNL     1      -8.134 -22.757  31.531  1.00  0.00     0.196 A 
ATOM      7  O   UNL     1      -7.390 -23.848  31.534  1.00  0.00    -0.464 OA
ATOM      8  C   UNL     1      -6.340 -22.483  34.601  1.00  0.00     0.149 A 
ATOM      9  C   UNL     1      -5.395 -23.434  35.064  1.00  0.00     0.018 A 
ATOM     10  C   UNL     1      -4.767 -23.196  36.291  1.00  0.00     0.019 A 
ATOM     11  C   UNL     1      -5.087 -22.043  37.011  1.00  0.00     0.094 A 
ATOM     12  C   UNL     1      -6.031 -21.151  36.487  1.00  0.00     0.336 A 
ATOM     13  O   UNL     1      -6.328 -20.107  37.124  1.00  0.00    -0.246 OA
ATOM     14  O   UNL     1      -6.617 -21.397  35.317  1.00  0.00    -0.422 OA
ENDROOT
TORSDOF 0
ENDMDL
