MODEL 1
REMARK VINA RESULT:    -3.941      0.000      0.000
REMARK INTER + INTRA:          -9.285
REMARK INTER:                  -7.398
REMARK INTRA:                  -1.888
REMARK UNBOUND:                -1.888
REMARK SMILES O=C([O-])CCCCCCCCCCCCCCC(=O)[O-]
REMARK SMILES IDX 10 1 9 2 8 3 7 4 6 5 5 6 4 7 2 8 1 9 3 10 11 11 12 12 13 13
REMARK SMILES IDX 14 14 15 15 16 16 17 17 18 18 19 19 20 20
REMARK H PARENT
REMARK Flexibility Score: inf
ROOT
ATOM      1  C   UNL     1     -23.637  31.391 -39.427  1.00  0.00     0.000 C 
ENDROOT
BRANCH   1   2
ATOM      2  C   UNL     1     -23.645  31.942 -40.863  1.00  0.00     0.000 C 
BRANCH   2   3
ATOM      3  C   UNL     1     -23.050  30.958 -41.885  1.00  0.00     0.000 C 
BRANCH   3   4
ATOM      4  C   UNL     1     -23.049  29.492 -41.402  1.00  0.00     0.000 C 
BRANCH   4   5
ATOM      5  C   UNL     1     -24.149  28.657 -42.077  1.00  0.00     0.000 C 
BRANCH   5   6
ATOM      6  C   UNL     1     -25.418  28.614 -41.212  1.00  0.00     0.006 C 
BRANCH   6   7
ATOM      7  C   UNL     1     -26.494  29.585 -41.715  1.00  0.00     0.053 C 
BRANCH   7   8
ATOM      8  C   UNL     1     -27.824  28.911 -41.864  1.00  0.00     0.041 C 
ATOM      9  O   UNL     1     -27.888  27.708 -42.227  1.00  0.00    -0.550 OA
ATOM     10  O   UNL     1     -28.993  29.623 -41.630  1.00  0.00    -0.550 OA
ENDBRANCH   7   8
ENDBRANCH   6   7
ENDBRANCH   5   6
ENDBRANCH   4   5
ENDBRANCH   3   4
ENDBRANCH   2   3
ENDBRANCH   1   2
BRANCH   1  11
ATOM     11  C   UNL     1     -24.727  32.017 -38.543  1.00  0.00     0.000 C 
BRANCH  11  12
ATOM     12  C   UNL     1     -24.296  33.366 -37.941  1.00  0.00     0.000 C 
BRANCH  12  13
ATOM     13  C   UNL     1     -22.884  33.312 -37.333  1.00  0.00     0.000 C 
BRANCH  13  14
ATOM     14  C   UNL     1     -21.947  34.375 -37.925  1.00  0.00     0.000 C 
BRANCH  14  15
ATOM     15  C   UNL     1     -20.612  33.750 -38.358  1.00  0.00     0.000 C 
BRANCH  15  16
ATOM     16  C   UNL     1     -20.556  33.454 -39.865  1.00  0.00     0.006 C 
BRANCH  16  17
ATOM     17  C   UNL     1     -19.856  32.125 -40.180  1.00  0.00     0.053 C 
BRANCH  17  18
ATOM     18  C   UNL     1     -18.400  32.351 -40.438  1.00  0.00     0.041 C 
ATOM     19  O   UNL     1     -17.984  32.537 -41.613  1.00  0.00    -0.550 OA
ATOM     20  O   UNL     1     -17.494  32.309 -39.385  1.00  0.00    -0.550 OA
ENDBRANCH  17  18
ENDBRANCH  16  17
ENDBRANCH  15  16
ENDBRANCH  14  15
ENDBRANCH  13  14
ENDBRANCH  12  13
ENDBRANCH  11  12
ENDBRANCH   1  11
TORSDOF 15
ENDMDL
MODEL 2
REMARK VINA RESULT:    -3.859      2.747      6.482
REMARK INTER + INTRA:          -9.130
REMARK INTER:                  -7.316
REMARK INTRA:                  -1.813
REMARK UNBOUND:                -1.888
REMARK SMILES O=C([O-])CCCCCCCCCCCCCCC(=O)[O-]
REMARK SMILES IDX 10 1 9 2 8 3 7 4 6 5 5 6 4 7 2 8 1 9 3 10 11 11 12 12 13 13
REMARK SMILES IDX 14 14 15 15 16 16 17 17 18 18 19 19 20 20
REMARK H PARENT
REMARK Flexibility Score: inf
ROOT
ATOM      1  C   UNL     1     -17.912  32.397 -39.622  1.00  0.00     0.000 C 
ENDROOT
BRANCH   1   2
ATOM      2  C   UNL     1     -19.331  32.511 -39.038  1.00  0.00     0.000 C 
BRANCH   2   3
ATOM      3  C   UNL     1     -20.108  33.720 -39.586  1.00  0.00     0.000 C 
BRANCH   3   4
ATOM      4  C   UNL     1     -21.618  33.678 -39.269  1.00  0.00     0.000 C 
BRANCH   4   5
ATOM      5  C   UNL     1     -21.946  34.321 -37.912  1.00  0.00     0.000 C 
BRANCH   5   6
ATOM      6  C   UNL     1     -22.792  33.378 -37.045  1.00  0.00     0.006 C 
BRANCH   6   7
ATOM      7  C   UNL     1     -22.249  31.943 -37.049  1.00  0.00     0.053 C 
BRANCH   7   8
ATOM      8  C   UNL     1     -23.270  30.965 -37.546  1.00  0.00     0.041 C 
ATOM      9  O   UNL     1     -23.244  29.768 -37.158  1.00  0.00    -0.550 OA
ATOM     10  O   UNL     1     -24.231  31.371 -38.463  1.00  0.00    -0.550 OA
ENDBRANCH   7   8
ENDBRANCH   6   7
ENDBRANCH   5   6
ENDBRANCH   4   5
ENDBRANCH   3   4
ENDBRANCH   2   3
ENDBRANCH   1   2
BRANCH   1  11
ATOM     11  C   UNL     1     -17.907  31.926 -41.084  1.00  0.00     0.000 C 
BRANCH  11  12
ATOM     12  C   UNL     1     -18.863  30.745 -41.328  1.00  0.00     0.000 C 
BRANCH  12  13
ATOM     13  C   UNL     1     -19.678  30.908 -42.623  1.00  0.00     0.000 C 
BRANCH  13  14
ATOM     14  C   UNL     1     -21.072  30.272 -42.525  1.00  0.00     0.000 C 
BRANCH  14  15
ATOM     15  C   UNL     1     -21.616  30.357 -41.090  1.00  0.00     0.000 C 
BRANCH  15  16
ATOM     16  C   UNL     1     -22.645  29.258 -40.779  1.00  0.00     0.006 C 
BRANCH  16  17
ATOM     17  C   UNL     1     -23.435  28.821 -42.020  1.00  0.00     0.053 C 
BRANCH  17  18
ATOM     18  C   UNL     1     -24.894  29.098 -41.834  1.00  0.00     0.041 C 
ATOM     19  O   UNL     1     -25.282  30.236 -41.459  1.00  0.00    -0.550 OA
ATOM     20  O   UNL     1     -25.823  28.084 -42.031  1.00  0.00    -0.550 OA
ENDBRANCH  17  18
ENDBRANCH  16  17
ENDBRANCH  15  16
ENDBRANCH  14  15
ENDBRANCH  13  14
ENDBRANCH  12  13
ENDBRANCH  11  12
ENDBRANCH   1  11
TORSDOF 15
ENDMDL
MODEL 3
REMARK VINA RESULT:    -3.858      3.091      6.267
REMARK INTER + INTRA:          -9.128
REMARK INTER:                  -7.618
REMARK INTRA:                  -1.511
REMARK UNBOUND:                -1.888
REMARK SMILES O=C([O-])CCCCCCCCCCCCCCC(=O)[O-]
REMARK SMILES IDX 10 1 9 2 8 3 7 4 6 5 5 6 4 7 2 8 1 9 3 10 11 11 12 12 13 13
REMARK SMILES IDX 14 14 15 15 16 16 17 17 18 18 19 19 20 20
REMARK H PARENT
REMARK Flexibility Score: inf
ROOT
ATOM      1  C   UNL     1     -20.224  32.361 -39.464  1.00  0.00     0.000 C 
ENDROOT
BRANCH   1   2
ATOM      2  C   UNL     1     -21.217  33.523 -39.631  1.00  0.00     0.000 C 
BRANCH   2   3
ATOM      3  C   UNL     1     -21.642  34.144 -38.289  1.00  0.00     0.000 C 
BRANCH   3   4
ATOM      4  C   UNL     1     -23.166  34.110 -38.048  1.00  0.00     0.000 C 
BRANCH   4   5
ATOM      5  C   UNL     1     -23.765  32.720 -38.314  1.00  0.00     0.000 C 
BRANCH   5   6
ATOM      6  C   UNL     1     -25.294  32.740 -38.163  1.00  0.00     0.006 C 
BRANCH   6   7
ATOM      7  C   UNL     1     -25.803  34.074 -37.601  1.00  0.00     0.053 C 
BRANCH   7   8
ATOM      8  C   UNL     1     -27.298  34.103 -37.510  1.00  0.00     0.041 C 
ATOM      9  O   UNL     1     -27.968  34.820 -38.299  1.00  0.00    -0.550 OA
ATOM     10  O   UNL     1     -27.949  33.362 -36.533  1.00  0.00    -0.550 OA
ENDBRANCH   7   8
ENDBRANCH   6   7
ENDBRANCH   5   6
ENDBRANCH   4   5
ENDBRANCH   3   4
ENDBRANCH   2   3
ENDBRANCH   1   2
BRANCH   1  11
ATOM     11  C   UNL     1     -19.487  32.016 -40.768  1.00  0.00     0.000 C 
BRANCH  11  12
ATOM     12  C   UNL     1     -19.711  30.557 -41.205  1.00  0.00     0.000 C 
BRANCH  12  13
ATOM     13  C   UNL     1     -20.307  30.454 -42.619  1.00  0.00     0.000 C 
BRANCH  13  14
ATOM     14  C   UNL     1     -21.733  29.884 -42.617  1.00  0.00     0.000 C 
BRANCH  14  15
ATOM     15  C   UNL     1     -22.076  29.266 -41.253  1.00  0.00     0.000 C 
BRANCH  15  16
ATOM     16  C   UNL     1     -23.264  29.961 -40.568  1.00  0.00     0.006 C 
BRANCH  16  17
ATOM     17  C   UNL     1     -24.326  30.438 -41.568  1.00  0.00     0.053 C 
BRANCH  17  18
ATOM     18  C   UNL     1     -25.418  29.422 -41.693  1.00  0.00     0.041 C 
ATOM     19  O   UNL     1     -25.168  28.273 -42.143  1.00  0.00    -0.550 OA
ATOM     20  O   UNL     1     -26.722  29.761 -41.356  1.00  0.00    -0.550 OA
ENDBRANCH  17  18
ENDBRANCH  16  17
ENDBRANCH  15  16
ENDBRANCH  14  15
ENDBRANCH  13  14
ENDBRANCH  12  13
ENDBRANCH  11  12
ENDBRANCH   1  11
TORSDOF 15
ENDMDL
MODEL 4
REMARK VINA RESULT:    -3.845      2.396      4.208
REMARK INTER + INTRA:          -9.105
REMARK INTER:                  -7.523
REMARK INTRA:                  -1.582
REMARK UNBOUND:                -1.888
REMARK SMILES O=C([O-])CCCCCCCCCCCCCCC(=O)[O-]
REMARK SMILES IDX 10 1 9 2 8 3 7 4 6 5 5 6 4 7 2 8 1 9 3 10 11 11 12 12 13 13
REMARK SMILES IDX 14 14 15 15 16 16 17 17 18 18 19 19 20 20
REMARK H PARENT
REMARK Flexibility Score: inf
ROOT
ATOM      1  C   UNL     1     -19.604  30.383 -42.312  1.00  0.00     0.000 C 
ENDROOT
BRANCH   1   2
ATOM      2  C   UNL     1     -21.129  30.454 -42.496  1.00  0.00     0.000 C 
BRANCH   2   3
ATOM      3  C   UNL     1     -21.842  31.142 -41.318  1.00  0.00     0.000 C 
BRANCH   3   4
ATOM      4  C   UNL     1     -22.883  30.243 -40.617  1.00  0.00     0.000 C 
BRANCH   4   5
ATOM      5  C   UNL     1     -22.961  28.844 -41.247  1.00  0.00     0.000 C 
BRANCH   5   6
ATOM      6  C   UNL     1     -24.340  28.598 -41.878  1.00  0.00     0.006 C 
BRANCH   6   7
ATOM      7  C   UNL     1     -25.312  29.756 -41.613  1.00  0.00     0.053 C 
BRANCH   7   8
ATOM      8  C   UNL     1     -26.719  29.270 -41.439  1.00  0.00     0.041 C 
ATOM      9  O   UNL     1     -27.640  29.719 -42.170  1.00  0.00    -0.550 OA
ATOM     10  O   UNL     1     -27.016  28.343 -40.448  1.00  0.00    -0.550 OA
ENDBRANCH   7   8
ENDBRANCH   6   7
ENDBRANCH   5   6
ENDBRANCH   4   5
ENDBRANCH   3   4
ENDBRANCH   2   3
ENDBRANCH   1   2
BRANCH   1  11
ATOM     11  C   UNL     1     -18.870  31.560 -42.973  1.00  0.00     0.000 C 
BRANCH  11  12
ATOM     12  C   UNL     1     -17.851  32.225 -42.031  1.00  0.00     0.000 C 
BRANCH  12  13
ATOM     13  C   UNL     1     -17.761  31.516 -40.669  1.00  0.00     0.000 C 
BRANCH  13  14
ATOM     14  C   UNL     1     -17.962  32.478 -39.489  1.00  0.00     0.000 C 
BRANCH  14  15
ATOM     15  C   UNL     1     -19.247  33.303 -39.666  1.00  0.00     0.000 C 
BRANCH  15  16
ATOM     16  C   UNL     1     -20.301  32.998 -38.589  1.00  0.00     0.006 C 
BRANCH  16  17
ATOM     17  C   UNL     1     -21.290  34.154 -38.388  1.00  0.00     0.053 C 
BRANCH  17  18
ATOM     18  C   UNL     1     -22.587  33.642 -37.845  1.00  0.00     0.041 C 
ATOM     19  O   UNL     1     -23.663  34.250 -38.090  1.00  0.00    -0.550 OA
ATOM     20  O   UNL     1     -22.602  32.518 -37.028  1.00  0.00    -0.550 OA
ENDBRANCH  17  18
ENDBRANCH  16  17
ENDBRANCH  15  16
ENDBRANCH  14  15
ENDBRANCH  13  14
ENDBRANCH  12  13
ENDBRANCH  11  12
ENDBRANCH   1  11
TORSDOF 15
ENDMDL
MODEL 5
REMARK VINA RESULT:    -3.838      1.087      7.918
REMARK INTER + INTRA:          -9.092
REMARK INTER:                  -7.336
REMARK INTRA:                  -1.756
REMARK UNBOUND:                -1.888
REMARK SMILES O=C([O-])CCCCCCCCCCCCCCC(=O)[O-]
REMARK SMILES IDX 10 1 9 2 8 3 7 4 6 5 5 6 4 7 2 8 1 9 3 10 11 11 12 12 13 13
REMARK SMILES IDX 14 14 15 15 16 16 17 17 18 18 19 19 20 20
REMARK H PARENT
REMARK Flexibility Score: inf
ROOT
ATOM      1  C   UNL     1     -23.955  31.530 -38.893  1.00  0.00     0.000 C 
ENDROOT
BRANCH   1   2
ATOM      2  C   UNL     1     -23.641  32.604 -37.838  1.00  0.00     0.000 C 
BRANCH   2   3
ATOM      3  C   UNL     1     -23.123  33.915 -38.456  1.00  0.00     0.000 C 
BRANCH   3   4
ATOM      4  C   UNL     1     -21.748  34.353 -37.911  1.00  0.00     0.000 C 
BRANCH   4   5
ATOM      5  C   UNL     1     -20.606  33.466 -38.431  1.00  0.00     0.000 C 
BRANCH   5   6
ATOM      6  C   UNL     1     -20.598  33.422 -39.967  1.00  0.00     0.006 C 
BRANCH   6   7
ATOM      7  C   UNL     1     -20.181  32.047 -40.504  1.00  0.00     0.053 C 
BRANCH   7   8
ATOM      8  C   UNL     1     -18.981  32.140 -41.397  1.00  0.00     0.041 C 
ATOM      9  O   UNL     1     -17.873  32.514 -40.932  1.00  0.00    -0.550 OA
ATOM     10  O   UNL     1     -19.097  31.843 -42.749  1.00  0.00    -0.550 OA
ENDBRANCH   7   8
ENDBRANCH   6   7
ENDBRANCH   5   6
ENDBRANCH   4   5
ENDBRANCH   3   4
ENDBRANCH   2   3
ENDBRANCH   1   2
BRANCH   1  11
ATOM     11  C   UNL     1     -23.976  32.088 -40.324  1.00  0.00     0.000 C 
BRANCH  11  12
ATOM     12  C   UNL     1     -23.685  31.011 -41.384  1.00  0.00     0.000 C 
BRANCH  12  13
ATOM     13  C   UNL     1     -23.768  29.587 -40.810  1.00  0.00     0.000 C 
BRANCH  13  14
ATOM     14  C   UNL     1     -24.086  28.537 -41.884  1.00  0.00     0.000 C 
BRANCH  14  15
ATOM     15  C   UNL     1     -25.590  28.226 -41.921  1.00  0.00     0.000 C 
BRANCH  15  16
ATOM     16  C   UNL     1     -26.308  28.610 -40.617  1.00  0.00     0.006 C 
BRANCH  16  17
ATOM     17  C   UNL     1     -27.570  29.447 -40.862  1.00  0.00     0.053 C 
BRANCH  17  18
ATOM     18  C   UNL     1     -28.791  28.679 -40.467  1.00  0.00     0.041 C 
ATOM     19  O   UNL     1     -28.868  27.443 -40.702  1.00  0.00    -0.550 OA
ATOM     20  O   UNL     1     -29.865  29.336 -39.879  1.00  0.00    -0.550 OA
ENDBRANCH  17  18
ENDBRANCH  16  17
ENDBRANCH  15  16
ENDBRANCH  14  15
ENDBRANCH  13  14
ENDBRANCH  12  13
ENDBRANCH  11  12
ENDBRANCH   1  11
TORSDOF 15
ENDMDL
MODEL 6
REMARK VINA RESULT:    -3.811      1.656      6.875
REMARK INTER + INTRA:          -9.041
REMARK INTER:                  -6.727
REMARK INTRA:                  -2.313
REMARK UNBOUND:                -1.888
REMARK SMILES O=C([O-])CCCCCCCCCCCCCCC(=O)[O-]
REMARK SMILES IDX 10 1 9 2 8 3 7 4 6 5 5 6 4 7 2 8 1 9 3 10 11 11 12 12 13 13
REMARK SMILES IDX 14 14 15 15 16 16 17 17 18 18 19 19 20 20
REMARK H PARENT
REMARK Flexibility Score: inf
ROOT
ATOM      1  C   UNL     1     -24.455  30.875 -38.458  1.00  0.00     0.000 C 
ENDROOT
BRANCH   1   2
ATOM      2  C   UNL     1     -23.992  32.312 -38.753  1.00  0.00     0.000 C 
BRANCH   2   3
ATOM      3  C   UNL     1     -22.789  32.740 -37.897  1.00  0.00     0.000 C 
BRANCH   3   4
ATOM      4  C   UNL     1     -22.279  34.161 -38.215  1.00  0.00     0.000 C 
BRANCH   4   5
ATOM      5  C   UNL     1     -20.770  34.185 -38.510  1.00  0.00     0.000 C 
BRANCH   5   6
ATOM      6  C   UNL     1     -20.430  33.304 -39.721  1.00  0.00     0.006 C 
BRANCH   6   7
ATOM      7  C   UNL     1     -19.173  32.457 -39.486  1.00  0.00     0.053 C 
BRANCH   7   8
ATOM      8  C   UNL     1     -18.495  32.101 -40.774  1.00  0.00     0.041 C 
ATOM      9  O   UNL     1     -19.133  32.141 -41.859  1.00  0.00    -0.550 OA
ATOM     10  O   UNL     1     -17.167  31.696 -40.771  1.00  0.00    -0.550 OA
ENDBRANCH   7   8
ENDBRANCH   6   7
ENDBRANCH   5   6
ENDBRANCH   4   5
ENDBRANCH   3   4
ENDBRANCH   2   3
ENDBRANCH   1   2
BRANCH   1  11
ATOM     11  C   UNL     1     -23.460  30.097 -37.584  1.00  0.00     0.000 C 
BRANCH  11  12
ATOM     12  C   UNL     1     -22.734  28.985 -38.361  1.00  0.00     0.000 C 
BRANCH  12  13
ATOM     13  C   UNL     1     -21.346  29.425 -38.855  1.00  0.00     0.000 C 
BRANCH  13  14
ATOM     14  C   UNL     1     -21.170  29.229 -40.368  1.00  0.00     0.000 C 
BRANCH  14  15
ATOM     15  C   UNL     1     -21.988  30.264 -41.155  1.00  0.00     0.000 C 
BRANCH  15  16
ATOM     16  C   UNL     1     -22.819  29.631 -42.283  1.00  0.00     0.006 C 
BRANCH  16  17
ATOM     17  C   UNL     1     -23.735  28.506 -41.781  1.00  0.00     0.053 C 
BRANCH  17  18
ATOM     18  C   UNL     1     -25.162  28.956 -41.780  1.00  0.00     0.041 C 
ATOM     19  O   UNL     1     -26.095  28.110 -41.818  1.00  0.00    -0.550 OA
ATOM     20  O   UNL     1     -25.461  30.313 -41.782  1.00  0.00    -0.550 OA
ENDBRANCH  17  18
ENDBRANCH  16  17
ENDBRANCH  15  16
ENDBRANCH  14  15
ENDBRANCH  13  14
ENDBRANCH  12  13
ENDBRANCH  11  12
ENDBRANCH   1  11
TORSDOF 15
ENDMDL
MODEL 7
REMARK VINA RESULT:    -3.805      1.449      7.016
REMARK INTER + INTRA:          -9.030
REMARK INTER:                  -7.400
REMARK INTRA:                  -1.630
REMARK UNBOUND:                -1.888
REMARK SMILES O=C([O-])CCCCCCCCCCCCCCC(=O)[O-]
REMARK SMILES IDX 10 1 9 2 8 3 7 4 6 5 5 6 4 7 2 8 1 9 3 10 11 11 12 12 13 13
REMARK SMILES IDX 14 14 15 15 16 16 17 17 18 18 19 19 20 20
REMARK H PARENT
REMARK Flexibility Score: inf
ROOT
ATOM      1  C   UNL     1     -22.879  34.125 -38.495  1.00  0.00     0.000 C 
ENDROOT
BRANCH   1   2
ATOM      2  C   UNL     1     -21.396  34.082 -38.091  1.00  0.00     0.000 C 
BRANCH   2   3
ATOM      3  C   UNL     1     -20.464  33.760 -39.272  1.00  0.00     0.000 C 
BRANCH   3   4
ATOM      4  C   UNL     1     -20.952  32.582 -40.141  1.00  0.00     0.000 C 
BRANCH   4   5
ATOM      5  C   UNL     1     -20.271  31.258 -39.761  1.00  0.00     0.000 C 
BRANCH   5   6
ATOM      6  C   UNL     1     -20.527  30.179 -40.825  1.00  0.00     0.006 C 
BRANCH   6   7
ATOM      7  C   UNL     1     -20.426  30.737 -42.250  1.00  0.00     0.053 C 
BRANCH   7   8
ATOM      8  C   UNL     1     -19.002  30.976 -42.652  1.00  0.00     0.041 C 
ATOM      9  O   UNL     1     -18.704  31.965 -43.373  1.00  0.00    -0.550 OA
ATOM     10  O   UNL     1     -18.010  30.089 -42.256  1.00  0.00    -0.550 OA
ENDBRANCH   7   8
ENDBRANCH   6   7
ENDBRANCH   5   6
ENDBRANCH   4   5
ENDBRANCH   3   4
ENDBRANCH   2   3
ENDBRANCH   1   2
BRANCH   1  11
ATOM     11  C   UNL     1     -23.773  33.286 -37.569  1.00  0.00     0.000 C 
BRANCH  11  12
ATOM     12  C   UNL     1     -24.800  32.442 -38.344  1.00  0.00     0.000 C 
BRANCH  12  13
ATOM     13  C   UNL     1     -24.135  31.344 -39.192  1.00  0.00     0.000 C 
BRANCH  13  14
ATOM     14  C   UNL     1     -24.624  31.347 -40.647  1.00  0.00     0.000 C 
BRANCH  14  15
ATOM     15  C   UNL     1     -24.040  30.159 -41.426  1.00  0.00     0.000 C 
BRANCH  15  16
ATOM     16  C   UNL     1     -25.116  29.162 -41.885  1.00  0.00     0.006 C 
BRANCH  16  17
ATOM     17  C   UNL     1     -26.536  29.620 -41.525  1.00  0.00     0.053 C 
BRANCH  17  18
ATOM     18  C   UNL     1     -27.458  28.444 -41.442  1.00  0.00     0.041 C 
ATOM     19  O   UNL     1     -28.197  28.286 -40.435  1.00  0.00    -0.550 OA
ATOM     20  O   UNL     1     -27.467  27.496 -42.458  1.00  0.00    -0.550 OA
ENDBRANCH  17  18
ENDBRANCH  16  17
ENDBRANCH  15  16
ENDBRANCH  14  15
ENDBRANCH  13  14
ENDBRANCH  12  13
ENDBRANCH  11  12
ENDBRANCH   1  11
TORSDOF 15
ENDMDL
MODEL 8
REMARK VINA RESULT:    -3.795      3.639      6.549
REMARK INTER + INTRA:          -9.010
REMARK INTER:                  -6.713
REMARK INTRA:                  -2.297
REMARK UNBOUND:                -1.888
REMARK SMILES O=C([O-])CCCCCCCCCCCCCCC(=O)[O-]
REMARK SMILES IDX 10 1 9 2 8 3 7 4 6 5 5 6 4 7 2 8 1 9 3 10 11 11 12 12 13 13
REMARK SMILES IDX 14 14 15 15 16 16 17 17 18 18 19 19 20 20
REMARK H PARENT
REMARK Flexibility Score: inf
ROOT
ATOM      1  C   UNL     1     -18.802  31.598 -42.910  1.00  0.00     0.000 C 
ENDROOT
BRANCH   1   2
ATOM      2  C   UNL     1     -18.094  32.195 -41.683  1.00  0.00     0.000 C 
BRANCH   2   3
ATOM      3  C   UNL     1     -18.162  31.280 -40.449  1.00  0.00     0.000 C 
BRANCH   3   4
ATOM      4  C   UNL     1     -19.039  31.842 -39.310  1.00  0.00     0.000 C 
BRANCH   4   5
ATOM      5  C   UNL     1     -19.483  33.288 -39.579  1.00  0.00     0.000 C 
BRANCH   5   6
ATOM      6  C   UNL     1     -21.015  33.397 -39.617  1.00  0.00     0.006 C 
BRANCH   6   7
ATOM      7  C   UNL     1     -21.573  34.133 -38.392  1.00  0.00     0.053 C 
BRANCH   7   8
ATOM      8  C   UNL     1     -22.224  33.190 -37.426  1.00  0.00     0.041 C 
ATOM      9  O   UNL     1     -23.465  33.248 -37.221  1.00  0.00    -0.550 OA
ATOM     10  O   UNL     1     -21.453  32.269 -36.730  1.00  0.00    -0.550 OA
ENDBRANCH   7   8
ENDBRANCH   6   7
ENDBRANCH   5   6
ENDBRANCH   4   5
ENDBRANCH   3   4
ENDBRANCH   2   3
ENDBRANCH   1   2
BRANCH   1  11
ATOM     11  C   UNL     1     -19.705  30.406 -42.555  1.00  0.00     0.000 C 
BRANCH  11  12
ATOM     12  C   UNL     1     -21.184  30.805 -42.418  1.00  0.00     0.000 C 
BRANCH  12  13
ATOM     13  C   UNL     1     -22.135  29.618 -42.648  1.00  0.00     0.000 C 
BRANCH  13  14
ATOM     14  C   UNL     1     -22.772  29.113 -41.345  1.00  0.00     0.000 C 
BRANCH  14  15
ATOM     15  C   UNL     1     -22.388  30.013 -40.160  1.00  0.00     0.000 C 
BRANCH  15  16
ATOM     16  C   UNL     1     -21.698  29.239 -39.025  1.00  0.00     0.006 C 
BRANCH  16  17
ATOM     17  C   UNL     1     -20.525  28.383 -39.522  1.00  0.00     0.053 C 
BRANCH  17  18
ATOM     18  C   UNL     1     -20.587  27.014 -38.923  1.00  0.00     0.041 C 
ATOM     19  O   UNL     1     -21.371  26.774 -37.966  1.00  0.00    -0.550 OA
ATOM     20  O   UNL     1     -19.746  26.013 -39.392  1.00  0.00    -0.550 OA
ENDBRANCH  17  18
ENDBRANCH  16  17
ENDBRANCH  15  16
ENDBRANCH  14  15
ENDBRANCH  13  14
ENDBRANCH  12  13
ENDBRANCH  11  12
ENDBRANCH   1  11
TORSDOF 15
ENDMDL
MODEL 9
REMARK VINA RESULT:    -3.772      2.382      7.200
REMARK INTER + INTRA:          -8.968
REMARK INTER:                  -7.064
REMARK INTRA:                  -1.904
REMARK UNBOUND:                -1.888
REMARK SMILES O=C([O-])CCCCCCCCCCCCCCC(=O)[O-]
REMARK SMILES IDX 10 1 9 2 8 3 7 4 6 5 5 6 4 7 2 8 1 9 3 10 11 11 12 12 13 13
REMARK SMILES IDX 14 14 15 15 16 16 17 17 18 18 19 19 20 20
REMARK H PARENT
REMARK Flexibility Score: inf
ROOT
ATOM      1  C   UNL     1     -19.463  30.378 -42.244  1.00  0.00     0.000 C 
ENDROOT
BRANCH   1   2
ATOM      2  C   UNL     1     -18.743  31.701 -41.931  1.00  0.00     0.000 C 
BRANCH   2   3
ATOM      3  C   UNL     1     -19.504  32.569 -40.914  1.00  0.00     0.000 C 
BRANCH   3   4
ATOM      4  C   UNL     1     -19.200  32.207 -39.445  1.00  0.00     0.000 C 
BRANCH   4   5
ATOM      5  C   UNL     1     -20.287  32.716 -38.485  1.00  0.00     0.000 C 
BRANCH   5   6
ATOM      6  C   UNL     1     -21.260  33.663 -39.204  1.00  0.00     0.006 C 
BRANCH   6   7
ATOM      7  C   UNL     1     -22.163  34.420 -38.222  1.00  0.00     0.053 C 
BRANCH   7   8
ATOM      8  C   UNL     1     -22.837  33.492 -37.259  1.00  0.00     0.041 C 
ATOM      9  O   UNL     1     -23.693  32.665 -37.668  1.00  0.00    -0.550 OA
ATOM     10  O   UNL     1     -22.540  33.562 -35.904  1.00  0.00    -0.550 OA
ENDBRANCH   7   8
ENDBRANCH   6   7
ENDBRANCH   5   6
ENDBRANCH   4   5
ENDBRANCH   3   4
ENDBRANCH   2   3
ENDBRANCH   1   2
BRANCH   1  11
ATOM     11  C   UNL     1     -20.989  30.481 -42.098  1.00  0.00     0.000 C 
BRANCH  11  12
ATOM     12  C   UNL     1     -21.533  29.614 -40.950  1.00  0.00     0.000 C 
BRANCH  12  13
ATOM     13  C   UNL     1     -22.683  30.299 -40.192  1.00  0.00     0.000 C 
BRANCH  13  14
ATOM     14  C   UNL     1     -23.454  31.297 -41.068  1.00  0.00     0.000 C 
BRANCH  14  15
ATOM     15  C   UNL     1     -24.935  30.905 -41.175  1.00  0.00     0.000 C 
BRANCH  15  16
ATOM     16  C   UNL     1     -25.138  29.515 -41.799  1.00  0.00     0.006 C 
BRANCH  16  17
ATOM     17  C   UNL     1     -26.152  28.663 -41.023  1.00  0.00     0.053 C 
BRANCH  17  18
ATOM     18  C   UNL     1     -27.398  28.472 -41.828  1.00  0.00     0.041 C 
ATOM     19  O   UNL     1     -28.338  29.308 -41.753  1.00  0.00    -0.550 OA
ATOM     20  O   UNL     1     -27.542  27.345 -42.628  1.00  0.00    -0.550 OA
ENDBRANCH  17  18
ENDBRANCH  16  17
ENDBRANCH  15  16
ENDBRANCH  14  15
ENDBRANCH  13  14
ENDBRANCH  12  13
ENDBRANCH  11  12
ENDBRANCH   1  11
TORSDOF 15
ENDMDL
