MODEL 1
REMARK VINA RESULT:    -4.234      0.000      0.000
REMARK INTER + INTRA:          -9.517
REMARK INTER:                  -7.451
REMARK INTRA:                  -2.065
REMARK UNBOUND:                -2.065
REMARK SMILES CCCCCCCCCCCCCCC(=O)[O-]
REMARK SMILES IDX 9 1 10 2 11 3 12 4 13 5 14 6 15 7 16 8 17 9 8 10 7 11 6 12
REMARK SMILES IDX 5 13 4 14 3 15 2 16 1 17
REMARK H PARENT
REMARK Flexibility Score: inf
ROOT
ATOM      1  C   UNL     1     -15.398  44.778  30.203  1.00  0.00     0.000 C 
ENDROOT
BRANCH   1   2
ATOM      2  C   UNL     1     -14.906  43.326  30.077  1.00  0.00     0.000 C 
BRANCH   2   3
ATOM      3  C   UNL     1     -13.555  43.099  30.774  1.00  0.00     0.000 C 
BRANCH   3   4
ATOM      4  C   UNL     1     -12.940  44.404  31.307  1.00  0.00     0.000 C 
BRANCH   4   5
ATOM      5  C   UNL     1     -11.417  44.483  31.099  1.00  0.00     0.006 C 
BRANCH   5   6
ATOM      6  C   UNL     1     -10.600  43.766  32.189  1.00  0.00     0.053 C 
BRANCH   6   7
ATOM      7  C   UNL     1     -10.137  42.407  31.765  1.00  0.00     0.041 C 
ATOM      8  O   UNL     1      -9.955  41.501  32.620  1.00  0.00    -0.550 OA
ATOM      9  O   UNL     1      -9.874  42.148  30.425  1.00  0.00    -0.550 OA
ENDBRANCH   6   7
ENDBRANCH   5   6
ENDBRANCH   4   5
ENDBRANCH   3   4
ENDBRANCH   2   3
ENDBRANCH   1   2
BRANCH   1  10
ATOM     10  C   UNL     1     -16.894  44.871  30.541  1.00  0.00     0.000 C 
BRANCH  10  11
ATOM     11  C   UNL     1     -17.499  43.507  30.922  1.00  0.00    -0.000 C 
BRANCH  11  12
ATOM     12  C   UNL     1     -18.494  43.610  32.089  1.00  0.00    -0.000 C 
BRANCH  12  13
ATOM     13  C   UNL     1     -17.806  43.531  33.465  1.00  0.00    -0.000 C 
BRANCH  13  14
ATOM     14  C   UNL     1     -16.558  42.632  33.451  1.00  0.00    -0.000 C 
BRANCH  14  15
ATOM     15  C   UNL     1     -15.320  43.335  34.033  1.00  0.00    -0.000 C 
BRANCH  15  16
ATOM     16  C   UNL     1     -15.472  44.864  34.064  1.00  0.00    -0.003 C 
ATOM     17  C   UNL     1     -14.190  45.580  34.488  1.00  0.00     0.004 C 
ENDBRANCH  15  16
ENDBRANCH  14  15
ENDBRANCH  13  14
ENDBRANCH  12  13
ENDBRANCH  11  12
ENDBRANCH  10  11
ENDBRANCH   1  10
TORSDOF 13
ENDMDL
MODEL 2
REMARK VINA RESULT:    -4.227      1.017      3.144
REMARK INTER + INTRA:          -9.505
REMARK INTER:                  -7.434
REMARK INTRA:                  -2.070
REMARK UNBOUND:                -2.065
REMARK SMILES CCCCCCCCCCCCCCC(=O)[O-]
REMARK SMILES IDX 9 1 10 2 11 3 12 4 13 5 14 6 15 7 16 8 17 9 8 10 7 11 6 12
REMARK SMILES IDX 5 13 4 14 3 15 2 16 1 17
REMARK H PARENT
REMARK Flexibility Score: inf
ROOT
ATOM      1  C   UNL     1     -15.263  44.890  34.047  1.00  0.00     0.000 C 
ENDROOT
BRANCH   1   2
ATOM      2  C   UNL     1     -13.794  45.257  33.774  1.00  0.00     0.000 C 
BRANCH   2   3
ATOM      3  C   UNL     1     -13.001  44.091  33.163  1.00  0.00     0.000 C 
BRANCH   3   4
ATOM      4  C   UNL     1     -12.016  44.553  32.076  1.00  0.00     0.000 C 
BRANCH   4   5
ATOM      5  C   UNL     1     -10.651  43.847  32.157  1.00  0.00     0.006 C 
BRANCH   5   6
ATOM      6  C   UNL     1     -10.525  42.624  31.231  1.00  0.00     0.053 C 
BRANCH   6   7
ATOM      7  C   UNL     1     -10.834  41.335  31.928  1.00  0.00     0.041 C 
ATOM      8  O   UNL     1     -10.012  40.839  32.742  1.00  0.00    -0.550 OA
ATOM      9  O   UNL     1     -12.020  40.663  31.654  1.00  0.00    -0.550 OA
ENDBRANCH   6   7
ENDBRANCH   5   6
ENDBRANCH   4   5
ENDBRANCH   3   4
ENDBRANCH   2   3
ENDBRANCH   1   2
BRANCH   1  10
ATOM     10  C   UNL     1     -15.524  43.378  33.957  1.00  0.00     0.000 C 
BRANCH  10  11
ATOM     11  C   UNL     1     -16.996  43.051  33.644  1.00  0.00    -0.000 C 
BRANCH  11  12
ATOM     12  C   UNL     1     -17.678  44.147  32.810  1.00  0.00    -0.000 C 
BRANCH  12  13
ATOM     13  C   UNL     1     -17.625  43.861  31.297  1.00  0.00    -0.000 C 
BRANCH  13  14
ATOM     14  C   UNL     1     -16.928  44.981  30.507  1.00  0.00    -0.000 C 
BRANCH  14  15
ATOM     15  C   UNL     1     -15.427  44.714  30.306  1.00  0.00    -0.000 C 
BRANCH  15  16
ATOM     16  C   UNL     1     -15.101  43.214  30.233  1.00  0.00    -0.003 C 
ATOM     17  C   UNL     1     -13.900  42.910  29.337  1.00  0.00     0.004 C 
ENDBRANCH  15  16
ENDBRANCH  14  15
ENDBRANCH  13  14
ENDBRANCH  12  13
ENDBRANCH  11  12
ENDBRANCH  10  11
ENDBRANCH   1  10
TORSDOF 13
ENDMDL
MODEL 3
REMARK VINA RESULT:    -4.137      3.051      5.986
REMARK INTER + INTRA:          -9.346
REMARK INTER:                  -7.431
REMARK INTRA:                  -1.915
REMARK UNBOUND:                -2.065
REMARK SMILES CCCCCCCCCCCCCCC(=O)[O-]
REMARK SMILES IDX 9 1 10 2 11 3 12 4 13 5 14 6 15 7 16 8 17 9 8 10 7 11 6 12
REMARK SMILES IDX 5 13 4 14 3 15 2 16 1 17
REMARK H PARENT
REMARK Flexibility Score: inf
ROOT
ATOM      1  C   UNL     1     -13.612  44.809  34.285  1.00  0.00     0.000 C 
ENDROOT
BRANCH   1   2
ATOM      2  C   UNL     1     -15.122  45.083  34.174  1.00  0.00     0.000 C 
BRANCH   2   3
ATOM      3  C   UNL     1     -15.928  43.815  33.852  1.00  0.00     0.000 C 
BRANCH   3   4
ATOM      4  C   UNL     1     -17.370  44.127  33.416  1.00  0.00     0.000 C 
BRANCH   4   5
ATOM      5  C   UNL     1     -18.297  42.900  33.478  1.00  0.00     0.006 C 
BRANCH   5   6
ATOM      6  C   UNL     1     -18.078  41.893  32.334  1.00  0.00     0.053 C 
BRANCH   6   7
ATOM      7  C   UNL     1     -17.629  40.551  32.823  1.00  0.00     0.041 C 
ATOM      8  O   UNL     1     -17.204  40.412  34.000  1.00  0.00    -0.550 OA
ATOM      9  O   UNL     1     -17.648  39.457  31.966  1.00  0.00    -0.550 OA
ENDBRANCH   6   7
ENDBRANCH   5   6
ENDBRANCH   4   5
ENDBRANCH   3   4
ENDBRANCH   2   3
ENDBRANCH   1   2
BRANCH   1  10
ATOM     10  C   UNL     1     -13.106  43.827  33.216  1.00  0.00     0.000 C 
BRANCH  10  11
ATOM     11  C   UNL     1     -12.417  44.541  32.039  1.00  0.00    -0.000 C 
BRANCH  11  12
ATOM     12  C   UNL     1     -13.033  44.168  30.681  1.00  0.00    -0.000 C 
BRANCH  12  13
ATOM     13  C   UNL     1     -14.368  44.889  30.418  1.00  0.00    -0.000 C 
BRANCH  13  14
ATOM     14  C   UNL     1     -15.543  43.914  30.239  1.00  0.00    -0.000 C 
BRANCH  14  15
ATOM     15  C   UNL     1     -15.090  42.444  30.218  1.00  0.00    -0.000 C 
BRANCH  15  16
ATOM     16  C   UNL     1     -15.475  41.730  28.913  1.00  0.00    -0.003 C 
ATOM     17  C   UNL     1     -14.595  42.139  27.731  1.00  0.00     0.004 C 
ENDBRANCH  15  16
ENDBRANCH  14  15
ENDBRANCH  13  14
ENDBRANCH  12  13
ENDBRANCH  11  12
ENDBRANCH  10  11
ENDBRANCH   1  10
TORSDOF 13
ENDMDL
MODEL 4
REMARK VINA RESULT:    -4.134      2.958      5.643
REMARK INTER + INTRA:          -9.340
REMARK INTER:                  -7.130
REMARK INTRA:                  -2.211
REMARK UNBOUND:                -2.065
REMARK SMILES CCCCCCCCCCCCCCC(=O)[O-]
REMARK SMILES IDX 9 1 10 2 11 3 12 4 13 5 14 6 15 7 16 8 17 9 8 10 7 11 6 12
REMARK SMILES IDX 5 13 4 14 3 15 2 16 1 17
REMARK H PARENT
REMARK Flexibility Score: inf
ROOT
ATOM      1  C   UNL     1     -13.174  44.535  32.334  1.00  0.00     0.000 C 
ENDROOT
BRANCH   1   2
ATOM      2  C   UNL     1     -13.753  45.006  33.679  1.00  0.00     0.000 C 
BRANCH   2   3
ATOM      3  C   UNL     1     -15.276  44.815  33.763  1.00  0.00     0.000 C 
BRANCH   3   4
ATOM      4  C   UNL     1     -15.706  43.368  33.470  1.00  0.00     0.000 C 
BRANCH   4   5
ATOM      5  C   UNL     1     -17.231  43.166  33.534  1.00  0.00     0.006 C 
BRANCH   5   6
ATOM      6  C   UNL     1     -17.774  42.174  32.491  1.00  0.00     0.053 C 
BRANCH   6   7
ATOM      7  C   UNL     1     -17.507  40.746  32.857  1.00  0.00     0.041 C 
ATOM      8  O   UNL     1     -17.525  39.849  31.974  1.00  0.00    -0.550 OA
ATOM      9  O   UNL     1     -17.271  40.400  34.182  1.00  0.00    -0.550 OA
ENDBRANCH   6   7
ENDBRANCH   5   6
ENDBRANCH   4   5
ENDBRANCH   3   4
ENDBRANCH   2   3
ENDBRANCH   1   2
BRANCH   1  10
ATOM     10  C   UNL     1     -12.046  43.504  32.501  1.00  0.00     0.000 C 
BRANCH  10  11
ATOM     11  C   UNL     1     -12.525  42.061  32.261  1.00  0.00    -0.000 C 
BRANCH  11  12
ATOM     12  C   UNL     1     -13.030  41.839  30.826  1.00  0.00    -0.000 C 
BRANCH  12  13
ATOM     13  C   UNL     1     -14.436  41.214  30.781  1.00  0.00    -0.000 C 
BRANCH  13  14
ATOM     14  C   UNL     1     -15.350  41.884  29.742  1.00  0.00    -0.000 C 
BRANCH  14  15
ATOM     15  C   UNL     1     -15.118  43.401  29.646  1.00  0.00    -0.000 C 
BRANCH  15  16
ATOM     16  C   UNL     1     -16.394  44.167  29.260  1.00  0.00    -0.003 C 
ATOM     17  C   UNL     1     -16.905  45.071  30.382  1.00  0.00     0.004 C 
ENDBRANCH  15  16
ENDBRANCH  14  15
ENDBRANCH  13  14
ENDBRANCH  12  13
ENDBRANCH  11  12
ENDBRANCH  10  11
ENDBRANCH   1  10
TORSDOF 13
ENDMDL
MODEL 5
REMARK VINA RESULT:    -4.108      3.122      4.866
REMARK INTER + INTRA:          -9.295
REMARK INTER:                  -7.282
REMARK INTRA:                  -2.013
REMARK UNBOUND:                -2.065
REMARK SMILES CCCCCCCCCCCCCCC(=O)[O-]
REMARK SMILES IDX 9 1 10 2 11 3 12 4 13 5 14 6 15 7 16 8 17 9 8 10 7 11 6 12
REMARK SMILES IDX 5 13 4 14 3 15 2 16 1 17
REMARK H PARENT
REMARK Flexibility Score: inf
ROOT
ATOM      1  C   UNL     1     -12.892  44.266  30.917  1.00  0.00     0.000 C 
ENDROOT
BRANCH   1   2
ATOM      2  C   UNL     1     -14.347  44.483  30.467  1.00  0.00     0.000 C 
BRANCH   2   3
ATOM      3  C   UNL     1     -14.885  43.311  29.631  1.00  0.00     0.000 C 
BRANCH   3   4
ATOM      4  C   UNL     1     -14.236  41.969  30.009  1.00  0.00     0.000 C 
BRANCH   4   5
ATOM      5  C   UNL     1     -15.033  41.191  31.072  1.00  0.00     0.006 C 
BRANCH   5   6
ATOM      6  C   UNL     1     -16.367  40.621  30.557  1.00  0.00     0.053 C 
BRANCH   6   7
ATOM      7  C   UNL     1     -16.972  39.626  31.499  1.00  0.00     0.041 C 
ATOM      8  O   UNL     1     -17.119  38.426  31.149  1.00  0.00    -0.550 OA
ATOM      9  O   UNL     1     -17.406  40.033  32.756  1.00  0.00    -0.550 OA
ENDBRANCH   6   7
ENDBRANCH   5   6
ENDBRANCH   4   5
ENDBRANCH   3   4
ENDBRANCH   2   3
ENDBRANCH   1   2
BRANCH   1  10
ATOM     10  C   UNL     1     -12.665  44.636  32.391  1.00  0.00     0.000 C 
BRANCH  10  11
ATOM     11  C   UNL     1     -13.417  43.702  33.357  1.00  0.00    -0.000 C 
BRANCH  11  12
ATOM     12  C   UNL     1     -14.255  44.473  34.390  1.00  0.00    -0.000 C 
BRANCH  12  13
ATOM     13  C   UNL     1     -15.672  44.795  33.883  1.00  0.00    -0.000 C 
BRANCH  13  14
ATOM     14  C   UNL     1     -16.439  43.541  33.431  1.00  0.00    -0.000 C 
BRANCH  14  15
ATOM     15  C   UNL     1     -17.433  43.836  32.295  1.00  0.00    -0.000 C 
BRANCH  15  16
ATOM     16  C   UNL     1     -18.883  43.506  32.682  1.00  0.00    -0.003 C 
ATOM     17  C   UNL     1     -19.419  44.406  33.796  1.00  0.00     0.004 C 
ENDBRANCH  15  16
ENDBRANCH  14  15
ENDBRANCH  13  14
ENDBRANCH  12  13
ENDBRANCH  11  12
ENDBRANCH  10  11
ENDBRANCH   1  10
TORSDOF 13
ENDMDL
MODEL 6
REMARK VINA RESULT:    -4.077      3.548      5.762
REMARK INTER + INTRA:          -9.242
REMARK INTER:                  -7.639
REMARK INTRA:                  -1.603
REMARK UNBOUND:                -2.065
REMARK SMILES CCCCCCCCCCCCCCC(=O)[O-]
REMARK SMILES IDX 9 1 10 2 11 3 12 4 13 5 14 6 15 7 16 8 17 9 8 10 7 11 6 12
REMARK SMILES IDX 5 13 4 14 3 15 2 16 1 17
REMARK H PARENT
REMARK Flexibility Score: inf
ROOT
ATOM      1  C   UNL     1     -16.814  42.374  33.805  1.00  0.00     0.000 C 
ENDROOT
BRANCH   1   2
ATOM      2  C   UNL     1     -17.869  42.123  32.713  1.00  0.00     0.000 C 
BRANCH   2   3
ATOM      3  C   UNL     1     -17.403  41.093  31.671  1.00  0.00     0.000 C 
BRANCH   3   4
ATOM      4  C   UNL     1     -17.374  39.660  32.229  1.00  0.00     0.000 C 
BRANCH   4   5
ATOM      5  C   UNL     1     -17.272  38.587  31.130  1.00  0.00     0.006 C 
BRANCH   5   6
ATOM      6  C   UNL     1     -15.910  38.554  30.415  1.00  0.00     0.053 C 
BRANCH   6   7
ATOM      7  C   UNL     1     -16.037  38.628  28.924  1.00  0.00     0.041 C 
ATOM      8  O   UNL     1     -15.918  39.732  28.330  1.00  0.00    -0.550 OA
ATOM      9  O   UNL     1     -16.320  37.481  28.193  1.00  0.00    -0.550 OA
ENDBRANCH   6   7
ENDBRANCH   5   6
ENDBRANCH   4   5
ENDBRANCH   3   4
ENDBRANCH   2   3
ENDBRANCH   1   2
BRANCH   1  10
ATOM     10  C   UNL     1     -16.276  43.813  33.790  1.00  0.00     0.000 C 
BRANCH  10  11
ATOM     11  C   UNL     1     -14.778  43.887  34.136  1.00  0.00    -0.000 C 
BRANCH  11  12
ATOM     12  C   UNL     1     -14.044  44.985  33.350  1.00  0.00    -0.000 C 
BRANCH  12  13
ATOM     13  C   UNL     1     -13.372  44.451  32.072  1.00  0.00    -0.000 C 
BRANCH  13  14
ATOM     14  C   UNL     1     -14.156  44.806  30.797  1.00  0.00    -0.000 C 
BRANCH  14  15
ATOM     15  C   UNL     1     -14.995  43.627  30.275  1.00  0.00    -0.000 C 
BRANCH  15  16
ATOM     16  C   UNL     1     -16.294  44.087  29.596  1.00  0.00    -0.003 C 
ATOM     17  C   UNL     1     -17.102  45.058  30.457  1.00  0.00     0.004 C 
ENDBRANCH  15  16
ENDBRANCH  14  15
ENDBRANCH  13  14
ENDBRANCH  12  13
ENDBRANCH  11  12
ENDBRANCH  10  11
ENDBRANCH   1  10
TORSDOF 13
ENDMDL
MODEL 7
REMARK VINA RESULT:    -4.024      3.392      5.505
REMARK INTER + INTRA:          -9.148
REMARK INTER:                  -7.149
REMARK INTRA:                  -1.999
REMARK UNBOUND:                -2.065
REMARK SMILES CCCCCCCCCCCCCCC(=O)[O-]
REMARK SMILES IDX 9 1 10 2 11 3 12 4 13 5 14 6 15 7 16 8 17 9 8 10 7 11 6 12
REMARK SMILES IDX 5 13 4 14 3 15 2 16 1 17
REMARK H PARENT
REMARK Flexibility Score: inf
ROOT
ATOM      1  C   UNL     1     -15.814  42.553  30.070  1.00  0.00     0.000 C 
ENDROOT
BRANCH   1   2
ATOM      2  C   UNL     1     -15.552  44.068  30.119  1.00  0.00     0.000 C 
BRANCH   2   3
ATOM      3  C   UNL     1     -16.826  44.877  30.409  1.00  0.00     0.000 C 
BRANCH   3   4
ATOM      4  C   UNL     1     -17.844  44.092  31.254  1.00  0.00     0.000 C 
BRANCH   4   5
ATOM      5  C   UNL     1     -17.698  44.347  32.765  1.00  0.00     0.006 C 
BRANCH   5   6
ATOM      6  C   UNL     1     -17.471  43.071  33.594  1.00  0.00     0.053 C 
BRANCH   6   7
ATOM      7  C   UNL     1     -18.527  42.034  33.362  1.00  0.00     0.041 C 
ATOM      8  O   UNL     1     -19.674  42.172  33.863  1.00  0.00    -0.550 OA
ATOM      9  O   UNL     1     -18.235  40.898  32.618  1.00  0.00    -0.550 OA
ENDBRANCH   6   7
ENDBRANCH   5   6
ENDBRANCH   4   5
ENDBRANCH   3   4
ENDBRANCH   2   3
ENDBRANCH   1   2
BRANCH   1  10
ATOM     10  C   UNL     1     -15.066  41.786  31.172  1.00  0.00     0.000 C 
BRANCH  10  11
ATOM     11  C   UNL     1     -13.761  41.146  30.665  1.00  0.00    -0.000 C 
BRANCH  11  12
ATOM     12  C   UNL     1     -12.612  41.269  31.679  1.00  0.00    -0.000 C 
BRANCH  12  13
ATOM     13  C   UNL     1     -12.879  42.341  32.751  1.00  0.00    -0.000 C 
BRANCH  13  14
ATOM     14  C   UNL     1     -12.093  43.638  32.499  1.00  0.00    -0.000 C 
BRANCH  14  15
ATOM     15  C   UNL     1     -12.994  44.886  32.519  1.00  0.00    -0.000 C 
BRANCH  15  16
ATOM     16  C   UNL     1     -14.209  44.718  33.444  1.00  0.00    -0.003 C 
ATOM     17  C   UNL     1     -14.147  45.625  34.674  1.00  0.00     0.004 C 
ENDBRANCH  15  16
ENDBRANCH  14  15
ENDBRANCH  13  14
ENDBRANCH  12  13
ENDBRANCH  11  12
ENDBRANCH  10  11
ENDBRANCH   1  10
TORSDOF 13
ENDMDL
MODEL 8
REMARK VINA RESULT:    -4.023      1.788      2.848
REMARK INTER + INTRA:          -9.145
REMARK INTER:                  -6.870
REMARK INTRA:                  -2.275
REMARK UNBOUND:                -2.065
REMARK SMILES CCCCCCCCCCCCCCC(=O)[O-]
REMARK SMILES IDX 9 1 10 2 11 3 12 4 13 5 14 6 15 7 16 8 17 9 8 10 7 11 6 12
REMARK SMILES IDX 5 13 4 14 3 15 2 16 1 17
REMARK H PARENT
REMARK Flexibility Score: inf
ROOT
ATOM      1  C   UNL     1     -16.041  44.823  31.025  1.00  0.00     0.000 C 
ENDROOT
BRANCH   1   2
ATOM      2  C   UNL     1     -15.336  43.967  29.958  1.00  0.00     0.000 C 
BRANCH   2   3
ATOM      3  C   UNL     1     -13.897  43.601  30.355  1.00  0.00     0.000 C 
BRANCH   3   4
ATOM      4  C   UNL     1     -13.412  44.373  31.593  1.00  0.00     0.000 C 
BRANCH   4   5
ATOM      5  C   UNL     1     -12.405  43.577  32.444  1.00  0.00     0.006 C 
BRANCH   5   6
ATOM      6  C   UNL     1     -12.814  42.113  32.688  1.00  0.00     0.053 C 
BRANCH   6   7
ATOM      7  C   UNL     1     -11.817  41.136  32.145  1.00  0.00     0.041 C 
ATOM      8  O   UNL     1     -12.124  40.380  31.187  1.00  0.00    -0.550 OA
ATOM      9  O   UNL     1     -10.556  41.038  32.721  1.00  0.00    -0.550 OA
ENDBRANCH   6   7
ENDBRANCH   5   6
ENDBRANCH   4   5
ENDBRANCH   3   4
ENDBRANCH   2   3
ENDBRANCH   1   2
BRANCH   1  10
ATOM     10  C   UNL     1     -17.525  44.460  31.191  1.00  0.00     0.000 C 
BRANCH  10  11
ATOM     11  C   UNL     1     -17.877  44.065  32.637  1.00  0.00    -0.000 C 
BRANCH  11  12
ATOM     12  C   UNL     1     -16.630  43.807  33.497  1.00  0.00    -0.000 C 
BRANCH  12  13
ATOM     13  C   UNL     1     -16.364  42.307  33.722  1.00  0.00    -0.000 C 
BRANCH  13  14
ATOM     14  C   UNL     1     -17.609  41.441  33.474  1.00  0.00    -0.000 C 
BRANCH  14  15
ATOM     15  C   UNL     1     -17.349  40.311  32.463  1.00  0.00    -0.000 C 
BRANCH  15  16
ATOM     16  C   UNL     1     -16.835  40.837  31.113  1.00  0.00    -0.003 C 
ATOM     17  C   UNL     1     -15.534  40.167  30.671  1.00  0.00     0.004 C 
ENDBRANCH  15  16
ENDBRANCH  14  15
ENDBRANCH  13  14
ENDBRANCH  12  13
ENDBRANCH  11  12
ENDBRANCH  10  11
ENDBRANCH   1  10
TORSDOF 13
ENDMDL
MODEL 9
REMARK VINA RESULT:    -3.993      1.967      3.687
REMARK INTER + INTRA:          -9.092
REMARK INTER:                  -6.768
REMARK INTRA:                  -2.324
REMARK UNBOUND:                -2.065
REMARK SMILES CCCCCCCCCCCCCCC(=O)[O-]
REMARK SMILES IDX 9 1 10 2 11 3 12 4 13 5 14 6 15 7 16 8 17 9 8 10 7 11 6 12
REMARK SMILES IDX 5 13 4 14 3 15 2 16 1 17
REMARK H PARENT
REMARK Flexibility Score: inf
ROOT
ATOM      1  C   UNL     1     -14.466  43.380  33.716  1.00  0.00     0.000 C 
ENDROOT
BRANCH   1   2
ATOM      2  C   UNL     1     -14.047  44.822  33.383  1.00  0.00     0.000 C 
BRANCH   2   3
ATOM      3  C   UNL     1     -13.106  44.896  32.170  1.00  0.00     0.000 C 
BRANCH   3   4
ATOM      4  C   UNL     1     -12.014  43.813  32.203  1.00  0.00     0.000 C 
BRANCH   4   5
ATOM      5  C   UNL     1     -11.313  43.620  30.846  1.00  0.00     0.006 C 
BRANCH   5   6
ATOM      6  C   UNL     1     -11.914  44.465  29.708  1.00  0.00     0.053 C 
BRANCH   6   7
ATOM      7  C   UNL     1     -10.877  45.230  28.946  1.00  0.00     0.041 C 
ATOM      8  O   UNL     1     -10.324  44.720  27.937  1.00  0.00    -0.550 OA
ATOM      9  O   UNL     1     -10.496  46.498  29.370  1.00  0.00    -0.550 OA
ENDBRANCH   6   7
ENDBRANCH   5   6
ENDBRANCH   4   5
ENDBRANCH   3   4
ENDBRANCH   2   3
ENDBRANCH   1   2
BRANCH   1  10
ATOM     10  C   UNL     1     -15.987  43.223  33.868  1.00  0.00     0.000 C 
BRANCH  10  11
ATOM     11  C   UNL     1     -16.730  44.569  33.778  1.00  0.00    -0.000 C 
BRANCH  11  12
ATOM     12  C   UNL     1     -17.977  44.494  32.882  1.00  0.00    -0.000 C 
BRANCH  12  13
ATOM     13  C   UNL     1     -17.670  43.920  31.486  1.00  0.00    -0.000 C 
BRANCH  13  14
ATOM     14  C   UNL     1     -16.838  44.881  30.620  1.00  0.00    -0.000 C 
BRANCH  14  15
ATOM     15  C   UNL     1     -15.761  44.152  29.800  1.00  0.00    -0.000 C 
BRANCH  15  16
ATOM     16  C   UNL     1     -15.913  42.624  29.856  1.00  0.00    -0.003 C 
ATOM     17  C   UNL     1     -14.636  41.917  30.310  1.00  0.00     0.004 C 
ENDBRANCH  15  16
ENDBRANCH  14  15
ENDBRANCH  13  14
ENDBRANCH  12  13
ENDBRANCH  11  12
ENDBRANCH  10  11
ENDBRANCH   1  10
TORSDOF 13
ENDMDL
