MODEL 1
REMARK VINA RESULT:    -5.195      0.000      0.000
REMARK INTER + INTRA:          -6.750
REMARK INTER:                  -6.409
REMARK INTRA:                  -0.341
REMARK UNBOUND:                -0.341
REMARK SMILES O=c1c(O)c(-c2cc(O)c(O)c(O)c2)oc2cc(O)cc(O)c12
REMARK SMILES IDX 5 1 3 2 2 3 1 4 23 5 21 6 20 7 18 8 17 9 16 10 15 11 6 12
REMARK SMILES IDX 7 13 8 14 14 15 10 16 12 17 9 18 11 20 13 22 4 24 22 26
REMARK SMILES IDX 19 28
REMARK H PARENT 9 19 11 21 13 23 4 25 22 27 19 29
REMARK Flexibility Score: inf
ROOT
ATOM      1  C   UNL     1     143.094 146.655 138.091  1.00  0.00     0.180 A 
ATOM      2  C   UNL     1     141.827 147.130 137.713  1.00  0.00     0.208 A 
ATOM      3  C   UNL     1     141.584 148.512 137.734  1.00  0.00     0.238 A 
ATOM      4  O   UNL     1     140.465 148.935 137.342  1.00  0.00    -0.285 OA
ATOM      5  C   UNL     1     142.605 149.401 138.148  1.00  0.00     0.111 A 
ATOM      6  C   UNL     1     142.456 150.818 138.247  1.00  0.00     0.134 A 
ATOM      7  C   UNL     1     143.572 151.610 138.541  1.00  0.00     0.093 A 
ATOM      8  C   UNL     1     144.814 151.035 138.807  1.00  0.00     0.123 A 
ATOM      9  C   UNL     1     144.957 149.648 138.771  1.00  0.00     0.094 A 
ATOM     10  C   UNL     1     143.871 148.833 138.444  1.00  0.00     0.146 A 
ATOM     11  O   UNL     1     144.052 147.518 138.412  1.00  0.00    -0.452 OA
ENDROOT
BRANCH   1  12
ATOM     12  C   UNL     1     143.419 145.210 138.118  1.00  0.00     0.029 A 
ATOM     13  C   UNL     1     144.054 144.585 137.033  1.00  0.00     0.062 A 
ATOM     14  C   UNL     1     144.333 143.216 137.064  1.00  0.00     0.162 A 
ATOM     15  C   UNL     1     143.034 144.436 139.220  1.00  0.00     0.062 A 
ATOM     16  C   UNL     1     143.968 142.443 138.182  1.00  0.00     0.200 A 
ATOM     17  C   UNL     1     143.306 143.063 139.269  1.00  0.00     0.162 A 
BRANCH  14  18
ATOM     18  O   UNL     1     144.971 142.638 135.967  1.00  0.00    -0.504 OA
ATOM     19  H   UNL     1     144.524 142.557 135.061  1.00  0.00     0.293 HD
ENDBRANCH  14  18
BRANCH  16  20
ATOM     20  O   UNL     1     144.273 141.079 138.175  1.00  0.00    -0.502 OA
ATOM     21  H   UNL     1     145.023 140.667 137.639  1.00  0.00     0.293 HD
ENDBRANCH  16  20
BRANCH  17  22
ATOM     22  O   UNL     1     142.902 142.362 140.407  1.00  0.00    -0.504 OA
ATOM     23  H   UNL     1     141.939 142.211 140.667  1.00  0.00     0.293 HD
ENDBRANCH  17  22
ENDBRANCH   1  12
BRANCH   2  24
ATOM     24  O   UNL     1     140.840 146.236 137.286  1.00  0.00    -0.502 OA
ATOM     25  H   UNL     1     139.852 146.412 137.421  1.00  0.00     0.293 HD
ENDBRANCH   2  24
BRANCH   6  26
ATOM     26  O   UNL     1     141.238 151.487 138.091  1.00  0.00    -0.507 OA
ATOM     27  H   UNL     1     141.120 152.486 138.151  1.00  0.00     0.293 HD
ENDBRANCH   6  26
BRANCH   8  28
ATOM     28  O   UNL     1     145.899 151.854 139.112  1.00  0.00    -0.508 OA
ATOM     29  H   UNL     1     146.679 151.961 138.474  1.00  0.00     0.293 HD
ENDBRANCH   8  28
TORSDOF 7
ENDMDL
MODEL 2
REMARK VINA RESULT:    -5.173      7.704     11.615
REMARK INTER + INTRA:          -6.724
REMARK INTER:                  -6.394
REMARK INTRA:                  -0.330
REMARK UNBOUND:                -0.341
REMARK SMILES O=c1c(O)c(-c2cc(O)c(O)c(O)c2)oc2cc(O)cc(O)c12
REMARK SMILES IDX 5 1 3 2 2 3 1 4 23 5 21 6 20 7 18 8 17 9 16 10 15 11 6 12
REMARK SMILES IDX 7 13 8 14 14 15 10 16 12 17 9 18 11 20 13 22 4 24 22 26
REMARK SMILES IDX 19 28
REMARK H PARENT 9 19 11 21 13 23 4 25 22 27 19 29
REMARK Flexibility Score: inf
ROOT
ATOM      1  C   UNL     1     152.360 148.892 138.078  1.00  0.00     0.180 A 
ATOM      2  C   UNL     1     153.632 148.412 137.721  1.00  0.00     0.208 A 
ATOM      3  C   UNL     1     153.871 147.029 137.752  1.00  0.00     0.238 A 
ATOM      4  O   UNL     1     154.995 146.602 137.379  1.00  0.00    -0.285 OA
ATOM      5  C   UNL     1     152.841 146.145 138.154  1.00  0.00     0.111 A 
ATOM      6  C   UNL     1     152.986 144.728 138.262  1.00  0.00     0.134 A 
ATOM      7  C   UNL     1     151.863 143.940 138.543  1.00  0.00     0.093 A 
ATOM      8  C   UNL     1     150.619 144.519 138.787  1.00  0.00     0.123 A 
ATOM      9  C   UNL     1     150.480 145.907 138.743  1.00  0.00     0.094 A 
ATOM     10  C   UNL     1     151.573 146.717 138.429  1.00  0.00     0.146 A 
ATOM     11  O   UNL     1     151.396 148.033 138.388  1.00  0.00    -0.452 OA
ENDROOT
BRANCH   1  12
ATOM     12  C   UNL     1     152.039 150.338 138.093  1.00  0.00     0.029 A 
ATOM     13  C   UNL     1     151.381 150.950 137.014  1.00  0.00     0.062 A 
ATOM     14  C   UNL     1     151.106 152.320 137.034  1.00  0.00     0.162 A 
ATOM     15  C   UNL     1     152.449 151.125 139.177  1.00  0.00     0.062 A 
ATOM     16  C   UNL     1     151.496 153.106 138.133  1.00  0.00     0.200 A 
ATOM     17  C   UNL     1     152.180 152.499 139.213  1.00  0.00     0.162 A 
BRANCH  14  18
ATOM     18  O   UNL     1     150.445 152.885 135.943  1.00  0.00    -0.504 OA
ATOM     19  H   UNL     1     150.609 152.577 134.992  1.00  0.00     0.293 HD
ENDBRANCH  14  18
BRANCH  16  20
ATOM     20  O   UNL     1     151.194 154.471 138.115  1.00  0.00    -0.502 OA
ATOM     21  H   UNL     1     150.282 154.848 137.902  1.00  0.00     0.293 HD
ENDBRANCH  16  20
BRANCH  17  22
ATOM     22  O   UNL     1     152.610 153.213 140.334  1.00  0.00    -0.504 OA
ATOM     23  H   UNL     1     152.830 152.793 141.224  1.00  0.00     0.293 HD
ENDBRANCH  17  22
ENDBRANCH   1  12
BRANCH   2  24
ATOM     24  O   UNL     1     154.628 149.301 137.305  1.00  0.00    -0.502 OA
ATOM     25  H   UNL     1     154.954 149.343 136.347  1.00  0.00     0.293 HD
ENDBRANCH   2  24
BRANCH   6  26
ATOM     26  O   UNL     1     154.204 144.056 138.128  1.00  0.00    -0.507 OA
ATOM     27  H   UNL     1     154.683 143.905 137.254  1.00  0.00     0.293 HD
ENDBRANCH   6  26
BRANCH   8  28
ATOM     28  O   UNL     1     149.527 143.705 139.080  1.00  0.00    -0.508 OA
ATOM     29  H   UNL     1     148.659 144.089 139.436  1.00  0.00     0.293 HD
ENDBRANCH   8  28
TORSDOF 7
ENDMDL
MODEL 3
REMARK VINA RESULT:    -5.151      5.697      8.310
REMARK INTER + INTRA:          -6.696
REMARK INTER:                  -6.339
REMARK INTRA:                  -0.358
REMARK UNBOUND:                -0.341
REMARK SMILES O=c1c(O)c(-c2cc(O)c(O)c(O)c2)oc2cc(O)cc(O)c12
REMARK SMILES IDX 5 1 3 2 2 3 1 4 23 5 21 6 20 7 18 8 17 9 16 10 15 11 6 12
REMARK SMILES IDX 7 13 8 14 14 15 10 16 12 17 9 18 11 20 13 22 4 24 22 26
REMARK SMILES IDX 19 28
REMARK H PARENT 9 19 11 21 13 23 4 25 22 27 19 29
REMARK Flexibility Score: inf
ROOT
ATOM      1  C   UNL     1     149.000 143.035 138.044  1.00  0.00     0.180 A 
ATOM      2  C   UNL     1     148.492 141.785 137.652  1.00  0.00     0.208 A 
ATOM      3  C   UNL     1     147.103 141.582 137.662  1.00  0.00     0.238 A 
ATOM      4  O   UNL     1     146.651 140.479 137.258  1.00  0.00    -0.285 OA
ATOM      5  C   UNL     1     146.240 142.626 138.076  1.00  0.00     0.111 A 
ATOM      6  C   UNL     1     144.819 142.517 138.163  1.00  0.00     0.134 A 
ATOM      7  C   UNL     1     144.057 143.653 138.460  1.00  0.00     0.093 A 
ATOM      8  C   UNL     1     144.666 144.876 138.739  1.00  0.00     0.123 A 
ATOM      9  C   UNL     1     146.057 144.979 138.715  1.00  0.00     0.094 A 
ATOM     10  C   UNL     1     146.843 143.872 138.386  1.00  0.00     0.146 A 
ATOM     11  O   UNL     1     148.163 144.015 138.365  1.00  0.00    -0.452 OA
ENDROOT
BRANCH   1  12
ATOM     12  C   UNL     1     150.453 143.318 138.084  1.00  0.00     0.029 A 
ATOM     13  C   UNL     1     151.130 143.821 136.961  1.00  0.00     0.062 A 
ATOM     14  C   UNL     1     152.506 144.060 137.008  1.00  0.00     0.162 A 
ATOM     15  C   UNL     1     151.182 143.024 139.244  1.00  0.00     0.062 A 
ATOM     16  C   UNL     1     153.234 143.788 138.181  1.00  0.00     0.200 A 
ATOM     17  C   UNL     1     152.561 143.258 139.309  1.00  0.00     0.162 A 
BRANCH  14  18
ATOM     18  O   UNL     1     153.136 144.566 135.871  1.00  0.00    -0.504 OA
ATOM     19  H   UNL     1     153.206 144.037 135.010  1.00  0.00     0.293 HD
ENDBRANCH  14  18
BRANCH  16  20
ATOM     20  O   UNL     1     154.607 144.049 138.187  1.00  0.00    -0.502 OA
ATOM     21  H   UNL     1     155.217 143.859 138.968  1.00  0.00     0.293 HD
ENDBRANCH  16  20
BRANCH  17  22
ATOM     22  O   UNL     1     153.215 142.951 140.504  1.00  0.00    -0.504 OA
ATOM     23  H   UNL     1     153.029 143.406 141.385  1.00  0.00     0.293 HD
ENDBRANCH  17  22
ENDBRANCH   1  12
BRANCH   2  24
ATOM     24  O   UNL     1     149.359 140.776 137.225  1.00  0.00    -0.502 OA
ATOM     25  H   UNL     1     149.687 140.708 136.269  1.00  0.00     0.293 HD
ENDBRANCH   2  24
BRANCH   6  26
ATOM     26  O   UNL     1     144.117 141.320 137.993  1.00  0.00    -0.507 OA
ATOM     27  H   UNL     1     143.815 140.952 137.104  1.00  0.00     0.293 HD
ENDBRANCH   6  26
BRANCH   8  28
ATOM     28  O   UNL     1     143.877 145.982 139.046  1.00  0.00    -0.508 OA
ATOM     29  H   UNL     1     144.287 146.865 139.328  1.00  0.00     0.293 HD
ENDBRANCH   8  28
TORSDOF 7
ENDMDL
MODEL 4
REMARK VINA RESULT:    -5.144      5.876      8.301
REMARK INTER + INTRA:          -6.688
REMARK INTER:                  -6.330
REMARK INTRA:                  -0.358
REMARK UNBOUND:                -0.341
REMARK SMILES O=c1c(O)c(-c2cc(O)c(O)c(O)c2)oc2cc(O)cc(O)c12
REMARK SMILES IDX 5 1 3 2 2 3 1 4 23 5 21 6 20 7 18 8 17 9 16 10 15 11 6 12
REMARK SMILES IDX 7 13 8 14 14 15 10 16 12 17 9 18 11 20 13 22 4 24 22 26
REMARK SMILES IDX 19 28
REMARK H PARENT 9 19 11 21 13 23 4 25 22 27 19 29
REMARK Flexibility Score: inf
ROOT
ATOM      1  C   UNL     1     146.538 152.547 138.026  1.00  0.00     0.180 A 
ATOM      2  C   UNL     1     147.037 153.799 137.627  1.00  0.00     0.208 A 
ATOM      3  C   UNL     1     148.425 154.013 137.634  1.00  0.00     0.238 A 
ATOM      4  O   UNL     1     148.868 155.117 137.225  1.00  0.00    -0.285 OA
ATOM      5  C   UNL     1     149.295 152.978 138.054  1.00  0.00     0.111 A 
ATOM      6  C   UNL     1     150.715 153.098 138.140  1.00  0.00     0.134 A 
ATOM      7  C   UNL     1     151.486 151.969 138.443  1.00  0.00     0.093 A 
ATOM      8  C   UNL     1     150.886 150.743 138.729  1.00  0.00     0.123 A 
ATOM      9  C   UNL     1     149.496 150.630 138.706  1.00  0.00     0.094 A 
ATOM     10  C   UNL     1     148.702 151.729 138.372  1.00  0.00     0.146 A 
ATOM     11  O   UNL     1     147.383 151.576 138.352  1.00  0.00    -0.452 OA
ENDROOT
BRANCH   1  12
ATOM     12  C   UNL     1     145.087 152.254 138.068  1.00  0.00     0.029 A 
ATOM     13  C   UNL     1     144.412 151.747 136.946  1.00  0.00     0.062 A 
ATOM     14  C   UNL     1     143.038 151.497 136.995  1.00  0.00     0.162 A 
ATOM     15  C   UNL     1     144.357 152.542 139.229  1.00  0.00     0.062 A 
ATOM     16  C   UNL     1     142.310 151.764 138.169  1.00  0.00     0.200 A 
ATOM     17  C   UNL     1     142.980 152.298 139.295  1.00  0.00     0.162 A 
BRANCH  14  18
ATOM     18  O   UNL     1     142.410 150.987 135.858  1.00  0.00    -0.504 OA
ATOM     19  H   UNL     1     142.321 149.992 135.690  1.00  0.00     0.293 HD
ENDBRANCH  14  18
BRANCH  16  20
ATOM     20  O   UNL     1     140.939 151.492 138.177  1.00  0.00    -0.502 OA
ATOM     21  H   UNL     1     140.359 151.475 137.351  1.00  0.00     0.293 HD
ENDBRANCH  16  20
BRANCH  17  22
ATOM     22  O   UNL     1     142.326 152.600 140.491  1.00  0.00    -0.504 OA
ATOM     23  H   UNL     1     141.356 152.872 140.553  1.00  0.00     0.293 HD
ENDBRANCH  17  22
ENDBRANCH   1  12
BRANCH   2  24
ATOM     24  O   UNL     1     146.162 154.800 137.194  1.00  0.00    -0.502 OA
ATOM     25  H   UNL     1     146.484 155.650 136.749  1.00  0.00     0.293 HD
ENDBRANCH   2  24
BRANCH   6  26
ATOM     26  O   UNL     1     151.408 154.299 137.964  1.00  0.00    -0.507 OA
ATOM     27  H   UNL     1     151.374 154.865 137.130  1.00  0.00     0.293 HD
ENDBRANCH   6  26
BRANCH   8  28
ATOM     28  O   UNL     1     151.684 149.645 139.042  1.00  0.00    -0.508 OA
ATOM     29  H   UNL     1     151.655 148.794 138.492  1.00  0.00     0.293 HD
ENDBRANCH   8  28
TORSDOF 7
ENDMDL
MODEL 5
REMARK VINA RESULT:    -5.008      6.706      9.633
REMARK INTER + INTRA:          -6.520
REMARK INTER:                  -6.165
REMARK INTRA:                  -0.356
REMARK UNBOUND:                -0.341
REMARK SMILES O=c1c(O)c(-c2cc(O)c(O)c(O)c2)oc2cc(O)cc(O)c12
REMARK SMILES IDX 5 1 3 2 2 3 1 4 23 5 21 6 20 7 18 8 17 9 16 10 15 11 6 12
REMARK SMILES IDX 7 13 8 14 14 15 10 16 12 17 9 18 11 20 13 22 4 24 22 26
REMARK SMILES IDX 19 28
REMARK H PARENT 9 19 11 21 13 23 4 25 22 27 19 29
REMARK Flexibility Score: inf
ROOT
ATOM      1  C   UNL     1     149.027 151.765 138.548  1.00  0.00     0.180 A 
ATOM      2  C   UNL     1     149.978 152.796 138.646  1.00  0.00     0.208 A 
ATOM      3  C   UNL     1     151.322 152.461 138.871  1.00  0.00     0.238 A 
ATOM      4  O   UNL     1     152.177 153.384 138.903  1.00  0.00    -0.285 OA
ATOM      5  C   UNL     1     151.697 151.103 139.010  1.00  0.00     0.111 A 
ATOM      6  C   UNL     1     153.025 150.652 139.280  1.00  0.00     0.134 A 
ATOM      7  C   UNL     1     153.303 149.280 139.268  1.00  0.00     0.093 A 
ATOM      8  C   UNL     1     152.292 148.341 139.062  1.00  0.00     0.123 A 
ATOM      9  C   UNL     1     150.981 148.770 138.856  1.00  0.00     0.094 A 
ATOM     10  C   UNL     1     150.678 150.133 138.827  1.00  0.00     0.146 A 
ATOM     11  O   UNL     1     149.419 150.499 138.618  1.00  0.00    -0.452 OA
ENDROOT
BRANCH   1  12
ATOM     12  C   UNL     1     147.587 152.040 138.336  1.00  0.00     0.029 A 
ATOM     13  C   UNL     1     147.039 152.110 137.045  1.00  0.00     0.062 A 
ATOM     14  C   UNL     1     145.683 152.392 136.861  1.00  0.00     0.162 A 
ATOM     15  C   UNL     1     146.762 152.294 139.440  1.00  0.00     0.062 A 
ATOM     16  C   UNL     1     144.850 152.623 137.971  1.00  0.00     0.200 A 
ATOM     17  C   UNL     1     145.401 152.578 139.274  1.00  0.00     0.162 A 
BRANCH  14  18
ATOM     18  O   UNL     1     145.181 152.445 135.561  1.00  0.00    -0.504 OA
ATOM     19  H   UNL     1     144.782 153.289 135.168  1.00  0.00     0.293 HD
ENDBRANCH  14  18
BRANCH  16  20
ATOM     20  O   UNL     1     143.498 152.895 137.742  1.00  0.00    -0.502 OA
ATOM     21  H   UNL     1     142.964 152.514 136.975  1.00  0.00     0.293 HD
ENDBRANCH  16  20
BRANCH  17  22
ATOM     22  O   UNL     1     144.642 152.807 140.424  1.00  0.00    -0.504 OA
ATOM     23  H   UNL     1     143.699 153.166 140.418  1.00  0.00     0.293 HD
ENDBRANCH  17  22
ENDBRANCH   1  12
BRANCH   2  24
ATOM     24  O   UNL     1     149.590 154.129 138.483  1.00  0.00    -0.502 OA
ATOM     25  H   UNL     1     148.774 154.397 137.946  1.00  0.00     0.293 HD
ENDBRANCH   2  24
BRANCH   6  26
ATOM     26  O   UNL     1     154.090 151.502 139.590  1.00  0.00    -0.507 OA
ATOM     27  H   UNL     1     154.481 151.621 140.512  1.00  0.00     0.293 HD
ENDBRANCH   6  26
BRANCH   8  28
ATOM     28  O   UNL     1     152.603 146.983 139.072  1.00  0.00    -0.508 OA
ATOM     29  H   UNL     1     151.923 146.282 138.804  1.00  0.00     0.293 HD
ENDBRANCH   8  28
TORSDOF 7
ENDMDL
MODEL 6
REMARK VINA RESULT:    -4.992      7.356      8.356
REMARK INTER + INTRA:          -6.500
REMARK INTER:                  -6.222
REMARK INTRA:                  -0.278
REMARK UNBOUND:                -0.341
REMARK SMILES O=c1c(O)c(-c2cc(O)c(O)c(O)c2)oc2cc(O)cc(O)c12
REMARK SMILES IDX 5 1 3 2 2 3 1 4 23 5 21 6 20 7 18 8 17 9 16 10 15 11 6 12
REMARK SMILES IDX 7 13 8 14 14 15 10 16 12 17 9 18 11 20 13 22 4 24 22 26
REMARK SMILES IDX 19 28
REMARK H PARENT 9 19 11 21 13 23 4 25 22 27 19 29
REMARK Flexibility Score: inf
ROOT
ATOM      1  C   UNL     1     151.284 146.460 138.312  1.00  0.00     0.180 A 
ATOM      2  C   UNL     1     150.592 146.836 137.148  1.00  0.00     0.208 A 
ATOM      3  C   UNL     1     150.436 148.202 136.861  1.00  0.00     0.238 A 
ATOM      4  O   UNL     1     149.863 148.532 135.790  1.00  0.00    -0.285 OA
ATOM      5  C   UNL     1     150.959 149.173 137.748  1.00  0.00     0.111 A 
ATOM      6  C   UNL     1     150.823 150.584 137.576  1.00  0.00     0.134 A 
ATOM      7  C   UNL     1     151.494 151.453 138.446  1.00  0.00     0.093 A 
ATOM      8  C   UNL     1     152.238 150.965 139.519  1.00  0.00     0.123 A 
ATOM      9  C   UNL     1     152.328 149.589 139.731  1.00  0.00     0.094 A 
ATOM     10  C   UNL     1     151.701 148.696 138.859  1.00  0.00     0.146 A 
ATOM     11  O   UNL     1     151.820 147.394 139.090  1.00  0.00    -0.452 OA
ENDROOT
BRANCH   1  12
ATOM     12  C   UNL     1     151.469 145.042 138.696  1.00  0.00     0.029 A 
ATOM     13  C   UNL     1     150.391 144.260 139.141  1.00  0.00     0.062 A 
ATOM     14  C   UNL     1     150.585 142.929 139.522  1.00  0.00     0.162 A 
ATOM     15  C   UNL     1     152.752 144.481 138.671  1.00  0.00     0.062 A 
ATOM     16  C   UNL     1     151.871 142.359 139.473  1.00  0.00     0.200 A 
ATOM     17  C   UNL     1     152.966 143.149 139.047  1.00  0.00     0.162 A 
BRANCH  14  18
ATOM     18  O   UNL     1     149.484 142.189 139.951  1.00  0.00    -0.504 OA
ATOM     19  H   UNL     1     148.857 142.521 140.675  1.00  0.00     0.293 HD
ENDBRANCH  14  18
BRANCH  16  20
ATOM     20  O   UNL     1     152.020 141.022 139.855  1.00  0.00    -0.502 OA
ATOM     21  H   UNL     1     151.743 140.236 139.286  1.00  0.00     0.293 HD
ENDBRANCH  16  20
BRANCH  17  22
ATOM     22  O   UNL     1     154.272 142.659 138.984  1.00  0.00    -0.504 OA
ATOM     23  H   UNL     1     154.899 142.818 138.210  1.00  0.00     0.293 HD
ENDBRANCH  17  22
ENDBRANCH   1  12
BRANCH   2  24
ATOM     24  O   UNL     1     150.103 145.861 136.275  1.00  0.00    -0.502 OA
ATOM     25  H   UNL     1     149.628 146.093 135.411  1.00  0.00     0.293 HD
ENDBRANCH   2  24
BRANCH   6  26
ATOM     26  O   UNL     1     150.028 151.177 136.591  1.00  0.00    -0.507 OA
ATOM     27  H   UNL     1     149.098 150.876 136.346  1.00  0.00     0.293 HD
ENDBRANCH   6  26
BRANCH   8  28
ATOM     28  O   UNL     1     152.878 151.859 140.374  1.00  0.00    -0.508 OA
ATOM     29  H   UNL     1     153.889 151.915 140.423  1.00  0.00     0.293 HD
ENDBRANCH   8  28
TORSDOF 7
ENDMDL
MODEL 7
REMARK VINA RESULT:    -4.990      4.416      6.800
REMARK INTER + INTRA:          -6.498
REMARK INTER:                  -6.231
REMARK INTRA:                  -0.267
REMARK UNBOUND:                -0.341
REMARK SMILES O=c1c(O)c(-c2cc(O)c(O)c(O)c2)oc2cc(O)cc(O)c12
REMARK SMILES IDX 5 1 3 2 2 3 1 4 23 5 21 6 20 7 18 8 17 9 16 10 15 11 6 12
REMARK SMILES IDX 7 13 8 14 14 15 10 16 12 17 9 18 11 20 13 22 4 24 22 26
REMARK SMILES IDX 19 28
REMARK H PARENT 9 19 11 21 13 23 4 25 22 27 19 29
REMARK Flexibility Score: inf
ROOT
ATOM      1  C   UNL     1     146.458 144.308 138.313  1.00  0.00     0.180 A 
ATOM      2  C   UNL     1     146.820 145.035 137.166  1.00  0.00     0.208 A 
ATOM      3  C   UNL     1     148.182 145.225 136.882  1.00  0.00     0.238 A 
ATOM      4  O   UNL     1     148.500 145.830 135.825  1.00  0.00    -0.285 OA
ATOM      5  C   UNL     1     149.164 144.699 137.755  1.00  0.00     0.111 A 
ATOM      6  C   UNL     1     150.572 144.867 137.587  1.00  0.00     0.134 A 
ATOM      7  C   UNL     1     151.454 144.193 138.440  1.00  0.00     0.093 A 
ATOM      8  C   UNL     1     150.981 143.414 139.495  1.00  0.00     0.123 A 
ATOM      9  C   UNL     1     149.607 143.292 139.705  1.00  0.00     0.094 A 
ATOM     10  C   UNL     1     148.702 143.922 138.848  1.00  0.00     0.146 A 
ATOM     11  O   UNL     1     147.403 143.772 139.077  1.00  0.00    -0.452 OA
ENDROOT
BRANCH   1  12
ATOM     12  C   UNL     1     145.044 144.087 138.692  1.00  0.00     0.029 A 
ATOM     13  C   UNL     1     144.235 145.143 139.140  1.00  0.00     0.062 A 
ATOM     14  C   UNL     1     142.908 144.914 139.516  1.00  0.00     0.162 A 
ATOM     15  C   UNL     1     144.515 142.790 138.661  1.00  0.00     0.062 A 
ATOM     16  C   UNL     1     142.370 143.615 139.461  1.00  0.00     0.200 A 
ATOM     17  C   UNL     1     143.188 142.542 139.033  1.00  0.00     0.162 A 
BRANCH  14  18
ATOM     18  O   UNL     1     142.139 145.994 139.948  1.00  0.00    -0.504 OA
ATOM     19  H   UNL     1     141.475 145.916 140.708  1.00  0.00     0.293 HD
ENDBRANCH  14  18
BRANCH  16  20
ATOM     20  O   UNL     1     141.037 143.431 139.839  1.00  0.00    -0.502 OA
ATOM     21  H   UNL     1     140.746 142.971 140.689  1.00  0.00     0.293 HD
ENDBRANCH  16  20
BRANCH  17  22
ATOM     22  O   UNL     1     142.731 141.224 138.964  1.00  0.00    -0.504 OA
ATOM     23  H   UNL     1     141.802 140.932 139.227  1.00  0.00     0.293 HD
ENDBRANCH  17  22
ENDBRANCH   1  12
BRANCH   2  24
ATOM     24  O   UNL     1     145.834 145.526 136.304  1.00  0.00    -0.502 OA
ATOM     25  H   UNL     1     145.092 146.139 136.620  1.00  0.00     0.293 HD
ENDBRANCH   2  24
BRANCH   6  26
ATOM     26  O   UNL     1     151.149 145.697 136.621  1.00  0.00    -0.507 OA
ATOM     27  H   UNL     1     152.067 145.566 136.226  1.00  0.00     0.293 HD
ENDBRANCH   6  26
BRANCH   8  28
ATOM     28  O   UNL     1     151.888 142.770 140.334  1.00  0.00    -0.508 OA
ATOM     29  H   UNL     1     152.660 142.227 139.964  1.00  0.00     0.293 HD
ENDBRANCH   8  28
TORSDOF 7
ENDMDL
MODEL 8
REMARK VINA RESULT:    -4.982      1.873      2.909
REMARK INTER + INTRA:          -6.488
REMARK INTER:                  -6.132
REMARK INTRA:                  -0.356
REMARK UNBOUND:                -0.341
REMARK SMILES O=c1c(O)c(-c2cc(O)c(O)c(O)c2)oc2cc(O)cc(O)c12
REMARK SMILES IDX 5 1 3 2 2 3 1 4 23 5 21 6 20 7 18 8 17 9 16 10 15 11 6 12
REMARK SMILES IDX 7 13 8 14 14 15 10 16 12 17 9 18 11 20 13 22 4 24 22 26
REMARK SMILES IDX 19 28
REMARK H PARENT 9 19 11 21 13 23 4 25 22 27 19 29
REMARK Flexibility Score: inf
ROOT
ATOM      1  C   UNL     1     143.810 148.972 138.531  1.00  0.00     0.180 A 
ATOM      2  C   UNL     1     142.787 149.931 138.630  1.00  0.00     0.208 A 
ATOM      3  C   UNL     1     143.132 151.273 138.856  1.00  0.00     0.238 A 
ATOM      4  O   UNL     1     142.216 152.136 138.889  1.00  0.00    -0.285 OA
ATOM      5  C   UNL     1     144.494 151.637 138.996  1.00  0.00     0.111 A 
ATOM      6  C   UNL     1     144.955 152.961 139.267  1.00  0.00     0.134 A 
ATOM      7  C   UNL     1     146.329 153.228 139.255  1.00  0.00     0.093 A 
ATOM      8  C   UNL     1     147.260 152.210 139.049  1.00  0.00     0.123 A 
ATOM      9  C   UNL     1     146.821 150.902 138.842  1.00  0.00     0.094 A 
ATOM     10  C   UNL     1     145.455 150.611 138.812  1.00  0.00     0.146 A 
ATOM     11  O   UNL     1     145.080 149.354 138.601  1.00  0.00    -0.452 OA
ENDROOT
BRANCH   1  12
ATOM     12  C   UNL     1     143.524 147.535 138.317  1.00  0.00     0.029 A 
ATOM     13  C   UNL     1     143.449 146.990 137.026  1.00  0.00     0.062 A 
ATOM     14  C   UNL     1     143.156 145.635 136.840  1.00  0.00     0.162 A 
ATOM     15  C   UNL     1     143.264 146.711 139.420  1.00  0.00     0.062 A 
ATOM     16  C   UNL     1     142.919 144.803 137.950  1.00  0.00     0.200 A 
ATOM     17  C   UNL     1     142.969 145.353 139.254  1.00  0.00     0.162 A 
BRANCH  14  18
ATOM     18  O   UNL     1     143.099 145.136 135.540  1.00  0.00    -0.504 OA
ATOM     19  H   UNL     1     143.197 144.148 135.334  1.00  0.00     0.293 HD
ENDBRANCH  14  18
BRANCH  16  20
ATOM     20  O   UNL     1     142.636 143.454 137.720  1.00  0.00    -0.502 OA
ATOM     21  H   UNL     1     142.860 142.965 136.866  1.00  0.00     0.293 HD
ENDBRANCH  16  20
BRANCH  17  22
ATOM     22  O   UNL     1     142.734 144.595 140.403  1.00  0.00    -0.504 OA
ATOM     23  H   UNL     1     141.823 144.268 140.689  1.00  0.00     0.293 HD
ENDBRANCH  17  22
ENDBRANCH   1  12
BRANCH   2  24
ATOM     24  O   UNL     1     141.451 149.554 138.466  1.00  0.00    -0.502 OA
ATOM     25  H   UNL     1     140.703 149.943 139.027  1.00  0.00     0.293 HD
ENDBRANCH   2  24
BRANCH   6  26
ATOM     26  O   UNL     1     144.113 154.032 139.578  1.00  0.00    -0.507 OA
ATOM     27  H   UNL     1     143.529 154.516 138.913  1.00  0.00     0.293 HD
ENDBRANCH   6  26
BRANCH   8  28
ATOM     28  O   UNL     1     148.620 152.510 139.060  1.00  0.00    -0.508 OA
ATOM     29  H   UNL     1     149.284 151.983 138.504  1.00  0.00     0.293 HD
ENDBRANCH   8  28
TORSDOF 7
ENDMDL
MODEL 9
REMARK VINA RESULT:    -4.969      5.621      8.871
REMARK INTER + INTRA:          -6.472
REMARK INTER:                  -6.165
REMARK INTRA:                  -0.307
REMARK UNBOUND:                -0.341
REMARK SMILES O=c1c(O)c(-c2cc(O)c(O)c(O)c2)oc2cc(O)cc(O)c12
REMARK SMILES IDX 5 1 3 2 2 3 1 4 23 5 21 6 20 7 18 8 17 9 16 10 15 11 6 12
REMARK SMILES IDX 7 13 8 14 14 15 10 16 12 17 9 18 11 20 13 22 4 24 22 26
REMARK SMILES IDX 19 28
REMARK H PARENT 9 19 11 21 13 23 4 25 22 27 19 29
REMARK Flexibility Score: inf
ROOT
ATOM      1  C   UNL     1     149.030 151.414 138.256  1.00  0.00     0.180 A 
ATOM      2  C   UNL     1     148.652 150.811 137.044  1.00  0.00     0.208 A 
ATOM      3  C   UNL     1     147.286 150.685 136.745  1.00  0.00     0.238 A 
ATOM      4  O   UNL     1     146.954 150.194 135.634  1.00  0.00    -0.285 OA
ATOM      5  C   UNL     1     146.316 151.148 137.667  1.00  0.00     0.111 A 
ATOM      6  C   UNL     1     144.905 151.033 137.484  1.00  0.00     0.134 A 
ATOM      7  C   UNL     1     144.039 151.644 138.400  1.00  0.00     0.093 A 
ATOM      8  C   UNL     1     144.530 152.304 139.525  1.00  0.00     0.123 A 
ATOM      9  C   UNL     1     145.906 152.370 139.744  1.00  0.00     0.094 A 
ATOM     10  C   UNL     1     146.796 151.803 138.830  1.00  0.00     0.146 A 
ATOM     11  O   UNL     1     148.099 151.897 139.070  1.00  0.00    -0.452 OA
ENDROOT
BRANCH   1  12
ATOM     12  C   UNL     1     150.449 151.561 138.653  1.00  0.00     0.029 A 
ATOM     13  C   UNL     1     151.203 150.460 139.089  1.00  0.00     0.062 A 
ATOM     14  C   UNL     1     152.535 150.620 139.483  1.00  0.00     0.162 A 
ATOM     15  C   UNL     1     151.039 152.832 138.651  1.00  0.00     0.062 A 
ATOM     16  C   UNL     1     153.134 151.892 139.458  1.00  0.00     0.200 A 
ATOM     17  C   UNL     1     152.372 153.011 139.041  1.00  0.00     0.162 A 
BRANCH  14  18
ATOM     18  O   UNL     1     153.247 149.496 139.902  1.00  0.00    -0.504 OA
ATOM     19  H   UNL     1     153.546 148.773 139.259  1.00  0.00     0.293 HD
ENDBRANCH  14  18
BRANCH  16  20
ATOM     20  O   UNL     1     154.470 152.006 139.852  1.00  0.00    -0.502 OA
ATOM     21  H   UNL     1     154.795 152.619 140.585  1.00  0.00     0.293 HD
ENDBRANCH  16  20
BRANCH  17  22
ATOM     22  O   UNL     1     152.891 154.306 139.001  1.00  0.00    -0.504 OA
ATOM     23  H   UNL     1     153.384 154.743 139.765  1.00  0.00     0.293 HD
ENDBRANCH  17  22
ENDBRANCH   1  12
BRANCH   2  24
ATOM     24  O   UNL     1     149.626 150.381 136.138  1.00  0.00    -0.502 OA
ATOM     25  H   UNL     1     149.428 150.236 135.156  1.00  0.00     0.293 HD
ENDBRANCH   2  24
BRANCH   6  26
ATOM     26  O   UNL     1     144.308 150.316 136.443  1.00  0.00    -0.507 OA
ATOM     27  H   UNL     1     144.700 150.209 135.520  1.00  0.00     0.293 HD
ENDBRANCH   6  26
BRANCH   8  28
ATOM     28  O   UNL     1     143.639 152.886 140.424  1.00  0.00    -0.508 OA
ATOM     29  H   UNL     1     142.724 152.485 140.597  1.00  0.00     0.293 HD
ENDBRANCH   8  28
TORSDOF 7
ENDMDL
