MODEL 1
REMARK VINA RESULT:    -4.693      0.000      0.000
REMARK INTER + INTRA:          -6.042
REMARK INTER:                  -5.790
REMARK INTRA:                  -0.252
REMARK UNBOUND:                -0.252
REMARK SMILES C=CCc1ccc(OC)c(OC)c1
REMARK SMILES IDX 7 1 10 2 13 3 4 4 5 5 6 6 8 7 9 8 11 9 12 10 3 11 2 12 1 13
REMARK H PARENT
REMARK Flexibility Score: inf
ROOT
ATOM      1  C   UNL     1     179.737 181.285 185.017  1.00  0.00     0.160 A 
ATOM      2  C   UNL     1     180.471 180.586 185.989  1.00  0.00     0.160 A 
ATOM      3  C   UNL     1     180.875 179.260 185.735  1.00  0.00     0.054 A 
ATOM      4  C   UNL     1     180.546 178.632 184.525  1.00  0.00    -0.040 A 
ATOM      5  C   UNL     1     179.823 179.341 183.557  1.00  0.00     0.008 A 
ATOM      6  C   UNL     1     179.418 180.654 183.800  1.00  0.00     0.051 A 
ENDROOT
BRANCH   1   7
ATOM      7  O   UNL     1     179.345 182.604 185.298  1.00  0.00    -0.493 OA
ATOM      8  C   UNL     1     178.942 183.552 184.315  1.00  0.00     0.278 C 
ENDBRANCH   1   7
BRANCH   2   9
ATOM      9  O   UNL     1     180.778 181.242 187.191  1.00  0.00    -0.493 OA
ATOM     10  C   UNL     1     181.967 181.030 187.946  1.00  0.00     0.278 C 
ENDBRANCH   2   9
BRANCH   4  11
ATOM     11  C   UNL     1     181.010 177.225 184.252  1.00  0.00     0.062 C 
BRANCH  11  12
ATOM     12  C   UNL     1     181.635 177.124 182.890  1.00  0.00    -0.030 C 
ATOM     13  C   UNL     1     181.680 175.969 182.221  1.00  0.00     0.004 C 
ENDBRANCH  11  12
ENDBRANCH   4  11
TORSDOF 4
ENDMDL
MODEL 2
REMARK VINA RESULT:    -4.644      1.730      3.067
REMARK INTER + INTRA:          -5.982
REMARK INTER:                  -5.734
REMARK INTRA:                  -0.248
REMARK UNBOUND:                -0.252
REMARK SMILES C=CCc1ccc(OC)c(OC)c1
REMARK SMILES IDX 7 1 10 2 13 3 4 4 5 5 6 6 8 7 9 8 11 9 12 10 3 11 2 12 1 13
REMARK H PARENT
REMARK Flexibility Score: inf
ROOT
ATOM      1  C   UNL     1     179.441 181.995 184.083  1.00  0.00     0.160 A 
ATOM      2  C   UNL     1     179.616 181.117 183.002  1.00  0.00     0.160 A 
ATOM      3  C   UNL     1     180.033 179.793 183.241  1.00  0.00     0.054 A 
ATOM      4  C   UNL     1     180.280 179.346 184.548  1.00  0.00    -0.040 A 
ATOM      5  C   UNL     1     180.091 180.226 185.622  1.00  0.00     0.008 A 
ATOM      6  C   UNL     1     179.679 181.540 185.393  1.00  0.00     0.051 A 
ENDROOT
BRANCH   1   7
ATOM      7  O   UNL     1     179.027 183.310 183.815  1.00  0.00    -0.493 OA
ATOM      8  C   UNL     1     178.492 184.201 184.788  1.00  0.00     0.278 C 
ENDBRANCH   1   7
BRANCH   2   9
ATOM      9  O   UNL     1     179.367 181.597 181.706  1.00  0.00    -0.493 OA
ATOM     10  C   UNL     1     180.366 181.794 180.712  1.00  0.00     0.278 C 
ENDBRANCH   2   9
BRANCH   4  11
ATOM     11  C   UNL     1     180.696 177.920 184.795  1.00  0.00     0.062 C 
BRANCH  11  12
ATOM     12  C   UNL     1     180.881 177.187 183.496  1.00  0.00    -0.030 C 
ATOM     13  C   UNL     1     181.651 176.098 183.408  1.00  0.00     0.004 C 
ENDBRANCH  11  12
ENDBRANCH   4  11
TORSDOF 4
ENDMDL
MODEL 3
REMARK VINA RESULT:    -4.547      2.379      3.489
REMARK INTER + INTRA:          -5.863
REMARK INTER:                  -5.571
REMARK INTRA:                  -0.292
REMARK UNBOUND:                -0.252
REMARK SMILES C=CCc1ccc(OC)c(OC)c1
REMARK SMILES IDX 7 1 10 2 13 3 4 4 5 5 6 6 8 7 9 8 11 9 12 10 3 11 2 12 1 13
REMARK H PARENT
REMARK Flexibility Score: inf
ROOT
ATOM      1  C   UNL     1     179.338 180.635 182.892  1.00  0.00     0.160 A 
ATOM      2  C   UNL     1     180.221 180.298 181.853  1.00  0.00     0.160 A 
ATOM      3  C   UNL     1     181.135 179.241 182.033  1.00  0.00     0.054 A 
ATOM      4  C   UNL     1     181.176 178.528 183.240  1.00  0.00    -0.040 A 
ATOM      5  C   UNL     1     180.284 178.864 184.267  1.00  0.00     0.008 A 
ATOM      6  C   UNL     1     179.375 179.910 184.098  1.00  0.00     0.051 A 
ENDROOT
BRANCH   1   7
ATOM      7  O   UNL     1     178.439 181.693 182.686  1.00  0.00    -0.493 OA
ATOM      8  C   UNL     1     178.621 183.014 183.186  1.00  0.00     0.278 C 
ENDBRANCH   1   7
BRANCH   2   9
ATOM      9  O   UNL     1     180.158 181.035 180.660  1.00  0.00    -0.493 OA
ATOM     10  C   UNL     1     181.030 182.112 180.330  1.00  0.00     0.278 C 
ENDBRANCH   2   9
BRANCH   4  11
ATOM     11  C   UNL     1     182.137 177.381 183.409  1.00  0.00     0.062 C 
BRANCH  11  12
ATOM     12  C   UNL     1     181.409 176.066 183.377  1.00  0.00    -0.030 C 
ATOM     13  C   UNL     1     182.022 174.933 183.022  1.00  0.00     0.004 C 
ENDBRANCH  11  12
ENDBRANCH   4  11
TORSDOF 4
ENDMDL
MODEL 4
REMARK VINA RESULT:    -4.477      1.877      4.399
REMARK INTER + INTRA:          -5.776
REMARK INTER:                  -5.490
REMARK INTRA:                  -0.286
REMARK UNBOUND:                -0.252
REMARK SMILES C=CCc1ccc(OC)c(OC)c1
REMARK SMILES IDX 7 1 10 2 13 3 4 4 5 5 6 6 8 7 9 8 11 9 12 10 3 11 2 12 1 13
REMARK H PARENT
REMARK Flexibility Score: inf
ROOT
ATOM      1  C   UNL     1     179.840 180.451 184.510  1.00  0.00     0.160 A 
ATOM      2  C   UNL     1     180.582 179.261 184.577  1.00  0.00     0.160 A 
ATOM      3  C   UNL     1     181.496 179.069 185.632  1.00  0.00     0.054 A 
ATOM      4  C   UNL     1     181.675 180.058 186.611  1.00  0.00    -0.040 A 
ATOM      5  C   UNL     1     180.922 181.237 186.543  1.00  0.00     0.008 A 
ATOM      6  C   UNL     1     180.015 181.436 185.500  1.00  0.00     0.051 A 
ENDROOT
BRANCH   1   7
ATOM      7  O   UNL     1     178.938 180.616 183.447  1.00  0.00    -0.493 OA
ATOM      8  C   UNL     1     178.952 181.714 182.540  1.00  0.00     0.278 C 
ENDBRANCH   1   7
BRANCH   2   9
ATOM      9  O   UNL     1     180.383 178.295 183.578  1.00  0.00    -0.493 OA
ATOM     10  C   UNL     1     180.994 177.010 183.565  1.00  0.00     0.278 C 
ENDBRANCH   2   9
BRANCH   4  11
ATOM     11  C   UNL     1     182.633 179.829 187.750  1.00  0.00     0.062 C 
BRANCH  11  12
ATOM     12  C   UNL     1     182.850 181.097 188.527  1.00  0.00    -0.030 C 
ATOM     13  C   UNL     1     184.014 181.752 188.493  1.00  0.00     0.004 C 
ENDBRANCH  11  12
ENDBRANCH   4  11
TORSDOF 4
ENDMDL
MODEL 5
REMARK VINA RESULT:    -4.472      1.575      3.161
REMARK INTER + INTRA:          -5.770
REMARK INTER:                  -5.504
REMARK INTRA:                  -0.266
REMARK UNBOUND:                -0.252
REMARK SMILES C=CCc1ccc(OC)c(OC)c1
REMARK SMILES IDX 7 1 10 2 13 3 4 4 5 5 6 6 8 7 9 8 11 9 12 10 3 11 2 12 1 13
REMARK H PARENT
REMARK Flexibility Score: inf
ROOT
ATOM      1  C   UNL     1     180.524 179.901 184.665  1.00  0.00     0.160 A 
ATOM      2  C   UNL     1     180.725 180.004 183.279  1.00  0.00     0.160 A 
ATOM      3  C   UNL     1     181.020 178.847 182.530  1.00  0.00     0.054 A 
ATOM      4  C   UNL     1     181.120 177.596 183.158  1.00  0.00    -0.040 A 
ATOM      5  C   UNL     1     180.907 177.501 184.539  1.00  0.00     0.008 A 
ATOM      6  C   UNL     1     180.616 178.642 185.288  1.00  0.00     0.051 A 
ENDROOT
BRANCH   1   7
ATOM      7  O   UNL     1     180.235 181.070 185.385  1.00  0.00    -0.493 OA
ATOM      8  C   UNL     1     180.689 181.335 186.709  1.00  0.00     0.278 C 
ENDBRANCH   1   7
BRANCH   2   9
ATOM      9  O   UNL     1     180.624 181.271 182.683  1.00  0.00    -0.493 OA
ATOM     10  C   UNL     1     179.516 181.712 181.906  1.00  0.00     0.278 C 
ENDBRANCH   2   9
BRANCH   4  11
ATOM     11  C   UNL     1     181.405 176.362 182.344  1.00  0.00     0.062 C 
BRANCH  11  12
ATOM     12  C   UNL     1     181.991 175.278 183.204  1.00  0.00    -0.030 C 
ATOM     13  C   UNL     1     182.246 174.059 182.722  1.00  0.00     0.004 C 
ENDBRANCH  11  12
ENDBRANCH   4  11
TORSDOF 4
ENDMDL
MODEL 6
REMARK VINA RESULT:    -4.349      3.650      6.010
REMARK INTER + INTRA:          -5.618
REMARK INTER:                  -5.333
REMARK INTRA:                  -0.285
REMARK UNBOUND:                -0.252
REMARK SMILES C=CCc1ccc(OC)c(OC)c1
REMARK SMILES IDX 7 1 10 2 13 3 4 4 5 5 6 6 8 7 9 8 11 9 12 10 3 11 2 12 1 13
REMARK H PARENT
REMARK Flexibility Score: inf
ROOT
ATOM      1  C   UNL     1     181.784 176.905 181.364  1.00  0.00     0.160 A 
ATOM      2  C   UNL     1     181.595 176.024 182.441  1.00  0.00     0.160 A 
ATOM      3  C   UNL     1     181.204 176.532 183.696  1.00  0.00     0.054 A 
ATOM      4  C   UNL     1     181.008 177.909 183.879  1.00  0.00    -0.040 A 
ATOM      5  C   UNL     1     181.188 178.779 182.797  1.00  0.00     0.008 A 
ATOM      6  C   UNL     1     181.577 178.284 181.551  1.00  0.00     0.051 A 
ENDROOT
BRANCH   1   7
ATOM      7  O   UNL     1     182.176 176.371 180.126  1.00  0.00    -0.493 OA
ATOM      8  C   UNL     1     181.283 176.076 179.056  1.00  0.00     0.278 C 
ENDBRANCH   1   7
BRANCH   2   9
ATOM      9  O   UNL     1     181.805 174.653 182.225  1.00  0.00    -0.493 OA
ATOM     10  C   UNL     1     182.902 173.911 182.748  1.00  0.00     0.278 C 
ENDBRANCH   2   9
BRANCH   4  11
ATOM     11  C   UNL     1     180.561 178.437 185.217  1.00  0.00     0.062 C 
BRANCH  11  12
ATOM     12  C   UNL     1     179.709 179.663 185.048  1.00  0.00    -0.030 C 
ATOM     13  C   UNL     1     179.787 180.695 185.893  1.00  0.00     0.004 C 
ENDBRANCH  11  12
ENDBRANCH   4  11
TORSDOF 4
ENDMDL
MODEL 7
REMARK VINA RESULT:    -4.317      2.267      3.645
REMARK INTER + INTRA:          -5.579
REMARK INTER:                  -5.290
REMARK INTRA:                  -0.289
REMARK UNBOUND:                -0.252
REMARK SMILES C=CCc1ccc(OC)c(OC)c1
REMARK SMILES IDX 7 1 10 2 13 3 4 4 5 5 6 6 8 7 9 8 11 9 12 10 3 11 2 12 1 13
REMARK H PARENT
REMARK Flexibility Score: inf
ROOT
ATOM      1  C   UNL     1     179.917 182.922 181.997  1.00  0.00     0.160 A 
ATOM      2  C   UNL     1     179.557 182.968 183.353  1.00  0.00     0.160 A 
ATOM      3  C   UNL     1     179.422 181.768 184.078  1.00  0.00     0.054 A 
ATOM      4  C   UNL     1     179.639 180.529 183.456  1.00  0.00    -0.040 A 
ATOM      5  C   UNL     1     180.009 180.493 182.106  1.00  0.00     0.008 A 
ATOM      6  C   UNL     1     180.143 181.678 181.380  1.00  0.00     0.051 A 
ENDROOT
BRANCH   1   7
ATOM      7  O   UNL     1     180.041 184.134 181.298  1.00  0.00    -0.493 OA
ATOM      8  C   UNL     1     181.221 184.559 180.624  1.00  0.00     0.278 C 
ENDBRANCH   1   7
BRANCH   2   9
ATOM      9  O   UNL     1     179.341 184.224 183.943  1.00  0.00    -0.493 OA
ATOM     10  C   UNL     1     178.060 184.810 184.149  1.00  0.00     0.278 C 
ENDBRANCH   2   9
BRANCH   4  11
ATOM     11  C   UNL     1     179.523 179.254 184.249  1.00  0.00     0.062 C 
BRANCH  11  12
ATOM     12  C   UNL     1     180.834 178.521 184.276  1.00  0.00    -0.030 C 
ATOM     13  C   UNL     1     180.941 177.256 183.859  1.00  0.00     0.004 C 
ENDBRANCH  11  12
ENDBRANCH   4  11
TORSDOF 4
ENDMDL
MODEL 8
REMARK VINA RESULT:    -4.304      0.954      2.862
REMARK INTER + INTRA:          -5.563
REMARK INTER:                  -5.299
REMARK INTRA:                  -0.264
REMARK UNBOUND:                -0.252
REMARK SMILES C=CCc1ccc(OC)c(OC)c1
REMARK SMILES IDX 7 1 10 2 13 3 4 4 5 5 6 6 8 7 9 8 11 9 12 10 3 11 2 12 1 13
REMARK H PARENT
REMARK Flexibility Score: inf
ROOT
ATOM      1  C   UNL     1     181.235 180.579 186.472  1.00  0.00     0.160 A 
ATOM      2  C   UNL     1     180.216 180.863 185.548  1.00  0.00     0.160 A 
ATOM      3  C   UNL     1     180.098 180.082 184.381  1.00  0.00     0.054 A 
ATOM      4  C   UNL     1     180.992 179.030 184.132  1.00  0.00    -0.040 A 
ATOM      5  C   UNL     1     181.999 178.748 185.064  1.00  0.00     0.008 A 
ATOM      6  C   UNL     1     182.123 179.517 186.222  1.00  0.00     0.051 A 
ENDROOT
BRANCH   1   7
ATOM      7  O   UNL     1     181.330 181.375 187.625  1.00  0.00    -0.493 OA
ATOM      8  C   UNL     1     182.293 181.188 188.657  1.00  0.00     0.278 C 
ENDBRANCH   1   7
BRANCH   2   9
ATOM      9  O   UNL     1     179.342 181.926 185.825  1.00  0.00    -0.493 OA
ATOM     10  C   UNL     1     179.066 182.998 184.931  1.00  0.00     0.278 C 
ENDBRANCH   2   9
BRANCH   4  11
ATOM     11  C   UNL     1     180.838 178.183 182.896  1.00  0.00     0.062 C 
BRANCH  11  12
ATOM     12  C   UNL     1     181.864 177.085 182.870  1.00  0.00    -0.030 C 
ATOM     13  C   UNL     1     181.523 175.802 183.019  1.00  0.00     0.004 C 
ENDBRANCH  11  12
ENDBRANCH   4  11
TORSDOF 4
ENDMDL
