MODEL 1
REMARK VINA RESULT:    -6.152      0.000      0.000
REMARK INTER + INTRA:         -10.159
REMARK INTER:                  -8.669
REMARK INTRA:                  -1.489
REMARK UNBOUND:                -1.489
REMARK SMILES OC[C@H]1O[C@H](O[C@@H]2OC=C[C@H]3[C@H](O)[C@H]4O[C@@]4(CO)[C@@H]23)[C@H](O)[C@H](O)[C@H]1O
REMARK SMILES IDX 6 1 7 2 10 3 9 4 11 5 8 6 19 7 12 8 16 9 14 10 15 11 13 12
REMARK SMILES IDX 17 14 18 15 5 17 20 18 4 19 22 20 3 21 24 22 21 23 23 25
REMARK SMILES IDX 2 27 1 28 25 30
REMARK H PARENT 13 13 18 16 21 24 23 26 1 29 25 31
REMARK Flexibility Score: inf
ROOT
ATOM      1  O   UNL     1      33.153   4.354  10.326  1.00  0.00    -0.310 OA
ENDROOT
BRANCH   1   2
ATOM      2  C   UNL     1      33.666   3.806  11.527  1.00  0.00     0.315 C 
ATOM      3  C   UNL     1      33.491   2.598  14.101  1.00  0.00     0.018 C 
ATOM      4  C   UNL     1      33.202   1.893  13.006  1.00  0.00     0.186 C 
ATOM      5  C   UNL     1      33.602   4.104  14.071  1.00  0.00     0.059 C 
ATOM      6  O   UNL     1      33.092   2.521  11.764  1.00  0.00    -0.472 OA
ATOM      7  C   UNL     1      33.315   4.747  12.701  1.00  0.00     0.105 C 
ATOM      8  C   UNL     1      34.992   4.602  14.480  1.00  0.00     0.154 C 
ATOM      9  C   UNL     1      34.171   6.020  12.680  1.00  0.00     0.130 C 
ATOM     10  C   UNL     1      35.142   5.951  13.792  1.00  0.00     0.183 C 
ATOM     11  O   UNL     1      35.551   5.848  12.446  1.00  0.00    -0.360 OA
BRANCH   8  12
ATOM     12  O   UNL     1      35.076   4.769  15.870  1.00  0.00    -0.390 OA
ATOM     13  H   UNL     1      36.014   5.027  16.067  1.00  0.00     0.211 HD
ENDBRANCH   8  12
BRANCH   9  14
ATOM     14  C   UNL     1      33.604   7.409  12.378  1.00  0.00     0.195 C 
BRANCH  14  15
ATOM     15  O   UNL     1      32.492   7.302  11.533  1.00  0.00    -0.393 OA
ATOM     16  H   UNL     1      32.761   7.671  10.651  1.00  0.00     0.210 HD
ENDBRANCH  14  15
ENDBRANCH   9  14
ENDBRANCH   1   2
BRANCH   1  17
ATOM     17  C   UNL     1      33.788   3.787   9.185  1.00  0.00     0.286 C 
ATOM     18  C   UNL     1      34.854   4.751   8.617  1.00  0.00     0.202 C 
ATOM     19  O   UNL     1      32.844   3.442   8.178  1.00  0.00    -0.341 OA
ATOM     20  C   UNL     1      34.208   6.005   7.997  1.00  0.00     0.179 C 
ATOM     21  C   UNL     1      32.141   4.582   7.702  1.00  0.00     0.178 C 
ATOM     22  C   UNL     1      33.103   5.577   7.010  1.00  0.00     0.177 C 
BRANCH  18  23
ATOM     23  O   UNL     1      35.823   5.085   9.581  1.00  0.00    -0.385 OA
ATOM     24  H   UNL     1      36.536   4.397   9.552  1.00  0.00     0.211 HD
ENDBRANCH  18  23
BRANCH  20  25
ATOM     25  O   UNL     1      33.661   6.822   9.002  1.00  0.00    -0.387 OA
ATOM     26  H   UNL     1      34.299   6.810   9.761  1.00  0.00     0.211 HD
ENDBRANCH  20  25
BRANCH  21  27
ATOM     27  C   UNL     1      31.036   4.104   6.746  1.00  0.00     0.191 C 
BRANCH  27  28
ATOM     28  O   UNL     1      30.729   5.091   5.796  1.00  0.00    -0.394 OA
ATOM     29  H   UNL     1      31.595   5.430   5.447  1.00  0.00     0.210 HD
ENDBRANCH  27  28
ENDBRANCH  21  27
BRANCH  22  30
ATOM     30  O   UNL     1      33.680   4.974   5.879  1.00  0.00    -0.387 OA
ATOM     31  H   UNL     1      34.597   5.345   5.792  1.00  0.00     0.211 HD
ENDBRANCH  22  30
ENDBRANCH   1  17
TORSDOF 10
ENDMDL
MODEL 2
REMARK VINA RESULT:    -5.787      1.548      1.816
REMARK INTER + INTRA:          -9.645
REMARK INTER:                  -8.295
REMARK INTRA:                  -1.350
REMARK UNBOUND:                -1.489
REMARK SMILES OC[C@H]1O[C@H](O[C@@H]2OC=C[C@H]3[C@H](O)[C@H]4O[C@@]4(CO)[C@@H]23)[C@H](O)[C@H](O)[C@H]1O
REMARK SMILES IDX 6 1 7 2 10 3 9 4 11 5 8 6 19 7 12 8 16 9 14 10 15 11 13 12
REMARK SMILES IDX 17 14 18 15 5 17 20 18 4 19 22 20 3 21 24 22 21 23 23 25
REMARK SMILES IDX 2 27 1 28 25 30
REMARK H PARENT 13 13 18 16 21 24 23 26 1 29 25 31
REMARK Flexibility Score: inf
ROOT
ATOM      1  O   UNL     1      32.694   4.678   9.131  1.00  0.00    -0.310 OA
ENDROOT
BRANCH   1   2
ATOM      2  C   UNL     1      33.315   4.346  10.360  1.00  0.00     0.315 C 
ATOM      3  C   UNL     1      33.388   3.764  13.147  1.00  0.00     0.018 C 
ATOM      4  C   UNL     1      32.880   2.879  12.288  1.00  0.00     0.186 C 
ATOM      5  C   UNL     1      33.639   5.200  12.753  1.00  0.00     0.059 C 
ATOM      6  O   UNL     1      32.658   3.227  10.955  1.00  0.00    -0.472 OA
ATOM      7  C   UNL     1      33.225   5.558  11.313  1.00  0.00     0.105 C 
ATOM      8  C   UNL     1      35.114   5.596  12.873  1.00  0.00     0.154 C 
ATOM      9  C   UNL     1      34.189   6.677  10.898  1.00  0.00     0.130 C 
ATOM     10  C   UNL     1      35.296   6.731  11.875  1.00  0.00     0.183 C 
ATOM     11  O   UNL     1      35.499   6.284  10.553  1.00  0.00    -0.360 OA
BRANCH   8  12
ATOM     12  O   UNL     1      35.409   6.052  14.166  1.00  0.00    -0.390 OA
ATOM     13  H   UNL     1      36.359   6.336  14.155  1.00  0.00     0.211 HD
ENDBRANCH   8  12
BRANCH   9  14
ATOM     14  C   UNL     1      33.724   8.026  10.346  1.00  0.00     0.195 C 
BRANCH  14  15
ATOM     15  O   UNL     1      34.075   8.140   8.994  1.00  0.00    -0.393 OA
ATOM     16  H   UNL     1      33.685   7.355   8.526  1.00  0.00     0.210 HD
ENDBRANCH  14  15
ENDBRANCH   9  14
ENDBRANCH   1   2
BRANCH   1  17
ATOM     17  C   UNL     1      33.059   3.764   8.103  1.00  0.00     0.286 C 
ATOM     18  C   UNL     1      33.984   4.446   7.068  1.00  0.00     0.202 C 
ATOM     19  O   UNL     1      31.915   3.215   7.459  1.00  0.00    -0.341 OA
ATOM     20  C   UNL     1      33.228   5.514   6.253  1.00  0.00     0.179 C 
ATOM     21  C   UNL     1      31.135   4.219   6.825  1.00  0.00     0.178 C 
ATOM     22  C   UNL     1      31.931   4.903   5.687  1.00  0.00     0.177 C 
BRANCH  18  23
ATOM     23  O   UNL     1      35.142   4.970   7.669  1.00  0.00    -0.385 OA
ATOM     24  H   UNL     1      35.793   5.180   6.952  1.00  0.00     0.211 HD
ENDBRANCH  18  23
BRANCH  20  25
ATOM     25  O   UNL     1      32.922   6.622   7.063  1.00  0.00    -0.387 OA
ATOM     26  H   UNL     1      33.707   7.224   7.036  1.00  0.00     0.211 HD
ENDBRANCH  20  25
BRANCH  21  27
ATOM     27  C   UNL     1      29.844   3.570   6.301  1.00  0.00     0.191 C 
BRANCH  27  28
ATOM     28  O   UNL     1      29.440   4.153   5.090  1.00  0.00    -0.394 OA
ATOM     29  H   UNL     1      29.380   5.131   5.251  1.00  0.00     0.210 HD
ENDBRANCH  27  28
ENDBRANCH  21  27
BRANCH  22  30
ATOM     30  O   UNL     1      32.242   3.961   4.690  1.00  0.00    -0.387 OA
ATOM     31  H   UNL     1      31.379   3.653   4.307  1.00  0.00     0.211 HD
ENDBRANCH  22  30
ENDBRANCH   1  17
TORSDOF 10
ENDMDL
MODEL 3
REMARK VINA RESULT:    -5.160      2.018      5.537
REMARK INTER + INTRA:          -8.761
REMARK INTER:                  -7.887
REMARK INTRA:                  -0.874
REMARK UNBOUND:                -1.489
REMARK SMILES OC[C@H]1O[C@H](O[C@@H]2OC=C[C@H]3[C@H](O)[C@H]4O[C@@]4(CO)[C@@H]23)[C@H](O)[C@H](O)[C@H]1O
REMARK SMILES IDX 6 1 7 2 10 3 9 4 11 5 8 6 19 7 12 8 16 9 14 10 15 11 13 12
REMARK SMILES IDX 17 14 18 15 5 17 20 18 4 19 22 20 3 21 24 22 21 23 23 25
REMARK SMILES IDX 2 27 1 28 25 30
REMARK H PARENT 13 13 18 16 21 24 23 26 1 29 25 31
REMARK Flexibility Score: inf
ROOT
ATOM      1  O   UNL     1      34.914   5.465   9.970  1.00  0.00    -0.310 OA
ENDROOT
BRANCH   1   2
ATOM      2  C   UNL     1      34.257   4.811   8.900  1.00  0.00     0.315 C 
ATOM      3  C   UNL     1      32.343   4.562   6.804  1.00  0.00     0.018 C 
ATOM      4  C   UNL     1      33.385   5.384   6.669  1.00  0.00     0.186 C 
ATOM      5  C   UNL     1      31.950   3.991   8.145  1.00  0.00     0.059 C 
ATOM      6  O   UNL     1      34.217   5.664   7.755  1.00  0.00    -0.472 OA
ATOM      7  C   UNL     1      32.814   4.464   9.329  1.00  0.00     0.105 C 
ATOM      8  C   UNL     1      32.007   2.460   8.174  1.00  0.00     0.154 C 
ATOM      9  C   UNL     1      32.787   3.296  10.323  1.00  0.00     0.130 C 
ATOM     10  C   UNL     1      32.245   2.106   9.636  1.00  0.00     0.183 C 
ATOM     11  O   UNL     1      33.601   2.186  10.016  1.00  0.00    -0.360 OA
BRANCH   8  12
ATOM     12  O   UNL     1      30.794   1.904   7.745  1.00  0.00    -0.390 OA
ATOM     13  H   UNL     1      30.080   2.333   8.285  1.00  0.00     0.211 HD
ENDBRANCH   8  12
BRANCH   9  14
ATOM     14  C   UNL     1      32.389   3.452  11.793  1.00  0.00     0.195 C 
BRANCH  14  15
ATOM     15  O   UNL     1      33.471   3.943  12.535  1.00  0.00    -0.393 OA
ATOM     16  H   UNL     1      33.871   3.169  13.012  1.00  0.00     0.210 HD
ENDBRANCH  14  15
ENDBRANCH   9  14
ENDBRANCH   1   2
BRANCH   1  17
ATOM     17  C   UNL     1      34.777   6.878   9.876  1.00  0.00     0.286 C 
ATOM     18  C   UNL     1      35.853   7.591  10.727  1.00  0.00     0.202 C 
ATOM     19  O   UNL     1      33.476   7.305  10.263  1.00  0.00    -0.341 OA
ATOM     20  C   UNL     1      35.614   7.375  12.234  1.00  0.00     0.179 C 
ATOM     21  C   UNL     1      33.196   6.979  11.617  1.00  0.00     0.178 C 
ATOM     22  C   UNL     1      34.152   7.728  12.577  1.00  0.00     0.177 C 
BRANCH  18  23
ATOM     23  O   UNL     1      37.154   7.215  10.345  1.00  0.00    -0.385 OA
ATOM     24  H   UNL     1      37.081   6.577   9.590  1.00  0.00     0.211 HD
ENDBRANCH  18  23
BRANCH  20  25
ATOM     25  O   UNL     1      35.879   6.040  12.586  1.00  0.00    -0.387 OA
ATOM     26  H   UNL     1      36.566   5.707  11.954  1.00  0.00     0.211 HD
ENDBRANCH  20  25
BRANCH  21  27
ATOM     27  C   UNL     1      31.725   7.322  11.903  1.00  0.00     0.191 C 
BRANCH  27  28
ATOM     28  O   UNL     1      31.588   7.967  13.142  1.00  0.00    -0.394 OA
ATOM     29  H   UNL     1      31.239   8.878  12.952  1.00  0.00     0.210 HD
ENDBRANCH  27  28
ENDBRANCH  21  27
BRANCH  22  30
ATOM     30  O   UNL     1      33.956   9.115  12.459  1.00  0.00    -0.387 OA
ATOM     31  H   UNL     1      34.636   9.551  13.037  1.00  0.00     0.211 HD
ENDBRANCH  22  30
ENDBRANCH   1  17
TORSDOF 10
ENDMDL
MODEL 4
REMARK VINA RESULT:    -4.825      1.800      6.141
REMARK INTER + INTRA:          -8.289
REMARK INTER:                  -7.024
REMARK INTRA:                  -1.265
REMARK UNBOUND:                -1.489
REMARK SMILES OC[C@H]1O[C@H](O[C@@H]2OC=C[C@H]3[C@H](O)[C@H]4O[C@@]4(CO)[C@@H]23)[C@H](O)[C@H](O)[C@H]1O
REMARK SMILES IDX 6 1 7 2 10 3 9 4 11 5 8 6 19 7 12 8 16 9 14 10 15 11 13 12
REMARK SMILES IDX 17 14 18 15 5 17 20 18 4 19 22 20 3 21 24 22 21 23 23 25
REMARK SMILES IDX 2 27 1 28 25 30
REMARK H PARENT 13 13 18 16 21 24 23 26 1 29 25 31
REMARK Flexibility Score: inf
ROOT
ATOM      1  O   UNL     1      34.353   5.301   9.229  1.00  0.00    -0.310 OA
ENDROOT
BRANCH   1   2
ATOM      2  C   UNL     1      33.727   4.778   8.071  1.00  0.00     0.315 C 
ATOM      3  C   UNL     1      31.812   4.735   5.962  1.00  0.00     0.018 C 
ATOM      4  C   UNL     1      32.802   5.629   5.954  1.00  0.00     0.186 C 
ATOM      5  C   UNL     1      31.467   3.943   7.201  1.00  0.00     0.059 C 
ATOM      6  O   UNL     1      33.625   5.791   7.070  1.00  0.00    -0.472 OA
ATOM      7  C   UNL     1      32.312   4.283   8.443  1.00  0.00     0.105 C 
ATOM      8  C   UNL     1      31.616   2.432   6.996  1.00  0.00     0.154 C 
ATOM      9  C   UNL     1      32.363   2.978   9.248  1.00  0.00     0.130 C 
ATOM     10  C   UNL     1      31.888   1.875   8.387  1.00  0.00     0.183 C 
ATOM     11  O   UNL     1      33.240   1.980   8.775  1.00  0.00    -0.360 OA
BRANCH   8  12
ATOM     12  O   UNL     1      30.434   1.875   6.487  1.00  0.00    -0.390 OA
ATOM     13  H   UNL     1      29.935   1.513   7.265  1.00  0.00     0.211 HD
ENDBRANCH   8  12
BRANCH   9  14
ATOM     14  C   UNL     1      31.971   2.885  10.724  1.00  0.00     0.195 C 
BRANCH  14  15
ATOM     15  O   UNL     1      33.108   2.666  11.512  1.00  0.00    -0.393 OA
ATOM     16  H   UNL     1      32.923   3.059  12.405  1.00  0.00     0.210 HD
ENDBRANCH  14  15
ENDBRANCH   9  14
ENDBRANCH   1   2
BRANCH   1  17
ATOM     17  C   UNL     1      33.475   6.156   9.952  1.00  0.00     0.286 C 
ATOM     18  C   UNL     1      33.946   7.626   9.864  1.00  0.00     0.202 C 
ATOM     19  O   UNL     1      33.354   5.754  11.311  1.00  0.00    -0.341 OA
ATOM     20  C   UNL     1      35.262   7.843  10.635  1.00  0.00     0.179 C 
ATOM     21  C   UNL     1      34.600   5.816  11.992  1.00  0.00     0.178 C 
ATOM     22  C   UNL     1      35.122   7.272  12.061  1.00  0.00     0.177 C 
BRANCH  18  23
ATOM     23  O   UNL     1      34.042   8.064   8.531  1.00  0.00    -0.385 OA
ATOM     24  H   UNL     1      33.289   7.670   8.022  1.00  0.00     0.211 HD
ENDBRANCH  18  23
BRANCH  20  25
ATOM     25  O   UNL     1      36.329   7.213   9.970  1.00  0.00    -0.387 OA
ATOM     26  H   UNL     1      36.983   7.920   9.739  1.00  0.00     0.211 HD
ENDBRANCH  20  25
BRANCH  21  27
ATOM     27  C   UNL     1      34.417   5.214  13.393  1.00  0.00     0.191 C 
BRANCH  27  28
ATOM     28  O   UNL     1      35.367   5.726  14.291  1.00  0.00    -0.394 OA
ATOM     29  H   UNL     1      35.264   5.214  15.137  1.00  0.00     0.210 HD
ENDBRANCH  27  28
ENDBRANCH  21  27
BRANCH  22  30
ATOM     30  O   UNL     1      34.229   8.063  12.806  1.00  0.00    -0.387 OA
ATOM     31  H   UNL     1      33.532   7.453  13.161  1.00  0.00     0.211 HD
ENDBRANCH  22  30
ENDBRANCH   1  17
TORSDOF 10
ENDMDL
MODEL 5
REMARK VINA RESULT:    -4.700      2.707      4.579
REMARK INTER + INTRA:          -8.113
REMARK INTER:                  -7.231
REMARK INTRA:                  -0.882
REMARK UNBOUND:                -1.489
REMARK SMILES OC[C@H]1O[C@H](O[C@@H]2OC=C[C@H]3[C@H](O)[C@H]4O[C@@]4(CO)[C@@H]23)[C@H](O)[C@H](O)[C@H]1O
REMARK SMILES IDX 6 1 7 2 10 3 9 4 11 5 8 6 19 7 12 8 16 9 14 10 15 11 13 12
REMARK SMILES IDX 17 14 18 15 5 17 20 18 4 19 22 20 3 21 24 22 21 23 23 25
REMARK SMILES IDX 2 27 1 28 25 30
REMARK H PARENT 13 13 18 16 21 24 23 26 1 29 25 31
REMARK Flexibility Score: inf
ROOT
ATOM      1  O   UNL     1      31.680   3.842   7.084  1.00  0.00    -0.310 OA
ENDROOT
BRANCH   1   2
ATOM      2  C   UNL     1      32.574   3.484   8.122  1.00  0.00     0.315 C 
ATOM      3  C   UNL     1      33.385   3.136  10.831  1.00  0.00     0.018 C 
ATOM      4  C   UNL     1      32.480   2.319  10.290  1.00  0.00     0.186 C 
ATOM      5  C   UNL     1      33.771   4.440  10.175  1.00  0.00     0.059 C 
ATOM      6  O   UNL     1      31.931   2.595   9.037  1.00  0.00    -0.472 OA
ATOM      7  C   UNL     1      33.012   4.760   8.874  1.00  0.00     0.105 C 
ATOM      8  C   UNL     1      35.259   4.503   9.815  1.00  0.00     0.154 C 
ATOM      9  C   UNL     1      33.996   5.594   8.044  1.00  0.00     0.130 C 
ATOM     10  C   UNL     1      35.338   5.481   8.651  1.00  0.00     0.183 C 
ATOM     11  O   UNL     1      35.038   4.890   7.406  1.00  0.00    -0.360 OA
BRANCH   8  12
ATOM     12  O   UNL     1      36.016   4.988  10.892  1.00  0.00    -0.390 OA
ATOM     13  H   UNL     1      36.251   4.201  11.449  1.00  0.00     0.211 HD
ENDBRANCH   8  12
BRANCH   9  14
ATOM     14  C   UNL     1      33.648   6.963   7.453  1.00  0.00     0.195 C 
BRANCH  14  15
ATOM     15  O   UNL     1      32.899   6.804   6.280  1.00  0.00    -0.393 OA
ATOM     16  H   UNL     1      32.671   5.840   6.210  1.00  0.00     0.210 HD
ENDBRANCH  14  15
ENDBRANCH   9  14
ENDBRANCH   1   2
BRANCH   1  17
ATOM     17  C   UNL     1      30.810   2.765   6.755  1.00  0.00     0.286 C 
ATOM     18  C   UNL     1      31.061   2.281   5.308  1.00  0.00     0.202 C 
ATOM     19  O   UNL     1      29.444   3.124   6.927  1.00  0.00    -0.341 OA
ATOM     20  C   UNL     1      30.621   3.336   4.275  1.00  0.00     0.179 C 
ATOM     21  C   UNL     1      29.070   4.198   6.075  1.00  0.00     0.178 C 
ATOM     22  C   UNL     1      29.179   3.787   4.586  1.00  0.00     0.177 C 
BRANCH  18  23
ATOM     23  O   UNL     1      32.397   1.885   5.115  1.00  0.00    -0.385 OA
ATOM     24  H   UNL     1      32.823   1.792   6.005  1.00  0.00     0.211 HD
ENDBRANCH  18  23
BRANCH  20  25
ATOM     25  O   UNL     1      31.487   4.444   4.308  1.00  0.00    -0.387 OA
ATOM     26  H   UNL     1      32.401   4.099   4.147  1.00  0.00     0.211 HD
ENDBRANCH  20  25
BRANCH  21  27
ATOM     27  C   UNL     1      27.641   4.629   6.439  1.00  0.00     0.191 C 
BRANCH  27  28
ATOM     28  O   UNL     1      27.628   5.920   6.990  1.00  0.00    -0.394 OA
ATOM     29  H   UNL     1      28.238   5.901   7.775  1.00  0.00     0.210 HD
ENDBRANCH  27  28
ENDBRANCH  21  27
BRANCH  22  30
ATOM     30  O   UNL     1      28.282   2.740   4.313  1.00  0.00    -0.387 OA
ATOM     31  H   UNL     1      27.621   2.727   5.054  1.00  0.00     0.211 HD
ENDBRANCH  22  30
ENDBRANCH   1  17
TORSDOF 10
ENDMDL
MODEL 6
REMARK VINA RESULT:    -4.505      1.307      6.146
REMARK INTER + INTRA:          -7.838
REMARK INTER:                  -6.219
REMARK INTRA:                  -1.619
REMARK UNBOUND:                -1.489
REMARK SMILES OC[C@H]1O[C@H](O[C@@H]2OC=C[C@H]3[C@H](O)[C@H]4O[C@@]4(CO)[C@@H]23)[C@H](O)[C@H](O)[C@H]1O
REMARK SMILES IDX 6 1 7 2 10 3 9 4 11 5 8 6 19 7 12 8 16 9 14 10 15 11 13 12
REMARK SMILES IDX 17 14 18 15 5 17 20 18 4 19 22 20 3 21 24 22 21 23 23 25
REMARK SMILES IDX 2 27 1 28 25 30
REMARK H PARENT 13 13 18 16 21 24 23 26 1 29 25 31
REMARK Flexibility Score: inf
ROOT
ATOM      1  O   UNL     1      33.382   4.050  10.484  1.00  0.00    -0.310 OA
ENDROOT
BRANCH   1   2
ATOM      2  C   UNL     1      32.705   4.112   9.242  1.00  0.00     0.315 C 
ATOM      3  C   UNL     1      31.992   3.204   6.637  1.00  0.00     0.018 C 
ATOM      4  C   UNL     1      31.541   2.567   7.718  1.00  0.00     0.186 C 
ATOM      5  C   UNL     1      33.125   4.199   6.716  1.00  0.00     0.059 C 
ATOM      6  O   UNL     1      32.037   2.876   8.986  1.00  0.00    -0.472 OA
ATOM      7  C   UNL     1      33.733   4.378   8.120  1.00  0.00     0.105 C 
ATOM      8  C   UNL     1      32.712   5.602   6.260  1.00  0.00     0.154 C 
ATOM      9  C   UNL     1      34.234   5.828   8.146  1.00  0.00     0.130 C 
ATOM     10  C   UNL     1      33.660   6.545   6.988  1.00  0.00     0.183 C 
ATOM     11  O   UNL     1      33.256   6.830   8.309  1.00  0.00    -0.360 OA
BRANCH   8  12
ATOM     12  O   UNL     1      32.874   5.748   4.874  1.00  0.00    -0.390 OA
ATOM     13  H   UNL     1      32.101   5.292   4.450  1.00  0.00     0.211 HD
ENDBRANCH   8  12
BRANCH   9  14
ATOM     14  C   UNL     1      35.665   6.216   8.524  1.00  0.00     0.195 C 
BRANCH  14  15
ATOM     15  O   UNL     1      35.656   7.057   9.645  1.00  0.00    -0.393 OA
ATOM     16  H   UNL     1      36.555   7.475   9.701  1.00  0.00     0.210 HD
ENDBRANCH  14  15
ENDBRANCH   9  14
ENDBRANCH   1   2
BRANCH   1  17
ATOM     17  C   UNL     1      32.548   4.489  11.550  1.00  0.00     0.286 C 
ATOM     18  C   UNL     1      33.034   5.850  12.101  1.00  0.00     0.202 C 
ATOM     19  O   UNL     1      32.484   3.526  12.596  1.00  0.00    -0.341 OA
ATOM     20  C   UNL     1      34.386   5.714  12.827  1.00  0.00     0.179 C 
ATOM     21  C   UNL     1      33.760   3.291  13.175  1.00  0.00     0.178 C 
ATOM     22  C   UNL     1      34.303   4.570  13.857  1.00  0.00     0.177 C 
BRANCH  18  23
ATOM     23  O   UNL     1      33.075   6.834  11.097  1.00  0.00    -0.385 OA
ATOM     24  H   UNL     1      32.252   6.753  10.552  1.00  0.00     0.211 HD
ENDBRANCH  18  23
BRANCH  20  25
ATOM     25  O   UNL     1      35.413   5.452  11.903  1.00  0.00    -0.387 OA
ATOM     26  H   UNL     1      35.041   4.829  11.228  1.00  0.00     0.211 HD
ENDBRANCH  20  25
BRANCH  21  27
ATOM     27  C   UNL     1      33.632   2.128  14.172  1.00  0.00     0.191 C 
BRANCH  27  28
ATOM     28  O   UNL     1      34.492   2.305  15.268  1.00  0.00    -0.394 OA
ATOM     29  H   UNL     1      33.962   2.098  16.082  1.00  0.00     0.210 HD
ENDBRANCH  27  28
ENDBRANCH  21  27
BRANCH  22  30
ATOM     30  O   UNL     1      33.455   4.942  14.916  1.00  0.00    -0.387 OA
ATOM     31  H   UNL     1      32.935   4.134  15.165  1.00  0.00     0.211 HD
ENDBRANCH  22  30
ENDBRANCH   1  17
TORSDOF 10
ENDMDL
MODEL 7
REMARK VINA RESULT:    -4.321      1.936      3.670
REMARK INTER + INTRA:          -7.578
REMARK INTER:                  -6.456
REMARK INTRA:                  -1.122
REMARK UNBOUND:                -1.489
REMARK SMILES OC[C@H]1O[C@H](O[C@@H]2OC=C[C@H]3[C@H](O)[C@H]4O[C@@]4(CO)[C@@H]23)[C@H](O)[C@H](O)[C@H]1O
REMARK SMILES IDX 6 1 7 2 10 3 9 4 11 5 8 6 19 7 12 8 16 9 14 10 15 11 13 12
REMARK SMILES IDX 17 14 18 15 5 17 20 18 4 19 22 20 3 21 24 22 21 23 23 25
REMARK SMILES IDX 2 27 1 28 25 30
REMARK H PARENT 13 13 18 16 21 24 23 26 1 29 25 31
REMARK Flexibility Score: inf
ROOT
ATOM      1  O   UNL     1      33.261   4.020   7.769  1.00  0.00    -0.310 OA
ENDROOT
BRANCH   1   2
ATOM      2  C   UNL     1      33.720   4.139   9.103  1.00  0.00     0.315 C 
ATOM      3  C   UNL     1      33.430   4.349  11.929  1.00  0.00     0.018 C 
ATOM      4  C   UNL     1      33.177   3.195  11.312  1.00  0.00     0.186 C 
ATOM      5  C   UNL     1      33.558   5.647  11.168  1.00  0.00     0.059 C 
ATOM      6  O   UNL     1      33.123   3.130   9.918  1.00  0.00    -0.472 OA
ATOM      7  C   UNL     1      33.332   5.531   9.649  1.00  0.00     0.105 C 
ATOM      8  C   UNL     1      34.936   6.296  11.335  1.00  0.00     0.154 C 
ATOM      9  C   UNL     1      34.202   6.639   9.040  1.00  0.00     0.130 C 
ATOM     10  C   UNL     1      35.128   7.135  10.079  1.00  0.00     0.183 C 
ATOM     11  O   UNL     1      35.589   6.388   8.975  1.00  0.00    -0.360 OA
BRANCH   8  12
ATOM     12  O   UNL     1      34.967   7.126  12.466  1.00  0.00    -0.390 OA
ATOM     13  H   UNL     1      35.642   7.829  12.282  1.00  0.00     0.211 HD
ENDBRANCH   8  12
BRANCH   9  14
ATOM     14  C   UNL     1      33.663   7.694   8.071  1.00  0.00     0.195 C 
BRANCH  14  15
ATOM     15  O   UNL     1      33.528   7.146   6.790  1.00  0.00    -0.393 OA
ATOM     16  H   UNL     1      34.180   6.400   6.723  1.00  0.00     0.210 HD
ENDBRANCH  14  15
ENDBRANCH   9  14
ENDBRANCH   1   2
BRANCH   1  17
ATOM     17  C   UNL     1      31.849   4.173   7.692  1.00  0.00     0.286 C 
ATOM     18  C   UNL     1      31.163   2.809   7.446  1.00  0.00     0.202 C 
ATOM     19  O   UNL     1      31.476   5.104   6.682  1.00  0.00    -0.341 OA
ATOM     20  C   UNL     1      31.475   2.268   6.036  1.00  0.00     0.179 C 
ATOM     21  C   UNL     1      31.890   4.676   5.392  1.00  0.00     0.178 C 
ATOM     22  C   UNL     1      31.178   3.361   4.990  1.00  0.00     0.177 C 
BRANCH  18  23
ATOM     23  O   UNL     1      31.484   1.875   8.447  1.00  0.00    -0.385 OA
ATOM     24  H   UNL     1      31.399   0.967   8.060  1.00  0.00     0.211 HD
ENDBRANCH  18  23
BRANCH  20  25
ATOM     25  O   UNL     1      32.822   1.875   5.950  1.00  0.00    -0.387 OA
ATOM     26  H   UNL     1      32.893   0.992   6.393  1.00  0.00     0.211 HD
ENDBRANCH  20  25
BRANCH  21  27
ATOM     27  C   UNL     1      31.600   5.805   4.391  1.00  0.00     0.191 C 
BRANCH  27  28
ATOM     28  O   UNL     1      31.142   5.291   3.168  1.00  0.00    -0.394 OA
ATOM     29  H   UNL     1      31.944   4.973   2.674  1.00  0.00     0.210 HD
ENDBRANCH  27  28
ENDBRANCH  21  27
BRANCH  22  30
ATOM     30  O   UNL     1      29.791   3.577   4.905  1.00  0.00    -0.387 OA
ATOM     31  H   UNL     1      29.583   3.730   3.946  1.00  0.00     0.211 HD
ENDBRANCH  22  30
ENDBRANCH   1  17
TORSDOF 10
ENDMDL
MODEL 8
REMARK VINA RESULT:    -4.316      2.734      6.854
REMARK INTER + INTRA:          -7.571
REMARK INTER:                  -6.630
REMARK INTRA:                  -0.941
REMARK UNBOUND:                -1.489
REMARK SMILES OC[C@H]1O[C@H](O[C@@H]2OC=C[C@H]3[C@H](O)[C@H]4O[C@@]4(CO)[C@@H]23)[C@H](O)[C@H](O)[C@H]1O
REMARK SMILES IDX 6 1 7 2 10 3 9 4 11 5 8 6 19 7 12 8 16 9 14 10 15 11 13 12
REMARK SMILES IDX 17 14 18 15 5 17 20 18 4 19 22 20 3 21 24 22 21 23 23 25
REMARK SMILES IDX 2 27 1 28 25 30
REMARK H PARENT 13 13 18 16 21 24 23 26 1 29 25 31
REMARK Flexibility Score: inf
ROOT
ATOM      1  O   UNL     1      33.119   5.206   7.981  1.00  0.00    -0.310 OA
ENDROOT
BRANCH   1   2
ATOM      2  C   UNL     1      32.662   4.943   6.666  1.00  0.00     0.315 C 
ATOM      3  C   UNL     1      30.941   5.250   4.417  1.00  0.00     0.018 C 
ATOM      4  C   UNL     1      31.797   6.219   4.746  1.00  0.00     0.186 C 
ATOM      5  C   UNL     1      30.611   4.124   5.367  1.00  0.00     0.059 C 
ATOM      6  O   UNL     1      32.501   6.168   5.950  1.00  0.00    -0.472 OA
ATOM      7  C   UNL     1      31.303   4.213   6.741  1.00  0.00     0.105 C 
ATOM      8  C   UNL     1      30.981   2.748   4.804  1.00  0.00     0.154 C 
ATOM      9  C   UNL     1      31.469   2.755   7.189  1.00  0.00     0.130 C 
ATOM     10  C   UNL     1      31.217   1.875   6.029  1.00  0.00     0.183 C 
ATOM     11  O   UNL     1      32.508   2.022   6.578  1.00  0.00    -0.360 OA
BRANCH   8  12
ATOM     12  O   UNL     1      29.929   2.219   4.042  1.00  0.00    -0.390 OA
ATOM     13  H   UNL     1      30.205   2.290   3.092  1.00  0.00     0.211 HD
ENDBRANCH   8  12
BRANCH   9  14
ATOM     14  C   UNL     1      30.979   2.230   8.540  1.00  0.00     0.195 C 
BRANCH  14  15
ATOM     15  O   UNL     1      32.024   2.252   9.473  1.00  0.00    -0.393 OA
ATOM     16  H   UNL     1      32.568   3.061   9.279  1.00  0.00     0.210 HD
ENDBRANCH  14  15
ENDBRANCH   9  14
ENDBRANCH   1   2
BRANCH   1  17
ATOM     17  C   UNL     1      34.024   6.303   8.005  1.00  0.00     0.286 C 
ATOM     18  C   UNL     1      35.464   5.819   8.291  1.00  0.00     0.202 C 
ATOM     19  O   UNL     1      33.633   7.285   8.958  1.00  0.00    -0.341 OA
ATOM     20  C   UNL     1      35.606   5.293   9.733  1.00  0.00     0.179 C 
ATOM     21  C   UNL     1      33.624   6.762  10.280  1.00  0.00     0.178 C 
ATOM     22  C   UNL     1      35.047   6.340  10.718  1.00  0.00     0.177 C 
BRANCH  18  23
ATOM     23  O   UNL     1      35.894   4.872   7.345  1.00  0.00    -0.385 OA
ATOM     24  H   UNL     1      35.490   5.104   6.470  1.00  0.00     0.211 HD
ENDBRANCH  18  23
BRANCH  20  25
ATOM     25  O   UNL     1      34.914   4.078   9.882  1.00  0.00    -0.387 OA
ATOM     26  H   UNL     1      34.218   4.226  10.572  1.00  0.00     0.211 HD
ENDBRANCH  20  25
BRANCH  21  27
ATOM     27  C   UNL     1      33.035   7.828  11.217  1.00  0.00     0.191 C 
BRANCH  27  28
ATOM     28  O   UNL     1      33.746   7.884  12.427  1.00  0.00    -0.394 OA
ATOM     29  H   UNL     1      33.902   6.944  12.709  1.00  0.00     0.210 HD
ENDBRANCH  27  28
ENDBRANCH  21  27
BRANCH  22  30
ATOM     30  O   UNL     1      35.890   7.465  10.748  1.00  0.00    -0.387 OA
ATOM     31  H   UNL     1      35.685   7.999   9.937  1.00  0.00     0.211 HD
ENDBRANCH  22  30
ENDBRANCH   1  17
TORSDOF 10
ENDMDL
MODEL 9
REMARK VINA RESULT:    -3.668      2.107      5.551
REMARK INTER + INTRA:          -6.658
REMARK INTER:                  -5.851
REMARK INTRA:                  -0.806
REMARK UNBOUND:                -1.489
REMARK SMILES OC[C@H]1O[C@H](O[C@@H]2OC=C[C@H]3[C@H](O)[C@H]4O[C@@]4(CO)[C@@H]23)[C@H](O)[C@H](O)[C@H]1O
REMARK SMILES IDX 6 1 7 2 10 3 9 4 11 5 8 6 19 7 12 8 16 9 14 10 15 11 13 12
REMARK SMILES IDX 17 14 18 15 5 17 20 18 4 19 22 20 3 21 24 22 21 23 23 25
REMARK SMILES IDX 2 27 1 28 25 30
REMARK H PARENT 13 13 18 16 21 24 23 26 1 29 25 31
REMARK Flexibility Score: inf
ROOT
ATOM      1  O   UNL     1      34.470   5.216  10.468  1.00  0.00    -0.310 OA
ENDROOT
BRANCH   1   2
ATOM      2  C   UNL     1      33.384   4.373  10.129  1.00  0.00     0.315 C 
ATOM      3  C   UNL     1      32.098   1.875   9.657  1.00  0.00     0.018 C 
ATOM      4  C   UNL     1      32.416   2.244  10.899  1.00  0.00     0.186 C 
ATOM      5  C   UNL     1      32.672   2.575   8.449  1.00  0.00     0.059 C 
ATOM      6  O   UNL     1      33.217   3.364  11.126  1.00  0.00    -0.472 OA
ATOM      7  C   UNL     1      33.672   3.702   8.768  1.00  0.00     0.105 C 
ATOM      8  C   UNL     1      31.593   3.213   7.568  1.00  0.00     0.154 C 
ATOM      9  C   UNL     1      33.524   4.694   7.607  1.00  0.00     0.130 C 
ATOM     10  C   UNL     1      32.298   4.357   6.853  1.00  0.00     0.183 C 
ATOM     11  O   UNL     1      32.388   5.530   7.632  1.00  0.00    -0.360 OA
BRANCH   8  12
ATOM     12  O   UNL     1      31.107   2.295   6.624  1.00  0.00    -0.390 OA
ATOM     13  H   UNL     1      30.645   2.827   5.925  1.00  0.00     0.211 HD
ENDBRANCH   8  12
BRANCH   9  14
ATOM     14  C   UNL     1      34.704   5.189   6.768  1.00  0.00     0.195 C 
BRANCH  14  15
ATOM     15  O   UNL     1      35.859   5.261   7.558  1.00  0.00    -0.393 OA
ATOM     16  H   UNL     1      35.868   4.452   8.134  1.00  0.00     0.210 HD
ENDBRANCH  14  15
ENDBRANCH   9  14
ENDBRANCH   1   2
BRANCH   1  17
ATOM     17  C   UNL     1      34.208   6.568  10.110  1.00  0.00     0.286 C 
ATOM     18  C   UNL     1      35.393   7.478  10.505  1.00  0.00     0.202 C 
ATOM     19  O   UNL     1      33.002   7.041  10.698  1.00  0.00    -0.341 OA
ATOM     20  C   UNL     1      35.523   7.603  12.035  1.00  0.00     0.179 C 
ATOM     21  C   UNL     1      33.065   7.023  12.118  1.00  0.00     0.178 C 
ATOM     22  C   UNL     1      34.156   7.991  12.636  1.00  0.00     0.177 C 
BRANCH  18  23
ATOM     23  O   UNL     1      36.596   7.056   9.911  1.00  0.00    -0.385 OA
ATOM     24  H   UNL     1      36.997   6.358  10.489  1.00  0.00     0.211 HD
ENDBRANCH  18  23
BRANCH  20  25
ATOM     25  O   UNL     1      35.963   6.388  12.590  1.00  0.00    -0.387 OA
ATOM     26  H   UNL     1      36.138   6.558  13.550  1.00  0.00     0.211 HD
ENDBRANCH  20  25
BRANCH  21  27
ATOM     27  C   UNL     1      31.677   7.388  12.668  1.00  0.00     0.191 C 
BRANCH  27  28
ATOM     28  O   UNL     1      31.778   8.315  13.717  1.00  0.00    -0.394 OA
ATOM     29  H   UNL     1      30.882   8.732  13.816  1.00  0.00     0.210 HD
ENDBRANCH  27  28
ENDBRANCH  21  27
BRANCH  22  30
ATOM     30  O   UNL     1      33.833   9.311  12.276  1.00  0.00    -0.387 OA
ATOM     31  H   UNL     1      33.256   9.256  11.470  1.00  0.00     0.211 HD
ENDBRANCH  22  30
ENDBRANCH   1  17
TORSDOF 10
ENDMDL
