MODEL 1
REMARK VINA RESULT:    -6.305      0.000      0.000
REMARK INTER + INTRA:          -6.858
REMARK INTER:                  -6.858
REMARK INTRA:                   0.000
REMARK UNBOUND:                 0.000
REMARK SMILES Cc1cc(O)c2c(c1)C(=O)c1cc(O)cc(O)c1C2=O
REMARK SMILES IDX 1 1 2 2 8 3 7 4 6 5 4 6 3 7 19 8 20 9 18 10 11 11 9 12 10 13
REMARK SMILES IDX 12 14 13 15 15 16 16 17 5 18 17 20 14 22
REMARK H PARENT 5 19 17 21 14 23
REMARK Flexibility Score: inf
ROOT
ATOM      1  C   UNL     1       8.126  21.125  21.506  1.00  0.00     0.044 C 
ATOM      2  C   UNL     1       8.074  20.033  20.478  1.00  0.00    -0.047 A 
ATOM      3  C   UNL     1       7.555  18.778  20.812  1.00  0.00     0.016 A 
ATOM      4  C   UNL     1       7.476  17.757  19.849  1.00  0.00     0.038 A 
ATOM      5  C   UNL     1       7.924  17.997  18.531  1.00  0.00     0.076 A 
ATOM      6  C   UNL     1       8.371  19.298  18.178  1.00  0.00     0.127 A 
ATOM      7  C   UNL     1       8.460  20.290  19.159  1.00  0.00     0.050 A 
ATOM      8  C   UNL     1       7.963  16.854  17.582  1.00  0.00     0.201 C 
ATOM      9  O   UNL     1       8.825  16.832  16.664  1.00  0.00    -0.288 OA
ATOM     10  C   UNL     1       7.116  15.659  17.833  1.00  0.00     0.076 A 
ATOM     11  C   UNL     1       6.667  15.423  19.151  1.00  0.00     0.041 A 
ATOM     12  C   UNL     1       6.916  16.432  20.208  1.00  0.00     0.194 C 
ATOM     13  O   UNL     1       6.631  16.172  21.409  1.00  0.00    -0.289 OA
ATOM     14  C   UNL     1       5.981  14.235  19.454  1.00  0.00     0.059 A 
ATOM     15  C   UNL     1       5.726  13.291  18.460  1.00  0.00     0.120 A 
ATOM     16  C   UNL     1       6.132  13.537  17.147  1.00  0.00     0.093 A 
ATOM     17  C   UNL     1       6.799  14.721  16.815  1.00  0.00     0.131 A 
ENDROOT
BRANCH   6  18
ATOM     18  O   UNL     1       8.699  19.653  16.868  1.00  0.00    -0.507 OA
ATOM     19  H   UNL     1       8.151  19.386  16.063  1.00  0.00     0.293 HD
ENDBRANCH   6  18
BRANCH  17  20
ATOM     20  O   UNL     1       7.093  14.940  15.467  1.00  0.00    -0.507 OA
ATOM     21  H   UNL     1       7.593  14.279  14.889  1.00  0.00     0.293 HD
ENDBRANCH  17  20
BRANCH  15  22
ATOM     22  O   UNL     1       5.055  12.114  18.787  1.00  0.00    -0.508 OA
ATOM     23  H   UNL     1       4.597  11.552  18.079  1.00  0.00     0.293 HD
ENDBRANCH  15  22
TORSDOF 3
ENDMDL
MODEL 2
REMARK VINA RESULT:    -5.958     13.076     15.575
REMARK INTER + INTRA:          -6.480
REMARK INTER:                  -6.480
REMARK INTRA:                   0.000
REMARK UNBOUND:                 0.000
REMARK SMILES Cc1cc(O)c2c(c1)C(=O)c1cc(O)cc(O)c1C2=O
REMARK SMILES IDX 1 1 2 2 8 3 7 4 6 5 4 6 3 7 19 8 20 9 18 10 11 11 9 12 10 13
REMARK SMILES IDX 12 14 13 15 15 16 16 17 5 18 17 20 14 22
REMARK H PARENT 5 19 17 21 14 23
REMARK Flexibility Score: inf
ROOT
ATOM      1  C   UNL     1      -3.124  13.636  12.932  1.00  0.00     0.044 C 
ATOM      2  C   UNL     1      -2.965  12.445  12.034  1.00  0.00    -0.047 A 
ATOM      3  C   UNL     1      -2.782  12.621  10.658  1.00  0.00     0.016 A 
ATOM      4  C   UNL     1      -2.604  11.512   9.812  1.00  0.00     0.038 A 
ATOM      5  C   UNL     1      -2.611  10.207  10.352  1.00  0.00     0.076 A 
ATOM      6  C   UNL     1      -2.713  10.040  11.758  1.00  0.00     0.127 A 
ATOM      7  C   UNL     1      -2.909  11.156  12.576  1.00  0.00     0.050 A 
ATOM      8  C   UNL     1      -2.569   9.057   9.412  1.00  0.00     0.201 C 
ATOM      9  O   UNL     1      -3.124   7.971   9.727  1.00  0.00    -0.288 OA
ATOM     10  C   UNL     1      -2.042   9.249   8.036  1.00  0.00     0.076 A 
ATOM     11  C   UNL     1      -2.035  10.556   7.499  1.00  0.00     0.041 A 
ATOM     12  C   UNL     1      -2.402  11.708   8.356  1.00  0.00     0.194 C 
ATOM     13  O   UNL     1      -2.519  12.859   7.852  1.00  0.00    -0.289 OA
ATOM     14  C   UNL     1      -1.674  10.759   6.157  1.00  0.00     0.059 A 
ATOM     15  C   UNL     1      -1.308   9.681   5.350  1.00  0.00     0.120 A 
ATOM     16  C   UNL     1      -1.276   8.392   5.887  1.00  0.00     0.093 A 
ATOM     17  C   UNL     1      -1.610   8.166   7.225  1.00  0.00     0.131 A 
ENDROOT
BRANCH   6  18
ATOM     18  O   UNL     1      -2.589   8.797  12.381  1.00  0.00    -0.507 OA
ATOM     19  H   UNL     1      -2.559   7.921  11.879  1.00  0.00     0.293 HD
ENDBRANCH   6  18
BRANCH  17  20
ATOM     20  O   UNL     1      -1.467   6.866   7.716  1.00  0.00    -0.507 OA
ATOM     21  H   UNL     1      -0.584   6.376   7.750  1.00  0.00     0.293 HD
ENDBRANCH  17  20
BRANCH  15  22
ATOM     22  O   UNL     1      -0.967   9.905   4.018  1.00  0.00    -0.508 OA
ATOM     23  H   UNL     1      -0.438   9.225   3.485  1.00  0.00     0.293 HD
ENDBRANCH  15  22
TORSDOF 3
ENDMDL
MODEL 3
REMARK VINA RESULT:    -5.636     14.758     16.550
REMARK INTER + INTRA:          -6.130
REMARK INTER:                  -6.130
REMARK INTRA:                   0.000
REMARK UNBOUND:                 0.000
REMARK SMILES Cc1cc(O)c2c(c1)C(=O)c1cc(O)cc(O)c1C2=O
REMARK SMILES IDX 1 1 2 2 8 3 7 4 6 5 4 6 3 7 19 8 20 9 18 10 11 11 9 12 10 13
REMARK SMILES IDX 12 14 13 15 15 16 16 17 5 18 17 20 14 22
REMARK H PARENT 5 19 17 21 14 23
REMARK Flexibility Score: inf
ROOT
ATOM      1  C   UNL     1       0.846  11.116   1.934  1.00  0.00     0.044 C 
ATOM      2  C   UNL     1       0.195  11.369   3.262  1.00  0.00    -0.047 A 
ATOM      3  C   UNL     1      -0.350  10.307   3.992  1.00  0.00     0.016 A 
ATOM      4  C   UNL     1      -0.937  10.530   5.250  1.00  0.00     0.038 A 
ATOM      5  C   UNL     1      -0.979  11.836   5.785  1.00  0.00     0.076 A 
ATOM      6  C   UNL     1      -0.349  12.894   5.078  1.00  0.00     0.127 A 
ATOM      7  C   UNL     1       0.210  12.652   3.820  1.00  0.00     0.050 A 
ATOM      8  C   UNL     1      -1.736  12.056   7.044  1.00  0.00     0.201 C 
ATOM      9  O   UNL     1      -2.286  13.170   7.258  1.00  0.00    -0.288 OA
ATOM     10  C   UNL     1      -2.001  10.912   7.954  1.00  0.00     0.076 A 
ATOM     11  C   UNL     1      -1.956   9.607   7.417  1.00  0.00     0.041 A 
ATOM     12  C   UNL     1      -1.505   9.398   6.020  1.00  0.00     0.194 C 
ATOM     13  O   UNL     1      -1.583   8.253   5.496  1.00  0.00    -0.289 OA
ATOM     14  C   UNL     1      -2.334   8.510   8.210  1.00  0.00     0.059 A 
ATOM     15  C   UNL     1      -2.740   8.698   9.531  1.00  0.00     0.120 A 
ATOM     16  C   UNL     1      -2.748   9.982  10.079  1.00  0.00     0.093 A 
ATOM     17  C   UNL     1      -2.357  11.087   9.317  1.00  0.00     0.131 A 
ENDROOT
BRANCH   6  18
ATOM     18  O   UNL     1      -0.225  14.183   5.602  1.00  0.00    -0.507 OA
ATOM     19  H   UNL     1      -0.997  14.829   5.685  1.00  0.00     0.293 HD
ENDBRANCH   6  18
BRANCH  17  20
ATOM     20  O   UNL     1      -2.303  12.327   9.960  1.00  0.00    -0.507 OA
ATOM     21  H   UNL     1      -3.042  13.014   9.912  1.00  0.00     0.293 HD
ENDBRANCH  17  20
BRANCH  15  22
ATOM     22  O   UNL     1      -3.123   7.596  10.294  1.00  0.00    -0.508 OA
ATOM     23  H   UNL     1      -2.485   6.830  10.474  1.00  0.00     0.293 HD
ENDBRANCH  15  22
TORSDOF 3
ENDMDL
MODEL 4
REMARK VINA RESULT:    -5.612      1.640      2.375
REMARK INTER + INTRA:          -6.104
REMARK INTER:                  -6.104
REMARK INTRA:                   0.000
REMARK UNBOUND:                 0.000
REMARK SMILES Cc1cc(O)c2c(c1)C(=O)c1cc(O)cc(O)c1C2=O
REMARK SMILES IDX 1 1 2 2 8 3 7 4 6 5 4 6 3 7 19 8 20 9 18 10 11 11 9 12 10 13
REMARK SMILES IDX 12 14 13 15 15 16 16 17 5 18 17 20 14 22
REMARK H PARENT 5 19 17 21 14 23
REMARK Flexibility Score: inf
ROOT
ATOM      1  C   UNL     1       7.830  18.135  22.125  1.00  0.00     0.044 C 
ATOM      2  C   UNL     1       7.529  17.414  20.844  1.00  0.00    -0.047 A 
ATOM      3  C   UNL     1       7.026  16.109  20.873  1.00  0.00     0.016 A 
ATOM      4  C   UNL     1       6.715  15.435  19.679  1.00  0.00     0.038 A 
ATOM      5  C   UNL     1       6.910  16.078  18.438  1.00  0.00     0.076 A 
ATOM      6  C   UNL     1       7.339  17.431  18.418  1.00  0.00     0.127 A 
ATOM      7  C   UNL     1       7.662  18.073  19.617  1.00  0.00     0.050 A 
ATOM      8  C   UNL     1       6.711  15.286  17.196  1.00  0.00     0.201 C 
ATOM      9  O   UNL     1       7.376  15.563  16.163  1.00  0.00    -0.288 OA
ATOM     10  C   UNL     1       5.874  14.058  17.232  1.00  0.00     0.076 A 
ATOM     11  C   UNL     1       5.679  13.418  18.476  1.00  0.00     0.041 A 
ATOM     12  C   UNL     1       6.175  14.055  19.720  1.00  0.00     0.194 C 
ATOM     13  O   UNL     1       6.116  13.432  20.815  1.00  0.00    -0.289 OA
ATOM     14  C   UNL     1       5.011  12.184  18.531  1.00  0.00     0.059 A 
ATOM     15  C   UNL     1       4.524  11.589  17.367  1.00  0.00     0.120 A 
ATOM     16  C   UNL     1       4.679  12.237  16.139  1.00  0.00     0.093 A 
ATOM     17  C   UNL     1       5.322  13.476  16.060  1.00  0.00     0.131 A 
ENDROOT
BRANCH   6  18
ATOM     18  O   UNL     1       7.423  18.180  17.242  1.00  0.00    -0.507 OA
ATOM     19  H   UNL     1       8.037  17.948  16.475  1.00  0.00     0.293 HD
ENDBRANCH   6  18
BRANCH  17  20
ATOM     20  O   UNL     1       5.359  14.106  14.814  1.00  0.00    -0.507 OA
ATOM     21  H   UNL     1       5.259  15.104  14.688  1.00  0.00     0.293 HD
ENDBRANCH  17  20
BRANCH  15  22
ATOM     22  O   UNL     1       3.876  10.358  17.444  1.00  0.00    -0.508 OA
ATOM     23  H   UNL     1       3.832   9.732  16.648  1.00  0.00     0.293 HD
ENDBRANCH  15  22
TORSDOF 3
ENDMDL
MODEL 5
REMARK VINA RESULT:    -5.598     13.889     16.448
REMARK INTER + INTRA:          -6.089
REMARK INTER:                  -6.089
REMARK INTRA:                   0.000
REMARK UNBOUND:                 0.000
REMARK SMILES Cc1cc(O)c2c(c1)C(=O)c1cc(O)cc(O)c1C2=O
REMARK SMILES IDX 1 1 2 2 8 3 7 4 6 5 4 6 3 7 19 8 20 9 18 10 11 11 9 12 10 13
REMARK SMILES IDX 12 14 13 15 15 16 16 17 5 18 17 20 14 22
REMARK H PARENT 5 19 17 21 14 23
REMARK Flexibility Score: inf
ROOT
ATOM      1  C   UNL     1      -2.886  11.680  12.083  1.00  0.00     0.044 C 
ATOM      2  C   UNL     1      -2.626  11.031  10.756  1.00  0.00    -0.047 A 
ATOM      3  C   UNL     1      -2.256  11.808   9.653  1.00  0.00     0.016 A 
ATOM      4  C   UNL     1      -1.983  11.206   8.412  1.00  0.00     0.038 A 
ATOM      5  C   UNL     1      -2.082   9.804   8.274  1.00  0.00     0.076 A 
ATOM      6  C   UNL     1      -2.375   9.015   9.417  1.00  0.00     0.127 A 
ATOM      7  C   UNL     1      -2.663   9.637  10.635  1.00  0.00     0.050 A 
ATOM      8  C   UNL     1      -1.931   9.220   6.917  1.00  0.00     0.201 C 
ATOM      9  O   UNL     1      -2.540   8.156   6.622  1.00  0.00    -0.288 OA
ATOM     10  C   UNL     1      -1.222   9.985   5.859  1.00  0.00     0.076 A 
ATOM     11  C   UNL     1      -1.122  11.386   6.001  1.00  0.00     0.041 A 
ATOM     12  C   UNL     1      -1.584  12.037   7.251  1.00  0.00     0.194 C 
ATOM     13  O   UNL     1      -1.614  13.295   7.335  1.00  0.00    -0.289 OA
ATOM     14  C   UNL     1      -0.581  12.159   4.960  1.00  0.00     0.059 A 
ATOM     15  C   UNL     1      -0.126  11.551   3.790  1.00  0.00     0.120 A 
ATOM     16  C   UNL     1      -0.186  10.163   3.660  1.00  0.00     0.093 A 
ATOM     17  C   UNL     1      -0.701   9.369   4.690  1.00  0.00     0.131 A 
ENDROOT
BRANCH   6  18
ATOM     18  O   UNL     1      -2.355   7.618   9.395  1.00  0.00    -0.507 OA
ATOM     19  H   UNL     1      -2.516   7.070   8.562  1.00  0.00     0.293 HD
ENDBRANCH   6  18
BRANCH  17  20
ATOM     20  O   UNL     1      -0.644   7.983   4.527  1.00  0.00    -0.507 OA
ATOM     21  H   UNL     1      -0.693   7.523   3.629  1.00  0.00     0.293 HD
ENDBRANCH  17  20
BRANCH  15  22
ATOM     22  O   UNL     1       0.395  12.339   2.765  1.00  0.00    -0.508 OA
ATOM     23  H   UNL     1       0.784  11.926   1.926  1.00  0.00     0.293 HD
ENDBRANCH  15  22
TORSDOF 3
ENDMDL
MODEL 6
REMARK VINA RESULT:    -5.597      1.680      6.413
REMARK INTER + INTRA:          -6.087
REMARK INTER:                  -6.087
REMARK INTRA:                   0.000
REMARK UNBOUND:                 0.000
REMARK SMILES Cc1cc(O)c2c(c1)C(=O)c1cc(O)cc(O)c1C2=O
REMARK SMILES IDX 1 1 2 2 8 3 7 4 6 5 4 6 3 7 19 8 20 9 18 10 11 11 9 12 10 13
REMARK SMILES IDX 12 14 13 15 15 16 16 17 5 18 17 20 14 22
REMARK H PARENT 5 19 17 21 14 23
REMARK Flexibility Score: inf
ROOT
ATOM      1  C   UNL     1       4.566  12.875  13.994  1.00  0.00     0.044 C 
ATOM      2  C   UNL     1       5.033  13.193  15.383  1.00  0.00    -0.047 A 
ATOM      3  C   UNL     1       5.674  14.407  15.649  1.00  0.00     0.016 A 
ATOM      4  C   UNL     1       6.091  14.727  16.953  1.00  0.00     0.038 A 
ATOM      5  C   UNL     1       5.862  13.815  18.007  1.00  0.00     0.076 A 
ATOM      6  C   UNL     1       5.137  12.623  17.746  1.00  0.00     0.127 A 
ATOM      7  C   UNL     1       4.751  12.318  16.438  1.00  0.00     0.050 A 
ATOM      8  C   UNL     1       6.446  14.120  19.339  1.00  0.00     0.201 C 
ATOM      9  O   UNL     1       6.780  13.178  20.107  1.00  0.00    -0.288 OA
ATOM     10  C   UNL     1       6.809  15.519  19.683  1.00  0.00     0.076 A 
ATOM     11  C   UNL     1       7.034  16.429  18.626  1.00  0.00     0.041 A 
ATOM     12  C   UNL     1       6.762  16.020  17.227  1.00  0.00     0.194 C 
ATOM     13  O   UNL     1       7.080  16.781  16.273  1.00  0.00    -0.289 OA
ATOM     14  C   UNL     1       7.511  17.721  18.905  1.00  0.00     0.059 A 
ATOM     15  C   UNL     1       7.750  18.119  20.220  1.00  0.00     0.120 A 
ATOM     16  C   UNL     1       7.491  17.237  21.271  1.00  0.00     0.093 A 
ATOM     17  C   UNL     1       6.997  15.953  21.021  1.00  0.00     0.131 A 
ENDROOT
BRANCH   6  18
ATOM     18  O   UNL     1       4.750  11.739  18.756  1.00  0.00    -0.507 OA
ATOM     19  H   UNL     1       5.074  11.804  19.710  1.00  0.00     0.293 HD
ENDBRANCH   6  18
BRANCH  17  20
ATOM     20  O   UNL     1       6.675  15.159  22.125  1.00  0.00    -0.507 OA
ATOM     21  H   UNL     1       7.360  14.658  22.673  1.00  0.00     0.293 HD
ENDBRANCH  17  20
BRANCH  15  22
ATOM     22  O   UNL     1       8.235  19.401  20.472  1.00  0.00    -0.508 OA
ATOM     23  H   UNL     1       9.042  19.555  21.065  1.00  0.00     0.293 HD
ENDBRANCH  15  22
TORSDOF 3
ENDMDL
MODEL 7
REMARK VINA RESULT:    -5.583     13.668     17.133
REMARK INTER + INTRA:          -6.073
REMARK INTER:                  -6.073
REMARK INTRA:                   0.000
REMARK UNBOUND:                 0.000
REMARK SMILES Cc1cc(O)c2c(c1)C(=O)c1cc(O)cc(O)c1C2=O
REMARK SMILES IDX 1 1 2 2 8 3 7 4 6 5 4 6 3 7 19 8 20 9 18 10 11 11 9 12 10 13
REMARK SMILES IDX 12 14 13 15 15 16 16 17 5 18 17 20 14 22
REMARK H PARENT 5 19 17 21 14 23
REMARK Flexibility Score: inf
ROOT
ATOM      1  C   UNL     1      -2.396   5.941   4.122  1.00  0.00     0.044 C 
ATOM      2  C   UNL     1      -2.434   7.285   4.788  1.00  0.00    -0.047 A 
ATOM      3  C   UNL     1      -2.502   7.378   6.182  1.00  0.00     0.016 A 
ATOM      4  C   UNL     1      -2.510   8.632   6.817  1.00  0.00     0.038 A 
ATOM      5  C   UNL     1      -2.450   9.812   6.043  1.00  0.00     0.076 A 
ATOM      6  C   UNL     1      -2.296   9.710   4.635  1.00  0.00     0.127 A 
ATOM      7  C   UNL     1      -2.311   8.452   4.026  1.00  0.00     0.050 A 
ATOM      8  C   UNL     1      -2.610  11.116   6.737  1.00  0.00     0.201 C 
ATOM      9  O   UNL     1      -3.124  12.091   6.126  1.00  0.00    -0.288 OA
ATOM     10  C   UNL     1      -2.340  11.214   8.195  1.00  0.00     0.076 A 
ATOM     11  C   UNL     1      -2.399  10.032   8.965  1.00  0.00     0.041 A 
ATOM     12  C   UNL     1      -2.574   8.721   8.295  1.00  0.00     0.194 C 
ATOM     13  O   UNL     1      -2.752   7.679   8.983  1.00  0.00    -0.289 OA
ATOM     14  C   UNL     1      -2.285  10.102  10.364  1.00  0.00     0.059 A 
ATOM     15  C   UNL     1      -2.101  11.330  10.999  1.00  0.00     0.120 A 
ATOM     16  C   UNL     1      -2.002  12.497  10.239  1.00  0.00     0.093 A 
ATOM     17  C   UNL     1      -2.091  12.452   8.844  1.00  0.00     0.131 A 
ENDROOT
BRANCH   6  18
ATOM     18  O   UNL     1      -2.091  10.822   3.816  1.00  0.00    -0.507 OA
ATOM     19  H   UNL     1      -1.177  11.179   3.578  1.00  0.00     0.293 HD
ENDBRANCH   6  18
BRANCH  17  20
ATOM     20  O   UNL     1      -1.892  13.645   8.145  1.00  0.00    -0.507 OA
ATOM     21  H   UNL     1      -1.791  14.545   8.593  1.00  0.00     0.293 HD
ENDBRANCH  17  20
BRANCH  15  22
ATOM     22  O   UNL     1      -2.004  11.376  12.388  1.00  0.00    -0.508 OA
ATOM     23  H   UNL     1      -1.835  10.540  12.935  1.00  0.00     0.293 HD
ENDBRANCH  15  22
TORSDOF 3
ENDMDL
MODEL 8
REMARK VINA RESULT:    -5.329     15.055     17.405
REMARK INTER + INTRA:          -5.796
REMARK INTER:                  -5.796
REMARK INTRA:                   0.000
REMARK UNBOUND:                 0.000
REMARK SMILES Cc1cc(O)c2c(c1)C(=O)c1cc(O)cc(O)c1C2=O
REMARK SMILES IDX 1 1 2 2 8 3 7 4 6 5 4 6 3 7 19 8 20 9 18 10 11 11 9 12 10 13
REMARK SMILES IDX 12 14 13 15 15 16 16 17 5 18 17 20 14 22
REMARK H PARENT 5 19 17 21 14 23
REMARK Flexibility Score: inf
ROOT
ATOM      1  C   UNL     1       2.407  13.714   2.799  1.00  0.00     0.044 C 
ATOM      2  C   UNL     1       1.522  12.925   3.718  1.00  0.00    -0.047 A 
ATOM      3  C   UNL     1       0.849  11.793   3.246  1.00  0.00     0.016 A 
ATOM      4  C   UNL     1       0.040  11.031   4.107  1.00  0.00     0.038 A 
ATOM      5  C   UNL     1      -0.097  11.408   5.461  1.00  0.00     0.076 A 
ATOM      6  C   UNL     1       0.654  12.508   5.953  1.00  0.00     0.127 A 
ATOM      7  C   UNL     1       1.436  13.262   5.073  1.00  0.00     0.050 A 
ATOM      8  C   UNL     1      -1.074  10.669   6.302  1.00  0.00     0.201 C 
ATOM      9  O   UNL     1      -1.652  11.257   7.255  1.00  0.00    -0.288 OA
ATOM     10  C   UNL     1      -1.505   9.304   5.903  1.00  0.00     0.076 A 
ATOM     11  C   UNL     1      -1.364   8.928   4.548  1.00  0.00     0.041 A 
ATOM     12  C   UNL     1      -0.663   9.827   3.601  1.00  0.00     0.194 C 
ATOM     13  O   UNL     1      -0.644   9.557   2.369  1.00  0.00    -0.289 OA
ATOM     14  C   UNL     1      -1.885   7.701   4.105  1.00  0.00     0.059 A 
ATOM     15  C   UNL     1      -2.528   6.841   4.995  1.00  0.00     0.120 A 
ATOM     16  C   UNL     1      -2.635   7.190   6.343  1.00  0.00     0.093 A 
ATOM     17  C   UNL     1      -2.107   8.396   6.813  1.00  0.00     0.131 A 
ENDROOT
BRANCH   6  18
ATOM     18  O   UNL     1       0.681  12.859   7.304  1.00  0.00    -0.507 OA
ATOM     19  H   UNL     1       1.159  12.320   8.012  1.00  0.00     0.293 HD
ENDBRANCH   6  18
BRANCH  17  20
ATOM     20  O   UNL     1      -2.170   8.636   8.188  1.00  0.00    -0.507 OA
ATOM     21  H   UNL     1      -2.603   9.454   8.594  1.00  0.00     0.293 HD
ENDBRANCH  17  20
BRANCH  15  22
ATOM     22  O   UNL     1      -3.048   5.635   4.530  1.00  0.00    -0.508 OA
ATOM     23  H   UNL     1      -2.992   4.786   5.082  1.00  0.00     0.293 HD
ENDBRANCH  15  22
TORSDOF 3
ENDMDL
MODEL 9
REMARK VINA RESULT:    -5.177     15.661     17.274
REMARK INTER + INTRA:          -5.631
REMARK INTER:                  -5.631
REMARK INTRA:                   0.000
REMARK UNBOUND:                 0.000
REMARK SMILES Cc1cc(O)c2c(c1)C(=O)c1cc(O)cc(O)c1C2=O
REMARK SMILES IDX 1 1 2 2 8 3 7 4 6 5 4 6 3 7 19 8 20 9 18 10 11 11 9 12 10 13
REMARK SMILES IDX 12 14 13 15 15 16 16 17 5 18 17 20 14 22
REMARK H PARENT 5 19 17 21 14 23
REMARK Flexibility Score: inf
ROOT
ATOM      1  C   UNL     1      -2.733   8.377   8.645  1.00  0.00     0.044 C 
ATOM      2  C   UNL     1      -2.089   9.031   7.458  1.00  0.00    -0.047 A 
ATOM      3  C   UNL     1      -1.975  10.424   7.398  1.00  0.00     0.016 A 
ATOM      4  C   UNL     1      -1.349  11.044   6.302  1.00  0.00     0.038 A 
ATOM      5  C   UNL     1      -0.828  10.257   5.252  1.00  0.00     0.076 A 
ATOM      6  C   UNL     1      -0.871   8.842   5.360  1.00  0.00     0.127 A 
ATOM      7  C   UNL     1      -1.518   8.249   6.448  1.00  0.00     0.050 A 
ATOM      8  C   UNL     1      -0.307  10.951   4.046  1.00  0.00     0.201 C 
ATOM      9  O   UNL     1      -0.373  10.386   2.921  1.00  0.00    -0.288 OA
ATOM     10  C   UNL     1       0.113  12.373   4.137  1.00  0.00     0.076 A 
ATOM     11  C   UNL     1      -0.407  13.157   5.190  1.00  0.00     0.041 A 
ATOM     12  C   UNL     1      -1.225  12.521   6.251  1.00  0.00     0.194 C 
ATOM     13  O   UNL     1      -1.796  13.233   7.122  1.00  0.00    -0.289 OA
ATOM     14  C   UNL     1      -0.144  14.537   5.232  1.00  0.00     0.059 A 
ATOM     15  C   UNL     1       0.641  15.138   4.249  1.00  0.00     0.120 A 
ATOM     16  C   UNL     1       1.191  14.361   3.228  1.00  0.00     0.093 A 
ATOM     17  C   UNL     1       0.961  12.983   3.175  1.00  0.00     0.131 A 
ENDROOT
BRANCH   6  18
ATOM     18  O   UNL     1      -0.257   7.996   4.433  1.00  0.00    -0.507 OA
ATOM     19  H   UNL     1       0.451   7.320   4.678  1.00  0.00     0.293 HD
ENDBRANCH   6  18
BRANCH  17  20
ATOM     20  O   UNL     1       1.617  12.256   2.178  1.00  0.00    -0.507 OA
ATOM     21  H   UNL     1       1.141  11.796   1.416  1.00  0.00     0.293 HD
ENDBRANCH  17  20
BRANCH  15  22
ATOM     22  O   UNL     1       0.878  16.510   4.304  1.00  0.00    -0.508 OA
ATOM     23  H   UNL     1       1.728  16.916   3.929  1.00  0.00     0.293 HD
ENDBRANCH  15  22
TORSDOF 3
ENDMDL
