MODEL 1
REMARK VINA RESULT:    -3.966      0.000      0.000
REMARK INTER + INTRA:          -8.765
REMARK INTER:                  -7.444
REMARK INTRA:                  -1.322
REMARK UNBOUND:                -1.322
REMARK SMILES O=C([O-])CCCCCCCCCCCCCCC(=O)[O-]
REMARK SMILES IDX 10 1 9 2 8 3 7 4 6 5 5 6 4 7 2 8 1 9 3 10 11 11 12 12 13 13
REMARK SMILES IDX 14 14 15 15 16 16 17 17 18 18 19 19 20 20
REMARK H PARENT
REMARK Flexibility Score: inf
ROOT
ATOM      1  C   UNL     1      -1.384  -8.129  35.689  1.00  0.00     0.000 C 
ENDROOT
BRANCH   1   2
ATOM      2  C   UNL     1      -2.896  -7.864  35.727  1.00  0.00     0.000 C 
BRANCH   2   3
ATOM      3  C   UNL     1      -3.255  -6.573  36.480  1.00  0.00     0.000 C 
BRANCH   3   4
ATOM      4  C   UNL     1      -4.727  -6.168  36.288  1.00  0.00     0.000 C 
BRANCH   4   5
ATOM      5  C   UNL     1      -4.891  -4.675  35.958  1.00  0.00     0.000 C 
BRANCH   5   6
ATOM      6  C   UNL     1      -4.081  -4.248  34.721  1.00  0.00     0.006 C 
BRANCH   6   7
ATOM      7  C   UNL     1      -4.516  -5.002  33.457  1.00  0.00     0.053 C 
BRANCH   7   8
ATOM      8  C   UNL     1      -3.342  -5.509  32.677  1.00  0.00     0.041 C 
ATOM      9  O   UNL     1      -2.221  -5.643  33.236  1.00  0.00    -0.550 OA
ATOM     10  O   UNL     1      -3.492  -5.863  31.343  1.00  0.00    -0.550 OA
ENDBRANCH   7   8
ENDBRANCH   6   7
ENDBRANCH   5   6
ENDBRANCH   4   5
ENDBRANCH   3   4
ENDBRANCH   2   3
ENDBRANCH   1   2
BRANCH   1  11
ATOM     11  C   UNL     1      -0.727  -7.753  37.022  1.00  0.00     0.000 C 
BRANCH  11  12
ATOM     12  C   UNL     1      -0.289  -9.006  37.795  1.00  0.00     0.000 C 
BRANCH  12  13
ATOM     13  C   UNL     1      -0.460  -8.864  39.319  1.00  0.00     0.000 C 
BRANCH  13  14
ATOM     14  C   UNL     1      -1.745  -8.143  39.765  1.00  0.00     0.000 C 
BRANCH  14  15
ATOM     15  C   UNL     1      -2.783  -9.092  40.380  1.00  0.00     0.000 C 
BRANCH  15  16
ATOM     16  C   UNL     1      -2.146  -9.977  41.460  1.00  0.00     0.006 C 
BRANCH  16  17
ATOM     17  C   UNL     1      -2.563 -11.439  41.287  1.00  0.00     0.053 C 
BRANCH  17  18
ATOM     18  C   UNL     1      -1.774 -12.321  42.203  1.00  0.00     0.041 C 
ATOM     19  O   UNL     1      -2.128 -13.513  42.396  1.00  0.00    -0.550 OA
ATOM     20  O   UNL     1      -0.674 -11.811  42.881  1.00  0.00    -0.550 OA
ENDBRANCH  17  18
ENDBRANCH  16  17
ENDBRANCH  15  16
ENDBRANCH  14  15
ENDBRANCH  13  14
ENDBRANCH  12  13
ENDBRANCH  11  12
ENDBRANCH   1  11
TORSDOF 15
ENDMDL
MODEL 2
REMARK VINA RESULT:    -3.919      1.316      8.343
REMARK INTER + INTRA:          -8.678
REMARK INTER:                  -6.703
REMARK INTRA:                  -1.975
REMARK UNBOUND:                -1.322
REMARK SMILES O=C([O-])CCCCCCCCCCCCCCC(=O)[O-]
REMARK SMILES IDX 10 1 9 2 8 3 7 4 6 5 5 6 4 7 2 8 1 9 3 10 11 11 12 12 13 13
REMARK SMILES IDX 14 14 15 15 16 16 17 17 18 18 19 19 20 20
REMARK H PARENT
REMARK Flexibility Score: inf
ROOT
ATOM      1  C   UNL     1      -3.078  -7.996  36.511  1.00  0.00     0.000 C 
ENDROOT
BRANCH   1   2
ATOM      2  C   UNL     1      -1.770  -7.224  36.285  1.00  0.00     0.000 C 
BRANCH   2   3
ATOM      3  C   UNL     1      -0.533  -7.991  36.780  1.00  0.00     0.000 C 
BRANCH   3   4
ATOM      4  C   UNL     1      -0.894  -9.127  37.753  1.00  0.00     0.000 C 
BRANCH   4   5
ATOM      5  C   UNL     1      -0.429  -8.843  39.191  1.00  0.00     0.000 C 
BRANCH   5   6
ATOM      6  C   UNL     1      -1.505  -8.138  40.035  1.00  0.00     0.006 C 
BRANCH   6   7
ATOM      7  C   UNL     1      -2.710  -9.047  40.312  1.00  0.00     0.053 C 
BRANCH   7   8
ATOM      8  C   UNL     1      -2.299 -10.343  40.941  1.00  0.00     0.041 C 
ATOM      9  O   UNL     1      -1.834 -10.359  42.111  1.00  0.00    -0.550 OA
ATOM     10  O   UNL     1      -2.459 -11.535  40.248  1.00  0.00    -0.550 OA
ENDBRANCH   7   8
ENDBRANCH   6   7
ENDBRANCH   5   6
ENDBRANCH   4   5
ENDBRANCH   3   4
ENDBRANCH   2   3
ENDBRANCH   1   2
BRANCH   1  11
ATOM     11  C   UNL     1      -4.044  -7.194  37.390  1.00  0.00     0.000 C 
BRANCH  11  12
ATOM     12  C   UNL     1      -4.054  -5.711  36.989  1.00  0.00     0.000 C 
BRANCH  12  13
ATOM     13  C   UNL     1      -5.356  -5.285  36.288  1.00  0.00     0.000 C 
BRANCH  13  14
ATOM     14  C   UNL     1      -5.241  -5.095  34.764  1.00  0.00     0.000 C 
BRANCH  14  15
ATOM     15  C   UNL     1      -4.174  -4.064  34.367  1.00  0.00     0.000 C 
BRANCH  15  16
ATOM     16  C   UNL     1      -3.003  -4.737  33.641  1.00  0.00     0.006 C 
BRANCH  16  17
ATOM     17  C   UNL     1      -3.413  -6.104  33.089  1.00  0.00     0.053 C 
BRANCH  17  18
ATOM     18  C   UNL     1      -2.925  -6.270  31.684  1.00  0.00     0.041 C 
ATOM     19  O   UNL     1      -3.594  -5.813  30.721  1.00  0.00    -0.550 OA
ATOM     20  O   UNL     1      -1.752  -6.973  31.434  1.00  0.00    -0.550 OA
ENDBRANCH  17  18
ENDBRANCH  16  17
ENDBRANCH  15  16
ENDBRANCH  14  15
ENDBRANCH  13  14
ENDBRANCH  12  13
ENDBRANCH  11  12
ENDBRANCH   1  11
TORSDOF 15
ENDMDL
MODEL 3
REMARK VINA RESULT:    -3.894      1.004      1.775
REMARK INTER + INTRA:          -8.631
REMARK INTER:                  -6.891
REMARK INTRA:                  -1.740
REMARK UNBOUND:                -1.322
REMARK SMILES O=C([O-])CCCCCCCCCCCCCCC(=O)[O-]
REMARK SMILES IDX 10 1 9 2 8 3 7 4 6 5 5 6 4 7 2 8 1 9 3 10 11 11 12 12 13 13
REMARK SMILES IDX 14 14 15 15 16 16 17 17 18 18 19 19 20 20
REMARK H PARENT
REMARK Flexibility Score: inf
ROOT
ATOM      1  C   UNL     1      -3.162  -7.908  36.505  1.00  0.00     0.000 C 
ENDROOT
BRANCH   1   2
ATOM      2  C   UNL     1      -3.593  -6.579  37.144  1.00  0.00     0.000 C 
BRANCH   2   3
ATOM      3  C   UNL     1      -5.086  -6.278  36.937  1.00  0.00     0.000 C 
BRANCH   3   4
ATOM      4  C   UNL     1      -5.362  -5.542  35.614  1.00  0.00     0.000 C 
BRANCH   4   5
ATOM      5  C   UNL     1      -4.296  -4.480  35.295  1.00  0.00     0.000 C 
BRANCH   5   6
ATOM      6  C   UNL     1      -3.785  -4.570  33.845  1.00  0.00     0.006 C 
BRANCH   6   7
ATOM      7  C   UNL     1      -3.775  -6.012  33.324  1.00  0.00     0.053 C 
BRANCH   7   8
ATOM      8  C   UNL     1      -2.803  -6.193  32.198  1.00  0.00     0.041 C 
ATOM      9  O   UNL     1      -3.098  -5.802  31.038  1.00  0.00    -0.550 OA
ATOM     10  O   UNL     1      -1.560  -6.765  32.435  1.00  0.00    -0.550 OA
ENDBRANCH   7   8
ENDBRANCH   6   7
ENDBRANCH   5   6
ENDBRANCH   4   5
ENDBRANCH   3   4
ENDBRANCH   2   3
ENDBRANCH   1   2
BRANCH   1  11
ATOM     11  C   UNL     1      -1.737  -7.811  35.947  1.00  0.00     0.000 C 
BRANCH  11  12
ATOM     12  C   UNL     1      -0.711  -7.651  37.078  1.00  0.00     0.000 C 
BRANCH  12  13
ATOM     13  C   UNL     1      -0.364  -8.981  37.770  1.00  0.00     0.000 C 
BRANCH  13  14
ATOM     14  C   UNL     1      -0.356  -8.930  39.309  1.00  0.00     0.000 C 
BRANCH  14  15
ATOM     15  C   UNL     1      -1.526  -8.121  39.888  1.00  0.00     0.000 C 
BRANCH  15  16
ATOM     16  C   UNL     1      -2.657  -9.047  40.354  1.00  0.00     0.006 C 
BRANCH  16  17
ATOM     17  C   UNL     1      -2.148 -10.477  40.553  1.00  0.00     0.053 C 
BRANCH  17  18
ATOM     18  C   UNL     1      -2.319 -10.901  41.978  1.00  0.00     0.041 C 
ATOM     19  O   UNL     1      -1.315 -11.201  42.675  1.00  0.00    -0.550 OA
ATOM     20  O   UNL     1      -3.593 -11.010  42.522  1.00  0.00    -0.550 OA
ENDBRANCH  17  18
ENDBRANCH  16  17
ENDBRANCH  15  16
ENDBRANCH  14  15
ENDBRANCH  13  14
ENDBRANCH  12  13
ENDBRANCH  11  12
ENDBRANCH   1  11
TORSDOF 15
ENDMDL
MODEL 4
REMARK VINA RESULT:    -3.875      1.525      2.595
REMARK INTER + INTRA:          -8.595
REMARK INTER:                  -6.361
REMARK INTRA:                  -2.235
REMARK UNBOUND:                -1.322
REMARK SMILES O=C([O-])CCCCCCCCCCCCCCC(=O)[O-]
REMARK SMILES IDX 10 1 9 2 8 3 7 4 6 5 5 6 4 7 2 8 1 9 3 10 11 11 12 12 13 13
REMARK SMILES IDX 14 14 15 15 16 16 17 17 18 18 19 19 20 20
REMARK H PARENT
REMARK Flexibility Score: inf
ROOT
ATOM      1  C   UNL     1      -0.970 -10.840  37.987  1.00  0.00     0.000 C 
ENDROOT
BRANCH   1   2
ATOM      2  C   UNL     1      -1.843  -9.882  37.164  1.00  0.00     0.000 C 
BRANCH   2   3
ATOM      3  C   UNL     1      -3.346 -10.162  37.324  1.00  0.00     0.000 C 
BRANCH   3   4
ATOM      4  C   UNL     1      -4.212  -8.926  37.023  1.00  0.00     0.000 C 
BRANCH   4   5
ATOM      5  C   UNL     1      -3.995  -7.792  38.039  1.00  0.00     0.000 C 
BRANCH   5   6
ATOM      6  C   UNL     1      -3.572  -6.471  37.371  1.00  0.00     0.006 C 
BRANCH   6   7
ATOM      7  C   UNL     1      -3.008  -6.691  35.961  1.00  0.00     0.053 C 
BRANCH   7   8
ATOM      8  C   UNL     1      -3.658  -5.793  34.953  1.00  0.00     0.041 C 
ATOM      9  O   UNL     1      -4.549  -4.978  35.312  1.00  0.00    -0.550 OA
ATOM     10  O   UNL     1      -3.259  -5.834  33.623  1.00  0.00    -0.550 OA
ENDBRANCH   7   8
ENDBRANCH   6   7
ENDBRANCH   5   6
ENDBRANCH   4   5
ENDBRANCH   3   4
ENDBRANCH   2   3
ENDBRANCH   1   2
BRANCH   1  11
ATOM     11  C   UNL     1      -0.232 -10.089  39.102  1.00  0.00     0.000 C 
BRANCH  11  12
ATOM     12  C   UNL     1      -0.558  -8.588  39.066  1.00  0.00     0.000 C 
BRANCH  12  13
ATOM     13  C   UNL     1      -1.353  -8.115  40.296  1.00  0.00     0.000 C 
BRANCH  13  14
ATOM     14  C   UNL     1      -1.777  -9.233  41.266  1.00  0.00     0.000 C 
BRANCH  14  15
ATOM     15  C   UNL     1      -3.266  -9.590  41.156  1.00  0.00     0.000 C 
BRANCH  15  16
ATOM     16  C   UNL     1      -3.553 -10.957  41.790  1.00  0.00     0.006 C 
BRANCH  16  17
ATOM     17  C   UNL     1      -2.668 -12.043  41.173  1.00  0.00     0.053 C 
BRANCH  17  18
ATOM     18  C   UNL     1      -1.922 -12.781  42.240  1.00  0.00     0.041 C 
ATOM     19  O   UNL     1      -0.878 -12.287  42.740  1.00  0.00    -0.550 OA
ATOM     20  O   UNL     1      -2.354 -14.036  42.649  1.00  0.00    -0.550 OA
ENDBRANCH  17  18
ENDBRANCH  16  17
ENDBRANCH  15  16
ENDBRANCH  14  15
ENDBRANCH  13  14
ENDBRANCH  12  13
ENDBRANCH  11  12
ENDBRANCH   1  11
TORSDOF 15
ENDMDL
MODEL 5
REMARK VINA RESULT:    -3.863      1.684      3.053
REMARK INTER + INTRA:          -8.572
REMARK INTER:                  -6.714
REMARK INTRA:                  -1.858
REMARK UNBOUND:                -1.322
REMARK SMILES O=C([O-])CCCCCCCCCCCCCCC(=O)[O-]
REMARK SMILES IDX 10 1 9 2 8 3 7 4 6 5 5 6 4 7 2 8 1 9 3 10 11 11 12 12 13 13
REMARK SMILES IDX 14 14 15 15 16 16 17 17 18 18 19 19 20 20
REMARK H PARENT
REMARK Flexibility Score: inf
ROOT
ATOM      1  C   UNL     1      -0.364 -10.366  39.152  1.00  0.00     0.000 C 
ENDROOT
BRANCH   1   2
ATOM      2  C   UNL     1      -0.259 -10.728  37.663  1.00  0.00     0.000 C 
BRANCH   2   3
ATOM      3  C   UNL     1      -0.195  -9.490  36.753  1.00  0.00     0.000 C 
BRANCH   3   4
ATOM      4  C   UNL     1      -1.541  -9.191  36.070  1.00  0.00     0.000 C 
BRANCH   4   5
ATOM      5  C   UNL     1      -1.729  -7.695  35.765  1.00  0.00     0.000 C 
BRANCH   5   6
ATOM      6  C   UNL     1      -3.206  -7.313  35.560  1.00  0.00     0.006 C 
BRANCH   6   7
ATOM      7  C   UNL     1      -3.361  -6.013  34.759  1.00  0.00     0.053 C 
BRANCH   7   8
ATOM      8  C   UNL     1      -4.155  -4.987  35.508  1.00  0.00     0.041 C 
ATOM      9  O   UNL     1      -4.269  -5.064  36.760  1.00  0.00    -0.550 OA
ATOM     10  O   UNL     1      -4.742  -3.928  34.828  1.00  0.00    -0.550 OA
ENDBRANCH   7   8
ENDBRANCH   6   7
ENDBRANCH   5   6
ENDBRANCH   4   5
ENDBRANCH   3   4
ENDBRANCH   2   3
ENDBRANCH   1   2
BRANCH   1  11
ATOM     11  C   UNL     1      -0.213  -8.855  39.361  1.00  0.00     0.000 C 
BRANCH  11  12
ATOM     12  C   UNL     1      -1.379  -8.294  40.189  1.00  0.00     0.000 C 
BRANCH  12  13
ATOM     13  C   UNL     1      -2.661  -8.088  39.361  1.00  0.00     0.000 C 
BRANCH  13  14
ATOM     14  C   UNL     1      -3.697  -9.222  39.474  1.00  0.00     0.000 C 
BRANCH  14  15
ATOM     15  C   UNL     1      -4.548  -9.130  40.749  1.00  0.00     0.000 C 
BRANCH  15  16
ATOM     16  C   UNL     1      -4.090 -10.159  41.791  1.00  0.00     0.006 C 
BRANCH  16  17
ATOM     17  C   UNL     1      -3.387 -11.342  41.120  1.00  0.00     0.053 C 
BRANCH  17  18
ATOM     18  C   UNL     1      -2.284 -11.858  41.990  1.00  0.00     0.041 C 
ATOM     19  O   UNL     1      -2.177 -13.092  42.213  1.00  0.00    -0.550 OA
ATOM     20  O   UNL     1      -1.402 -10.970  42.593  1.00  0.00    -0.550 OA
ENDBRANCH  17  18
ENDBRANCH  16  17
ENDBRANCH  15  16
ENDBRANCH  14  15
ENDBRANCH  13  14
ENDBRANCH  12  13
ENDBRANCH  11  12
ENDBRANCH   1  11
TORSDOF 15
ENDMDL
MODEL 6
REMARK VINA RESULT:    -3.841      1.878      3.421
REMARK INTER + INTRA:          -8.530
REMARK INTER:                  -6.606
REMARK INTRA:                  -1.924
REMARK UNBOUND:                -1.322
REMARK SMILES O=C([O-])CCCCCCCCCCCCCCC(=O)[O-]
REMARK SMILES IDX 10 1 9 2 8 3 7 4 6 5 5 6 4 7 2 8 1 9 3 10 11 11 12 12 13 13
REMARK SMILES IDX 14 14 15 15 16 16 17 17 18 18 19 19 20 20
REMARK H PARENT
REMARK Flexibility Score: inf
ROOT
ATOM      1  C   UNL     1      -4.195  -5.769  36.970  1.00  0.00     0.000 C 
ENDROOT
BRANCH   1   2
ATOM      2  C   UNL     1      -5.547  -5.378  36.356  1.00  0.00     0.000 C 
BRANCH   2   3
ATOM      3  C   UNL     1      -5.416  -4.851  34.918  1.00  0.00     0.000 C 
BRANCH   3   4
ATOM      4  C   UNL     1      -4.141  -4.015  34.710  1.00  0.00     0.000 C 
BRANCH   4   5
ATOM      5  C   UNL     1      -3.232  -4.587  33.609  1.00  0.00     0.000 C 
BRANCH   5   6
ATOM      6  C   UNL     1      -3.881  -5.760  32.854  1.00  0.00     0.006 C 
BRANCH   6   7
ATOM      7  C   UNL     1      -3.323  -5.914  31.433  1.00  0.00     0.053 C 
BRANCH   7   8
ATOM      8  C   UNL     1      -2.297  -7.003  31.350  1.00  0.00     0.041 C 
ATOM      9  O   UNL     1      -1.435  -6.991  30.433  1.00  0.00    -0.550 OA
ATOM     10  O   UNL     1      -2.275  -8.013  32.302  1.00  0.00    -0.550 OA
ENDBRANCH   7   8
ENDBRANCH   6   7
ENDBRANCH   5   6
ENDBRANCH   4   5
ENDBRANCH   3   4
ENDBRANCH   2   3
ENDBRANCH   1   2
BRANCH   1  11
ATOM     11  C   UNL     1      -4.091  -7.289  37.146  1.00  0.00     0.000 C 
BRANCH  11  12
ATOM     12  C   UNL     1      -3.347  -7.931  35.966  1.00  0.00     0.000 C 
BRANCH  12  13
ATOM     13  C   UNL     1      -1.919  -7.386  35.785  1.00  0.00     0.000 C 
BRANCH  13  14
ATOM     14  C   UNL     1      -1.034  -7.452  37.044  1.00  0.00     0.000 C 
BRANCH  14  15
ATOM     15  C   UNL     1      -0.568  -8.877  37.374  1.00  0.00     0.000 C 
BRANCH  15  16
ATOM     16  C   UNL     1      -0.389  -9.060  38.887  1.00  0.00     0.006 C 
BRANCH  16  17
ATOM     17  C   UNL     1      -1.345  -8.153  39.666  1.00  0.00     0.053 C 
BRANCH  17  18
ATOM     18  C   UNL     1      -2.289  -8.971  40.490  1.00  0.00     0.041 C 
ATOM     19  O   UNL     1      -1.947  -9.377  41.630  1.00  0.00    -0.550 OA
ATOM     20  O   UNL     1      -3.531  -9.325  39.976  1.00  0.00    -0.550 OA
ENDBRANCH  17  18
ENDBRANCH  16  17
ENDBRANCH  15  16
ENDBRANCH  14  15
ENDBRANCH  13  14
ENDBRANCH  12  13
ENDBRANCH  11  12
ENDBRANCH   1  11
TORSDOF 15
ENDMDL
MODEL 7
REMARK VINA RESULT:    -3.836      2.261      8.202
REMARK INTER + INTRA:          -8.521
REMARK INTER:                  -7.086
REMARK INTRA:                  -1.435
REMARK UNBOUND:                -1.322
REMARK SMILES O=C([O-])CCCCCCCCCCCCCCC(=O)[O-]
REMARK SMILES IDX 10 1 9 2 8 3 7 4 6 5 5 6 4 7 2 8 1 9 3 10 11 11 12 12 13 13
REMARK SMILES IDX 14 14 15 15 16 16 17 17 18 18 19 19 20 20
REMARK H PARENT
REMARK Flexibility Score: inf
ROOT
ATOM      1  C   UNL     1      -3.300  -7.263  36.362  1.00  0.00     0.000 C 
ENDROOT
BRANCH   1   2
ATOM      2  C   UNL     1      -2.417  -6.993  37.588  1.00  0.00     0.000 C 
BRANCH   2   3
ATOM      3  C   UNL     1      -1.070  -7.731  37.525  1.00  0.00     0.000 C 
BRANCH   3   4
ATOM      4  C   UNL     1      -0.815  -8.601  38.769  1.00  0.00     0.000 C 
BRANCH   4   5
ATOM      5  C   UNL     1      -1.603  -8.120  39.998  1.00  0.00     0.000 C 
BRANCH   5   6
ATOM      6  C   UNL     1      -2.054  -9.280  40.905  1.00  0.00     0.006 C 
BRANCH   6   7
ATOM      7  C   UNL     1      -1.328 -10.590  40.572  1.00  0.00     0.053 C 
BRANCH   7   8
ATOM      8  C   UNL     1      -1.503 -11.615  41.650  1.00  0.00     0.041 C 
ATOM      9  O   UNL     1      -0.761 -11.598  42.667  1.00  0.00    -0.550 OA
ATOM     10  O   UNL     1      -2.505 -12.571  41.546  1.00  0.00    -0.550 OA
ENDBRANCH   7   8
ENDBRANCH   6   7
ENDBRANCH   5   6
ENDBRANCH   4   5
ENDBRANCH   3   4
ENDBRANCH   2   3
ENDBRANCH   1   2
BRANCH   1  11
ATOM     11  C   UNL     1      -2.536  -8.062  35.300  1.00  0.00     0.000 C 
BRANCH  11  12
ATOM     12  C   UNL     1      -2.354  -7.240  34.015  1.00  0.00     0.000 C 
BRANCH  12  13
ATOM     13  C   UNL     1      -3.557  -6.331  33.707  1.00  0.00     0.000 C 
BRANCH  13  14
ATOM     14  C   UNL     1      -3.211  -4.846  33.492  1.00  0.00     0.000 C 
BRANCH  14  15
ATOM     15  C   UNL     1      -3.974  -3.909  34.440  1.00  0.00     0.000 C 
BRANCH  15  16
ATOM     16  C   UNL     1      -5.346  -4.492  34.801  1.00  0.00     0.006 C 
BRANCH  16  17
ATOM     17  C   UNL     1      -5.597  -4.410  36.308  1.00  0.00     0.053 C 
BRANCH  17  18
ATOM     18  C   UNL     1      -6.771  -5.256  36.691  1.00  0.00     0.041 C 
ATOM     19  O   UNL     1      -7.722  -4.761  37.350  1.00  0.00    -0.550 OA
ATOM     20  O   UNL     1      -6.792  -6.606  36.360  1.00  0.00    -0.550 OA
ENDBRANCH  17  18
ENDBRANCH  16  17
ENDBRANCH  15  16
ENDBRANCH  14  15
ENDBRANCH  13  14
ENDBRANCH  12  13
ENDBRANCH  11  12
ENDBRANCH   1  11
TORSDOF 15
ENDMDL
MODEL 8
REMARK VINA RESULT:    -3.818      1.946      8.083
REMARK INTER + INTRA:          -8.488
REMARK INTER:                  -6.178
REMARK INTRA:                  -2.310
REMARK UNBOUND:                -1.322
REMARK SMILES O=C([O-])CCCCCCCCCCCCCCC(=O)[O-]
REMARK SMILES IDX 10 1 9 2 8 3 7 4 6 5 5 6 4 7 2 8 1 9 3 10 11 11 12 12 13 13
REMARK SMILES IDX 14 14 15 15 16 16 17 17 18 18 19 19 20 20
REMARK H PARENT
REMARK Flexibility Score: inf
ROOT
ATOM      1  C   UNL     1      -1.312 -10.972  37.333  1.00  0.00     0.000 C 
ENDROOT
BRANCH   1   2
ATOM      2  C   UNL     1      -0.565  -9.808  36.666  1.00  0.00     0.000 C 
BRANCH   2   3
ATOM      3  C   UNL     1      -0.312  -8.636  37.627  1.00  0.00     0.000 C 
BRANCH   3   4
ATOM      4  C   UNL     1      -0.204  -9.088  39.094  1.00  0.00     0.000 C 
BRANCH   4   5
ATOM      5  C   UNL     1      -1.226  -8.387  40.005  1.00  0.00     0.000 C 
BRANCH   5   6
ATOM      6  C   UNL     1      -1.979  -9.371  40.919  1.00  0.00     0.006 C 
BRANCH   6   7
ATOM      7  C   UNL     1      -1.318 -10.755  40.947  1.00  0.00     0.053 C 
BRANCH   7   8
ATOM      8  C   UNL     1      -1.785 -11.574  42.111  1.00  0.00     0.041 C 
ATOM      9  O   UNL     1      -1.009 -12.407  42.650  1.00  0.00    -0.550 OA
ATOM     10  O   UNL     1      -3.065 -11.397  42.619  1.00  0.00    -0.550 OA
ENDBRANCH   7   8
ENDBRANCH   6   7
ENDBRANCH   5   6
ENDBRANCH   4   5
ENDBRANCH   3   4
ENDBRANCH   2   3
ENDBRANCH   1   2
BRANCH   1  11
ATOM     11  C   UNL     1      -2.755 -11.062  36.824  1.00  0.00     0.000 C 
BRANCH  11  12
ATOM     12  C   UNL     1      -3.703 -10.227  37.698  1.00  0.00     0.000 C 
BRANCH  12  13
ATOM     13  C   UNL     1      -4.121  -8.901  37.037  1.00  0.00     0.000 C 
BRANCH  13  14
ATOM     14  C   UNL     1      -4.108  -7.677  37.971  1.00  0.00     0.000 C 
BRANCH  14  15
ATOM     15  C   UNL     1      -3.240  -6.527  37.440  1.00  0.00     0.000 C 
BRANCH  15  16
ATOM     16  C   UNL     1      -3.377  -6.394  35.918  1.00  0.00     0.006 C 
BRANCH  16  17
ATOM     17  C   UNL     1      -4.087  -5.091  35.543  1.00  0.00     0.053 C 
BRANCH  17  18
ATOM     18  C   UNL     1      -5.164  -5.351  34.537  1.00  0.00     0.041 C 
ATOM     19  O   UNL     1      -5.702  -6.487  34.463  1.00  0.00    -0.550 OA
ATOM     20  O   UNL     1      -5.540  -4.352  33.647  1.00  0.00    -0.550 OA
ENDBRANCH  17  18
ENDBRANCH  16  17
ENDBRANCH  15  16
ENDBRANCH  14  15
ENDBRANCH  13  14
ENDBRANCH  12  13
ENDBRANCH  11  12
ENDBRANCH   1  11
TORSDOF 15
ENDMDL
MODEL 9
REMARK VINA RESULT:    -3.782      4.088      6.581
REMARK INTER + INTRA:          -8.420
REMARK INTER:                  -6.091
REMARK INTRA:                  -2.329
REMARK UNBOUND:                -1.322
REMARK SMILES O=C([O-])CCCCCCCCCCCCCCC(=O)[O-]
REMARK SMILES IDX 10 1 9 2 8 3 7 4 6 5 5 6 4 7 2 8 1 9 3 10 11 11 12 12 13 13
REMARK SMILES IDX 14 14 15 15 16 16 17 17 18 18 19 19 20 20
REMARK H PARENT
REMARK Flexibility Score: inf
ROOT
ATOM      1  C   UNL     1      -1.977  -7.328  36.786  1.00  0.00     0.000 C 
ENDROOT
BRANCH   1   2
ATOM      2  C   UNL     1      -0.610  -7.986  37.022  1.00  0.00     0.000 C 
BRANCH   2   3
ATOM      3  C   UNL     1      -0.713  -9.315  37.788  1.00  0.00     0.000 C 
BRANCH   3   4
ATOM      4  C   UNL     1      -0.274  -9.185  39.257  1.00  0.00     0.000 C 
BRANCH   4   5
ATOM      5  C   UNL     1      -1.346  -8.524  40.138  1.00  0.00     0.000 C 
BRANCH   5   6
ATOM      6  C   UNL     1      -1.780  -9.416  41.315  1.00  0.00     0.006 C 
BRANCH   6   7
ATOM      7  C   UNL     1      -1.654 -10.909  40.986  1.00  0.00     0.053 C 
BRANCH   7   8
ATOM      8  C   UNL     1      -1.423 -11.735  42.214  1.00  0.00     0.041 C 
ATOM      9  O   UNL     1      -1.832 -12.925  42.262  1.00  0.00    -0.550 OA
ATOM     10  O   UNL     1      -0.730 -11.201  43.293  1.00  0.00    -0.550 OA
ENDBRANCH   7   8
ENDBRANCH   6   7
ENDBRANCH   5   6
ENDBRANCH   4   5
ENDBRANCH   3   4
ENDBRANCH   2   3
ENDBRANCH   1   2
BRANCH   1  11
ATOM     11  C   UNL     1      -2.905  -8.259  35.998  1.00  0.00     0.000 C 
BRANCH  11  12
ATOM     12  C   UNL     1      -4.250  -8.437  36.718  1.00  0.00     0.000 C 
BRANCH  12  13
ATOM     13  C   UNL     1      -4.434  -7.466  37.899  1.00  0.00     0.000 C 
BRANCH  13  14
ATOM     14  C   UNL     1      -4.863  -8.127  39.222  1.00  0.00     0.000 C 
BRANCH  14  15
ATOM     15  C   UNL     1      -4.795  -9.661  39.175  1.00  0.00     0.000 C 
BRANCH  15  16
ATOM     16  C   UNL     1      -5.905 -10.286  40.030  1.00  0.00     0.006 C 
BRANCH  16  17
ATOM     17  C   UNL     1      -5.332 -11.324  40.999  1.00  0.00     0.053 C 
BRANCH  17  18
ATOM     18  C   UNL     1      -5.112 -10.716  42.349  1.00  0.00     0.041 C 
ATOM     19  O   UNL     1      -4.789 -11.441  43.325  1.00  0.00    -0.550 OA
ATOM     20  O   UNL     1      -5.312  -9.354  42.538  1.00  0.00    -0.550 OA
ENDBRANCH  17  18
ENDBRANCH  16  17
ENDBRANCH  15  16
ENDBRANCH  14  15
ENDBRANCH  13  14
ENDBRANCH  12  13
ENDBRANCH  11  12
ENDBRANCH   1  11
TORSDOF 15
ENDMDL
