MODEL 1
REMARK VINA RESULT:     0.189      0.000      0.000
REMARK INTER + INTRA:          -0.349
REMARK INTER:                   0.475
REMARK INTRA:                  -0.824
REMARK UNBOUND:                -0.824
REMARK SMILES CCCCCCCCCCCCCCCCCCCCCCCCCCCC(=O)[O-]
REMARK SMILES IDX 15 1 16 2 17 3 18 4 19 5 20 6 21 7 22 8 23 9 24 10 25 11
REMARK SMILES IDX 26 12 27 13 28 14 29 15 30 16 14 17 13 18 12 19 11 20 10 21
REMARK SMILES IDX 9 22 8 23 7 24 6 25 5 26 4 27 3 28 2 29 1 30
REMARK H PARENT
REMARK Flexibility Score: inf
ROOT
ATOM      1  C   UNL     1      -0.409  21.202  16.803  1.00  0.00     0.000 C 
ENDROOT
BRANCH   1   2
ATOM      2  C   UNL     1       0.325  19.875  16.511  1.00  0.00     0.000 C 
BRANCH   2   3
ATOM      3  C   UNL     1       1.852  19.948  16.721  1.00  0.00     0.000 C 
BRANCH   3   4
ATOM      4  C   UNL     1       2.703  19.877  15.439  1.00  0.00     0.000 C 
BRANCH   4   5
ATOM      5  C   UNL     1       3.708  21.032  15.263  1.00  0.00     0.000 C 
BRANCH   5   6
ATOM      6  C   UNL     1       4.891  20.948  16.245  1.00  0.00     0.000 C 
BRANCH   6   7
ATOM      7  C   UNL     1       6.037  20.062  15.721  1.00  0.00     0.000 C 
BRANCH   7   8
ATOM      8  C   UNL     1       7.454  20.623  15.968  1.00  0.00     0.000 C 
BRANCH   8   9
ATOM      9  C   UNL     1       8.571  19.910  15.182  1.00  0.00     0.000 C 
BRANCH   9  10
ATOM     10  C   UNL     1       9.419  20.881  14.343  1.00  0.00     0.000 C 
BRANCH  10  11
ATOM     11  C   UNL     1      10.227  20.153  13.255  1.00  0.00     0.000 C 
BRANCH  11  12
ATOM     12  C   UNL     1       9.389  19.922  11.982  1.00  0.00     0.006 C 
BRANCH  12  13
ATOM     13  C   UNL     1      10.194  20.181  10.701  1.00  0.00     0.053 C 
BRANCH  13  14
ATOM     14  C   UNL     1       9.332  20.191   9.473  1.00  0.00     0.041 C 
ATOM     15  O   UNL     1       8.079  20.282   9.573  1.00  0.00    -0.550 OA
ATOM     16  O   UNL     1       9.914  20.075   8.216  1.00  0.00    -0.550 OA
ENDBRANCH  13  14
ENDBRANCH  12  13
ENDBRANCH  11  12
ENDBRANCH  10  11
ENDBRANCH   9  10
ENDBRANCH   8   9
ENDBRANCH   7   8
ENDBRANCH   6   7
ENDBRANCH   5   6
ENDBRANCH   4   5
ENDBRANCH   3   4
ENDBRANCH   2   3
ENDBRANCH   1   2
BRANCH   1  17
ATOM     17  C   UNL     1      -1.786  21.273  16.124  1.00  0.00     0.000 C 
BRANCH  17  18
ATOM     18  C   UNL     1      -2.550  19.949  16.275  1.00  0.00     0.000 C 
BRANCH  18  19
ATOM     19  C   UNL     1      -4.050  20.107  15.971  1.00  0.00     0.000 C 
BRANCH  19  20
ATOM     20  C   UNL     1      -4.293  20.758  14.596  1.00  0.00     0.000 C 
BRANCH  20  21
ATOM     21  C   UNL     1      -5.768  21.156  14.377  1.00  0.00     0.000 C 
BRANCH  21  22
ATOM     22  C   UNL     1      -6.761  20.347  15.230  1.00  0.00    -0.000 C 
BRANCH  22  23
ATOM     23  C   UNL     1      -7.142  21.059  16.537  1.00  0.00    -0.000 C 
BRANCH  23  24
ATOM     24  C   UNL     1      -8.628  20.897  16.907  1.00  0.00    -0.000 C 
BRANCH  24  25
ATOM     25  C   UNL     1      -8.926  19.875  18.018  1.00  0.00    -0.000 C 
BRANCH  25  26
ATOM     26  C   UNL     1      -8.852  20.481  19.431  1.00  0.00    -0.000 C 
BRANCH  26  27
ATOM     27  C   UNL     1      -7.419  20.876  19.825  1.00  0.00    -0.000 C 
BRANCH  27  28
ATOM     28  C   UNL     1      -7.057  20.434  21.254  1.00  0.00    -0.000 C 
BRANCH  28  29
ATOM     29  C   UNL     1      -8.298  20.214  22.131  1.00  0.00    -0.003 C 
ATOM     30  C   UNL     1      -8.131  20.788  23.538  1.00  0.00     0.004 C 
ENDBRANCH  28  29
ENDBRANCH  27  28
ENDBRANCH  26  27
ENDBRANCH  25  26
ENDBRANCH  24  25
ENDBRANCH  23  24
ENDBRANCH  22  23
ENDBRANCH  21  22
ENDBRANCH  20  21
ENDBRANCH  19  20
ENDBRANCH  18  19
ENDBRANCH  17  18
ENDBRANCH   1  17
TORSDOF 26
ENDMDL
MODEL 2
REMARK VINA RESULT:     2.545      4.924     14.477
REMARK INTER + INTRA:           5.589
REMARK INTER:                   6.540
REMARK INTRA:                  -0.951
REMARK UNBOUND:                -0.824
REMARK SMILES CCCCCCCCCCCCCCCCCCCCCCCCCCCC(=O)[O-]
REMARK SMILES IDX 15 1 16 2 17 3 18 4 19 5 20 6 21 7 22 8 23 9 24 10 25 11
REMARK SMILES IDX 26 12 27 13 28 14 29 15 30 16 14 17 13 18 12 19 11 20 10 21
REMARK SMILES IDX 9 22 8 23 7 24 6 25 5 26 4 27 3 28 2 29 1 30
REMARK H PARENT
REMARK Flexibility Score: inf
ROOT
ATOM      1  C   UNL     1      -2.099  21.666  17.675  1.00  0.00     0.000 C 
ENDROOT
BRANCH   1   2
ATOM      2  C   UNL     1      -2.005  20.901  16.337  1.00  0.00     0.000 C 
BRANCH   2   3
ATOM      3  C   UNL     1      -3.175  19.924  16.093  1.00  0.00     0.000 C 
BRANCH   3   4
ATOM      4  C   UNL     1      -4.584  20.541  16.176  1.00  0.00     0.000 C 
BRANCH   4   5
ATOM      5  C   UNL     1      -5.525  19.875  17.197  1.00  0.00     0.000 C 
BRANCH   5   6
ATOM      6  C   UNL     1      -4.985  19.938  18.637  1.00  0.00     0.000 C 
BRANCH   6   7
ATOM      7  C   UNL     1      -5.505  21.163  19.414  1.00  0.00     0.000 C 
BRANCH   7   8
ATOM      8  C   UNL     1      -6.583  20.848  20.473  1.00  0.00     0.000 C 
BRANCH   8   9
ATOM      9  C   UNL     1      -7.708  21.896  20.572  1.00  0.00     0.000 C 
BRANCH   9  10
ATOM     10  C   UNL     1      -9.097  21.306  20.269  1.00  0.00     0.000 C 
BRANCH  10  11
ATOM     11  C   UNL     1      -9.008  19.879  19.699  1.00  0.00     0.000 C 
BRANCH  11  12
ATOM     12  C   UNL     1      -9.018  19.879  18.158  1.00  0.00     0.006 C 
BRANCH  12  13
ATOM     13  C   UNL     1      -8.864  21.291  17.575  1.00  0.00     0.053 C 
BRANCH  13  14
ATOM     14  C   UNL     1      -8.455  21.275  16.132  1.00  0.00     0.041 C 
ATOM     15  O   UNL     1      -7.812  22.240  15.639  1.00  0.00    -0.550 OA
ATOM     16  O   UNL     1      -8.807  20.200  15.324  1.00  0.00    -0.550 OA
ENDBRANCH  13  14
ENDBRANCH  12  13
ENDBRANCH  11  12
ENDBRANCH  10  11
ENDBRANCH   9  10
ENDBRANCH   8   9
ENDBRANCH   7   8
ENDBRANCH   6   7
ENDBRANCH   5   6
ENDBRANCH   4   5
ENDBRANCH   3   4
ENDBRANCH   2   3
ENDBRANCH   1   2
BRANCH   1  17
ATOM     17  C   UNL     1      -0.876  21.428  18.576  1.00  0.00     0.000 C 
BRANCH  17  18
ATOM     18  C   UNL     1      -0.326  20.005  18.400  1.00  0.00     0.000 C 
BRANCH  18  19
ATOM     19  C   UNL     1       0.560  19.877  17.147  1.00  0.00     0.000 C 
BRANCH  19  20
ATOM     20  C   UNL     1       1.097  21.243  16.681  1.00  0.00     0.000 C 
BRANCH  20  21
ATOM     21  C   UNL     1       2.176  21.116  15.584  1.00  0.00     0.000 C 
BRANCH  21  22
ATOM     22  C   UNL     1       3.363  20.220  15.983  1.00  0.00    -0.000 C 
BRANCH  22  23
ATOM     23  C   UNL     1       4.703  20.972  15.984  1.00  0.00    -0.000 C 
BRANCH  23  24
ATOM     24  C   UNL     1       5.922  20.040  15.857  1.00  0.00    -0.000 C 
BRANCH  24  25
ATOM     25  C   UNL     1       7.071  20.568  14.979  1.00  0.00    -0.000 C 
BRANCH  25  26
ATOM     26  C   UNL     1       7.098  19.936  13.577  1.00  0.00    -0.000 C 
BRANCH  26  27
ATOM     27  C   UNL     1       8.443  20.151  12.863  1.00  0.00    -0.000 C 
BRANCH  27  28
ATOM     28  C   UNL     1       9.595  20.427  13.845  1.00  0.00    -0.000 C 
BRANCH  28  29
ATOM     29  C   UNL     1      10.562  21.501  13.327  1.00  0.00    -0.003 C 
ATOM     30  C   UNL     1      10.570  21.596  11.801  1.00  0.00     0.004 C 
ENDBRANCH  28  29
ENDBRANCH  27  28
ENDBRANCH  26  27
ENDBRANCH  25  26
ENDBRANCH  24  25
ENDBRANCH  23  24
ENDBRANCH  22  23
ENDBRANCH  21  22
ENDBRANCH  20  21
ENDBRANCH  19  20
ENDBRANCH  18  19
ENDBRANCH  17  18
ENDBRANCH   1  17
TORSDOF 26
ENDMDL
MODEL 3
REMARK VINA RESULT:     2.859      5.280     15.705
REMARK INTER + INTRA:           6.381
REMARK INTER:                   7.360
REMARK INTRA:                  -0.978
REMARK UNBOUND:                -0.824
REMARK SMILES CCCCCCCCCCCCCCCCCCCCCCCCCCCC(=O)[O-]
REMARK SMILES IDX 15 1 16 2 17 3 18 4 19 5 20 6 21 7 22 8 23 9 24 10 25 11
REMARK SMILES IDX 26 12 27 13 28 14 29 15 30 16 14 17 13 18 12 19 11 20 10 21
REMARK SMILES IDX 9 22 8 23 7 24 6 25 5 26 4 27 3 28 2 29 1 30
REMARK H PARENT
REMARK Flexibility Score: inf
ROOT
ATOM      1  C   UNL     1       2.250  20.989  15.854  1.00  0.00     0.000 C 
ENDROOT
BRANCH   1   2
ATOM      2  C   UNL     1       1.396  20.379  16.987  1.00  0.00     0.000 C 
BRANCH   2   3
ATOM      3  C   UNL     1       0.084  21.143  17.261  1.00  0.00     0.000 C 
BRANCH   3   4
ATOM      4  C   UNL     1      -0.479  21.944  16.071  1.00  0.00     0.000 C 
BRANCH   4   5
ATOM      5  C   UNL     1      -1.473  21.174  15.182  1.00  0.00     0.000 C 
BRANCH   5   6
ATOM      6  C   UNL     1      -2.935  21.596  15.418  1.00  0.00     0.000 C 
BRANCH   6   7
ATOM      7  C   UNL     1      -3.939  20.477  15.078  1.00  0.00     0.000 C 
BRANCH   7   8
ATOM      8  C   UNL     1      -5.271  20.966  14.469  1.00  0.00     0.000 C 
BRANCH   8   9
ATOM      9  C   UNL     1      -6.507  20.154  14.900  1.00  0.00     0.000 C 
BRANCH   9  10
ATOM     10  C   UNL     1      -7.611  21.035  15.511  1.00  0.00     0.000 C 
BRANCH  10  11
ATOM     11  C   UNL     1      -7.848  20.717  16.998  1.00  0.00     0.000 C 
BRANCH  11  12
ATOM     12  C   UNL     1      -8.932  21.625  17.609  1.00  0.00     0.006 C 
BRANCH  12  13
ATOM     13  C   UNL     1      -9.125  21.371  19.111  1.00  0.00     0.053 C 
BRANCH  13  14
ATOM     14  C   UNL     1      -7.924  21.763  19.918  1.00  0.00     0.041 C 
ATOM     15  O   UNL     1      -7.308  22.834  19.669  1.00  0.00    -0.550 OA
ATOM     16  O   UNL     1      -7.468  20.931  20.934  1.00  0.00    -0.550 OA
ENDBRANCH  13  14
ENDBRANCH  12  13
ENDBRANCH  11  12
ENDBRANCH  10  11
ENDBRANCH   9  10
ENDBRANCH   8   9
ENDBRANCH   7   8
ENDBRANCH   6   7
ENDBRANCH   5   6
ENDBRANCH   4   5
ENDBRANCH   3   4
ENDBRANCH   2   3
ENDBRANCH   1   2
BRANCH   1  17
ATOM     17  C   UNL     1       3.039  19.925  15.074  1.00  0.00     0.000 C 
BRANCH  17  18
ATOM     18  C   UNL     1       4.506  19.881  15.526  1.00  0.00     0.000 C 
BRANCH  18  19
ATOM     19  C   UNL     1       5.358  20.963  14.837  1.00  0.00     0.000 C 
BRANCH  19  20
ATOM     20  C   UNL     1       6.604  21.327  15.664  1.00  0.00     0.000 C 
BRANCH  20  21
ATOM     21  C   UNL     1       7.922  21.071  14.901  1.00  0.00     0.000 C 
BRANCH  21  22
ATOM     22  C   UNL     1       9.140  21.787  15.511  1.00  0.00    -0.000 C 
BRANCH  22  23
ATOM     23  C   UNL     1      10.441  20.985  15.359  1.00  0.00    -0.000 C 
BRANCH  23  24
ATOM     24  C   UNL     1      10.359  19.894  14.275  1.00  0.00    -0.000 C 
BRANCH  24  25
ATOM     25  C   UNL     1      11.112  20.200  12.968  1.00  0.00    -0.000 C 
BRANCH  25  26
ATOM     26  C   UNL     1      10.254  19.980  11.711  1.00  0.00    -0.000 C 
BRANCH  26  27
ATOM     27  C   UNL     1      11.054  20.179  10.413  1.00  0.00    -0.000 C 
BRANCH  27  28
ATOM     28  C   UNL     1      10.512  21.338   9.557  1.00  0.00    -0.000 C 
BRANCH  28  29
ATOM     29  C   UNL     1       9.517  20.861   8.489  1.00  0.00    -0.003 C 
ATOM     30  C   UNL     1       8.322  20.121   9.089  1.00  0.00     0.004 C 
ENDBRANCH  28  29
ENDBRANCH  27  28
ENDBRANCH  26  27
ENDBRANCH  25  26
ENDBRANCH  24  25
ENDBRANCH  23  24
ENDBRANCH  22  23
ENDBRANCH  21  22
ENDBRANCH  20  21
ENDBRANCH  19  20
ENDBRANCH  18  19
ENDBRANCH  17  18
ENDBRANCH   1  17
TORSDOF 26
ENDMDL
MODEL 4
REMARK VINA RESULT:     3.154      4.937     15.327
REMARK INTER + INTRA:           7.125
REMARK INTER:                   3.207
REMARK INTRA:                   3.918
REMARK UNBOUND:                -0.824
REMARK SMILES CCCCCCCCCCCCCCCCCCCCCCCCCCCC(=O)[O-]
REMARK SMILES IDX 15 1 16 2 17 3 18 4 19 5 20 6 21 7 22 8 23 9 24 10 25 11
REMARK SMILES IDX 26 12 27 13 28 14 29 15 30 16 14 17 13 18 12 19 11 20 10 21
REMARK SMILES IDX 9 22 8 23 7 24 6 25 5 26 4 27 3 28 2 29 1 30
REMARK H PARENT
REMARK Flexibility Score: inf
ROOT
ATOM      1  C   UNL     1       6.568  21.127  16.553  1.00  0.00     0.000 C 
ENDROOT
BRANCH   1   2
ATOM      2  C   UNL     1       5.171  21.578  16.074  1.00  0.00     0.000 C 
BRANCH   2   3
ATOM      3  C   UNL     1       4.233  20.412  15.700  1.00  0.00     0.000 C 
BRANCH   3   4
ATOM      4  C   UNL     1       2.805  20.815  15.283  1.00  0.00     0.000 C 
BRANCH   4   5
ATOM      5  C   UNL     1       1.705  20.448  16.297  1.00  0.00     0.000 C 
BRANCH   5   6
ATOM      6  C   UNL     1       0.289  20.542  15.701  1.00  0.00     0.000 C 
BRANCH   6   7
ATOM      7  C   UNL     1      -0.777  19.876  16.592  1.00  0.00     0.000 C 
BRANCH   7   8
ATOM      8  C   UNL     1      -0.995  20.557  17.960  1.00  0.00     0.000 C 
BRANCH   8   9
ATOM      9  C   UNL     1      -2.443  21.011  18.226  1.00  0.00     0.000 C 
BRANCH   9  10
ATOM     10  C   UNL     1      -3.473  19.904  17.940  1.00  0.00     0.000 C 
BRANCH  10  11
ATOM     11  C   UNL     1      -4.687  19.986  18.882  1.00  0.00     0.000 C 
BRANCH  11  12
ATOM     12  C   UNL     1      -6.016  19.946  18.103  1.00  0.00     0.006 C 
BRANCH  12  13
ATOM     13  C   UNL     1      -5.830  20.280  16.616  1.00  0.00     0.053 C 
BRANCH  13  14
ATOM     14  C   UNL     1      -7.125  20.606  15.934  1.00  0.00     0.041 C 
ATOM     15  O   UNL     1      -7.139  21.321  14.897  1.00  0.00    -0.550 OA
ATOM     16  O   UNL     1      -8.323  20.137  16.461  1.00  0.00    -0.550 OA
ENDBRANCH  13  14
ENDBRANCH  12  13
ENDBRANCH  11  12
ENDBRANCH  10  11
ENDBRANCH   9  10
ENDBRANCH   8   9
ENDBRANCH   7   8
ENDBRANCH   6   7
ENDBRANCH   5   6
ENDBRANCH   4   5
ENDBRANCH   3   4
ENDBRANCH   2   3
ENDBRANCH   1   2
BRANCH   1  17
ATOM     17  C   UNL     1       7.637  21.256  15.456  1.00  0.00     0.000 C 
BRANCH  17  18
ATOM     18  C   UNL     1       7.606  20.049  14.507  1.00  0.00     0.000 C 
BRANCH  18  19
ATOM     19  C   UNL     1       8.927  19.885  13.736  1.00  0.00     0.000 C 
BRANCH  19  20
ATOM     20  C   UNL     1      10.113  20.525  14.483  1.00  0.00     0.000 C 
BRANCH  20  21
ATOM     21  C   UNL     1       9.701  21.141  15.837  1.00  0.00     0.000 C 
BRANCH  21  22
ATOM     22  C   UNL     1      10.250  22.561  16.064  1.00  0.00    -0.000 C 
BRANCH  22  23
ATOM     23  C   UNL     1      11.047  23.090  14.863  1.00  0.00    -0.000 C 
BRANCH  23  24
ATOM     24  C   UNL     1      10.553  22.537  13.514  1.00  0.00    -0.000 C 
BRANCH  24  25
ATOM     25  C   UNL     1      11.033  23.302  12.268  1.00  0.00    -0.000 C 
BRANCH  25  26
ATOM     26  C   UNL     1      10.763  22.548  10.954  1.00  0.00    -0.000 C 
BRANCH  26  27
ATOM     27  C   UNL     1      10.310  21.098  11.193  1.00  0.00    -0.000 C 
BRANCH  27  28
ATOM     28  C   UNL     1       9.928  20.377   9.888  1.00  0.00    -0.000 C 
BRANCH  28  29
ATOM     29  C   UNL     1      11.125  20.208   8.941  1.00  0.00    -0.003 C 
ATOM     30  C   UNL     1      10.707  20.159   7.471  1.00  0.00     0.004 C 
ENDBRANCH  28  29
ENDBRANCH  27  28
ENDBRANCH  26  27
ENDBRANCH  25  26
ENDBRANCH  24  25
ENDBRANCH  23  24
ENDBRANCH  22  23
ENDBRANCH  21  22
ENDBRANCH  20  21
ENDBRANCH  19  20
ENDBRANCH  18  19
ENDBRANCH  17  18
ENDBRANCH   1  17
TORSDOF 26
ENDMDL
