MODEL 1
REMARK VINA RESULT:    -5.113      0.000      0.000
REMARK INTER + INTRA:          -5.919
REMARK INTER:                  -5.561
REMARK INTRA:                  -0.358
REMARK UNBOUND:                -0.358
REMARK SMILES C=C1C[C@]2(O)O[C@]3(C[C@@H]2C(C)C)[C@H](C)CC[C@@H]13
REMARK SMILES IDX 14 1 13 2 15 3 16 4 17 5 7 6 8 7 9 8 4 9 6 10 3 11 2 12 1 13
REMARK SMILES IDX 10 14 11 15 12 16 5 17
REMARK H PARENT 5 18
REMARK Flexibility Score: inf
ROOT
ATOM      1  C   UNL     1     -12.943  17.598 -11.149  1.00  0.00     0.011 C 
ATOM      2  C   UNL     1     -12.383  18.551 -10.080  1.00  0.00     0.019 C 
ATOM      3  C   UNL     1     -13.010  19.966 -10.185  1.00  0.00     0.007 C 
ATOM      4  C   UNL     1     -11.926  20.913 -10.740  1.00  0.00     0.011 C 
ATOM      5  C   UNL     1     -10.829  19.976 -11.220  1.00  0.00     0.047 C 
ATOM      6  C   UNL     1     -10.873  18.809 -10.235  1.00  0.00     0.081 C 
ATOM      7  C   UNL     1     -10.206  19.125  -8.862  1.00  0.00     0.046 C 
ATOM      8  C   UNL     1      -8.849  18.443  -8.982  1.00  0.00     0.054 C 
ATOM      9  C   UNL     1      -8.779  18.130 -10.489  1.00  0.00     0.173 C 
ATOM     10  O   UNL     1     -10.113  17.771 -10.815  1.00  0.00    -0.342 OA
ATOM     11  C   UNL     1      -8.340  19.357 -11.370  1.00  0.00     0.096 C 
ATOM     12  C   UNL     1      -9.405  20.448 -11.375  1.00  0.00    -0.066 C 
ATOM     13  C   UNL     1      -9.105  21.702 -11.740  1.00  0.00     0.008 C 
ENDROOT
BRANCH   8  14
ATOM     14  C   UNL     1      -7.609  19.142  -8.316  1.00  0.00    -0.009 C 
ATOM     15  C   UNL     1      -7.795  20.622  -7.935  1.00  0.00     0.008 C 
ATOM     16  C   UNL     1      -7.164  18.363  -7.068  1.00  0.00     0.008 C 
ENDBRANCH   8  14
BRANCH   9  17
ATOM     17  O   UNL     1      -7.945  17.025 -10.734  1.00  0.00    -0.365 OA
ATOM     18  H   UNL     1      -7.034  17.369 -10.918  1.00  0.00     0.214 HD
ENDBRANCH   9  17
TORSDOF 2
ENDMDL
MODEL 2
REMARK VINA RESULT:    -5.028      1.866      3.412
REMARK INTER + INTRA:          -5.827
REMARK INTER:                  -5.477
REMARK INTRA:                  -0.350
REMARK UNBOUND:                -0.358
REMARK SMILES C=C1C[C@]2(O)O[C@]3(C[C@@H]2C(C)C)[C@H](C)CC[C@@H]13
REMARK SMILES IDX 14 1 13 2 15 3 16 4 17 5 7 6 8 7 9 8 4 9 6 10 3 11 2 12 1 13
REMARK SMILES IDX 10 14 11 15 12 16 5 17
REMARK H PARENT 5 18
REMARK Flexibility Score: inf
ROOT
ATOM      1  C   UNL     1     -11.148  22.593 -10.556  1.00  0.00     0.011 C 
ATOM      2  C   UNL     1     -11.010  21.512  -9.472  1.00  0.00     0.019 C 
ATOM      3  C   UNL     1     -10.218  22.028  -8.242  1.00  0.00     0.007 C 
ATOM      4  C   UNL     1      -8.837  21.342  -8.258  1.00  0.00     0.011 C 
ATOM      5  C   UNL     1      -8.759  20.704  -9.636  1.00  0.00     0.047 C 
ATOM      6  C   UNL     1     -10.198  20.290  -9.941  1.00  0.00     0.081 C 
ATOM      7  C   UNL     1     -10.645  18.993  -9.202  1.00  0.00     0.046 C 
ATOM      8  C   UNL     1     -10.540  17.932 -10.290  1.00  0.00     0.054 C 
ATOM      9  C   UNL     1      -9.740  18.670 -11.381  1.00  0.00     0.173 C 
ATOM     10  O   UNL     1     -10.243  19.995 -11.320  1.00  0.00    -0.342 OA
ATOM     11  C   UNL     1      -8.189  18.689 -11.125  1.00  0.00     0.096 C 
ATOM     12  C   UNL     1      -7.835  19.544  -9.913  1.00  0.00    -0.066 C 
ATOM     13  C   UNL     1      -6.652  19.413  -9.298  1.00  0.00     0.008 C 
ENDROOT
BRANCH   8  14
ATOM     14  C   UNL     1     -10.065  16.492  -9.876  1.00  0.00    -0.009 C 
ATOM     15  C   UNL     1      -9.640  16.320  -8.405  1.00  0.00     0.008 C 
ATOM     16  C   UNL     1     -11.155  15.458 -10.198  1.00  0.00     0.008 C 
ENDBRANCH   8  14
BRANCH   9  17
ATOM     17  O   UNL     1     -10.023  18.142 -12.653  1.00  0.00    -0.365 OA
ATOM     18  H   UNL     1      -9.751  18.816 -13.327  1.00  0.00     0.214 HD
ENDBRANCH   9  17
TORSDOF 2
ENDMDL
MODEL 3
REMARK VINA RESULT:    -4.610      1.645      2.041
REMARK INTER + INTRA:          -5.372
REMARK INTER:                  -5.024
REMARK INTRA:                  -0.349
REMARK UNBOUND:                -0.358
REMARK SMILES C=C1C[C@]2(O)O[C@]3(C[C@@H]2C(C)C)[C@H](C)CC[C@@H]13
REMARK SMILES IDX 14 1 13 2 15 3 16 4 17 5 7 6 8 7 9 8 4 9 6 10 3 11 2 12 1 13
REMARK SMILES IDX 10 14 11 15 12 16 5 17
REMARK H PARENT 5 18
REMARK Flexibility Score: inf
ROOT
ATOM      1  C   UNL     1     -13.124  20.452  -8.746  1.00  0.00     0.011 C 
ATOM      2  C   UNL     1     -11.750  20.916  -8.234  1.00  0.00     0.019 C 
ATOM      3  C   UNL     1     -11.646  22.463  -8.186  1.00  0.00     0.007 C 
ATOM      4  C   UNL     1     -10.703  22.900  -9.326  1.00  0.00     0.011 C 
ATOM      5  C   UNL     1     -10.543  21.647 -10.172  1.00  0.00     0.047 C 
ATOM      6  C   UNL     1     -10.593  20.501  -9.162  1.00  0.00     0.081 C 
ATOM      7  C   UNL     1      -9.266  20.313  -8.366  1.00  0.00     0.046 C 
ATOM      8  C   UNL     1      -8.618  19.125  -9.067  1.00  0.00     0.054 C 
ATOM      9  C   UNL     1      -9.464  19.011 -10.350  1.00  0.00     0.173 C 
ATOM     10  O   UNL     1     -10.777  19.319  -9.911  1.00  0.00    -0.342 OA
ATOM     11  C   UNL     1      -9.041  20.022 -11.478  1.00  0.00     0.096 C 
ATOM     12  C   UNL     1      -9.354  21.460 -11.082  1.00  0.00    -0.066 C 
ATOM     13  C   UNL     1      -8.763  22.491 -11.702  1.00  0.00     0.008 C 
ENDROOT
BRANCH   8  14
ATOM     14  C   UNL     1      -7.054  19.116  -9.212  1.00  0.00    -0.009 C 
ATOM     15  C   UNL     1      -6.353  20.477  -9.039  1.00  0.00     0.008 C 
ATOM     16  C   UNL     1      -6.433  18.113  -8.226  1.00  0.00     0.008 C 
ENDBRANCH   8  14
BRANCH   9  17
ATOM     17  O   UNL     1      -9.454  17.693 -10.841  1.00  0.00    -0.365 OA
ATOM     18  H   UNL     1      -8.521  17.473 -11.098  1.00  0.00     0.214 HD
ENDBRANCH   9  17
TORSDOF 2
ENDMDL
MODEL 4
REMARK VINA RESULT:    -4.567      2.533      4.751
REMARK INTER + INTRA:          -5.325
REMARK INTER:                  -4.964
REMARK INTRA:                  -0.361
REMARK UNBOUND:                -0.358
REMARK SMILES C=C1C[C@]2(O)O[C@]3(C[C@@H]2C(C)C)[C@H](C)CC[C@@H]13
REMARK SMILES IDX 14 1 13 2 15 3 16 4 17 5 7 6 8 7 9 8 4 9 6 10 3 11 2 12 1 13
REMARK SMILES IDX 10 14 11 15 12 16 5 17
REMARK H PARENT 5 18
REMARK Flexibility Score: inf
ROOT
ATOM      1  C   UNL     1      -5.637  20.332  -9.065  1.00  0.00     0.011 C 
ATOM      2  C   UNL     1      -7.009  19.779  -8.645  1.00  0.00     0.019 C 
ATOM      3  C   UNL     1      -7.192  18.301  -9.081  1.00  0.00     0.007 C 
ATOM      4  C   UNL     1      -8.206  18.282 -10.243  1.00  0.00     0.011 C 
ATOM      5  C   UNL     1      -8.339  19.744 -10.640  1.00  0.00     0.047 C 
ATOM      6  C   UNL     1      -8.184  20.508  -9.326  1.00  0.00     0.081 C 
ATOM      7  C   UNL     1      -9.462  20.480  -8.434  1.00  0.00     0.046 C 
ATOM      8  C   UNL     1     -10.078  21.851  -8.686  1.00  0.00     0.054 C 
ATOM      9  C   UNL     1      -9.285  22.337  -9.915  1.00  0.00     0.173 C 
ATOM     10  O   UNL     1      -7.972  21.858  -9.674  1.00  0.00    -0.342 OA
ATOM     11  C   UNL     1      -9.810  21.751 -11.278  1.00  0.00     0.096 C 
ATOM     12  C   UNL     1      -9.555  20.251 -11.374  1.00  0.00    -0.066 C 
ATOM     13  C   UNL     1     -10.226  19.493 -12.251  1.00  0.00     0.008 C 
ENDROOT
BRANCH   8  14
ATOM     14  C   UNL     1     -11.644  21.961  -8.729  1.00  0.00    -0.009 C 
ATOM     15  C   UNL     1     -12.414  20.627  -8.744  1.00  0.00     0.008 C 
ATOM     16  C   UNL     1     -12.151  22.810  -7.552  1.00  0.00     0.008 C 
ENDBRANCH   8  14
BRANCH   9  17
ATOM     17  O   UNL     1      -9.248  23.741  -9.965  1.00  0.00    -0.365 OA
ATOM     18  H   UNL     1     -10.156  24.076  -9.747  1.00  0.00     0.214 HD
ENDBRANCH   9  17
TORSDOF 2
ENDMDL
MODEL 5
REMARK VINA RESULT:    -4.519      2.349      3.100
REMARK INTER + INTRA:          -5.274
REMARK INTER:                  -4.915
REMARK INTRA:                  -0.359
REMARK UNBOUND:                -0.358
REMARK SMILES C=C1C[C@]2(O)O[C@]3(C[C@@H]2C(C)C)[C@H](C)CC[C@@H]13
REMARK SMILES IDX 14 1 13 2 15 3 16 4 17 5 7 6 8 7 9 8 4 9 6 10 3 11 2 12 1 13
REMARK SMILES IDX 10 14 11 15 12 16 5 17
REMARK H PARENT 5 18
REMARK Flexibility Score: inf
ROOT
ATOM      1  C   UNL     1     -10.130  16.887  -9.750  1.00  0.00     0.011 C 
ATOM      2  C   UNL     1     -11.001  18.155  -9.732  1.00  0.00     0.019 C 
ATOM      3  C   UNL     1     -11.666  18.416 -11.109  1.00  0.00     0.007 C 
ATOM      4  C   UNL     1     -10.960  19.632 -11.743  1.00  0.00     0.011 C 
ATOM      5  C   UNL     1      -9.730  19.838 -10.872  1.00  0.00     0.047 C 
ATOM      6  C   UNL     1     -10.188  19.438  -9.471  1.00  0.00     0.081 C 
ATOM      7  C   UNL     1     -11.054  20.524  -8.763  1.00  0.00     0.046 C 
ATOM      8  C   UNL     1     -10.061  21.177  -7.810  1.00  0.00     0.054 C 
ATOM      9  C   UNL     1      -8.715  20.632  -8.326  1.00  0.00     0.173 C 
ATOM     10  O   UNL     1      -9.018  19.296  -8.696  1.00  0.00    -0.342 OA
ATOM     11  C   UNL     1      -8.158  21.404  -9.578  1.00  0.00     0.096 C 
ATOM     12  C   UNL     1      -9.028  21.171 -10.808  1.00  0.00    -0.066 C 
ATOM     13  C   UNL     1      -8.966  21.995 -11.862  1.00  0.00     0.008 C 
ENDROOT
BRANCH   8  14
ATOM     14  C   UNL     1     -10.182  22.723  -7.561  1.00  0.00    -0.009 C 
ATOM     15  C   UNL     1     -11.051  23.501  -8.567  1.00  0.00     0.008 C 
ATOM     16  C   UNL     1     -10.707  22.995  -6.142  1.00  0.00     0.008 C 
ENDBRANCH   8  14
BRANCH   9  17
ATOM     17  O   UNL     1      -7.757  20.605  -7.297  1.00  0.00    -0.365 OA
ATOM     18  H   UNL     1      -7.281  19.737  -7.350  1.00  0.00     0.214 HD
ENDBRANCH   9  17
TORSDOF 2
ENDMDL
MODEL 6
REMARK VINA RESULT:    -4.236      1.920      4.582
REMARK INTER + INTRA:          -4.965
REMARK INTER:                  -4.605
REMARK INTRA:                  -0.360
REMARK UNBOUND:                -0.358
REMARK SMILES C=C1C[C@]2(O)O[C@]3(C[C@@H]2C(C)C)[C@H](C)CC[C@@H]13
REMARK SMILES IDX 14 1 13 2 15 3 16 4 17 5 7 6 8 7 9 8 4 9 6 10 3 11 2 12 1 13
REMARK SMILES IDX 10 14 11 15 12 16 5 17
REMARK H PARENT 5 18
REMARK Flexibility Score: inf
ROOT
ATOM      1  C   UNL     1      -6.350  19.581  -9.304  1.00  0.00     0.011 C 
ATOM      2  C   UNL     1      -7.681  19.454  -8.543  1.00  0.00     0.019 C 
ATOM      3  C   UNL     1      -7.949  17.994  -8.092  1.00  0.00     0.007 C 
ATOM      4  C   UNL     1      -9.087  17.438  -8.972  1.00  0.00     0.011 C 
ATOM      5  C   UNL     1      -9.225  18.464 -10.086  1.00  0.00     0.047 C 
ATOM      6  C   UNL     1      -8.905  19.798  -9.412  1.00  0.00     0.081 C 
ATOM      7  C   UNL     1     -10.075  20.358  -8.549  1.00  0.00     0.046 C 
ATOM      8  C   UNL     1     -10.680  21.425  -9.453  1.00  0.00     0.054 C 
ATOM      9  C   UNL     1     -10.018  21.109 -10.808  1.00  0.00     0.173 C 
ATOM     10  O   UNL     1      -8.698  20.729 -10.452  1.00  0.00    -0.342 OA
ATOM     11  C   UNL     1     -10.707  19.930 -11.589  1.00  0.00     0.096 C 
ATOM     12  C   UNL     1     -10.503  18.597 -10.877  1.00  0.00    -0.066 C 
ATOM     13  C   UNL     1     -11.286  17.544 -11.147  1.00  0.00     0.008 C 
ENDROOT
BRANCH   8  14
ATOM     14  C   UNL     1     -12.239  21.623  -9.422  1.00  0.00    -0.009 C 
ATOM     15  C   UNL     1     -13.037  20.565  -8.637  1.00  0.00     0.008 C 
ATOM     16  C   UNL     1     -12.588  23.014  -8.871  1.00  0.00     0.008 C 
ENDBRANCH   8  14
BRANCH   9  17
ATOM     17  O   UNL     1      -9.951  22.260 -11.613  1.00  0.00    -0.365 OA
ATOM     18  H   UNL     1     -10.785  22.778 -11.470  1.00  0.00     0.214 HD
ENDBRANCH   9  17
TORSDOF 2
ENDMDL
MODEL 7
REMARK VINA RESULT:    -4.230      2.125      5.052
REMARK INTER + INTRA:          -4.959
REMARK INTER:                  -4.601
REMARK INTRA:                  -0.359
REMARK UNBOUND:                -0.358
REMARK SMILES C=C1C[C@]2(O)O[C@]3(C[C@@H]2C(C)C)[C@H](C)CC[C@@H]13
REMARK SMILES IDX 14 1 13 2 15 3 16 4 17 5 7 6 8 7 9 8 4 9 6 10 3 11 2 12 1 13
REMARK SMILES IDX 10 14 11 15 12 16 5 17
REMARK H PARENT 5 18
REMARK Flexibility Score: inf
ROOT
ATOM      1  C   UNL     1      -8.220  18.618 -10.401  1.00  0.00     0.011 C 
ATOM      2  C   UNL     1      -8.430  20.141 -10.405  1.00  0.00     0.019 C 
ATOM      3  C   UNL     1      -7.567  20.844  -9.324  1.00  0.00     0.007 C 
ATOM      4  C   UNL     1      -8.519  21.316  -8.205  1.00  0.00     0.011 C 
ATOM      5  C   UNL     1      -9.831  20.613  -8.518  1.00  0.00     0.047 C 
ATOM      6  C   UNL     1      -9.871  20.550 -10.044  1.00  0.00     0.081 C 
ATOM      7  C   UNL     1     -10.263  21.901 -10.715  1.00  0.00     0.046 C 
ATOM      8  C   UNL     1     -11.728  21.685 -11.074  1.00  0.00     0.054 C 
ATOM      9  C   UNL     1     -12.069  20.412 -10.276  1.00  0.00     0.173 C 
ATOM     10  O   UNL     1     -10.889  19.631 -10.377  1.00  0.00    -0.342 OA
ATOM     11  C   UNL     1     -12.388  20.681  -8.760  1.00  0.00     0.096 C 
ATOM     12  C   UNL     1     -11.147  21.142  -8.004  1.00  0.00    -0.066 C 
ATOM     13  C   UNL     1     -11.251  21.768  -6.824  1.00  0.00     0.008 C 
ENDROOT
BRANCH   8  14
ATOM     14  C   UNL     1     -12.706  22.910 -10.959  1.00  0.00    -0.009 C 
ATOM     15  C   UNL     1     -12.188  24.111 -10.145  1.00  0.00     0.008 C 
ATOM     16  C   UNL     1     -13.112  23.401 -12.358  1.00  0.00     0.008 C 
ENDBRANCH   8  14
BRANCH   9  17
ATOM     17  O   UNL     1     -13.124  19.707 -10.884  1.00  0.00    -0.365 OA
ATOM     18  H   UNL     1     -12.729  19.079 -11.541  1.00  0.00     0.214 HD
ENDBRANCH   9  17
TORSDOF 2
ENDMDL
MODEL 8
REMARK VINA RESULT:    -4.197      1.980      4.455
REMARK INTER + INTRA:          -4.923
REMARK INTER:                  -4.560
REMARK INTRA:                  -0.362
REMARK UNBOUND:                -0.358
REMARK SMILES C=C1C[C@]2(O)O[C@]3(C[C@@H]2C(C)C)[C@H](C)CC[C@@H]13
REMARK SMILES IDX 14 1 13 2 15 3 16 4 17 5 7 6 8 7 9 8 4 9 6 10 3 11 2 12 1 13
REMARK SMILES IDX 10 14 11 15 12 16 5 17
REMARK H PARENT 5 18
REMARK Flexibility Score: inf
ROOT
ATOM      1  C   UNL     1     -10.203  16.567  -9.630  1.00  0.00     0.011 C 
ATOM      2  C   UNL     1      -9.771  17.768 -10.488  1.00  0.00     0.019 C 
ATOM      3  C   UNL     1      -8.228  17.855 -10.622  1.00  0.00     0.007 C 
ATOM      4  C   UNL     1      -7.755  19.052  -9.773  1.00  0.00     0.011 C 
ATOM      5  C   UNL     1      -8.976  19.422  -8.946  1.00  0.00     0.047 C 
ATOM      6  C   UNL     1     -10.160  19.122  -9.865  1.00  0.00     0.081 C 
ATOM      7  C   UNL     1     -10.390  20.206 -10.960  1.00  0.00     0.046 C 
ATOM      8  C   UNL     1     -11.555  21.011 -10.398  1.00  0.00     0.054 C 
ATOM      9  C   UNL     1     -11.612  20.515  -8.940  1.00  0.00     0.173 C 
ATOM     10  O   UNL     1     -11.310  19.133  -9.048  1.00  0.00    -0.342 OA
ATOM     11  C   UNL     1     -10.562  21.206  -7.995  1.00  0.00     0.096 C 
ATOM     12  C   UNL     1      -9.138  20.801  -8.356  1.00  0.00    -0.066 C 
ATOM     13  C   UNL     1      -8.089  21.527  -7.945  1.00  0.00     0.008 C 
ENDROOT
BRANCH   8  14
ATOM     14  C   UNL     1     -11.572  22.562 -10.649  1.00  0.00    -0.009 C 
ATOM     15  C   UNL     1     -10.259  23.174 -11.173  1.00  0.00     0.008 C 
ATOM     16  C   UNL     1     -12.709  22.933 -11.615  1.00  0.00     0.008 C 
ENDBRANCH   8  14
BRANCH   9  17
ATOM     17  O   UNL     1     -12.910  20.650  -8.416  1.00  0.00    -0.365 OA
ATOM     18  H   UNL     1     -13.535  20.190  -9.034  1.00  0.00     0.214 HD
ENDBRANCH   9  17
TORSDOF 2
ENDMDL
MODEL 9
REMARK VINA RESULT:    -4.135      1.639      2.667
REMARK INTER + INTRA:          -4.856
REMARK INTER:                  -4.748
REMARK INTRA:                  -0.108
REMARK UNBOUND:                -0.358
REMARK SMILES C=C1C[C@]2(O)O[C@]3(C[C@@H]2C(C)C)[C@H](C)CC[C@@H]13
REMARK SMILES IDX 14 1 13 2 15 3 16 4 17 5 7 6 8 7 9 8 4 9 6 10 3 11 2 12 1 13
REMARK SMILES IDX 10 14 11 15 12 16 5 17
REMARK H PARENT 5 18
REMARK Flexibility Score: inf
ROOT
ATOM      1  C   UNL     1     -10.092  18.879 -12.363  1.00  0.00     0.011 C 
ATOM      2  C   UNL     1     -10.329  18.351 -10.939  1.00  0.00     0.019 C 
ATOM      3  C   UNL     1     -11.639  18.914 -10.327  1.00  0.00     0.007 C 
ATOM      4  C   UNL     1     -11.243  19.935  -9.241  1.00  0.00     0.011 C 
ATOM      5  C   UNL     1      -9.756  20.155  -9.468  1.00  0.00     0.047 C 
ATOM      6  C   UNL     1      -9.241  18.798  -9.944  1.00  0.00     0.081 C 
ATOM      7  C   UNL     1      -9.063  17.760  -8.794  1.00  0.00     0.046 C 
ATOM      8  C   UNL     1      -7.560  17.787  -8.547  1.00  0.00     0.054 C 
ATOM      9  C   UNL     1      -7.130  19.047  -9.322  1.00  0.00     0.173 C 
ATOM     10  O   UNL     1      -7.955  19.025 -10.476  1.00  0.00    -0.342 OA
ATOM     11  C   UNL     1      -7.373  20.387  -8.535  1.00  0.00     0.096 C 
ATOM     12  C   UNL     1      -8.861  20.673  -8.369  1.00  0.00    -0.066 C 
ATOM     13  C   UNL     1      -9.299  21.534  -7.441  1.00  0.00     0.008 C 
ENDROOT
BRANCH   8  14
ATOM     14  C   UNL     1      -7.051  17.620  -7.070  1.00  0.00    -0.009 C 
ATOM     15  C   UNL     1      -7.858  16.653  -6.184  1.00  0.00     0.008 C 
ATOM     16  C   UNL     1      -5.577  17.185  -7.060  1.00  0.00     0.008 C 
ENDBRANCH   8  14
BRANCH   9  17
ATOM     17  O   UNL     1      -5.787  18.952  -9.729  1.00  0.00    -0.365 OA
ATOM     18  H   UNL     1      -5.405  19.867  -9.723  1.00  0.00     0.214 HD
ENDBRANCH   9  17
TORSDOF 2
ENDMDL
