MODEL 1
REMARK VINA RESULT:    -0.502      0.000      0.000
REMARK INTER + INTRA:          -1.633
REMARK INTER:                  -0.912
REMARK INTRA:                  -0.721
REMARK UNBOUND:                -0.721
REMARK SMILES CCCCCCCCCCCCCC[C@H](C)C(=O)[O-]
REMARK SMILES IDX 9 1 10 2 11 3 12 4 13 5 14 6 15 7 16 8 17 9 18 10 19 11 8 12
REMARK SMILES IDX 7 13 6 14 5 15 4 16 3 17 2 18 1 19
REMARK H PARENT
REMARK Flexibility Score: inf
ROOT
ATOM      1  C   UNL     1      -8.390  51.162  -4.133  1.00  0.00     0.000 C 
ENDROOT
BRANCH   1   2
ATOM      2  C   UNL     1      -8.946  52.053  -5.263  1.00  0.00     0.000 C 
BRANCH   2   3
ATOM      3  C   UNL     1      -8.556  51.620  -6.688  1.00  0.00     0.000 C 
BRANCH   3   4
ATOM      4  C   UNL     1      -7.163  52.122  -7.104  1.00  0.00     0.000 C 
BRANCH   4   5
ATOM      5  C   UNL     1      -6.941  52.055  -8.624  1.00  0.00     0.001 C 
BRANCH   5   6
ATOM      6  C   UNL     1      -5.752  51.158  -9.012  1.00  0.00     0.009 C 
BRANCH   6   7
ATOM      7  C   UNL     1      -4.396  51.861  -8.789  1.00  0.00     0.032 C 
ATOM      8  C   UNL     1      -3.476  51.657  -9.997  1.00  0.00     0.014 C 
BRANCH   7   9
ATOM      9  C   UNL     1      -3.717  51.368  -7.539  1.00  0.00     0.044 C 
ATOM     10  O   UNL     1      -2.950  52.124  -6.885  1.00  0.00    -0.550 OA
ATOM     11  O   UNL     1      -3.938  50.069  -7.097  1.00  0.00    -0.550 OA
ENDBRANCH   7   9
ENDBRANCH   6   7
ENDBRANCH   5   6
ENDBRANCH   4   5
ENDBRANCH   3   4
ENDBRANCH   2   3
ENDBRANCH   1   2
BRANCH   1  12
ATOM     12  C   UNL     1      -7.927  51.917  -2.870  1.00  0.00     0.000 C 
BRANCH  12  13
ATOM     13  C   UNL     1      -8.951  51.948  -1.721  1.00  0.00    -0.000 C 
BRANCH  13  14
ATOM     14  C   UNL     1      -8.510  51.214  -0.440  1.00  0.00    -0.000 C 
BRANCH  14  15
ATOM     15  C   UNL     1      -7.006  50.864  -0.408  1.00  0.00    -0.000 C 
BRANCH  15  16
ATOM     16  C   UNL     1      -6.194  51.835   0.464  1.00  0.00    -0.000 C 
BRANCH  16  17
ATOM     17  C   UNL     1      -4.761  52.045  -0.053  1.00  0.00    -0.000 C 
BRANCH  17  18
ATOM     18  C   UNL     1      -3.740  51.050   0.541  1.00  0.00    -0.003 C 
ATOM     19  C   UNL     1      -2.296  51.467   0.265  1.00  0.00     0.004 C 
ENDBRANCH  17  18
ENDBRANCH  16  17
ENDBRANCH  15  16
ENDBRANCH  14  15
ENDBRANCH  13  14
ENDBRANCH  12  13
ENDBRANCH   1  12
TORSDOF 14
ENDMDL
MODEL 2
REMARK VINA RESULT:     1.126      2.173      2.716
REMARK INTER + INTRA:           1.326
REMARK INTER:                   1.318
REMARK INTRA:                   0.008
REMARK UNBOUND:                -0.721
REMARK SMILES CCCCCCCCCCCCCC[C@H](C)C(=O)[O-]
REMARK SMILES IDX 9 1 10 2 11 3 12 4 13 5 14 6 15 7 16 8 17 9 18 10 19 11 8 12
REMARK SMILES IDX 7 13 6 14 5 15 4 16 3 17 2 18 1 19
REMARK H PARENT
REMARK Flexibility Score: inf
ROOT
ATOM      1  C   UNL     1      -8.093  52.112  -1.941  1.00  0.00     0.000 C 
ENDROOT
BRANCH   1   2
ATOM      2  C   UNL     1      -8.688  52.115  -3.365  1.00  0.00     0.000 C 
BRANCH   2   3
ATOM      3  C   UNL     1      -7.654  52.082  -4.505  1.00  0.00     0.000 C 
BRANCH   3   4
ATOM      4  C   UNL     1      -8.168  51.348  -5.755  1.00  0.00     0.000 C 
BRANCH   4   5
ATOM      5  C   UNL     1      -7.888  52.125  -7.052  1.00  0.00     0.001 C 
BRANCH   5   6
ATOM      6  C   UNL     1      -6.459  51.905  -7.580  1.00  0.00     0.009 C 
BRANCH   6   7
ATOM      7  C   UNL     1      -6.445  51.131  -8.915  1.00  0.00     0.032 C 
ATOM      8  C   UNL     1      -6.034  52.051 -10.069  1.00  0.00     0.014 C 
BRANCH   7   9
ATOM      9  C   UNL     1      -7.786  50.511  -9.208  1.00  0.00     0.044 C 
ATOM     10  O   UNL     1      -8.659  51.148  -9.856  1.00  0.00    -0.550 OA
ATOM     11  O   UNL     1      -8.065  49.223  -8.767  1.00  0.00    -0.550 OA
ENDBRANCH   7   9
ENDBRANCH   6   7
ENDBRANCH   5   6
ENDBRANCH   4   5
ENDBRANCH   3   4
ENDBRANCH   2   3
ENDBRANCH   1   2
BRANCH   1  12
ATOM     12  C   UNL     1      -8.948  51.398  -0.875  1.00  0.00     0.000 C 
BRANCH  12  13
ATOM     13  C   UNL     1      -8.976  49.863  -0.986  1.00  0.00    -0.000 C 
BRANCH  13  14
ATOM     14  C   UNL     1      -7.638  49.166  -0.677  1.00  0.00    -0.000 C 
BRANCH  14  15
ATOM     15  C   UNL     1      -6.412  50.100  -0.775  1.00  0.00    -0.000 C 
BRANCH  15  16
ATOM     16  C   UNL     1      -5.853  50.485   0.605  1.00  0.00    -0.000 C 
BRANCH  16  17
ATOM     17  C   UNL     1      -5.167  51.862   0.607  1.00  0.00    -0.000 C 
BRANCH  17  18
ATOM     18  C   UNL     1      -3.837  51.888  -0.175  1.00  0.00    -0.003 C 
ATOM     19  C   UNL     1      -2.764  51.015   0.475  1.00  0.00     0.004 C 
ENDBRANCH  17  18
ENDBRANCH  16  17
ENDBRANCH  15  16
ENDBRANCH  14  15
ENDBRANCH  13  14
ENDBRANCH  12  13
ENDBRANCH   1  12
TORSDOF 14
ENDMDL
MODEL 3
REMARK VINA RESULT:     1.491      2.795      3.349
REMARK INTER + INTRA:           1.991
REMARK INTER:                   2.366
REMARK INTRA:                  -0.374
REMARK UNBOUND:                -0.721
REMARK SMILES CCCCCCCCCCCCCC[C@H](C)C(=O)[O-]
REMARK SMILES IDX 9 1 10 2 11 3 12 4 13 5 14 6 15 7 16 8 17 9 18 10 19 11 8 12
REMARK SMILES IDX 7 13 6 14 5 15 4 16 3 17 2 18 1 19
REMARK H PARENT
REMARK Flexibility Score: inf
ROOT
ATOM      1  C   UNL     1      -8.374  50.934  -4.023  1.00  0.00     0.000 C 
ENDROOT
BRANCH   1   2
ATOM      2  C   UNL     1      -8.708  52.089  -4.990  1.00  0.00     0.000 C 
BRANCH   2   3
ATOM      3  C   UNL     1      -8.463  51.786  -6.479  1.00  0.00     0.000 C 
BRANCH   3   4
ATOM      4  C   UNL     1      -7.032  52.124  -6.930  1.00  0.00     0.000 C 
BRANCH   4   5
ATOM      5  C   UNL     1      -6.867  52.072  -8.457  1.00  0.00     0.001 C 
BRANCH   5   6
ATOM      6  C   UNL     1      -5.629  51.268  -8.894  1.00  0.00     0.009 C 
BRANCH   6   7
ATOM      7  C   UNL     1      -4.334  52.104  -8.811  1.00  0.00     0.032 C 
ATOM      8  C   UNL     1      -3.546  52.012 -10.121  1.00  0.00     0.014 C 
BRANCH   7   9
ATOM      9  C   UNL     1      -3.467  51.667  -7.660  1.00  0.00     0.044 C 
ATOM     10  O   UNL     1      -2.248  51.983  -7.620  1.00  0.00    -0.550 OA
ATOM     11  O   UNL     1      -4.012  50.912  -6.629  1.00  0.00    -0.550 OA
ENDBRANCH   7   9
ENDBRANCH   6   7
ENDBRANCH   5   6
ENDBRANCH   4   5
ENDBRANCH   3   4
ENDBRANCH   2   3
ENDBRANCH   1   2
BRANCH   1  12
ATOM     12  C   UNL     1      -7.862  51.368  -2.634  1.00  0.00     0.000 C 
BRANCH  12  13
ATOM     13  C   UNL     1      -8.668  50.817  -1.444  1.00  0.00    -0.000 C 
BRANCH  13  14
ATOM     14  C   UNL     1      -8.052  49.582  -0.760  1.00  0.00    -0.000 C 
BRANCH  14  15
ATOM     15  C   UNL     1      -7.534  48.515  -1.749  1.00  0.00    -0.000 C 
BRANCH  15  16
ATOM     16  C   UNL     1      -7.059  47.236  -1.041  1.00  0.00    -0.000 C 
BRANCH  16  17
ATOM     17  C   UNL     1      -6.915  46.042  -1.999  1.00  0.00    -0.000 C 
BRANCH  17  18
ATOM     18  C   UNL     1      -6.328  44.781  -1.329  1.00  0.00    -0.003 C 
ATOM     19  C   UNL     1      -5.909  43.724  -2.349  1.00  0.00     0.004 C 
ENDBRANCH  17  18
ENDBRANCH  16  17
ENDBRANCH  15  16
ENDBRANCH  14  15
ENDBRANCH  13  14
ENDBRANCH  12  13
ENDBRANCH   1  12
TORSDOF 14
ENDMDL
MODEL 4
REMARK VINA RESULT:     2.028      3.461      4.206
REMARK INTER + INTRA:           2.967
REMARK INTER:                   3.329
REMARK INTRA:                  -0.362
REMARK UNBOUND:                -0.721
REMARK SMILES CCCCCCCCCCCCCC[C@H](C)C(=O)[O-]
REMARK SMILES IDX 9 1 10 2 11 3 12 4 13 5 14 6 15 7 16 8 17 9 18 10 19 11 8 12
REMARK SMILES IDX 7 13 6 14 5 15 4 16 3 17 2 18 1 19
REMARK H PARENT
REMARK Flexibility Score: inf
ROOT
ATOM      1  C   UNL     1      -8.635  52.120  -2.083  1.00  0.00     0.000 C 
ENDROOT
BRANCH   1   2
ATOM      2  C   UNL     1      -8.967  51.926  -3.576  1.00  0.00     0.000 C 
BRANCH   2   3
ATOM      3  C   UNL     1      -7.773  52.076  -4.537  1.00  0.00     0.000 C 
BRANCH   3   4
ATOM      4  C   UNL     1      -8.129  51.722  -5.990  1.00  0.00     0.000 C 
BRANCH   4   5
ATOM      5  C   UNL     1      -6.931  51.867  -6.943  1.00  0.00     0.001 C 
BRANCH   5   6
ATOM      6  C   UNL     1      -5.582  51.627  -6.242  1.00  0.00     0.009 C 
BRANCH   6   7
ATOM      7  C   UNL     1      -4.493  51.149  -7.226  1.00  0.00     0.032 C 
ATOM      8  C   UNL     1      -3.275  52.077  -7.178  1.00  0.00     0.014 C 
BRANCH   7   9
ATOM      9  C   UNL     1      -5.019  51.067  -8.634  1.00  0.00     0.044 C 
ATOM     10  O   UNL     1      -5.648  50.048  -9.025  1.00  0.00    -0.550 OA
ATOM     11  O   UNL     1      -4.816  52.125  -9.513  1.00  0.00    -0.550 OA
ENDBRANCH   7   9
ENDBRANCH   6   7
ENDBRANCH   5   6
ENDBRANCH   4   5
ENDBRANCH   3   4
ENDBRANCH   2   3
ENDBRANCH   1   2
BRANCH   1  12
ATOM     12  C   UNL     1      -8.994  50.930  -1.170  1.00  0.00     0.000 C 
BRANCH  12  13
ATOM     13  C   UNL     1      -8.888  49.546  -1.837  1.00  0.00    -0.000 C 
BRANCH  13  14
ATOM     14  C   UNL     1      -8.125  48.488  -1.018  1.00  0.00    -0.000 C 
BRANCH  14  15
ATOM     15  C   UNL     1      -7.096  47.685  -1.843  1.00  0.00    -0.000 C 
BRANCH  15  16
ATOM     16  C   UNL     1      -7.087  46.190  -1.482  1.00  0.00    -0.000 C 
BRANCH  16  17
ATOM     17  C   UNL     1      -6.402  45.323  -2.550  1.00  0.00    -0.000 C 
BRANCH  17  18
ATOM     18  C   UNL     1      -6.437  43.813  -2.232  1.00  0.00    -0.003 C 
ATOM     19  C   UNL     1      -5.052  43.258  -1.896  1.00  0.00     0.004 C 
ENDBRANCH  17  18
ENDBRANCH  16  17
ENDBRANCH  15  16
ENDBRANCH  14  15
ENDBRANCH  13  14
ENDBRANCH  12  13
ENDBRANCH   1  12
TORSDOF 14
ENDMDL
MODEL 5
REMARK VINA RESULT:     2.181      5.447      8.560
REMARK INTER + INTRA:           3.246
REMARK INTER:                   3.858
REMARK INTRA:                  -0.612
REMARK UNBOUND:                -0.721
REMARK SMILES CCCCCCCCCCCCCC[C@H](C)C(=O)[O-]
REMARK SMILES IDX 9 1 10 2 11 3 12 4 13 5 14 6 15 7 16 8 17 9 18 10 19 11 8 12
REMARK SMILES IDX 7 13 6 14 5 15 4 16 3 17 2 18 1 19
REMARK H PARENT
REMARK Flexibility Score: inf
ROOT
ATOM      1  C   UNL     1      -8.241  49.235  -1.838  1.00  0.00     0.000 C 
ENDROOT
BRANCH   1   2
ATOM      2  C   UNL     1      -7.125  48.561  -1.014  1.00  0.00     0.000 C 
BRANCH   2   3
ATOM      3  C   UNL     1      -7.326  47.058  -0.747  1.00  0.00     0.000 C 
BRANCH   3   4
ATOM      4  C   UNL     1      -6.937  46.181  -1.950  1.00  0.00     0.000 C 
BRANCH   4   5
ATOM      5  C   UNL     1      -6.690  44.716  -1.557  1.00  0.00     0.001 C 
BRANCH   5   6
ATOM      6  C   UNL     1      -5.696  44.009  -2.496  1.00  0.00     0.009 C 
BRANCH   6   7
ATOM      7  C   UNL     1      -5.181  42.681  -1.902  1.00  0.00     0.032 C 
ATOM      8  C   UNL     1      -6.289  41.973  -1.116  1.00  0.00     0.014 C 
BRANCH   7   9
ATOM      9  C   UNL     1      -3.985  42.900  -1.014  1.00  0.00     0.044 C 
ATOM     10  O   UNL     1      -3.974  42.462   0.167  1.00  0.00    -0.550 OA
ATOM     11  O   UNL     1      -2.878  43.587  -1.499  1.00  0.00    -0.550 OA
ENDBRANCH   7   9
ENDBRANCH   6   7
ENDBRANCH   5   6
ENDBRANCH   4   5
ENDBRANCH   3   4
ENDBRANCH   2   3
ENDBRANCH   1   2
BRANCH   1  12
ATOM     12  C   UNL     1      -8.024  49.230  -3.365  1.00  0.00     0.000 C 
BRANCH  12  13
ATOM     13  C   UNL     1      -8.912  50.213  -4.150  1.00  0.00    -0.000 C 
BRANCH  13  14
ATOM     14  C   UNL     1      -8.366  51.651  -4.238  1.00  0.00    -0.000 C 
BRANCH  14  15
ATOM     15  C   UNL     1      -7.175  51.807  -5.208  1.00  0.00    -0.000 C 
BRANCH  15  16
ATOM     16  C   UNL     1      -7.623  52.125  -6.645  1.00  0.00    -0.000 C 
BRANCH  16  17
ATOM     17  C   UNL     1      -6.458  52.116  -7.648  1.00  0.00    -0.000 C 
BRANCH  17  18
ATOM     18  C   UNL     1      -6.846  51.568  -9.038  1.00  0.00    -0.003 C 
ATOM     19  C   UNL     1      -7.839  50.410  -8.948  1.00  0.00     0.004 C 
ENDBRANCH  17  18
ENDBRANCH  16  17
ENDBRANCH  15  16
ENDBRANCH  14  15
ENDBRANCH  13  14
ENDBRANCH  12  13
ENDBRANCH   1  12
TORSDOF 14
ENDMDL
MODEL 6
REMARK VINA RESULT:     2.309      4.496      5.167
REMARK INTER + INTRA:           3.478
REMARK INTER:                   3.945
REMARK INTRA:                  -0.467
REMARK UNBOUND:                -0.721
REMARK SMILES CCCCCCCCCCCCCC[C@H](C)C(=O)[O-]
REMARK SMILES IDX 9 1 10 2 11 3 12 4 13 5 14 6 15 7 16 8 17 9 18 10 19 11 8 12
REMARK SMILES IDX 7 13 6 14 5 15 4 16 3 17 2 18 1 19
REMARK H PARENT
REMARK Flexibility Score: inf
ROOT
ATOM      1  C   UNL     1      -7.980  49.085  -2.777  1.00  0.00     0.000 C 
ENDROOT
BRANCH   1   2
ATOM      2  C   UNL     1      -8.421  50.549  -2.981  1.00  0.00     0.000 C 
BRANCH   2   3
ATOM      3  C   UNL     1      -8.706  50.949  -4.440  1.00  0.00     0.000 C 
BRANCH   3   4
ATOM      4  C   UNL     1      -7.514  51.651  -5.111  1.00  0.00     0.000 C 
BRANCH   4   5
ATOM      5  C   UNL     1      -7.832  52.120  -6.540  1.00  0.00     0.001 C 
BRANCH   5   6
ATOM      6  C   UNL     1      -7.456  51.075  -7.606  1.00  0.00     0.009 C 
BRANCH   6   7
ATOM      7  C   UNL     1      -6.760  51.714  -8.826  1.00  0.00     0.032 C 
ATOM      8  C   UNL     1      -7.664  51.645 -10.061  1.00  0.00     0.014 C 
BRANCH   7   9
ATOM      9  C   UNL     1      -5.441  51.051  -9.119  1.00  0.00     0.044 C 
ATOM     10  O   UNL     1      -5.350  50.176 -10.021  1.00  0.00    -0.550 OA
ATOM     11  O   UNL     1      -4.309  51.408  -8.396  1.00  0.00    -0.550 OA
ENDBRANCH   7   9
ENDBRANCH   6   7
ENDBRANCH   5   6
ENDBRANCH   4   5
ENDBRANCH   3   4
ENDBRANCH   2   3
ENDBRANCH   1   2
BRANCH   1  12
ATOM     12  C   UNL     1      -7.295  48.788  -1.428  1.00  0.00     0.000 C 
BRANCH  12  13
ATOM     13  C   UNL     1      -7.406  47.328  -0.951  1.00  0.00    -0.000 C 
BRANCH  13  14
ATOM     14  C   UNL     1      -7.111  46.269  -2.030  1.00  0.00    -0.000 C 
BRANCH  14  15
ATOM     15  C   UNL     1      -6.758  44.879  -1.458  1.00  0.00    -0.000 C 
BRANCH  15  16
ATOM     16  C   UNL     1      -6.049  43.981  -2.486  1.00  0.00    -0.000 C 
BRANCH  16  17
ATOM     17  C   UNL     1      -4.696  43.451  -1.983  1.00  0.00    -0.000 C 
BRANCH  17  18
ATOM     18  C   UNL     1      -4.821  42.209  -1.074  1.00  0.00    -0.003 C 
ATOM     19  C   UNL     1      -3.703  42.135  -0.035  1.00  0.00     0.004 C 
ENDBRANCH  17  18
ENDBRANCH  16  17
ENDBRANCH  15  16
ENDBRANCH  14  15
ENDBRANCH  13  14
ENDBRANCH  12  13
ENDBRANCH   1  12
TORSDOF 14
ENDMDL
