MODEL 1
REMARK VINA RESULT:    -2.680      0.000      0.000
REMARK INTER + INTRA:          -3.169
REMARK INTER:                  -3.150
REMARK INTRA:                  -0.019
REMARK UNBOUND:                -0.019
REMARK SMILES CCCCC(=O)[O-]
REMARK SMILES IDX 4 1 5 2 6 3 7 4 3 5 2 6 1 7
REMARK H PARENT
REMARK Flexibility Score: inf
ROOT
ATOM      1  C   UNL     1      55.794  27.747  50.730  1.00  0.00     0.053 C 
ENDROOT
BRANCH   1   2
ATOM      2  C   UNL     1      54.923  26.699  50.107  1.00  0.00     0.041 C 
ATOM      3  O   UNL     1      53.720  26.955  49.838  1.00  0.00    -0.550 OA
ATOM      4  O   UNL     1      55.430  25.430  49.856  1.00  0.00    -0.550 OA
ENDBRANCH   1   2
BRANCH   1   5
ATOM      5  C   UNL     1      57.286  27.388  50.635  1.00  0.00     0.006 C 
BRANCH   5   6
ATOM      6  C   UNL     1      58.229  28.605  50.643  1.00  0.00    -0.003 C 
ATOM      7  C   UNL     1      59.313  28.524  49.569  1.00  0.00     0.004 C 
ENDBRANCH   5   6
ENDBRANCH   1   5
TORSDOF 3
ENDMDL
MODEL 2
REMARK VINA RESULT:    -2.669     12.566     13.285
REMARK INTER + INTRA:          -3.156
REMARK INTER:                  -3.127
REMARK INTRA:                  -0.028
REMARK UNBOUND:                -0.019
REMARK SMILES CCCCC(=O)[O-]
REMARK SMILES IDX 4 1 5 2 6 3 7 4 3 5 2 6 1 7
REMARK H PARENT
REMARK Flexibility Score: inf
ROOT
ATOM      1  C   UNL     1      62.532  32.240  60.736  1.00  0.00     0.053 C 
ENDROOT
BRANCH   1   2
ATOM      2  C   UNL     1      61.369  31.296  60.794  1.00  0.00     0.041 C 
ATOM      3  O   UNL     1      60.647  31.119  59.778  1.00  0.00    -0.550 OA
ATOM      4  O   UNL     1      61.064  30.639  61.979  1.00  0.00    -0.550 OA
ENDBRANCH   1   2
BRANCH   1   5
ATOM      5  C   UNL     1      62.092  33.677  60.415  1.00  0.00     0.006 C 
BRANCH   5   6
ATOM      6  C   UNL     1      63.050  34.761  60.942  1.00  0.00    -0.003 C 
ATOM      7  C   UNL     1      64.409  34.200  61.361  1.00  0.00     0.004 C 
ENDBRANCH   5   6
ENDBRANCH   1   5
TORSDOF 3
ENDMDL
MODEL 3
REMARK VINA RESULT:    -2.667      1.616      2.478
REMARK INTER + INTRA:          -3.153
REMARK INTER:                  -3.125
REMARK INTRA:                  -0.028
REMARK UNBOUND:                -0.019
REMARK SMILES CCCCC(=O)[O-]
REMARK SMILES IDX 4 1 5 2 6 3 7 4 3 5 2 6 1 7
REMARK H PARENT
REMARK Flexibility Score: inf
ROOT
ATOM      1  C   UNL     1      55.266  25.707  49.962  1.00  0.00     0.053 C 
ENDROOT
BRANCH   1   2
ATOM      2  C   UNL     1      54.038  24.911  49.639  1.00  0.00     0.041 C 
ATOM      3  O   UNL     1      53.895  23.750  50.108  1.00  0.00    -0.550 OA
ATOM      4  O   UNL     1      53.069  25.437  48.795  1.00  0.00    -0.550 OA
ENDBRANCH   1   2
BRANCH   1   5
ATOM      5  C   UNL     1      54.925  27.140  50.398  1.00  0.00     0.006 C 
BRANCH   5   6
ATOM      6  C   UNL     1      56.147  27.979  50.815  1.00  0.00    -0.003 C 
ATOM      7  C   UNL     1      57.468  27.231  50.640  1.00  0.00     0.004 C 
ENDBRANCH   5   6
ENDBRANCH   1   5
TORSDOF 3
ENDMDL
MODEL 4
REMARK VINA RESULT:    -2.666      2.956      4.113
REMARK INTER + INTRA:          -3.152
REMARK INTER:                  -3.123
REMARK INTRA:                  -0.029
REMARK UNBOUND:                -0.019
REMARK SMILES CCCCC(=O)[O-]
REMARK SMILES IDX 4 1 5 2 6 3 7 4 3 5 2 6 1 7
REMARK H PARENT
REMARK Flexibility Score: inf
ROOT
ATOM      1  C   UNL     1      57.614  27.349  50.578  1.00  0.00     0.053 C 
ENDROOT
BRANCH   1   2
ATOM      2  C   UNL     1      58.652  28.426  50.483  1.00  0.00     0.041 C 
ATOM      3  O   UNL     1      59.022  29.039  51.518  1.00  0.00    -0.550 OA
ATOM      4  O   UNL     1      59.184  28.773  49.248  1.00  0.00    -0.550 OA
ENDBRANCH   1   2
BRANCH   1   5
ATOM      5  C   UNL     1      56.209  27.921  50.820  1.00  0.00     0.006 C 
BRANCH   5   6
ATOM      6  C   UNL     1      55.065  26.994  50.370  1.00  0.00    -0.003 C 
ATOM      7  C   UNL     1      55.552  25.602  49.971  1.00  0.00     0.004 C 
ENDBRANCH   5   6
ENDBRANCH   1   5
TORSDOF 3
ENDMDL
MODEL 5
REMARK VINA RESULT:    -2.646     12.509     13.255
REMARK INTER + INTRA:          -3.129
REMARK INTER:                  -3.113
REMARK INTRA:                  -0.016
REMARK UNBOUND:                -0.019
REMARK SMILES CCCCC(=O)[O-]
REMARK SMILES IDX 4 1 5 2 6 3 7 4 3 5 2 6 1 7
REMARK H PARENT
REMARK Flexibility Score: inf
ROOT
ATOM      1  C   UNL     1      62.538  31.903  60.714  1.00  0.00     0.053 C 
ENDROOT
BRANCH   1   2
ATOM      2  C   UNL     1      61.340  31.029  60.926  1.00  0.00     0.041 C 
ATOM      3  O   UNL     1      61.067  30.599  62.078  1.00  0.00    -0.550 OA
ATOM      4  O   UNL     1      60.545  30.662  59.847  1.00  0.00    -0.550 OA
ENDBRANCH   1   2
BRANCH   1   5
ATOM      5  C   UNL     1      62.148  33.373  60.495  1.00  0.00     0.006 C 
BRANCH   5   6
ATOM      6  C   UNL     1      63.234  34.382  60.911  1.00  0.00    -0.003 C 
ATOM      7  C   UNL     1      62.670  35.769  61.219  1.00  0.00     0.004 C 
ENDBRANCH   5   6
ENDBRANCH   1   5
TORSDOF 3
ENDMDL
MODEL 6
REMARK VINA RESULT:    -2.635      2.691      3.982
REMARK INTER + INTRA:          -3.116
REMARK INTER:                  -3.026
REMARK INTRA:                  -0.090
REMARK UNBOUND:                -0.019
REMARK SMILES CCCCC(=O)[O-]
REMARK SMILES IDX 4 1 5 2 6 3 7 4 3 5 2 6 1 7
REMARK H PARENT
REMARK Flexibility Score: inf
ROOT
ATOM      1  C   UNL     1      55.988  25.380  50.861  1.00  0.00     0.053 C 
ENDROOT
BRANCH   1   2
ATOM      2  C   UNL     1      57.358  25.898  50.543  1.00  0.00     0.041 C 
ATOM      3  O   UNL     1      58.314  25.096  50.375  1.00  0.00    -0.550 OA
ATOM      4  O   UNL     1      57.583  27.267  50.464  1.00  0.00    -0.550 OA
ENDBRANCH   1   2
BRANCH   1   5
ATOM      5  C   UNL     1      55.081  25.350  49.621  1.00  0.00     0.006 C 
BRANCH   5   6
ATOM      6  C   UNL     1      53.789  26.176  49.765  1.00  0.00    -0.003 C 
ATOM      7  C   UNL     1      54.051  27.610  50.224  1.00  0.00     0.004 C 
ENDBRANCH   5   6
ENDBRANCH   1   5
TORSDOF 3
ENDMDL
MODEL 7
REMARK VINA RESULT:    -2.622      3.070      4.462
REMARK INTER + INTRA:          -3.101
REMARK INTER:                  -3.071
REMARK INTRA:                  -0.030
REMARK UNBOUND:                -0.019
REMARK SMILES CCCCC(=O)[O-]
REMARK SMILES IDX 4 1 5 2 6 3 7 4 3 5 2 6 1 7
REMARK H PARENT
REMARK Flexibility Score: inf
ROOT
ATOM      1  C   UNL     1      58.630  26.723  50.472  1.00  0.00     0.053 C 
ENDROOT
BRANCH   1   2
ATOM      2  C   UNL     1      59.618  27.548  49.704  1.00  0.00     0.041 C 
ATOM      3  O   UNL     1      60.787  27.120  49.516  1.00  0.00    -0.550 OA
ATOM      4  O   UNL     1      59.257  28.800  49.225  1.00  0.00    -0.550 OA
ENDBRANCH   1   2
BRANCH   1   5
ATOM      5  C   UNL     1      57.320  27.485  50.730  1.00  0.00     0.006 C 
BRANCH   5   6
ATOM      6  C   UNL     1      56.048  26.670  50.430  1.00  0.00    -0.003 C 
ATOM      7  C   UNL     1      54.783  27.528  50.422  1.00  0.00     0.004 C 
ENDBRANCH   5   6
ENDBRANCH   1   5
TORSDOF 3
ENDMDL
MODEL 8
REMARK VINA RESULT:    -2.616      3.011      4.430
REMARK INTER + INTRA:          -3.093
REMARK INTER:                  -2.991
REMARK INTRA:                  -0.102
REMARK UNBOUND:                -0.019
REMARK SMILES CCCCC(=O)[O-]
REMARK SMILES IDX 4 1 5 2 6 3 7 4 3 5 2 6 1 7
REMARK H PARENT
REMARK Flexibility Score: inf
ROOT
ATOM      1  C   UNL     1      59.310  28.372  49.694  1.00  0.00     0.053 C 
ENDROOT
BRANCH   1   2
ATOM      2  C   UNL     1      60.220  27.184  49.620  1.00  0.00     0.041 C 
ATOM      3  O   UNL     1      61.466  27.347  49.535  1.00  0.00    -0.550 OA
ATOM      4  O   UNL     1      59.691  25.900  49.613  1.00  0.00    -0.550 OA
ENDBRANCH   1   2
BRANCH   1   5
ATOM      5  C   UNL     1      58.463  28.370  50.976  1.00  0.00     0.006 C 
BRANCH   5   6
ATOM      6  C   UNL     1      56.945  28.290  50.729  1.00  0.00    -0.003 C 
ATOM      7  C   UNL     1      56.439  26.853  50.606  1.00  0.00     0.004 C 
ENDBRANCH   5   6
ENDBRANCH   1   5
TORSDOF 3
ENDMDL
MODEL 9
REMARK VINA RESULT:    -2.561     13.857     14.708
REMARK INTER + INTRA:          -3.029
REMARK INTER:                  -2.986
REMARK INTRA:                  -0.043
REMARK UNBOUND:                -0.019
REMARK SMILES CCCCC(=O)[O-]
REMARK SMILES IDX 4 1 5 2 6 3 7 4 3 5 2 6 1 7
REMARK H PARENT
REMARK Flexibility Score: inf
ROOT
ATOM      1  C   UNL     1      64.479  33.222  60.689  1.00  0.00     0.053 C 
ENDROOT
BRANCH   1   2
ATOM      2  C   UNL     1      63.992  31.808  60.783  1.00  0.00     0.041 C 
ATOM      3  O   UNL     1      62.757  31.567  60.828  1.00  0.00    -0.550 OA
ATOM      4  O   UNL     1      64.902  30.761  60.854  1.00  0.00    -0.550 OA
ENDBRANCH   1   2
BRANCH   1   5
ATOM      5  C   UNL     1      63.337  34.238  60.855  1.00  0.00     0.006 C 
BRANCH   5   6
ATOM      6  C   UNL     1      63.766  35.567  61.505  1.00  0.00    -0.003 C 
ATOM      7  C   UNL     1      65.194  35.529  62.047  1.00  0.00     0.004 C 
ENDBRANCH   5   6
ENDBRANCH   1   5
TORSDOF 3
ENDMDL
