MODEL 1
REMARK VINA RESULT:    -3.312      0.000      0.000
REMARK INTER + INTRA:          -3.850
REMARK INTER:                  -3.796
REMARK INTRA:                  -0.054
REMARK UNBOUND:                -0.054
REMARK SMILES COc1cc(C=O)ccc1O
REMARK SMILES IDX 3 1 10 2 9 3 8 4 5 5 4 6 2 7 1 8 11 9 6 11 7 12
REMARK H PARENT 11 10
REMARK Flexibility Score: inf
ROOT
ATOM      1  C   UNL     1     145.596 133.347 138.392  1.00  0.00     0.161 A 
ATOM      2  C   UNL     1     145.936 134.506 139.102  1.00  0.00     0.157 A 
ATOM      3  C   UNL     1     144.936 135.398 139.511  1.00  0.00     0.051 A 
ATOM      4  C   UNL     1     143.597 135.141 139.214  1.00  0.00     0.015 A 
ATOM      5  C   UNL     1     143.239 133.986 138.503  1.00  0.00     0.018 A 
ATOM      6  C   UNL     1     144.242 133.090 138.093  1.00  0.00     0.062 A 
ENDROOT
BRANCH   1   7
ATOM      7  O   UNL     1     146.626 132.478 137.999  1.00  0.00    -0.493 OA
ATOM      8  C   UNL     1     146.428 131.265 137.280  1.00  0.00     0.278 C 
ENDBRANCH   1   7
BRANCH   2   9
ATOM      9  O   UNL     1     147.273 134.765 139.400  1.00  0.00    -0.504 OA
ATOM     10  H   UNL     1     147.940 135.012 138.678  1.00  0.00     0.293 HD
ENDBRANCH   2   9
BRANCH   5  11
ATOM     11  C   UNL     1     141.818 133.733 138.199  1.00  0.00     0.260 C 
ATOM     12  O   UNL     1     141.480 132.899 137.318  1.00  0.00    -0.298 OA
ENDBRANCH   5  11
TORSDOF 3
ENDMDL
MODEL 2
REMARK VINA RESULT:    -3.303      8.841     10.434
REMARK INTER + INTRA:          -3.840
REMARK INTER:                  -3.766
REMARK INTRA:                  -0.074
REMARK UNBOUND:                -0.054
REMARK SMILES COc1cc(C=O)ccc1O
REMARK SMILES IDX 3 1 10 2 9 3 8 4 5 5 4 6 2 7 1 8 11 9 6 11 7 12
REMARK H PARENT 11 10
REMARK Flexibility Score: inf
ROOT
ATOM      1  C   UNL     1     148.395 143.961 138.192  1.00  0.00     0.161 A 
ATOM      2  C   UNL     1     149.271 142.988 137.691  1.00  0.00     0.157 A 
ATOM      3  C   UNL     1     148.794 141.710 137.372  1.00  0.00     0.051 A 
ATOM      4  C   UNL     1     147.446 141.396 137.549  1.00  0.00     0.015 A 
ATOM      5  C   UNL     1     146.555 142.357 138.050  1.00  0.00     0.018 A 
ATOM      6  C   UNL     1     147.034 143.640 138.371  1.00  0.00     0.062 A 
ENDROOT
BRANCH   1   7
ATOM      7  O   UNL     1     148.911 145.229 138.501  1.00  0.00    -0.493 OA
ATOM      8  C   UNL     1     148.768 146.381 137.677  1.00  0.00     0.278 C 
ENDBRANCH   1   7
BRANCH   2   9
ATOM      9  O   UNL     1     150.618 143.300 137.513  1.00  0.00    -0.504 OA
ATOM     10  H   UNL     1     151.351 142.760 137.958  1.00  0.00     0.293 HD
ENDBRANCH   2   9
BRANCH   5  11
ATOM     11  C   UNL     1     145.135 142.005 138.231  1.00  0.00     0.260 C 
ATOM     12  O   UNL     1     144.220 142.822 137.949  1.00  0.00    -0.298 OA
ENDBRANCH   5  11
TORSDOF 3
ENDMDL
MODEL 3
REMARK VINA RESULT:    -3.293     14.603     16.412
REMARK INTER + INTRA:          -3.828
REMARK INTER:                  -3.763
REMARK INTRA:                  -0.066
REMARK UNBOUND:                -0.054
REMARK SMILES COc1cc(C=O)ccc1O
REMARK SMILES IDX 3 1 10 2 9 3 8 4 5 5 4 6 2 7 1 8 11 9 6 11 7 12
REMARK H PARENT 11 10
REMARK Flexibility Score: inf
ROOT
ATOM      1  C   UNL     1     136.252 148.116 138.622  1.00  0.00     0.161 A 
ATOM      2  C   UNL     1     135.743 146.894 139.082  1.00  0.00     0.157 A 
ATOM      3  C   UNL     1     136.583 145.778 139.187  1.00  0.00     0.051 A 
ATOM      4  C   UNL     1     137.930 145.874 138.834  1.00  0.00     0.015 A 
ATOM      5  C   UNL     1     138.456 147.088 138.370  1.00  0.00     0.018 A 
ATOM      6  C   UNL     1     137.613 148.209 138.266  1.00  0.00     0.062 A 
ENDROOT
BRANCH   1   7
ATOM      7  O   UNL     1     135.379 149.211 138.531  1.00  0.00    -0.493 OA
ATOM      8  C   UNL     1     135.172 149.983 137.351  1.00  0.00     0.278 C 
ENDBRANCH   1   7
BRANCH   2   9
ATOM      9  O   UNL     1     134.398 146.797 139.436  1.00  0.00    -0.504 OA
ATOM     10  H   UNL     1     133.660 146.911 138.751  1.00  0.00     0.293 HD
ENDBRANCH   2   9
BRANCH   5  11
ATOM     11  C   UNL     1     139.881 147.169 138.002  1.00  0.00     0.260 C 
ATOM     12  O   UNL     1     140.285 147.990 137.137  1.00  0.00    -0.298 OA
ENDBRANCH   5  11
TORSDOF 3
ENDMDL
MODEL 4
REMARK VINA RESULT:    -3.292     10.044     11.878
REMARK INTER + INTRA:          -3.827
REMARK INTER:                  -3.773
REMARK INTRA:                  -0.054
REMARK UNBOUND:                -0.054
REMARK SMILES COc1cc(C=O)ccc1O
REMARK SMILES IDX 3 1 10 2 9 3 8 4 5 5 4 6 2 7 1 8 11 9 6 11 7 12
REMARK H PARENT 11 10
REMARK Flexibility Score: inf
ROOT
ATOM      1  C   UNL     1     133.328 135.977 138.380  1.00  0.00     0.161 A 
ATOM      2  C   UNL     1     134.533 135.668 139.027  1.00  0.00     0.157 A 
ATOM      3  C   UNL     1     135.417 136.692 139.393  1.00  0.00     0.051 A 
ATOM      4  C   UNL     1     135.106 138.024 139.116  1.00  0.00     0.015 A 
ATOM      5  C   UNL     1     133.905 138.351 138.469  1.00  0.00     0.018 A 
ATOM      6  C   UNL     1     133.018 137.324 138.102  1.00  0.00     0.062 A 
ENDROOT
BRANCH   1   7
ATOM      7  O   UNL     1     132.470 134.924 138.030  1.00  0.00    -0.493 OA
ATOM      8  C   UNL     1     131.250 135.081 137.311  1.00  0.00     0.278 C 
ENDBRANCH   1   7
BRANCH   2   9
ATOM      9  O   UNL     1     134.845 134.339 139.304  1.00  0.00    -0.504 OA
ATOM     10  H   UNL     1     134.463 133.861 140.113  1.00  0.00     0.293 HD
ENDBRANCH   2   9
BRANCH   5  11
ATOM     11  C   UNL     1     133.595 139.765 138.185  1.00  0.00     0.260 C 
ATOM     12  O   UNL     1     132.602 140.085 137.481  1.00  0.00    -0.298 OA
ENDBRANCH   5  11
TORSDOF 3
ENDMDL
MODEL 5
REMARK VINA RESULT:    -3.292     10.080     11.852
REMARK INTER + INTRA:          -3.827
REMARK INTER:                  -3.773
REMARK INTRA:                  -0.054
REMARK UNBOUND:                -0.054
REMARK SMILES COc1cc(C=O)ccc1O
REMARK SMILES IDX 3 1 10 2 9 3 8 4 5 5 4 6 2 7 1 8 11 9 6 11 7 12
REMARK H PARENT 11 10
REMARK Flexibility Score: inf
ROOT
ATOM      1  C   UNL     1     148.338 145.565 138.363  1.00  0.00     0.161 A 
ATOM      2  C   UNL     1     147.126 145.939 138.960  1.00  0.00     0.157 A 
ATOM      3  C   UNL     1     146.187 144.962 139.317  1.00  0.00     0.051 A 
ATOM      4  C   UNL     1     146.451 143.612 139.080  1.00  0.00     0.015 A 
ATOM      5  C   UNL     1     147.658 143.220 138.483  1.00  0.00     0.018 A 
ATOM      6  C   UNL     1     148.600 144.201 138.125  1.00  0.00     0.062 A 
ENDROOT
BRANCH   1   7
ATOM      7  O   UNL     1     149.251 146.574 138.020  1.00  0.00    -0.493 OA
ATOM      8  C   UNL     1     150.390 146.381 137.185  1.00  0.00     0.278 C 
ENDBRANCH   1   7
BRANCH   2   9
ATOM      9  O   UNL     1     146.861 147.287 139.197  1.00  0.00    -0.504 OA
ATOM     10  H   UNL     1     145.943 147.684 139.031  1.00  0.00     0.293 HD
ENDBRANCH   2   9
BRANCH   5  11
ATOM     11  C   UNL     1     147.917 141.788 138.241  1.00  0.00     0.260 C 
ATOM     12  O   UNL     1     148.861 141.414 137.497  1.00  0.00    -0.298 OA
ENDBRANCH   5  11
TORSDOF 3
ENDMDL
MODEL 6
REMARK VINA RESULT:    -3.280      1.894      3.244
REMARK INTER + INTRA:          -3.813
REMARK INTER:                  -3.742
REMARK INTRA:                  -0.072
REMARK UNBOUND:                -0.054
REMARK SMILES COc1cc(C=O)ccc1O
REMARK SMILES IDX 3 1 10 2 9 3 8 4 5 5 4 6 2 7 1 8 11 9 6 11 7 12
REMARK H PARENT 11 10
REMARK Flexibility Score: inf
ROOT
ATOM      1  C   UNL     1     143.956 133.102 138.260  1.00  0.00     0.161 A 
ATOM      2  C   UNL     1     143.069 132.332 137.496  1.00  0.00     0.157 A 
ATOM      3  C   UNL     1     141.795 132.827 137.187  1.00  0.00     0.051 A 
ATOM      4  C   UNL     1     141.400 134.087 137.637  1.00  0.00     0.015 A 
ATOM      5  C   UNL     1     142.275 134.872 138.403  1.00  0.00     0.018 A 
ATOM      6  C   UNL     1     143.554 134.375 138.713  1.00  0.00     0.062 A 
ENDROOT
BRANCH   1   7
ATOM      7  O   UNL     1     145.222 132.571 138.549  1.00  0.00    -0.493 OA
ATOM      8  C   UNL     1     146.406 132.857 137.809  1.00  0.00     0.278 C 
ENDBRANCH   1   7
BRANCH   2   9
ATOM      9  O   UNL     1     143.461 131.072 137.046  1.00  0.00    -0.504 OA
ATOM     10  H   UNL     1     144.089 130.962 136.258  1.00  0.00     0.293 HD
ENDBRANCH   2   9
BRANCH   5  11
ATOM     11  C   UNL     1     141.839 136.201 138.869  1.00  0.00     0.260 C 
ATOM     12  O   UNL     1     141.267 137.009 138.091  1.00  0.00    -0.298 OA
ENDBRANCH   5  11
TORSDOF 3
ENDMDL
MODEL 7
REMARK VINA RESULT:    -3.267     14.040     15.608
REMARK INTER + INTRA:          -3.798
REMARK INTER:                  -3.725
REMARK INTRA:                  -0.073
REMARK UNBOUND:                -0.054
REMARK SMILES COc1cc(C=O)ccc1O
REMARK SMILES IDX 3 1 10 2 9 3 8 4 5 5 4 6 2 7 1 8 11 9 6 11 7 12
REMARK H PARENT 11 10
REMARK Flexibility Score: inf
ROOT
ATOM      1  C   UNL     1     137.669 148.218 138.313  1.00  0.00     0.161 A 
ATOM      2  C   UNL     1     138.636 148.879 137.543  1.00  0.00     0.157 A 
ATOM      3  C   UNL     1     139.874 148.271 137.298  1.00  0.00     0.051 A 
ATOM      4  C   UNL     1     140.154 147.006 137.817  1.00  0.00     0.015 A 
ATOM      5  C   UNL     1     139.198 146.331 138.590  1.00  0.00     0.018 A 
ATOM      6  C   UNL     1     137.955 146.940 138.836  1.00  0.00     0.062 A 
ENDROOT
BRANCH   1   7
ATOM      7  O   UNL     1     136.441 148.860 138.538  1.00  0.00    -0.493 OA
ATOM      8  C   UNL     1     135.254 148.616 137.789  1.00  0.00     0.278 C 
ENDBRANCH   1   7
BRANCH   2   9
ATOM      9  O   UNL     1     138.358 150.142 137.024  1.00  0.00    -0.504 OA
ATOM     10  H   UNL     1     138.529 150.986 137.559  1.00  0.00     0.293 HD
ENDBRANCH   2   9
BRANCH   5  11
ATOM     11  C   UNL     1     139.514 144.995 139.130  1.00  0.00     0.260 C 
ATOM     12  O   UNL     1     140.017 144.100 138.401  1.00  0.00    -0.298 OA
ENDBRANCH   5  11
TORSDOF 3
ENDMDL
MODEL 8
REMARK VINA RESULT:    -3.239     11.026     12.592
REMARK INTER + INTRA:          -3.766
REMARK INTER:                  -3.698
REMARK INTRA:                  -0.068
REMARK UNBOUND:                -0.054
REMARK SMILES COc1cc(C=O)ccc1O
REMARK SMILES IDX 3 1 10 2 9 3 8 4 5 5 4 6 2 7 1 8 11 9 6 11 7 12
REMARK H PARENT 11 10
REMARK Flexibility Score: inf
ROOT
ATOM      1  C   UNL     1     133.157 137.694 138.322  1.00  0.00     0.161 A 
ATOM      2  C   UNL     1     132.404 138.515 137.472  1.00  0.00     0.157 A 
ATOM      3  C   UNL     1     132.866 139.796 137.142  1.00  0.00     0.051 A 
ATOM      4  C   UNL     1     134.076 140.264 137.657  1.00  0.00     0.015 A 
ATOM      5  C   UNL     1     134.842 139.456 138.510  1.00  0.00     0.018 A 
ATOM      6  C   UNL     1     134.379 138.170 138.840  1.00  0.00     0.062 A 
ENDROOT
BRANCH   1   7
ATOM      7  O   UNL     1     132.661 136.418 138.629  1.00  0.00    -0.493 OA
ATOM      8  C   UNL     1     133.022 135.224 137.941  1.00  0.00     0.278 C 
ENDBRANCH   1   7
BRANCH   2   9
ATOM      9  O   UNL     1     131.196 138.050 136.956  1.00  0.00    -0.504 OA
ATOM     10  H   UNL     1     130.334 138.574 137.068  1.00  0.00     0.293 HD
ENDBRANCH   2   9
BRANCH   5  11
ATOM     11  C   UNL     1     136.117 139.968 139.044  1.00  0.00     0.260 C 
ATOM     12  O   UNL     1     136.220 141.152 139.461  1.00  0.00    -0.298 OA
ENDBRANCH   5  11
TORSDOF 3
ENDMDL
MODEL 9
REMARK VINA RESULT:    -2.995     10.648     12.518
REMARK INTER + INTRA:          -3.487
REMARK INTER:                  -3.432
REMARK INTRA:                  -0.055
REMARK UNBOUND:                -0.054
REMARK SMILES COc1cc(C=O)ccc1O
REMARK SMILES IDX 3 1 10 2 9 3 8 4 5 5 4 6 2 7 1 8 11 9 6 11 7 12
REMARK H PARENT 11 10
REMARK Flexibility Score: inf
ROOT
ATOM      1  C   UNL     1     147.048 145.643 139.057  1.00  0.00     0.161 A 
ATOM      2  C   UNL     1     147.768 146.844 139.003  1.00  0.00     0.157 A 
ATOM      3  C   UNL     1     149.086 146.852 138.527  1.00  0.00     0.051 A 
ATOM      4  C   UNL     1     149.690 145.667 138.103  1.00  0.00     0.015 A 
ATOM      5  C   UNL     1     148.984 144.457 138.151  1.00  0.00     0.018 A 
ATOM      6  C   UNL     1     147.661 144.448 138.629  1.00  0.00     0.062 A 
ENDROOT
BRANCH   1   7
ATOM      7  O   UNL     1     145.731 145.676 139.542  1.00  0.00    -0.493 OA
ATOM      8  C   UNL     1     145.015 144.537 140.010  1.00  0.00     0.278 C 
ENDBRANCH   1   7
BRANCH   2   9
ATOM      9  O   UNL     1     147.167 148.028 139.425  1.00  0.00    -0.504 OA
ATOM     10  H   UNL     1     146.448 148.034 140.140  1.00  0.00     0.293 HD
ENDBRANCH   2   9
BRANCH   5  11
ATOM     11  C   UNL     1     149.640 143.215 137.700  1.00  0.00     0.260 C 
ATOM     12  O   UNL     1     148.989 142.146 137.566  1.00  0.00    -0.298 OA
ENDBRANCH   5  11
TORSDOF 3
ENDMDL
