MODEL 1
REMARK VINA RESULT:    -1.905      0.000      0.000
REMARK INTER + INTRA:          -1.905
REMARK INTER:                  -1.905
REMARK INTRA:                   0.000
REMARK UNBOUND:                 0.000
REMARK SMILES CC(=O)[O-]
REMARK SMILES IDX 1 1 2 2 3 3 4 4
REMARK H PARENT
REMARK Flexibility Score: inf
ROOT
ATOM      1  C   UNL     1      20.646  16.114 -16.480  1.00  0.00     0.063 C 
ATOM      2  C   UNL     1      20.655  14.720 -15.950  1.00  0.00     0.038 C 
ATOM      3  O   UNL     1      19.746  14.334 -15.171  1.00  0.00    -0.550 OA
ATOM      4  O   UNL     1      21.639  13.827 -16.358  1.00  0.00    -0.550 OA
ENDROOT
TORSDOF 0
ENDMDL
MODEL 2
REMARK VINA RESULT:    -1.886      0.149      1.617
REMARK INTER + INTRA:          -1.886
REMARK INTER:                  -1.886
REMARK INTRA:                   0.000
REMARK UNBOUND:                 0.000
REMARK SMILES CC(=O)[O-]
REMARK SMILES IDX 1 1 2 2 3 3 4 4
REMARK H PARENT
REMARK Flexibility Score: inf
ROOT
ATOM      1  C   UNL     1      20.652  16.091 -16.390  1.00  0.00     0.063 C 
ATOM      2  C   UNL     1      20.697  14.652 -16.004  1.00  0.00     0.038 C 
ATOM      3  O   UNL     1      21.675  13.937 -16.343  1.00  0.00    -0.550 OA
ATOM      4  O   UNL     1      19.683  14.108 -15.225  1.00  0.00    -0.550 OA
ENDROOT
TORSDOF 0
ENDMDL
MODEL 3
REMARK VINA RESULT:    -1.863      1.849      2.480
REMARK INTER + INTRA:          -1.863
REMARK INTER:                  -1.863
REMARK INTRA:                   0.000
REMARK UNBOUND:                 0.000
REMARK SMILES CC(=O)[O-]
REMARK SMILES IDX 1 1 2 2 3 3 4 4
REMARK H PARENT
REMARK Flexibility Score: inf
ROOT
ATOM      1  C   UNL     1      20.219  14.633 -15.769  1.00  0.00     0.063 C 
ATOM      2  C   UNL     1      21.085  15.679 -16.384  1.00  0.00     0.038 C 
ATOM      3  O   UNL     1      22.321  15.480 -16.514  1.00  0.00    -0.550 OA
ATOM      4  O   UNL     1      20.522  16.855 -16.865  1.00  0.00    -0.550 OA
ENDROOT
TORSDOF 0
ENDMDL
MODEL 4
REMARK VINA RESULT:    -1.860      1.336      1.757
REMARK INTER + INTRA:          -1.860
REMARK INTER:                  -1.860
REMARK INTRA:                   0.000
REMARK UNBOUND:                 0.000
REMARK SMILES CC(=O)[O-]
REMARK SMILES IDX 1 1 2 2 3 3 4 4
REMARK H PARENT
REMARK Flexibility Score: inf
ROOT
ATOM      1  C   UNL     1      21.644  13.954 -16.605  1.00  0.00     0.063 C 
ATOM      2  C   UNL     1      20.595  14.803 -15.972  1.00  0.00     0.038 C 
ATOM      3  O   UNL     1      19.748  14.288 -15.197  1.00  0.00    -0.550 OA
ATOM      4  O   UNL     1      20.582  16.175 -16.193  1.00  0.00    -0.550 OA
ENDROOT
TORSDOF 0
ENDMDL
MODEL 5
REMARK VINA RESULT:    -1.827      1.842      2.098
REMARK INTER + INTRA:          -1.827
REMARK INTER:                  -1.827
REMARK INTRA:                   0.000
REMARK UNBOUND:                 0.000
REMARK SMILES CC(=O)[O-]
REMARK SMILES IDX 1 1 2 2 3 3 4 4
REMARK H PARENT
REMARK Flexibility Score: inf
ROOT
ATOM      1  C   UNL     1      22.337  15.330 -16.758  1.00  0.00     0.063 C 
ATOM      2  C   UNL     1      20.943  15.703 -16.383  1.00  0.00     0.038 C 
ATOM      3  O   UNL     1      20.448  16.787 -16.787  1.00  0.00    -0.550 OA
ATOM      4  O   UNL     1      20.168  14.830 -15.629  1.00  0.00    -0.550 OA
ENDROOT
TORSDOF 0
ENDMDL
MODEL 6
REMARK VINA RESULT:    -1.752      2.242      3.110
REMARK INTER + INTRA:          -1.752
REMARK INTER:                  -1.752
REMARK INTRA:                   0.000
REMARK UNBOUND:                 0.000
REMARK SMILES CC(=O)[O-]
REMARK SMILES IDX 1 1 2 2 3 3 4 4
REMARK H PARENT
REMARK Flexibility Score: inf
ROOT
ATOM      1  C   UNL     1      18.405  12.003 -16.302  1.00  0.00     0.063 C 
ATOM      2  C   UNL     1      19.627  12.804 -16.003  1.00  0.00     0.038 C 
ATOM      3  O   UNL     1      20.711  12.546 -16.588  1.00  0.00    -0.550 OA
ATOM      4  O   UNL     1      19.559  13.873 -15.117  1.00  0.00    -0.550 OA
ENDROOT
TORSDOF 0
ENDMDL
MODEL 7
REMARK VINA RESULT:    -1.710     14.808     15.217
REMARK INTER + INTRA:          -1.710
REMARK INTER:                  -1.710
REMARK INTRA:                   0.000
REMARK UNBOUND:                 0.000
REMARK SMILES CC(=O)[O-]
REMARK SMILES IDX 1 1 2 2 3 3 4 4
REMARK H PARENT
REMARK Flexibility Score: inf
ROOT
ATOM      1  C   UNL     1      17.091  -1.125 -17.104  1.00  0.00     0.063 C 
ATOM      2  C   UNL     1      17.678   0.081 -17.755  1.00  0.00     0.038 C 
ATOM      3  O   UNL     1      17.247   1.228 -17.467  1.00  0.00    -0.550 OA
ATOM      4  O   UNL     1      18.738  -0.054 -18.643  1.00  0.00    -0.550 OA
ENDROOT
TORSDOF 0
ENDMDL
MODEL 8
REMARK VINA RESULT:    -1.688      3.010      3.458
REMARK INTER + INTRA:          -1.688
REMARK INTER:                  -1.688
REMARK INTRA:                   0.000
REMARK UNBOUND:                 0.000
REMARK SMILES CC(=O)[O-]
REMARK SMILES IDX 1 1 2 2 3 3 4 4
REMARK H PARENT
REMARK Flexibility Score: inf
ROOT
ATOM      1  C   UNL     1      19.588  13.321 -15.566  1.00  0.00     0.063 C 
ATOM      2  C   UNL     1      18.985  12.230 -16.385  1.00  0.00     0.038 C 
ATOM      3  O   UNL     1      19.471  11.070 -16.348  1.00  0.00    -0.550 OA
ATOM      4  O   UNL     1      17.853  12.479 -17.151  1.00  0.00    -0.550 OA
ENDROOT
TORSDOF 0
ENDMDL
MODEL 9
REMARK VINA RESULT:    -1.612      5.114      5.556
REMARK INTER + INTRA:          -1.612
REMARK INTER:                  -1.612
REMARK INTRA:                   0.000
REMARK UNBOUND:                 0.000
REMARK SMILES CC(=O)[O-]
REMARK SMILES IDX 1 1 2 2 3 3 4 4
REMARK H PARENT
REMARK Flexibility Score: inf
ROOT
ATOM      1  C   UNL     1      19.466   8.605 -16.303  1.00  0.00     0.063 C 
ATOM      2  C   UNL     1      19.178   9.934 -16.914  1.00  0.00     0.038 C 
ATOM      3  O   UNL     1      19.506  10.990 -16.313  1.00  0.00    -0.550 OA
ATOM      4  O   UNL     1      18.595  10.010 -18.173  1.00  0.00    -0.550 OA
ENDROOT
TORSDOF 0
ENDMDL
