MODEL 1
REMARK VINA RESULT:    -8.520      0.000      0.000
REMARK INTER + INTRA:         -15.216
REMARK INTER:                 -13.501
REMARK INTRA:                  -1.715
REMARK UNBOUND:                -1.715
REMARK SMILES C[C@@H]1O[C@H](O[C@H]2[C@H](Oc3cc(O)c4c(c3)O[C@H](c3ccc(O)cc3)CC4=O)O[C@H](CO)[C@@H](O)[C@H]2O)[C@H](O)[C@H](O)[C@H]1O
REMARK SMILES IDX 6 1 34 2 32 3 29 4 28 5 7 6 5 7 4 8 1 9 2 10 40 11 3 12
REMARK SMILES IDX 38 13 36 14 41 15 39 17 37 19 35 21 8 23 9 24 10 25 15 26
REMARK SMILES IDX 11 27 14 28 13 29 16 30 26 31 17 32 27 33 25 34 12 35 18 37
REMARK SMILES IDX 19 38 24 39 20 40 23 41 21 42 22 43 33 45 30 47 31 48
REMARK H PARENT 41 16 39 18 37 20 35 22 12 36 22 44 33 46 31 49
REMARK Flexibility Score: inf
ROOT
ATOM      1  C   UNL     1     -19.121  33.880 -22.855  1.00  0.00     0.221 C 
ATOM      2  C   UNL     1     -19.106  35.376 -22.364  1.00  0.00     0.181 C 
ATOM      3  C   UNL     1     -17.775  35.552 -21.634  1.00  0.00     0.177 C 
ATOM      4  C   UNL     1     -16.562  35.459 -22.626  1.00  0.00     0.179 C 
ATOM      5  O   UNL     1     -16.781  34.469 -23.650  1.00  0.00    -0.332 OA
ATOM      6  C   UNL     1     -17.710  33.419 -23.348  1.00  0.00     0.339 C 
ENDROOT
BRANCH   1   7
ATOM      7  O   UNL     1     -20.237  33.249 -23.535  1.00  0.00    -0.337 OA
BRANCH   7   8
ATOM      8  C   UNL     1     -20.581  31.928 -23.071  1.00  0.00     0.282 C 
ATOM      9  C   UNL     1     -22.882  33.468 -22.216  1.00  0.00     0.041 C 
ATOM     10  C   UNL     1     -22.263  32.254 -21.481  1.00  0.00     0.150 C 
ATOM     11  C   UNL     1     -23.058  30.973 -21.748  1.00  0.00     0.174 C 
ATOM     12  O   UNL     1     -20.928  31.987 -21.712  1.00  0.00    -0.344 OA
ATOM     13  C   UNL     1     -22.881  30.484 -23.190  1.00  0.00     0.179 C 
ATOM     14  C   UNL     1     -21.656  31.172 -23.995  1.00  0.00     0.202 C 
BRANCH  11  15
ATOM     15  O   UNL     1     -22.795  29.957 -20.813  1.00  0.00    -0.388 OA
ATOM     16  H   UNL     1     -23.022  30.326 -19.928  1.00  0.00     0.211 HD
ENDBRANCH  11  15
BRANCH  13  17
ATOM     17  O   UNL     1     -24.095  30.685 -23.903  1.00  0.00    -0.387 OA
ATOM     18  H   UNL     1     -24.850  30.803 -23.225  1.00  0.00     0.211 HD
ENDBRANCH  13  17
BRANCH  14  19
ATOM     19  O   UNL     1     -22.095  32.001 -25.044  1.00  0.00    -0.385 OA
ATOM     20  H   UNL     1     -23.062  31.869 -25.116  1.00  0.00     0.211 HD
ENDBRANCH  14  19
ENDBRANCH   7   8
ENDBRANCH   1   7
BRANCH   2  21
ATOM     21  O   UNL     1     -19.292  36.360 -23.361  1.00  0.00    -0.387 OA
ATOM     22  H   UNL     1     -20.185  36.108 -23.812  1.00  0.00     0.211 HD
ENDBRANCH   2  21
BRANCH   6  23
ATOM     23  O   UNL     1     -17.097  32.471 -22.414  1.00  0.00    -0.462 OA
BRANCH  23  24
ATOM     24  C   UNL     1     -16.839  31.128 -22.712  1.00  0.00     0.130 A 
ATOM     25  C   UNL     1     -17.852  30.179 -22.938  1.00  0.00     0.093 A 
ATOM     26  C   UNL     1     -15.483  30.725 -22.815  1.00  0.00     0.094 A 
ATOM     27  C   UNL     1     -17.521  28.897 -23.379  1.00  0.00     0.133 A 
ATOM     28  C   UNL     1     -15.167  29.424 -23.222  1.00  0.00     0.138 A 
ATOM     29  C   UNL     1     -16.183  28.537 -23.566  1.00  0.00     0.102 A 
ATOM     30  O   UNL     1     -13.825  28.989 -23.278  1.00  0.00    -0.484 OA
ATOM     31  C   UNL     1     -15.740  27.176 -23.912  1.00  0.00     0.174 C 
ATOM     32  C   UNL     1     -13.399  27.826 -24.074  1.00  0.00     0.211 C 
ATOM     33  O   UNL     1     -15.943  26.220 -23.087  1.00  0.00    -0.294 OA
ATOM     34  C   UNL     1     -14.563  27.155 -24.838  1.00  0.00     0.131 C 
BRANCH  27  35
ATOM     35  O   UNL     1     -18.562  27.964 -23.675  1.00  0.00    -0.507 OA
ATOM     36  H   UNL     1     -19.088  28.012 -24.510  1.00  0.00     0.293 HD
ENDBRANCH  27  35
BRANCH  32  37
ATOM     37  C   UNL     1     -12.331  28.296 -24.996  1.00  0.00    -0.007 A 
ATOM     38  C   UNL     1     -11.976  29.647 -24.977  1.00  0.00     0.011 A 
ATOM     39  C   UNL     1     -11.565  27.384 -25.771  1.00  0.00     0.011 A 
ATOM     40  C   UNL     1     -10.852  30.107 -25.672  1.00  0.00     0.046 A 
ATOM     41  C   UNL     1     -10.408  27.841 -26.433  1.00  0.00     0.046 A 
ATOM     42  C   UNL     1     -10.047  29.175 -26.364  1.00  0.00     0.115 A 
BRANCH  42  43
ATOM     43  O   UNL     1      -8.919  29.639 -27.024  1.00  0.00    -0.508 OA
ATOM     44  H   UNL     1      -7.983  29.343 -26.750  1.00  0.00     0.293 HD
ENDBRANCH  42  43
ENDBRANCH  32  37
ENDBRANCH  23  24
ENDBRANCH   6  23
BRANCH   3  45
ATOM     45  O   UNL     1     -17.707  36.758 -20.944  1.00  0.00    -0.387 OA
ATOM     46  H   UNL     1     -18.488  37.299 -21.228  1.00  0.00     0.211 HD
ENDBRANCH   3  45
BRANCH   4  47
ATOM     47  C   UNL     1     -15.143  35.272 -22.015  1.00  0.00     0.191 C 
BRANCH  47  48
ATOM     48  O   UNL     1     -15.235  35.633 -20.669  1.00  0.00    -0.394 OA
ATOM     49  H   UNL     1     -15.958  36.299 -20.559  1.00  0.00     0.210 HD
ENDBRANCH  47  48
ENDBRANCH   4  47
TORSDOF 14
ENDMDL
MODEL 2
REMARK VINA RESULT:    -8.180      2.055      2.485
REMARK INTER + INTRA:         -14.676
REMARK INTER:                 -12.644
REMARK INTRA:                  -2.032
REMARK UNBOUND:                -1.715
REMARK SMILES C[C@@H]1O[C@H](O[C@H]2[C@H](Oc3cc(O)c4c(c3)O[C@H](c3ccc(O)cc3)CC4=O)O[C@H](CO)[C@@H](O)[C@H]2O)[C@H](O)[C@H](O)[C@H]1O
REMARK SMILES IDX 6 1 34 2 32 3 29 4 28 5 7 6 5 7 4 8 1 9 2 10 40 11 3 12
REMARK SMILES IDX 38 13 36 14 41 15 39 17 37 19 35 21 8 23 9 24 10 25 15 26
REMARK SMILES IDX 11 27 14 28 13 29 16 30 26 31 17 32 27 33 25 34 12 35 18 37
REMARK SMILES IDX 19 38 24 39 20 40 23 41 21 42 22 43 33 45 30 47 31 48
REMARK H PARENT 41 16 39 18 37 20 35 22 12 36 22 44 33 46 31 49
REMARK Flexibility Score: inf
ROOT
ATOM      1  C   UNL     1     -18.822  33.908 -22.994  1.00  0.00     0.221 C 
ATOM      2  C   UNL     1     -18.939  35.319 -22.305  1.00  0.00     0.181 C 
ATOM      3  C   UNL     1     -17.598  35.544 -21.607  1.00  0.00     0.177 C 
ATOM      4  C   UNL     1     -16.434  35.717 -22.645  1.00  0.00     0.179 C 
ATOM      5  O   UNL     1     -16.599  34.852 -23.786  1.00  0.00    -0.332 OA
ATOM      6  C   UNL     1     -17.397  33.675 -23.596  1.00  0.00     0.339 C 
ENDROOT
BRANCH   1   7
ATOM      7  O   UNL     1     -19.898  33.251 -23.712  1.00  0.00    -0.337 OA
BRANCH   7   8
ATOM      8  C   UNL     1     -20.292  31.963 -23.199  1.00  0.00     0.282 C 
ATOM      9  C   UNL     1     -22.541  33.616 -22.421  1.00  0.00     0.041 C 
ATOM     10  C   UNL     1     -21.970  32.410 -21.635  1.00  0.00     0.150 C 
ATOM     11  C   UNL     1     -22.809  31.149 -21.858  1.00  0.00     0.174 C 
ATOM     12  O   UNL     1     -20.644  32.087 -21.846  1.00  0.00    -0.344 OA
ATOM     13  C   UNL     1     -22.642  30.599 -23.279  1.00  0.00     0.179 C 
ATOM     14  C   UNL     1     -21.389  31.211 -24.101  1.00  0.00     0.202 C 
BRANCH  11  15
ATOM     15  O   UNL     1     -22.589  30.162 -20.882  1.00  0.00    -0.388 OA
ATOM     16  H   UNL     1     -22.321  30.635 -20.061  1.00  0.00     0.211 HD
ENDBRANCH  11  15
BRANCH  13  17
ATOM     17  O   UNL     1     -23.844  30.816 -24.006  1.00  0.00    -0.387 OA
ATOM     18  H   UNL     1     -24.163  29.918 -24.376  1.00  0.00     0.211 HD
ENDBRANCH  13  17
BRANCH  14  19
ATOM     19  O   UNL     1     -21.791  32.013 -25.185  1.00  0.00    -0.385 OA
ATOM     20  H   UNL     1     -21.177  32.775 -25.209  1.00  0.00     0.211 HD
ENDBRANCH  14  19
ENDBRANCH   7   8
ENDBRANCH   1   7
BRANCH   2  21
ATOM     21  O   UNL     1     -19.278  36.398 -23.152  1.00  0.00    -0.387 OA
ATOM     22  H   UNL     1     -19.269  35.996 -24.102  1.00  0.00     0.211 HD
ENDBRANCH   2  21
BRANCH   6  23
ATOM     23  O   UNL     1     -16.640  32.687 -22.821  1.00  0.00    -0.462 OA
BRANCH  23  24
ATOM     24  C   UNL     1     -16.497  31.343 -23.188  1.00  0.00     0.130 A 
ATOM     25  C   UNL     1     -16.924  30.831 -24.427  1.00  0.00     0.093 A 
ATOM     26  C   UNL     1     -15.863  30.472 -22.265  1.00  0.00     0.094 A 
ATOM     27  C   UNL     1     -16.613  29.518 -24.782  1.00  0.00     0.133 A 
ATOM     28  C   UNL     1     -15.592  29.147 -22.623  1.00  0.00     0.138 A 
ATOM     29  C   UNL     1     -15.906  28.695 -23.902  1.00  0.00     0.102 A 
ATOM     30  O   UNL     1     -15.011  28.252 -21.699  1.00  0.00    -0.484 OA
ATOM     31  C   UNL     1     -15.641  27.267 -24.146  1.00  0.00     0.174 C 
ATOM     32  C   UNL     1     -14.325  27.017 -22.112  1.00  0.00     0.211 C 
ATOM     33  O   UNL     1     -16.620  26.449 -24.218  1.00  0.00    -0.294 OA
ATOM     34  C   UNL     1     -14.301  26.821 -23.645  1.00  0.00     0.131 C 
BRANCH  27  35
ATOM     35  O   UNL     1     -16.988  29.031 -26.073  1.00  0.00    -0.507 OA
ATOM     36  H   UNL     1     -17.434  28.158 -26.195  1.00  0.00     0.293 HD
ENDBRANCH  27  35
BRANCH  32  37
ATOM     37  C   UNL     1     -12.953  27.067 -21.541  1.00  0.00    -0.007 A 
ATOM     38  C   UNL     1     -11.926  27.620 -22.311  1.00  0.00     0.011 A 
ATOM     39  C   UNL     1     -12.698  26.716 -20.188  1.00  0.00     0.011 A 
ATOM     40  C   UNL     1     -10.667  27.874 -21.758  1.00  0.00     0.046 A 
ATOM     41  C   UNL     1     -11.444  27.015 -19.620  1.00  0.00     0.046 A 
ATOM     42  C   UNL     1     -10.455  27.605 -20.388  1.00  0.00     0.115 A 
BRANCH  42  43
ATOM     43  O   UNL     1      -9.211  27.891 -19.843  1.00  0.00    -0.508 OA
ATOM     44  H   UNL     1      -8.992  27.673 -18.873  1.00  0.00     0.293 HD
ENDBRANCH  42  43
ENDBRANCH  32  37
ENDBRANCH  23  24
ENDBRANCH   6  23
BRANCH   3  45
ATOM     45  O   UNL     1     -17.622  36.649 -20.762  1.00  0.00    -0.387 OA
ATOM     46  H   UNL     1     -17.070  36.422 -19.970  1.00  0.00     0.211 HD
ENDBRANCH   3  45
BRANCH   4  47
ATOM     47  C   UNL     1     -14.974  35.611 -22.118  1.00  0.00     0.191 C 
BRANCH  47  48
ATOM     48  O   UNL     1     -15.055  35.550 -20.725  1.00  0.00    -0.394 OA
ATOM     49  H   UNL     1     -14.669  34.694 -20.413  1.00  0.00     0.210 HD
ENDBRANCH  47  48
ENDBRANCH   4  47
TORSDOF 14
ENDMDL
MODEL 3
REMARK VINA RESULT:    -7.438      1.551      4.804
REMARK INTER + INTRA:         -13.501
REMARK INTER:                 -12.125
REMARK INTRA:                  -1.377
REMARK UNBOUND:                -1.715
REMARK SMILES C[C@@H]1O[C@H](O[C@H]2[C@H](Oc3cc(O)c4c(c3)O[C@H](c3ccc(O)cc3)CC4=O)O[C@H](CO)[C@@H](O)[C@H]2O)[C@H](O)[C@H](O)[C@H]1O
REMARK SMILES IDX 6 1 34 2 32 3 29 4 28 5 7 6 5 7 4 8 1 9 2 10 40 11 3 12
REMARK SMILES IDX 38 13 36 14 41 15 39 17 37 19 35 21 8 23 9 24 10 25 15 26
REMARK SMILES IDX 11 27 14 28 13 29 16 30 26 31 17 32 27 33 25 34 12 35 18 37
REMARK SMILES IDX 19 38 24 39 20 40 23 41 21 42 22 43 33 45 30 47 31 48
REMARK H PARENT 41 16 39 18 37 20 35 22 12 36 22 44 33 46 31 49
REMARK Flexibility Score: inf
ROOT
ATOM      1  C   UNL     1     -20.239  32.786 -24.315  1.00  0.00     0.221 C 
ATOM      2  C   UNL     1     -21.812  32.808 -24.392  1.00  0.00     0.181 C 
ATOM      3  C   UNL     1     -22.226  31.365 -24.680  1.00  0.00     0.177 C 
ATOM      4  C   UNL     1     -21.912  30.427 -23.463  1.00  0.00     0.179 C 
ATOM      5  O   UNL     1     -20.675  30.783 -22.814  1.00  0.00    -0.332 OA
ATOM      6  C   UNL     1     -19.713  31.497 -23.603  1.00  0.00     0.339 C 
ENDROOT
BRANCH   1   7
ATOM      7  O   UNL     1     -19.408  33.962 -24.132  1.00  0.00    -0.337 OA
BRANCH   7   8
ATOM      8  C   UNL     1     -19.355  34.481 -22.788  1.00  0.00     0.282 C 
ATOM      9  C   UNL     1     -16.630  33.572 -23.173  1.00  0.00     0.041 C 
ATOM     10  C   UNL     1     -17.428  33.555 -21.845  1.00  0.00     0.150 C 
ATOM     11  C   UNL     1     -17.044  34.733 -20.946  1.00  0.00     0.174 C 
ATOM     12  O   UNL     1     -18.805  33.513 -21.934  1.00  0.00    -0.344 OA
ATOM     13  C   UNL     1     -17.556  36.065 -21.505  1.00  0.00     0.179 C 
ATOM     14  C   UNL     1     -18.665  35.928 -22.676  1.00  0.00     0.202 C 
BRANCH  11  15
ATOM     15  O   UNL     1     -17.419  34.546 -19.605  1.00  0.00    -0.388 OA
ATOM     16  H   UNL     1     -18.339  34.888 -19.521  1.00  0.00     0.211 HD
ENDBRANCH  11  15
BRANCH  13  17
ATOM     17  O   UNL     1     -16.453  36.827 -21.977  1.00  0.00    -0.387 OA
ATOM     18  H   UNL     1     -15.639  36.606 -21.400  1.00  0.00     0.211 HD
ENDBRANCH  13  17
BRANCH  14  19
ATOM     19  O   UNL     1     -18.188  36.361 -23.928  1.00  0.00    -0.385 OA
ATOM     20  H   UNL     1     -18.971  36.657 -24.436  1.00  0.00     0.211 HD
ENDBRANCH  14  19
ENDBRANCH   7   8
ENDBRANCH   1   7
BRANCH   2  21
ATOM     21  O   UNL     1     -22.482  33.332 -23.264  1.00  0.00    -0.387 OA
ATOM     22  H   UNL     1     -23.330  32.752 -23.173  1.00  0.00     0.211 HD
ENDBRANCH   2  21
BRANCH   6  23
ATOM     23  O   UNL     1     -19.075  30.580 -24.552  1.00  0.00    -0.462 OA
BRANCH  23  24
ATOM     24  C   UNL     1     -18.167  29.579 -24.188  1.00  0.00     0.130 A 
ATOM     25  C   UNL     1     -18.515  28.219 -24.091  1.00  0.00     0.093 A 
ATOM     26  C   UNL     1     -16.826  29.966 -23.935  1.00  0.00     0.094 A 
ATOM     27  C   UNL     1     -17.524  27.261 -23.872  1.00  0.00     0.133 A 
ATOM     28  C   UNL     1     -15.852  28.995 -23.679  1.00  0.00     0.138 A 
ATOM     29  C   UNL     1     -16.190  27.645 -23.714  1.00  0.00     0.102 A 
ATOM     30  O   UNL     1     -14.525  29.365 -23.371  1.00  0.00    -0.484 OA
ATOM     31  C   UNL     1     -15.103  26.716 -23.362  1.00  0.00     0.174 C 
ATOM     32  C   UNL     1     -13.389  28.438 -23.509  1.00  0.00     0.211 C 
ATOM     33  O   UNL     1     -15.126  26.121 -22.231  1.00  0.00    -0.294 OA
ATOM     34  C   UNL     1     -13.803  27.044 -24.031  1.00  0.00     0.131 C 
BRANCH  27  35
ATOM     35  O   UNL     1     -17.878  25.875 -23.848  1.00  0.00    -0.507 OA
ATOM     36  H   UNL     1     -17.213  25.167 -23.669  1.00  0.00     0.293 HD
ENDBRANCH  27  35
BRANCH  32  37
ATOM     37  C   UNL     1     -12.398  29.091 -24.405  1.00  0.00    -0.007 A 
ATOM     38  C   UNL     1     -11.335  29.792 -23.831  1.00  0.00     0.011 A 
ATOM     39  C   UNL     1     -12.419  28.886 -25.811  1.00  0.00     0.011 A 
ATOM     40  C   UNL     1     -10.270  30.255 -24.612  1.00  0.00     0.046 A 
ATOM     41  C   UNL     1     -11.325  29.313 -26.589  1.00  0.00     0.046 A 
ATOM     42  C   UNL     1     -10.260  29.965 -25.994  1.00  0.00     0.115 A 
BRANCH  42  43
ATOM     43  O   UNL     1      -9.184  30.402 -26.752  1.00  0.00    -0.508 OA
ATOM     44  H   UNL     1      -9.051  31.389 -26.969  1.00  0.00     0.293 HD
ENDBRANCH  42  43
ENDBRANCH  32  37
ENDBRANCH  23  24
ENDBRANCH   6  23
BRANCH   3  45
ATOM     45  O   UNL     1     -23.575  31.258 -25.002  1.00  0.00    -0.387 OA
ATOM     46  H   UNL     1     -24.082  31.717 -24.284  1.00  0.00     0.211 HD
ENDBRANCH   3  45
BRANCH   4  47
ATOM     47  C   UNL     1     -21.948  28.890 -23.707  1.00  0.00     0.191 C 
BRANCH  47  48
ATOM     48  O   UNL     1     -23.246  28.581 -24.120  1.00  0.00    -0.394 OA
ATOM     49  H   UNL     1     -23.265  27.656 -24.469  1.00  0.00     0.210 HD
ENDBRANCH  47  48
ENDBRANCH   4  47
TORSDOF 14
ENDMDL
MODEL 4
REMARK VINA RESULT:    -7.264      3.137      6.398
REMARK INTER + INTRA:         -13.224
REMARK INTER:                 -11.897
REMARK INTRA:                  -1.327
REMARK UNBOUND:                -1.715
REMARK SMILES C[C@@H]1O[C@H](O[C@H]2[C@H](Oc3cc(O)c4c(c3)O[C@H](c3ccc(O)cc3)CC4=O)O[C@H](CO)[C@@H](O)[C@H]2O)[C@H](O)[C@H](O)[C@H]1O
REMARK SMILES IDX 6 1 34 2 32 3 29 4 28 5 7 6 5 7 4 8 1 9 2 10 40 11 3 12
REMARK SMILES IDX 38 13 36 14 41 15 39 17 37 19 35 21 8 23 9 24 10 25 15 26
REMARK SMILES IDX 11 27 14 28 13 29 16 30 26 31 17 32 27 33 25 34 12 35 18 37
REMARK SMILES IDX 19 38 24 39 20 40 23 41 21 42 22 43 33 45 30 47 31 48
REMARK H PARENT 41 16 39 18 37 20 35 22 12 36 22 44 33 46 31 49
REMARK Flexibility Score: inf
ROOT
ATOM      1  C   UNL     1     -16.747  31.098 -23.094  1.00  0.00     0.221 C 
ATOM      2  C   UNL     1     -18.154  30.394 -23.025  1.00  0.00     0.181 C 
ATOM      3  C   UNL     1     -18.013  29.120 -23.857  1.00  0.00     0.177 C 
ATOM      4  C   UNL     1     -17.036  28.098 -23.177  1.00  0.00     0.179 C 
ATOM      5  O   UNL     1     -15.923  28.758 -22.544  1.00  0.00    -0.332 OA
ATOM      6  C   UNL     1     -15.578  30.061 -23.036  1.00  0.00     0.339 C 
ENDROOT
BRANCH   1   7
ATOM      7  O   UNL     1     -16.443  32.388 -22.503  1.00  0.00    -0.337 OA
BRANCH   7   8
ATOM      8  C   UNL     1     -16.767  33.535 -23.314  1.00  0.00     0.282 C 
ATOM      9  C   UNL     1     -18.915  33.566 -21.368  1.00  0.00     0.041 C 
ATOM     10  C   UNL     1     -19.010  34.001 -22.852  1.00  0.00     0.150 C 
ATOM     11  C   UNL     1     -18.945  35.523 -22.995  1.00  0.00     0.174 C 
ATOM     12  O   UNL     1     -18.104  33.447 -23.733  1.00  0.00    -0.344 OA
ATOM     13  C   UNL     1     -17.544  36.064 -22.686  1.00  0.00     0.179 C 
ATOM     14  C   UNL     1     -16.378  34.941 -22.640  1.00  0.00     0.202 C 
BRANCH  11  15
ATOM     15  O   UNL     1     -19.424  35.981 -24.234  1.00  0.00    -0.388 OA
ATOM     16  H   UNL     1     -20.058  36.709 -24.037  1.00  0.00     0.211 HD
ENDBRANCH  11  15
BRANCH  13  17
ATOM     17  O   UNL     1     -17.577  36.770 -21.453  1.00  0.00    -0.387 OA
ATOM     18  H   UNL     1     -17.810  37.745 -21.647  1.00  0.00     0.211 HD
ENDBRANCH  13  17
BRANCH  14  19
ATOM     19  O   UNL     1     -15.856  34.755 -21.346  1.00  0.00    -0.385 OA
ATOM     20  H   UNL     1     -16.181  35.504 -20.806  1.00  0.00     0.211 HD
ENDBRANCH  14  19
ENDBRANCH   7   8
ENDBRANCH   1   7
BRANCH   2  21
ATOM     21  O   UNL     1     -18.651  30.124 -21.730  1.00  0.00    -0.387 OA
ATOM     22  H   UNL     1     -19.629  29.835 -21.882  1.00  0.00     0.211 HD
ENDBRANCH   2  21
BRANCH   6  23
ATOM     23  O   UNL     1     -14.904  29.936 -24.331  1.00  0.00    -0.462 OA
BRANCH  23  24
ATOM     24  C   UNL     1     -13.672  29.299 -24.518  1.00  0.00     0.130 A 
ATOM     25  C   UNL     1     -12.849  29.523 -25.637  1.00  0.00     0.093 A 
ATOM     26  C   UNL     1     -13.231  28.406 -23.508  1.00  0.00     0.094 A 
ATOM     27  C   UNL     1     -11.569  28.969 -25.683  1.00  0.00     0.133 A 
ATOM     28  C   UNL     1     -11.959  27.829 -23.588  1.00  0.00     0.138 A 
ATOM     29  C   UNL     1     -11.108  28.164 -24.638  1.00  0.00     0.102 A 
ATOM     30  O   UNL     1     -11.525  26.897 -22.621  1.00  0.00    -0.484 OA
ATOM     31  C   UNL     1      -9.823  27.446 -24.659  1.00  0.00     0.174 C 
ATOM     32  C   UNL     1     -10.104  26.585 -22.399  1.00  0.00     0.211 C 
ATOM     33  O   UNL     1      -9.630  26.529 -25.529  1.00  0.00    -0.294 OA
ATOM     34  C   UNL     1      -9.156  27.387 -23.319  1.00  0.00     0.131 C 
BRANCH  27  35
ATOM     35  O   UNL     1     -10.714  29.263 -26.791  1.00  0.00    -0.507 OA
ATOM     36  H   UNL     1     -11.071  29.539 -27.670  1.00  0.00     0.293 HD
ENDBRANCH  27  35
BRANCH  32  37
ATOM     37  C   UNL     1      -9.820  26.836 -20.961  1.00  0.00    -0.007 A 
ATOM     38  C   UNL     1     -10.565  26.145 -20.001  1.00  0.00     0.011 A 
ATOM     39  C   UNL     1      -8.716  27.630 -20.549  1.00  0.00     0.011 A 
ATOM     40  C   UNL     1     -10.213  26.188 -18.647  1.00  0.00     0.046 A 
ATOM     41  C   UNL     1      -8.336  27.635 -19.192  1.00  0.00     0.046 A 
ATOM     42  C   UNL     1      -9.060  26.908 -18.264  1.00  0.00     0.115 A 
BRANCH  42  43
ATOM     43  O   UNL     1      -8.704  26.918 -16.923  1.00  0.00    -0.508 OA
ATOM     44  H   UNL     1      -7.736  26.797 -16.627  1.00  0.00     0.293 HD
ENDBRANCH  42  43
ENDBRANCH  32  37
ENDBRANCH  23  24
ENDBRANCH   6  23
BRANCH   3  45
ATOM     45  O   UNL     1     -19.238  28.499 -24.082  1.00  0.00    -0.387 OA
ATOM     46  H   UNL     1     -19.644  28.937 -24.874  1.00  0.00     0.211 HD
ENDBRANCH   3  45
BRANCH   4  47
ATOM     47  C   UNL     1     -16.516  26.912 -24.041  1.00  0.00     0.191 C 
BRANCH  47  48
ATOM     48  O   UNL     1     -16.472  27.367 -25.361  1.00  0.00    -0.394 OA
ATOM     49  H   UNL     1     -15.644  27.040 -25.791  1.00  0.00     0.210 HD
ENDBRANCH  47  48
ENDBRANCH   4  47
TORSDOF 14
ENDMDL
MODEL 5
REMARK VINA RESULT:    -6.930     11.264     14.761
REMARK INTER + INTRA:         -12.696
REMARK INTER:                 -10.959
REMARK INTRA:                  -1.737
REMARK UNBOUND:                -1.715
REMARK SMILES C[C@@H]1O[C@H](O[C@H]2[C@H](Oc3cc(O)c4c(c3)O[C@H](c3ccc(O)cc3)CC4=O)O[C@H](CO)[C@@H](O)[C@H]2O)[C@H](O)[C@H](O)[C@H]1O
REMARK SMILES IDX 6 1 34 2 32 3 29 4 28 5 7 6 5 7 4 8 1 9 2 10 40 11 3 12
REMARK SMILES IDX 38 13 36 14 41 15 39 17 37 19 35 21 8 23 9 24 10 25 15 26
REMARK SMILES IDX 11 27 14 28 13 29 16 30 26 31 17 32 27 33 25 34 12 35 18 37
REMARK SMILES IDX 19 38 24 39 20 40 23 41 21 42 22 43 33 45 30 47 31 48
REMARK H PARENT 41 16 39 18 37 20 35 22 12 36 22 44 33 46 31 49
REMARK Flexibility Score: inf
ROOT
ATOM      1  C   UNL     1      -6.724  29.729 -13.477  1.00  0.00     0.221 C 
ATOM      2  C   UNL     1      -8.226  29.841 -13.016  1.00  0.00     0.181 C 
ATOM      3  C   UNL     1      -8.862  28.497 -13.368  1.00  0.00     0.177 C 
ATOM      4  C   UNL     1      -8.274  27.338 -12.488  1.00  0.00     0.179 C 
ATOM      5  O   UNL     1      -6.863  27.509 -12.248  1.00  0.00    -0.332 OA
ATOM      6  C   UNL     1      -6.137  28.307 -13.193  1.00  0.00     0.339 C 
ENDROOT
BRANCH   1   7
ATOM      7  O   UNL     1      -5.758  30.809 -13.404  1.00  0.00    -0.337 OA
BRANCH   7   8
ATOM      8  C   UNL     1      -6.134  31.923 -12.569  1.00  0.00     0.282 C 
ATOM      9  C   UNL     1      -3.875  33.014 -14.021  1.00  0.00     0.041 C 
ATOM     10  C   UNL     1      -4.275  33.340 -12.561  1.00  0.00     0.150 C 
ATOM     11  C   UNL     1      -5.024  34.672 -12.469  1.00  0.00     0.174 C 
ATOM     12  O   UNL     1      -5.005  32.388 -11.876  1.00  0.00    -0.344 OA
ATOM     13  C   UNL     1      -6.429  34.577 -13.077  1.00  0.00     0.179 C 
ATOM     14  C   UNL     1      -6.953  33.068 -13.342  1.00  0.00     0.202 C 
BRANCH  11  15
ATOM     15  O   UNL     1      -5.049  35.201 -11.168  1.00  0.00    -0.388 OA
ATOM     16  H   UNL     1      -4.404  35.945 -11.156  1.00  0.00     0.211 HD
ENDBRANCH  11  15
BRANCH  13  17
ATOM     17  O   UNL     1      -6.461  35.315 -14.292  1.00  0.00    -0.387 OA
ATOM     18  H   UNL     1      -5.957  34.784 -15.005  1.00  0.00     0.211 HD
ENDBRANCH  13  17
BRANCH  14  19
ATOM     19  O   UNL     1      -7.074  32.769 -14.712  1.00  0.00    -0.385 OA
ATOM     20  H   UNL     1      -8.027  32.625 -14.881  1.00  0.00     0.211 HD
ENDBRANCH  14  19
ENDBRANCH   7   8
ENDBRANCH   1   7
BRANCH   2  21
ATOM     21  O   UNL     1      -8.436  30.183 -11.661  1.00  0.00    -0.387 OA
ATOM     22  H   UNL     1      -8.324  31.208 -11.631  1.00  0.00     0.211 HD
ENDBRANCH   2  21
BRANCH   6  23
ATOM     23  O   UNL     1      -5.942  27.548 -14.431  1.00  0.00    -0.462 OA
BRANCH  23  24
ATOM     24  C   UNL     1      -6.419  27.951 -15.684  1.00  0.00     0.130 A 
ATOM     25  C   UNL     1      -7.522  27.350 -16.320  1.00  0.00     0.093 A 
ATOM     26  C   UNL     1      -5.766  29.037 -16.320  1.00  0.00     0.094 A 
ATOM     27  C   UNL     1      -8.033  27.902 -17.495  1.00  0.00     0.133 A 
ATOM     28  C   UNL     1      -6.270  29.555 -17.519  1.00  0.00     0.138 A 
ATOM     29  C   UNL     1      -7.438  29.030 -18.066  1.00  0.00     0.102 A 
ATOM     30  O   UNL     1      -5.602  30.599 -18.193  1.00  0.00    -0.484 OA
ATOM     31  C   UNL     1      -7.837  29.603 -19.362  1.00  0.00     0.174 C 
ATOM     32  C   UNL     1      -6.268  31.456 -19.188  1.00  0.00     0.211 C 
ATOM     33  O   UNL     1      -7.687  28.913 -20.428  1.00  0.00    -0.294 OA
ATOM     34  C   UNL     1      -7.756  31.099 -19.397  1.00  0.00     0.131 C 
BRANCH  27  35
ATOM     35  O   UNL     1      -9.198  27.327 -18.093  1.00  0.00    -0.507 OA
ATOM     36  H   UNL     1      -9.336  26.350 -18.140  1.00  0.00     0.293 HD
ENDBRANCH  27  35
BRANCH  32  37
ATOM     37  C   UNL     1      -6.097  32.863 -18.737  1.00  0.00    -0.007 A 
ATOM     38  C   UNL     1      -5.316  33.114 -17.606  1.00  0.00     0.011 A 
ATOM     39  C   UNL     1      -6.571  33.956 -19.513  1.00  0.00     0.011 A 
ATOM     40  C   UNL     1      -4.957  34.419 -17.252  1.00  0.00     0.046 A 
ATOM     41  C   UNL     1      -6.171  35.265 -19.181  1.00  0.00     0.046 A 
ATOM     42  C   UNL     1      -5.359  35.488 -18.083  1.00  0.00     0.115 A 
BRANCH  42  43
ATOM     43  O   UNL     1      -4.971  36.775 -17.738  1.00  0.00    -0.508 OA
ATOM     44  H   UNL     1      -5.589  37.397 -17.220  1.00  0.00     0.293 HD
ENDBRANCH  42  43
ENDBRANCH  32  37
ENDBRANCH  23  24
ENDBRANCH   6  23
BRANCH   3  45
ATOM     45  O   UNL     1     -10.246  28.517 -13.229  1.00  0.00    -0.387 OA
ATOM     46  H   UNL     1     -10.564  27.586 -13.360  1.00  0.00     0.211 HD
ENDBRANCH   3  45
BRANCH   4  47
ATOM     47  C   UNL     1      -8.551  25.875 -12.942  1.00  0.00     0.191 C 
BRANCH  47  48
ATOM     48  O   UNL     1      -9.668  25.921 -13.780  1.00  0.00    -0.394 OA
ATOM     49  H   UNL     1      -9.592  25.210 -14.463  1.00  0.00     0.210 HD
ENDBRANCH  47  48
ENDBRANCH   4  47
TORSDOF 14
ENDMDL
MODEL 6
REMARK VINA RESULT:    -6.834      3.338     10.006
REMARK INTER + INTRA:         -12.544
REMARK INTER:                 -11.241
REMARK INTRA:                  -1.303
REMARK UNBOUND:                -1.715
REMARK SMILES C[C@@H]1O[C@H](O[C@H]2[C@H](Oc3cc(O)c4c(c3)O[C@H](c3ccc(O)cc3)CC4=O)O[C@H](CO)[C@@H](O)[C@H]2O)[C@H](O)[C@H](O)[C@H]1O
REMARK SMILES IDX 6 1 34 2 32 3 29 4 28 5 7 6 5 7 4 8 1 9 2 10 40 11 3 12
REMARK SMILES IDX 38 13 36 14 41 15 39 17 37 19 35 21 8 23 9 24 10 25 15 26
REMARK SMILES IDX 11 27 14 28 13 29 16 30 26 31 17 32 27 33 25 34 12 35 18 37
REMARK SMILES IDX 19 38 24 39 20 40 23 41 21 42 22 43 33 45 30 47 31 48
REMARK H PARENT 41 16 39 18 37 20 35 22 12 36 22 44 33 46 31 49
REMARK Flexibility Score: inf
ROOT
ATOM      1  C   UNL     1     -11.914  27.927 -23.055  1.00  0.00     0.221 C 
ATOM      2  C   UNL     1     -10.889  27.780 -24.241  1.00  0.00     0.181 C 
ATOM      3  C   UNL     1     -11.735  27.792 -25.515  1.00  0.00     0.177 C 
ATOM      4  C   UNL     1     -12.398  29.194 -25.748  1.00  0.00     0.179 C 
ATOM      5  O   UNL     1     -12.818  29.802 -24.511  1.00  0.00    -0.332 OA
ATOM      6  C   UNL     1     -13.069  28.920 -23.408  1.00  0.00     0.339 C 
ENDROOT
BRANCH   1   7
ATOM      7  O   UNL     1     -11.556  27.888 -21.649  1.00  0.00    -0.337 OA
BRANCH   7   8
ATOM      8  C   UNL     1     -10.685  26.808 -21.259  1.00  0.00     0.282 C 
ATOM      9  C   UNL     1      -9.133  29.126 -20.473  1.00  0.00     0.041 C 
ATOM     10  C   UNL     1      -8.576  27.781 -21.002  1.00  0.00     0.150 C 
ATOM     11  C   UNL     1      -8.071  26.896 -19.859  1.00  0.00     0.174 C 
ATOM     12  O   UNL     1      -9.407  27.021 -21.800  1.00  0.00    -0.344 OA
ATOM     13  C   UNL     1      -9.226  26.349 -19.012  1.00  0.00     0.179 C 
ATOM     14  C   UNL     1     -10.692  26.502 -19.682  1.00  0.00     0.202 C 
BRANCH  11  15
ATOM     15  O   UNL     1      -7.208  25.875 -20.293  1.00  0.00    -0.388 OA
ATOM     16  H   UNL     1      -7.465  25.668 -21.221  1.00  0.00     0.211 HD
ENDBRANCH  11  15
BRANCH  13  17
ATOM     17  O   UNL     1      -9.212  26.985 -17.740  1.00  0.00    -0.387 OA
ATOM     18  H   UNL     1     -10.158  27.310 -17.533  1.00  0.00     0.211 HD
ENDBRANCH  13  17
BRANCH  14  19
ATOM     19  O   UNL     1     -11.511  27.416 -18.992  1.00  0.00    -0.385 OA
ATOM     20  H   UNL     1     -12.018  26.894 -18.337  1.00  0.00     0.211 HD
ENDBRANCH  14  19
ENDBRANCH   7   8
ENDBRANCH   1   7
BRANCH   2  21
ATOM     21  O   UNL     1      -9.853  28.741 -24.290  1.00  0.00    -0.387 OA
ATOM     22  H   UNL     1     -10.334  29.647 -24.184  1.00  0.00     0.211 HD
ENDBRANCH   2  21
BRANCH   6  23
ATOM     23  O   UNL     1     -14.338  28.218 -23.618  1.00  0.00    -0.462 OA
BRANCH  23  24
ATOM     24  C   UNL     1     -15.575  28.856 -23.763  1.00  0.00     0.130 A 
ATOM     25  C   UNL     1     -16.793  28.161 -23.878  1.00  0.00     0.093 A 
ATOM     26  C   UNL     1     -15.589  30.274 -23.767  1.00  0.00     0.094 A 
ATOM     27  C   UNL     1     -18.000  28.864 -23.868  1.00  0.00     0.133 A 
ATOM     28  C   UNL     1     -16.806  30.964 -23.796  1.00  0.00     0.138 A 
ATOM     29  C   UNL     1     -18.006  30.258 -23.779  1.00  0.00     0.102 A 
ATOM     30  O   UNL     1     -16.838  32.374 -23.855  1.00  0.00    -0.484 OA
ATOM     31  C   UNL     1     -19.222  31.082 -23.882  1.00  0.00     0.174 C 
ATOM     32  C   UNL     1     -18.021  33.159 -23.468  1.00  0.00     0.211 C 
ATOM     33  O   UNL     1     -19.885  31.091 -24.975  1.00  0.00    -0.294 OA
ATOM     34  C   UNL     1     -19.200  32.284 -22.986  1.00  0.00     0.131 C 
BRANCH  27  35
ATOM     35  O   UNL     1     -19.234  28.143 -23.911  1.00  0.00    -0.507 OA
ATOM     36  H   UNL     1     -20.021  28.419 -23.384  1.00  0.00     0.293 HD
ENDBRANCH  27  35
BRANCH  32  37
ATOM     37  C   UNL     1     -17.584  34.121 -22.421  1.00  0.00    -0.007 A 
ATOM     38  C   UNL     1     -17.123  35.379 -22.817  1.00  0.00     0.011 A 
ATOM     39  C   UNL     1     -17.775  33.852 -21.038  1.00  0.00     0.011 A 
ATOM     40  C   UNL     1     -16.888  36.390 -21.878  1.00  0.00     0.046 A 
ATOM     41  C   UNL     1     -17.581  34.884 -20.100  1.00  0.00     0.046 A 
ATOM     42  C   UNL     1     -17.168  36.137 -20.517  1.00  0.00     0.115 A 
BRANCH  42  43
ATOM     43  O   UNL     1     -16.960  37.157 -19.600  1.00  0.00    -0.508 OA
ATOM     44  H   UNL     1     -16.311  37.919 -19.789  1.00  0.00     0.293 HD
ENDBRANCH  42  43
ENDBRANCH  32  37
ENDBRANCH  23  24
ENDBRANCH   6  23
BRANCH   3  45
ATOM     45  O   UNL     1     -10.996  27.443 -26.641  1.00  0.00    -0.387 OA
ATOM     46  H   UNL     1     -10.750  28.288 -27.099  1.00  0.00     0.211 HD
ENDBRANCH   3  45
BRANCH   4  47
ATOM     47  C   UNL     1     -13.550  29.284 -26.791  1.00  0.00     0.191 C 
BRANCH  47  48
ATOM     48  O   UNL     1     -14.299  28.112 -26.661  1.00  0.00    -0.394 OA
ATOM     49  H   UNL     1     -14.923  28.037 -27.425  1.00  0.00     0.210 HD
ENDBRANCH  47  48
ENDBRANCH   4  47
TORSDOF 14
ENDMDL
MODEL 7
REMARK VINA RESULT:    -6.816     11.708     14.767
REMARK INTER + INTRA:         -12.515
REMARK INTER:                 -10.370
REMARK INTRA:                  -2.145
REMARK UNBOUND:                -1.715
REMARK SMILES C[C@@H]1O[C@H](O[C@H]2[C@H](Oc3cc(O)c4c(c3)O[C@H](c3ccc(O)cc3)CC4=O)O[C@H](CO)[C@@H](O)[C@H]2O)[C@H](O)[C@H](O)[C@H]1O
REMARK SMILES IDX 6 1 34 2 32 3 29 4 28 5 7 6 5 7 4 8 1 9 2 10 40 11 3 12
REMARK SMILES IDX 38 13 36 14 41 15 39 17 37 19 35 21 8 23 9 24 10 25 15 26
REMARK SMILES IDX 11 27 14 28 13 29 16 30 26 31 17 32 27 33 25 34 12 35 18 37
REMARK SMILES IDX 19 38 24 39 20 40 23 41 21 42 22 43 33 45 30 47 31 48
REMARK H PARENT 41 16 39 18 37 20 35 22 12 36 22 44 33 46 31 49
REMARK Flexibility Score: inf
ROOT
ATOM      1  C   UNL     1      -4.970  33.436 -16.833  1.00  0.00     0.221 C 
ATOM      2  C   UNL     1      -4.433  34.670 -17.651  1.00  0.00     0.181 C 
ATOM      3  C   UNL     1      -4.525  34.257 -19.120  1.00  0.00     0.177 C 
ATOM      4  C   UNL     1      -6.018  34.109 -19.580  1.00  0.00     0.179 C 
ATOM      5  O   UNL     1      -6.846  33.545 -18.544  1.00  0.00    -0.332 OA
ATOM      6  C   UNL     1      -6.186  32.756 -17.545  1.00  0.00     0.339 C 
ENDROOT
BRANCH   1   7
ATOM      7  O   UNL     1      -4.994  33.357 -15.384  1.00  0.00    -0.337 OA
BRANCH   7   8
ATOM      8  C   UNL     1      -6.161  33.917 -14.751  1.00  0.00     0.282 C 
ATOM      9  C   UNL     1      -5.360  31.903 -12.828  1.00  0.00     0.041 C 
ATOM     10  C   UNL     1      -6.809  32.341 -13.152  1.00  0.00     0.150 C 
ATOM     11  C   UNL     1      -7.349  33.314 -12.101  1.00  0.00     0.174 C 
ATOM     12  O   UNL     1      -7.043  32.883 -14.400  1.00  0.00    -0.344 OA
ATOM     13  C   UNL     1      -6.668  34.685 -12.193  1.00  0.00     0.179 C 
ATOM     14  C   UNL     1      -5.827  34.935 -13.554  1.00  0.00     0.202 C 
BRANCH  11  15
ATOM     15  O   UNL     1      -8.750  33.421 -12.117  1.00  0.00    -0.388 OA
ATOM     16  H   UNL     1      -9.030  33.574 -11.185  1.00  0.00     0.211 HD
ENDBRANCH  11  15
BRANCH  13  17
ATOM     17  O   UNL     1      -5.819  34.860 -11.066  1.00  0.00    -0.387 OA
ATOM     18  H   UNL     1      -5.406  33.956 -10.831  1.00  0.00     0.211 HD
ENDBRANCH  13  17
BRANCH  14  19
ATOM     19  O   UNL     1      -4.441  35.014 -13.327  1.00  0.00    -0.385 OA
ATOM     20  H   UNL     1      -4.308  35.719 -12.661  1.00  0.00     0.211 HD
ENDBRANCH  14  19
ENDBRANCH   7   8
ENDBRANCH   1   7
BRANCH   2  21
ATOM     21  O   UNL     1      -5.079  35.904 -17.411  1.00  0.00    -0.387 OA
ATOM     22  H   UNL     1      -4.477  36.606 -17.869  1.00  0.00     0.211 HD
ENDBRANCH   2  21
BRANCH   6  23
ATOM     23  O   UNL     1      -5.820  31.453 -18.108  1.00  0.00    -0.462 OA
BRANCH  23  24
ATOM     24  C   UNL     1      -6.428  30.244 -17.752  1.00  0.00     0.130 A 
ATOM     25  C   UNL     1      -6.826  29.275 -18.691  1.00  0.00     0.093 A 
ATOM     26  C   UNL     1      -6.620  29.984 -16.372  1.00  0.00     0.094 A 
ATOM     27  C   UNL     1      -7.286  28.031 -18.256  1.00  0.00     0.133 A 
ATOM     28  C   UNL     1      -7.118  28.745 -15.953  1.00  0.00     0.138 A 
ATOM     29  C   UNL     1      -7.386  27.751 -16.890  1.00  0.00     0.102 A 
ATOM     30  O   UNL     1      -7.367  28.489 -14.587  1.00  0.00    -0.484 OA
ATOM     31  C   UNL     1      -7.971  26.515 -16.346  1.00  0.00     0.174 C 
ATOM     32  C   UNL     1      -7.476  27.126 -14.042  1.00  0.00     0.211 C 
ATOM     33  O   UNL     1      -9.208  26.262 -16.547  1.00  0.00    -0.294 OA
ATOM     34  C   UNL     1      -7.278  26.027 -15.110  1.00  0.00     0.131 C 
BRANCH  27  35
ATOM     35  O   UNL     1      -7.620  27.028 -19.219  1.00  0.00    -0.507 OA
ATOM     36  H   UNL     1      -8.297  27.181 -19.922  1.00  0.00     0.293 HD
ENDBRANCH  27  35
BRANCH  32  37
ATOM     37  C   UNL     1      -6.479  27.014 -12.944  1.00  0.00    -0.007 A 
ATOM     38  C   UNL     1      -5.488  27.993 -12.836  1.00  0.00     0.011 A 
ATOM     39  C   UNL     1      -6.606  26.035 -11.921  1.00  0.00     0.011 A 
ATOM     40  C   UNL     1      -4.650  28.051 -11.717  1.00  0.00     0.046 A 
ATOM     41  C   UNL     1      -5.792  26.123 -10.775  1.00  0.00     0.046 A 
ATOM     42  C   UNL     1      -4.848  27.128 -10.666  1.00  0.00     0.115 A 
BRANCH  42  43
ATOM     43  O   UNL     1      -4.031  27.216  -9.549  1.00  0.00    -0.508 OA
ATOM     44  H   UNL     1      -4.294  26.789  -8.662  1.00  0.00     0.293 HD
ENDBRANCH  42  43
ENDBRANCH  32  37
ENDBRANCH  23  24
ENDBRANCH   6  23
BRANCH   3  45
ATOM     45  O   UNL     1      -3.875  35.154 -19.962  1.00  0.00    -0.387 OA
ATOM     46  H   UNL     1      -3.106  34.672 -20.361  1.00  0.00     0.211 HD
ENDBRANCH   3  45
BRANCH   4  47
ATOM     47  C   UNL     1      -6.290  33.371 -20.923  1.00  0.00     0.191 C 
BRANCH  47  48
ATOM     48  O   UNL     1      -7.633  32.987 -20.904  1.00  0.00    -0.394 OA
ATOM     49  H   UNL     1      -7.877  32.612 -21.786  1.00  0.00     0.210 HD
ENDBRANCH  47  48
ENDBRANCH   4  47
TORSDOF 14
ENDMDL
MODEL 8
REMARK VINA RESULT:    -6.444      2.758     10.057
REMARK INTER + INTRA:         -11.926
REMARK INTER:                 -10.268
REMARK INTRA:                  -1.658
REMARK UNBOUND:                -1.715
REMARK SMILES C[C@@H]1O[C@H](O[C@H]2[C@H](Oc3cc(O)c4c(c3)O[C@H](c3ccc(O)cc3)CC4=O)O[C@H](CO)[C@@H](O)[C@H]2O)[C@H](O)[C@H](O)[C@H]1O
REMARK SMILES IDX 6 1 34 2 32 3 29 4 28 5 7 6 5 7 4 8 1 9 2 10 40 11 3 12
REMARK SMILES IDX 38 13 36 14 41 15 39 17 37 19 35 21 8 23 9 24 10 25 15 26
REMARK SMILES IDX 11 27 14 28 13 29 16 30 26 31 17 32 27 33 25 34 12 35 18 37
REMARK SMILES IDX 19 38 24 39 20 40 23 41 21 42 22 43 33 45 30 47 31 48
REMARK H PARENT 41 16 39 18 37 20 35 22 12 36 22 44 33 46 31 49
REMARK Flexibility Score: inf
ROOT
ATOM      1  C   UNL     1     -12.532  27.567 -23.032  1.00  0.00     0.221 C 
ATOM      2  C   UNL     1     -11.571  27.205 -21.839  1.00  0.00     0.181 C 
ATOM      3  C   UNL     1     -12.437  27.278 -20.581  1.00  0.00     0.177 C 
ATOM      4  C   UNL     1     -13.517  26.141 -20.565  1.00  0.00     0.179 C 
ATOM      5  O   UNL     1     -14.048  25.885 -21.880  1.00  0.00    -0.332 OA
ATOM      6  C   UNL     1     -13.956  26.952 -22.834  1.00  0.00     0.339 C 
ENDROOT
BRANCH   1   7
ATOM      7  O   UNL     1     -12.114  27.694 -24.416  1.00  0.00    -0.337 OA
BRANCH   7   8
ATOM      8  C   UNL     1     -10.719  27.997 -24.618  1.00  0.00     0.282 C 
ATOM      9  C   UNL     1     -11.893  28.976 -27.079  1.00  0.00     0.041 C 
ATOM     10  C   UNL     1     -10.490  28.341 -26.918  1.00  0.00     0.150 C 
ATOM     11  C   UNL     1      -9.394  29.409 -26.865  1.00  0.00     0.174 C 
ATOM     12  O   UNL     1     -10.303  27.480 -25.854  1.00  0.00    -0.344 OA
ATOM     13  C   UNL     1      -9.439  30.205 -25.555  1.00  0.00     0.179 C 
ATOM     14  C   UNL     1     -10.349  29.544 -24.390  1.00  0.00     0.202 C 
BRANCH  11  15
ATOM     15  O   UNL     1      -8.112  28.895 -27.125  1.00  0.00    -0.388 OA
ATOM     16  H   UNL     1      -8.234  28.138 -27.743  1.00  0.00     0.211 HD
ENDBRANCH  11  15
BRANCH  13  17
ATOM     17  O   UNL     1      -9.893  31.524 -25.828  1.00  0.00    -0.387 OA
ATOM     18  H   UNL     1      -9.093  32.157 -25.777  1.00  0.00     0.211 HD
ENDBRANCH  13  17
BRANCH  14  19
ATOM     19  O   UNL     1     -11.499  30.304 -24.104  1.00  0.00    -0.385 OA
ATOM     20  H   UNL     1     -11.902  30.532 -24.967  1.00  0.00     0.211 HD
ENDBRANCH  14  19
ENDBRANCH   7   8
ENDBRANCH   1   7
BRANCH   2  21
ATOM     21  O   UNL     1     -10.893  25.970 -21.939  1.00  0.00    -0.387 OA
ATOM     22  H   UNL     1     -10.455  25.988 -22.873  1.00  0.00     0.211 HD
ENDBRANCH   2  21
BRANCH   6  23
ATOM     23  O   UNL     1     -14.949  27.983 -22.518  1.00  0.00    -0.462 OA
BRANCH  23  24
ATOM     24  C   UNL     1     -15.754  28.618 -23.470  1.00  0.00     0.130 A 
ATOM     25  C   UNL     1     -15.952  28.118 -24.770  1.00  0.00     0.093 A 
ATOM     26  C   UNL     1     -16.418  29.810 -23.083  1.00  0.00     0.094 A 
ATOM     27  C   UNL     1     -16.885  28.722 -25.614  1.00  0.00     0.133 A 
ATOM     28  C   UNL     1     -17.322  30.425 -23.956  1.00  0.00     0.138 A 
ATOM     29  C   UNL     1     -17.602  29.843 -25.189  1.00  0.00     0.102 A 
ATOM     30  O   UNL     1     -17.951  31.640 -23.609  1.00  0.00    -0.484 OA
ATOM     31  C   UNL     1     -18.514  30.611 -26.053  1.00  0.00     0.174 C 
ATOM     32  C   UNL     1     -19.187  32.108 -24.255  1.00  0.00     0.211 C 
ATOM     33  O   UNL     1     -18.047  31.224 -27.073  1.00  0.00    -0.294 OA
ATOM     34  C   UNL     1     -19.718  31.131 -25.328  1.00  0.00     0.131 C 
BRANCH  27  35
ATOM     35  O   UNL     1     -17.131  28.162 -26.907  1.00  0.00    -0.507 OA
ATOM     36  H   UNL     1     -16.399  27.959 -27.538  1.00  0.00     0.293 HD
ENDBRANCH  27  35
BRANCH  32  37
ATOM     37  C   UNL     1     -20.185  32.338 -23.176  1.00  0.00    -0.007 A 
ATOM     38  C   UNL     1     -21.173  33.306 -23.373  1.00  0.00     0.011 A 
ATOM     39  C   UNL     1     -20.252  31.495 -22.034  1.00  0.00     0.011 A 
ATOM     40  C   UNL     1     -22.250  33.428 -22.487  1.00  0.00     0.046 A 
ATOM     41  C   UNL     1     -21.359  31.589 -21.169  1.00  0.00     0.046 A 
ATOM     42  C   UNL     1     -22.351  32.524 -21.407  1.00  0.00     0.115 A 
BRANCH  42  43
ATOM     43  O   UNL     1     -23.439  32.636 -20.553  1.00  0.00    -0.508 OA
ATOM     44  H   UNL     1     -23.640  31.927 -19.850  1.00  0.00     0.293 HD
ENDBRANCH  42  43
ENDBRANCH  32  37
ENDBRANCH  23  24
ENDBRANCH   6  23
BRANCH   3  45
ATOM     45  O   UNL     1     -11.680  27.205 -19.415  1.00  0.00    -0.387 OA
ATOM     46  H   UNL     1     -11.846  26.312 -19.018  1.00  0.00     0.211 HD
ENDBRANCH   3  45
BRANCH   4  47
ATOM     47  C   UNL     1     -14.688  26.271 -19.547  1.00  0.00     0.191 C 
BRANCH  47  48
ATOM     48  O   UNL     1     -15.249  27.535 -19.742  1.00  0.00    -0.394 OA
ATOM     49  H   UNL     1     -14.735  28.016 -20.437  1.00  0.00     0.210 HD
ENDBRANCH  47  48
ENDBRANCH   4  47
TORSDOF 14
ENDMDL
MODEL 9
REMARK VINA RESULT:    -6.346      7.183     12.235
REMARK INTER + INTRA:         -11.771
REMARK INTER:                 -10.209
REMARK INTRA:                  -1.562
REMARK UNBOUND:                -1.715
REMARK SMILES C[C@@H]1O[C@H](O[C@H]2[C@H](Oc3cc(O)c4c(c3)O[C@H](c3ccc(O)cc3)CC4=O)O[C@H](CO)[C@@H](O)[C@H]2O)[C@H](O)[C@H](O)[C@H]1O
REMARK SMILES IDX 6 1 34 2 32 3 29 4 28 5 7 6 5 7 4 8 1 9 2 10 40 11 3 12
REMARK SMILES IDX 38 13 36 14 41 15 39 17 37 19 35 21 8 23 9 24 10 25 15 26
REMARK SMILES IDX 11 27 14 28 13 29 16 30 26 31 17 32 27 33 25 34 12 35 18 37
REMARK SMILES IDX 19 38 24 39 20 40 23 41 21 42 22 43 33 45 30 47 31 48
REMARK H PARENT 41 16 39 18 37 20 35 22 12 36 22 44 33 46 31 49
REMARK Flexibility Score: inf
ROOT
ATOM      1  C   UNL     1      -7.020  30.233 -18.329  1.00  0.00     0.221 C 
ATOM      2  C   UNL     1      -6.787  29.906 -16.806  1.00  0.00     0.181 C 
ATOM      3  C   UNL     1      -7.626  28.660 -16.523  1.00  0.00     0.177 C 
ATOM      4  C   UNL     1      -7.060  27.407 -17.278  1.00  0.00     0.179 C 
ATOM      5  O   UNL     1      -6.561  27.747 -18.586  1.00  0.00    -0.332 OA
ATOM      6  C   UNL     1      -7.093  28.932 -19.194  1.00  0.00     0.339 C 
ENDROOT
BRANCH   1   7
ATOM      7  O   UNL     1      -6.471  31.388 -19.015  1.00  0.00    -0.337 OA
BRANCH   7   8
ATOM      8  C   UNL     1      -6.770  32.665 -18.417  1.00  0.00     0.282 C 
ATOM      9  C   UNL     1      -3.879  32.591 -18.230  1.00  0.00     0.041 C 
ATOM     10  C   UNL     1      -4.850  33.246 -17.217  1.00  0.00     0.150 C 
ATOM     11  C   UNL     1      -4.927  34.762 -17.415  1.00  0.00     0.174 C 
ATOM     12  O   UNL     1      -6.139  32.754 -17.167  1.00  0.00    -0.344 OA
ATOM     13  C   UNL     1      -5.661  35.130 -18.710  1.00  0.00     0.179 C 
ATOM     14  C   UNL     1      -6.495  33.918 -19.386  1.00  0.00     0.202 C 
BRANCH  11  15
ATOM     15  O   UNL     1      -5.455  35.437 -16.301  1.00  0.00    -0.388 OA
ATOM     16  H   UNL     1      -6.426  35.274 -16.310  1.00  0.00     0.211 HD
ENDBRANCH  11  15
BRANCH  13  17
ATOM     17  O   UNL     1      -4.724  35.647 -19.646  1.00  0.00    -0.387 OA
ATOM     18  H   UNL     1      -4.342  36.517 -19.272  1.00  0.00     0.211 HD
ENDBRANCH  13  17
BRANCH  14  19
ATOM     19  O   UNL     1      -5.946  33.499 -20.612  1.00  0.00    -0.385 OA
ATOM     20  H   UNL     1      -5.168  34.071 -20.777  1.00  0.00     0.211 HD
ENDBRANCH  14  19
ENDBRANCH   7   8
ENDBRANCH   1   7
BRANCH   2  21
ATOM     21  O   UNL     1      -5.443  29.736 -16.405  1.00  0.00    -0.387 OA
ATOM     22  H   UNL     1      -5.057  30.692 -16.378  1.00  0.00     0.211 HD
ENDBRANCH   2  21
BRANCH   6  23
ATOM     23  O   UNL     1      -8.457  28.675 -19.665  1.00  0.00    -0.462 OA
BRANCH  23  24
ATOM     24  C   UNL     1      -8.787  28.371 -20.991  1.00  0.00     0.130 A 
ATOM     25  C   UNL     1      -8.184  27.326 -21.716  1.00  0.00     0.093 A 
ATOM     26  C   UNL     1      -9.801  29.143 -21.612  1.00  0.00     0.094 A 
ATOM     27  C   UNL     1      -8.669  26.985 -22.979  1.00  0.00     0.133 A 
ATOM     28  C   UNL     1     -10.250  28.811 -22.895  1.00  0.00     0.138 A 
ATOM     29  C   UNL     1      -9.731  27.695 -23.546  1.00  0.00     0.102 A 
ATOM     30  O   UNL     1     -11.219  29.601 -23.550  1.00  0.00    -0.484 OA
ATOM     31  C   UNL     1     -10.225  27.480 -24.916  1.00  0.00     0.174 C 
ATOM     32  C   UNL     1     -12.027  29.099 -24.673  1.00  0.00     0.211 C 
ATOM     33  O   UNL     1      -9.455  27.726 -25.907  1.00  0.00    -0.294 OA
ATOM     34  C   UNL     1     -11.710  27.632 -25.040  1.00  0.00     0.131 C 
BRANCH  27  35
ATOM     35  O   UNL     1      -8.096  25.875 -23.676  1.00  0.00    -0.507 OA
ATOM     36  H   UNL     1      -8.592  25.382 -24.373  1.00  0.00     0.293 HD
ENDBRANCH  27  35
BRANCH  32  37
ATOM     37  C   UNL     1     -13.455  29.278 -24.299  1.00  0.00    -0.007 A 
ATOM     38  C   UNL     1     -13.876  28.849 -23.037  1.00  0.00     0.011 A 
ATOM     39  C   UNL     1     -14.354  30.009 -25.121  1.00  0.00     0.011 A 
ATOM     40  C   UNL     1     -15.150  29.167 -22.554  1.00  0.00     0.046 A 
ATOM     41  C   UNL     1     -15.619  30.367 -24.616  1.00  0.00     0.046 A 
ATOM     42  C   UNL     1     -15.999  29.972 -23.346  1.00  0.00     0.115 A 
BRANCH  42  43
ATOM     43  O   UNL     1     -17.248  30.307 -22.843  1.00  0.00    -0.508 OA
ATOM     44  H   UNL     1     -17.845  30.987 -23.311  1.00  0.00     0.293 HD
ENDBRANCH  42  43
ENDBRANCH  32  37
ENDBRANCH  23  24
ENDBRANCH   6  23
BRANCH   3  45
ATOM     45  O   UNL     1      -7.707  28.376 -15.164  1.00  0.00    -0.387 OA
ATOM     46  H   UNL     1      -6.880  27.885 -14.921  1.00  0.00     0.211 HD
ENDBRANCH   3  45
BRANCH   4  47
ATOM     47  C   UNL     1      -7.975  26.151 -17.380  1.00  0.00     0.191 C 
BRANCH  47  48
ATOM     48  O   UNL     1      -9.173  26.475 -16.739  1.00  0.00    -0.394 OA
ATOM     49  H   UNL     1      -9.260  27.459 -16.690  1.00  0.00     0.210 HD
ENDBRANCH  47  48
ENDBRANCH   4  47
TORSDOF 14
ENDMDL
