MODEL 1
REMARK VINA RESULT:     6.464      0.000      0.000
REMARK INTER + INTRA:           7.002
REMARK INTER:                   7.220
REMARK INTRA:                  -0.218
REMARK UNBOUND:                -0.218
REMARK SMILES CC(C)c1ccc(C(=O)[O-])cc1
REMARK SMILES IDX 7 1 6 2 11 3 5 4 12 5 4 6 8 7 9 8 10 9 2 10 1 11 3 12
REMARK H PARENT
REMARK Flexibility Score: inf
ROOT
ATOM      1  C   UNL     1     -19.072  16.526  16.735  1.00  0.00    -0.003 A 
ATOM      2  C   UNL     1     -19.108  15.553  15.722  1.00  0.00     0.010 A 
ATOM      3  C   UNL     1     -19.055  17.883  16.374  1.00  0.00     0.010 A 
ATOM      4  C   UNL     1     -19.124  15.930  14.376  1.00  0.00     0.004 A 
ATOM      5  C   UNL     1     -19.071  18.261  15.028  1.00  0.00     0.004 A 
ATOM      6  C   UNL     1     -19.106  17.289  14.014  1.00  0.00    -0.045 A 
ENDROOT
BRANCH   1   7
ATOM      7  C   UNL     1     -19.055  16.131  18.161  1.00  0.00     0.071 C 
ATOM      8  O   UNL     1     -18.984  14.917  18.489  1.00  0.00    -0.545 OA
ATOM      9  O   UNL     1     -19.118  17.096  19.160  1.00  0.00    -0.545 OA
ENDBRANCH   1   7
BRANCH   6  10
ATOM     10  C   UNL     1     -19.123  17.713  12.557  1.00  0.00     0.013 C 
ATOM     11  C   UNL     1     -17.961  17.079  11.784  1.00  0.00     0.012 C 
ATOM     12  C   UNL     1     -19.106  19.241  12.425  1.00  0.00     0.012 C 
ENDBRANCH   6  10
TORSDOF 2
ENDMDL
MODEL 2
REMARK VINA RESULT:     6.594      0.455      1.465
REMARK INTER + INTRA:           7.147
REMARK INTER:                   7.364
REMARK INTRA:                  -0.217
REMARK UNBOUND:                -0.218
REMARK SMILES CC(C)c1ccc(C(=O)[O-])cc1
REMARK SMILES IDX 7 1 6 2 11 3 5 4 12 5 4 6 8 7 9 8 10 9 2 10 1 11 3 12
REMARK H PARENT
REMARK Flexibility Score: inf
ROOT
ATOM      1  C   UNL     1     -19.082  16.811  17.094  1.00  0.00    -0.003 A 
ATOM      2  C   UNL     1     -19.065  18.120  16.584  1.00  0.00     0.010 A 
ATOM      3  C   UNL     1     -19.104  15.732  16.195  1.00  0.00     0.010 A 
ATOM      4  C   UNL     1     -19.072  18.345  15.205  1.00  0.00     0.004 A 
ATOM      5  C   UNL     1     -19.111  15.956  14.815  1.00  0.00     0.004 A 
ATOM      6  C   UNL     1     -19.094  17.264  14.304  1.00  0.00    -0.045 A 
ENDROOT
BRANCH   1   7
ATOM      7  C   UNL     1     -19.075  16.568  18.553  1.00  0.00     0.071 C 
ATOM      8  O   UNL     1     -19.046  15.394  19.008  1.00  0.00    -0.545 OA
ATOM      9  O   UNL     1     -19.101  17.635  19.445  1.00  0.00    -0.545 OA
ENDBRANCH   1   7
BRANCH   6  10
ATOM     10  C   UNL     1     -19.102  17.494  12.804  1.00  0.00     0.013 C 
ATOM     11  C   UNL     1     -17.914  16.795  12.132  1.00  0.00     0.012 C 
ATOM     12  C   UNL     1     -19.121  18.991  12.474  1.00  0.00     0.012 C 
ENDBRANCH   6  10
TORSDOF 2
ENDMDL
MODEL 3
REMARK VINA RESULT:     6.903      3.300      5.330
REMARK INTER + INTRA:           7.492
REMARK INTER:                   7.710
REMARK INTRA:                  -0.218
REMARK UNBOUND:                -0.218
REMARK SMILES CC(C)c1ccc(C(=O)[O-])cc1
REMARK SMILES IDX 7 1 6 2 11 3 5 4 12 5 4 6 8 7 9 8 10 9 2 10 1 11 3 12
REMARK H PARENT
REMARK Flexibility Score: inf
ROOT
ATOM      1  C   UNL     1     -18.661  16.989  13.317  1.00  0.00    -0.003 A 
ATOM      2  C   UNL     1     -18.815  18.105  14.157  1.00  0.00     0.010 A 
ATOM      3  C   UNL     1     -18.660  15.705  13.885  1.00  0.00     0.010 A 
ATOM      4  C   UNL     1     -18.965  17.940  15.536  1.00  0.00     0.004 A 
ATOM      5  C   UNL     1     -18.810  15.539  15.265  1.00  0.00     0.004 A 
ATOM      6  C   UNL     1     -18.964  16.653  16.106  1.00  0.00    -0.045 A 
ENDROOT
BRANCH   1   7
ATOM      7  C   UNL     1     -18.503  17.160  11.856  1.00  0.00     0.071 C 
ATOM      8  O   UNL     1     -19.104  18.086  11.250  1.00  0.00    -0.545 OA
ATOM      9  O   UNL     1     -17.687  16.298  11.130  1.00  0.00    -0.545 OA
ENDBRANCH   1   7
BRANCH   6  10
ATOM     10  C   UNL     1     -19.125  16.459  17.603  1.00  0.00     0.013 C 
ATOM     11  C   UNL     1     -18.669  17.704  18.374  1.00  0.00     0.012 C 
ATOM     12  C   UNL     1     -18.377  15.209  18.082  1.00  0.00     0.012 C 
ENDBRANCH   6  10
TORSDOF 2
ENDMDL
MODEL 4
REMARK VINA RESULT:     7.716      3.065      5.128
REMARK INTER + INTRA:           8.399
REMARK INTER:                   8.620
REMARK INTRA:                  -0.221
REMARK UNBOUND:                -0.218
REMARK SMILES CC(C)c1ccc(C(=O)[O-])cc1
REMARK SMILES IDX 7 1 6 2 11 3 5 4 12 5 4 6 8 7 9 8 10 9 2 10 1 11 3 12
REMARK H PARENT
REMARK Flexibility Score: inf
ROOT
ATOM      1  C   UNL     1     -18.845  16.976  13.782  1.00  0.00    -0.003 A 
ATOM      2  C   UNL     1     -18.757  15.644  14.221  1.00  0.00     0.010 A 
ATOM      3  C   UNL     1     -19.022  17.994  14.732  1.00  0.00     0.010 A 
ATOM      4  C   UNL     1     -18.847  15.337  15.582  1.00  0.00     0.004 A 
ATOM      5  C   UNL     1     -19.112  17.689  16.094  1.00  0.00     0.004 A 
ATOM      6  C   UNL     1     -19.025  16.358  16.534  1.00  0.00    -0.045 A 
ENDROOT
BRANCH   1   7
ATOM      7  C   UNL     1     -18.750  17.304  12.343  1.00  0.00     0.071 C 
ATOM      8  O   UNL     1     -19.087  18.442  11.921  1.00  0.00    -0.545 OA
ATOM      9  O   UNL     1     -18.287  16.359  11.433  1.00  0.00    -0.545 OA
ENDBRANCH   1   7
BRANCH   6  10
ATOM     10  C   UNL     1     -19.124  16.040  18.015  1.00  0.00     0.013 C 
ATOM     11  C   UNL     1     -18.794  17.270  18.867  1.00  0.00     0.012 C 
ATOM     12  C   UNL     1     -18.227  14.854  18.387  1.00  0.00     0.012 C 
ENDBRANCH   6  10
TORSDOF 2
ENDMDL
MODEL 5
REMARK VINA RESULT:     8.111      1.453      2.300
REMARK INTER + INTRA:           8.841
REMARK INTER:                   9.062
REMARK INTRA:                  -0.221
REMARK UNBOUND:                -0.218
REMARK SMILES CC(C)c1ccc(C(=O)[O-])cc1
REMARK SMILES IDX 7 1 6 2 11 3 5 4 12 5 4 6 8 7 9 8 10 9 2 10 1 11 3 12
REMARK H PARENT
REMARK Flexibility Score: inf
ROOT
ATOM      1  C   UNL     1     -18.861  17.042  14.946  1.00  0.00    -0.003 A 
ATOM      2  C   UNL     1     -18.470  15.832  14.349  1.00  0.00     0.010 A 
ATOM      3  C   UNL     1     -19.080  18.163  14.130  1.00  0.00     0.010 A 
ATOM      4  C   UNL     1     -18.300  15.746  12.964  1.00  0.00     0.004 A 
ATOM      5  C   UNL     1     -18.911  18.078  12.744  1.00  0.00     0.004 A 
ATOM      6  C   UNL     1     -18.519  16.869  12.146  1.00  0.00    -0.045 A 
ENDROOT
BRANCH   1   7
ATOM      7  C   UNL     1     -19.041  17.137  16.411  1.00  0.00     0.071 C 
ATOM      8  O   UNL     1     -19.123  18.261  16.975  1.00  0.00    -0.545 OA
ATOM      9  O   UNL     1     -19.124  15.986  17.188  1.00  0.00    -0.545 OA
ENDBRANCH   1   7
BRANCH   6  10
ATOM     10  C   UNL     1     -18.338  16.790  10.641  1.00  0.00     0.013 C 
ATOM     11  C   UNL     1     -17.301  15.726  10.264  1.00  0.00     0.012 C 
ATOM     12  C   UNL     1     -17.963  18.157  10.057  1.00  0.00     0.012 C 
ENDBRANCH   6  10
TORSDOF 2
ENDMDL
MODEL 6
REMARK VINA RESULT:     8.776      3.740      6.237
REMARK INTER + INTRA:           9.584
REMARK INTER:                   9.805
REMARK INTRA:                  -0.221
REMARK UNBOUND:                -0.218
REMARK SMILES CC(C)c1ccc(C(=O)[O-])cc1
REMARK SMILES IDX 7 1 6 2 11 3 5 4 12 5 4 6 8 7 9 8 10 9 2 10 1 11 3 12
REMARK H PARENT
REMARK Flexibility Score: inf
ROOT
ATOM      1  C   UNL     1     -19.011  17.097  18.890  1.00  0.00    -0.003 A 
ATOM      2  C   UNL     1     -18.829  16.856  20.262  1.00  0.00     0.010 A 
ATOM      3  C   UNL     1     -19.125  18.423  18.442  1.00  0.00     0.010 A 
ATOM      4  C   UNL     1     -18.764  17.919  21.167  1.00  0.00     0.004 A 
ATOM      5  C   UNL     1     -19.059  19.488  19.346  1.00  0.00     0.004 A 
ATOM      6  C   UNL     1     -18.878  19.248  20.718  1.00  0.00    -0.045 A 
ENDROOT
BRANCH   1   7
ATOM      7  C   UNL     1     -19.081  15.975  17.929  1.00  0.00     0.071 C 
ATOM      8  O   UNL     1     -19.111  14.783  18.336  1.00  0.00    -0.545 OA
ATOM      9  O   UNL     1     -19.115  16.220  16.560  1.00  0.00    -0.545 OA
ENDBRANCH   1   7
BRANCH   6  10
ATOM     10  C   UNL     1     -18.809  20.412  21.690  1.00  0.00     0.013 C 
ATOM     11  C   UNL     1     -18.392  21.703  20.976  1.00  0.00     0.012 C 
ATOM     12  C   UNL     1     -17.868  20.101  22.860  1.00  0.00     0.012 C 
ENDBRANCH   6  10
TORSDOF 2
ENDMDL
