MODEL 1
REMARK VINA RESULT:    -2.040      0.000      0.000
REMARK INTER + INTRA:          -2.040
REMARK INTER:                  -2.040
REMARK INTRA:                   0.000
REMARK UNBOUND:                 0.000
REMARK SMILES CC(=O)[O-]
REMARK SMILES IDX 1 1 2 2 3 3 4 4
REMARK H PARENT
REMARK Flexibility Score: inf
ROOT
ATOM      1  C   UNL     1       6.238  10.820  32.918  1.00  0.00     0.063 C 
ATOM      2  C   UNL     1       6.711   9.512  33.454  1.00  0.00     0.038 C 
ATOM      3  O   UNL     1       7.531   8.819  32.796  1.00  0.00    -0.550 OA
ATOM      4  O   UNL     1       6.208   9.028  34.654  1.00  0.00    -0.550 OA
ENDROOT
TORSDOF 0
ENDMDL
MODEL 2
REMARK VINA RESULT:    -1.998      0.178      1.614
REMARK INTER + INTRA:          -1.998
REMARK INTER:                  -1.998
REMARK INTRA:                   0.000
REMARK UNBOUND:                 0.000
REMARK SMILES CC(=O)[O-]
REMARK SMILES IDX 1 1 2 2 3 3 4 4
REMARK H PARENT
REMARK Flexibility Score: inf
ROOT
ATOM      1  C   UNL     1       6.238  10.821  32.912  1.00  0.00     0.063 C 
ATOM      2  C   UNL     1       6.652   9.537  33.549  1.00  0.00     0.038 C 
ATOM      3  O   UNL     1       6.303   9.276  34.730  1.00  0.00    -0.550 OA
ATOM      4  O   UNL     1       7.468   8.650  32.860  1.00  0.00    -0.550 OA
ENDROOT
TORSDOF 0
ENDMDL
MODEL 3
REMARK VINA RESULT:    -1.993      1.469      1.792
REMARK INTER + INTRA:          -1.993
REMARK INTER:                  -1.993
REMARK INTRA:                   0.000
REMARK UNBOUND:                 0.000
REMARK SMILES CC(=O)[O-]
REMARK SMILES IDX 1 1 2 2 3 3 4 4
REMARK H PARENT
REMARK Flexibility Score: inf
ROOT
ATOM      1  C   UNL     1       7.275   8.771  33.024  1.00  0.00     0.063 C 
ATOM      2  C   UNL     1       6.521   9.981  33.463  1.00  0.00     0.038 C 
ATOM      3  O   UNL     1       6.200  10.863  32.624  1.00  0.00    -0.550 OA
ATOM      4  O   UNL     1       6.217  10.164  34.805  1.00  0.00    -0.550 OA
ENDROOT
TORSDOF 0
ENDMDL
MODEL 4
REMARK VINA RESULT:    -1.992      1.401      1.784
REMARK INTER + INTRA:          -1.992
REMARK INTER:                  -1.992
REMARK INTRA:                   0.000
REMARK UNBOUND:                 0.000
REMARK SMILES CC(=O)[O-]
REMARK SMILES IDX 1 1 2 2 3 3 4 4
REMARK H PARENT
REMARK Flexibility Score: inf
ROOT
ATOM      1  C   UNL     1       5.998   9.475  34.567  1.00  0.00     0.063 C 
ATOM      2  C   UNL     1       6.643   9.767  33.254  1.00  0.00     0.038 C 
ATOM      3  O   UNL     1       7.547   9.010  32.812  1.00  0.00    -0.550 OA
ATOM      4  O   UNL     1       6.288  10.904  32.541  1.00  0.00    -0.550 OA
ENDROOT
TORSDOF 0
ENDMDL
MODEL 5
REMARK VINA RESULT:    -1.961      1.306      2.286
REMARK INTER + INTRA:          -1.961
REMARK INTER:                  -1.961
REMARK INTRA:                   0.000
REMARK UNBOUND:                 0.000
REMARK SMILES CC(=O)[O-]
REMARK SMILES IDX 1 1 2 2 3 3 4 4
REMARK H PARENT
REMARK Flexibility Score: inf
ROOT
ATOM      1  C   UNL     1       6.988   7.994  33.317  1.00  0.00     0.063 C 
ATOM      2  C   UNL     1       6.628   9.394  33.684  1.00  0.00     0.038 C 
ATOM      3  O   UNL     1       6.389   9.690  34.885  1.00  0.00    -0.550 OA
ATOM      4  O   UNL     1       6.502  10.363  32.698  1.00  0.00    -0.550 OA
ENDROOT
TORSDOF 0
ENDMDL
MODEL 6
REMARK VINA RESULT:    -1.935      1.544      1.661
REMARK INTER + INTRA:          -1.935
REMARK INTER:                  -1.935
REMARK INTRA:                   0.000
REMARK UNBOUND:                 0.000
REMARK SMILES CC(=O)[O-]
REMARK SMILES IDX 1 1 2 2 3 3 4 4
REMARK H PARENT
REMARK Flexibility Score: inf
ROOT
ATOM      1  C   UNL     1       7.279   9.182  32.952  1.00  0.00     0.063 C 
ATOM      2  C   UNL     1       6.836   8.102  33.880  1.00  0.00     0.038 C 
ATOM      3  O   UNL     1       7.247   6.922  33.718  1.00  0.00    -0.550 OA
ATOM      4  O   UNL     1       5.928   8.381  34.892  1.00  0.00    -0.550 OA
ENDROOT
TORSDOF 0
ENDMDL
MODEL 7
REMARK VINA RESULT:    -1.693     10.006     10.361
REMARK INTER + INTRA:          -1.693
REMARK INTER:                  -1.693
REMARK INTRA:                   0.000
REMARK UNBOUND:                 0.000
REMARK SMILES CC(=O)[O-]
REMARK SMILES IDX 1 1 2 2 3 3 4 4
REMARK H PARENT
REMARK Flexibility Score: inf
ROOT
ATOM      1  C   UNL     1       6.980  20.502  32.261  1.00  0.00     0.063 C 
ATOM      2  C   UNL     1       6.946  19.788  33.570  1.00  0.00     0.038 C 
ATOM      3  O   UNL     1       6.530  18.600  33.630  1.00  0.00    -0.550 OA
ATOM      4  O   UNL     1       7.320  20.446  34.733  1.00  0.00    -0.550 OA
ENDROOT
TORSDOF 0
ENDMDL
MODEL 8
REMARK VINA RESULT:    -1.629     18.679     18.943
REMARK INTER + INTRA:          -1.629
REMARK INTER:                  -1.629
REMARK INTRA:                   0.000
REMARK UNBOUND:                 0.000
REMARK SMILES CC(=O)[O-]
REMARK SMILES IDX 1 1 2 2 3 3 4 4
REMARK H PARENT
REMARK Flexibility Score: inf
ROOT
ATOM      1  C   UNL     1      21.645  19.878  36.929  1.00  0.00     0.063 C 
ATOM      2  C   UNL     1      22.359  19.776  35.623  1.00  0.00     0.038 C 
ATOM      3  O   UNL     1      22.961  18.714  35.314  1.00  0.00    -0.550 OA
ATOM      4  O   UNL     1      22.407  20.869  34.769  1.00  0.00    -0.550 OA
ENDROOT
TORSDOF 0
ENDMDL
MODEL 9
REMARK VINA RESULT:    -1.607     20.317     20.499
REMARK INTER + INTRA:          -1.607
REMARK INTER:                  -1.607
REMARK INTRA:                   0.000
REMARK UNBOUND:                 0.000
REMARK SMILES CC(=O)[O-]
REMARK SMILES IDX 1 1 2 2 3 3 4 4
REMARK H PARENT
REMARK Flexibility Score: inf
ROOT
ATOM      1  C   UNL     1      18.179  17.613  18.307  1.00  0.00     0.063 C 
ATOM      2  C   UNL     1      17.555  18.814  18.932  1.00  0.00     0.038 C 
ATOM      3  O   UNL     1      16.379  19.146  18.625  1.00  0.00    -0.550 OA
ATOM      4  O   UNL     1      18.285  19.601  19.812  1.00  0.00    -0.550 OA
ENDROOT
TORSDOF 0
ENDMDL
