MODEL 1
REMARK VINA RESULT:    30.529      0.000      0.000
REMARK INTER + INTRA:          33.206
REMARK INTER:                  33.206
REMARK INTRA:                   0.000
REMARK UNBOUND:                 0.000
REMARK SMILES Cc1cc(O)c2c(c1)C(=O)c1cc(O)cc(O)c1C2=O
REMARK SMILES IDX 1 1 2 2 8 3 7 4 6 5 4 6 3 7 19 8 20 9 18 10 11 11 9 12 10 13
REMARK SMILES IDX 12 14 13 15 15 16 16 17 5 18 17 20 14 22
REMARK H PARENT 5 19 17 21 14 23
REMARK Flexibility Score: inf
ROOT
ATOM      1  C   UNL     1      -0.499   1.830   5.865  1.00  0.00     0.044 C 
ATOM      2  C   UNL     1      -1.014   1.204   4.603  1.00  0.00    -0.047 A 
ATOM      3  C   UNL     1      -2.335   0.753   4.529  1.00  0.00     0.016 A 
ATOM      4  C   UNL     1      -2.819   0.139   3.361  1.00  0.00     0.038 A 
ATOM      5  C   UNL     1      -1.964  -0.025   2.249  1.00  0.00     0.076 A 
ATOM      6  C   UNL     1      -0.602   0.358   2.359  1.00  0.00     0.127 A 
ATOM      7  C   UNL     1      -0.150   0.986   3.524  1.00  0.00     0.050 A 
ATOM      8  C   UNL     1      -2.549  -0.541   0.983  1.00  0.00     0.201 C 
ATOM      9  O   UNL     1      -2.059  -0.189  -0.122  1.00  0.00    -0.288 OA
ATOM     10  C   UNL     1      -3.818  -1.314   1.018  1.00  0.00     0.076 A 
ATOM     11  C   UNL     1      -4.669  -1.149   2.135  1.00  0.00     0.041 A 
ATOM     12  C   UNL     1      -4.219  -0.343   3.294  1.00  0.00     0.194 C 
ATOM     13  O   UNL     1      -5.020  -0.089   4.236  1.00  0.00    -0.289 OA
ATOM     14  C   UNL     1      -5.938  -1.754   2.141  1.00  0.00     0.059 A 
ATOM     15  C   UNL     1      -6.358  -2.531   1.059  1.00  0.00     0.120 A 
ATOM     16  C   UNL     1      -5.506  -2.728  -0.026  1.00  0.00     0.093 A 
ATOM     17  C   UNL     1      -4.231  -2.154  -0.048  1.00  0.00     0.131 A 
ENDROOT
BRANCH   6  18
ATOM     18  O   UNL     1       0.337   0.104   1.357  1.00  0.00    -0.507 OA
ATOM     19  H   UNL     1       0.295  -0.697   0.743  1.00  0.00     0.293 HD
ENDBRANCH   6  18
BRANCH  17  20
ATOM     20  O   UNL     1      -3.400  -2.471  -1.125  1.00  0.00    -0.507 OA
ATOM     21  H   UNL     1      -3.585  -2.188  -2.077  1.00  0.00     0.293 HD
ENDBRANCH  17  20
BRANCH  15  22
ATOM     22  O   UNL     1      -7.620  -3.122   1.057  1.00  0.00    -0.508 OA
ATOM     23  H   UNL     1      -7.735  -4.129   1.093  1.00  0.00     0.293 HD
ENDBRANCH  15  22
TORSDOF 3
ENDMDL
