MODEL 1
REMARK VINA RESULT:    -3.716      0.000      0.000
REMARK INTER + INTRA:          -4.116
REMARK INTER:                  -4.041
REMARK INTRA:                  -0.075
REMARK UNBOUND:                -0.075
REMARK SMILES CCc1cccc(O)c1
REMARK SMILES IDX 3 1 9 2 7 3 6 4 5 5 4 6 2 7 1 8 8 9
REMARK H PARENT 8 10
REMARK Flexibility Score: inf
ROOT
ATOM      1  C   UNL     1      13.003   3.802  -2.049  1.00  0.00    -0.045 A 
ATOM      2  C   UNL     1      11.809   3.616  -2.767  1.00  0.00     0.049 A 
ATOM      3  C   UNL     1      10.621   4.212  -2.328  1.00  0.00     0.115 A 
ATOM      4  C   UNL     1      10.620   4.991  -1.163  1.00  0.00     0.046 A 
ATOM      5  C   UNL     1      11.801   5.168  -0.438  1.00  0.00     0.004 A 
ATOM      6  C   UNL     1      12.988   4.573  -0.875  1.00  0.00     0.004 A 
ENDROOT
BRANCH   1   7
ATOM      7  C   UNL     1      14.273   3.134  -2.502  1.00  0.00     0.032 C 
ATOM      8  C   UNL     1      15.261   3.011  -1.347  1.00  0.00     0.009 C 
ENDBRANCH   1   7
BRANCH   3   9
ATOM      9  O   UNL     1       9.448   4.021  -3.055  1.00  0.00    -0.508 OA
ATOM     10  H   UNL     1       8.567   3.819  -2.597  1.00  0.00     0.293 HD
ENDBRANCH   3   9
TORSDOF 2
ENDMDL
MODEL 2
REMARK VINA RESULT:    -3.565      2.108      4.001
REMARK INTER + INTRA:          -3.953
REMARK INTER:                  -3.885
REMARK INTRA:                  -0.067
REMARK UNBOUND:                -0.075
REMARK SMILES CCc1cccc(O)c1
REMARK SMILES IDX 3 1 9 2 7 3 6 4 5 5 4 6 2 7 1 8 8 9
REMARK H PARENT 8 10
REMARK Flexibility Score: inf
ROOT
ATOM      1  C   UNL     1      11.623   4.955  -1.331  1.00  0.00    -0.045 A 
ATOM      2  C   UNL     1      13.001   4.690  -1.254  1.00  0.00     0.049 A 
ATOM      3  C   UNL     1      13.586   3.737  -2.096  1.00  0.00     0.115 A 
ATOM      4  C   UNL     1      12.792   3.037  -3.015  1.00  0.00     0.046 A 
ATOM      5  C   UNL     1      11.419   3.287  -3.087  1.00  0.00     0.004 A 
ATOM      6  C   UNL     1      10.834   4.239  -2.245  1.00  0.00     0.004 A 
ENDROOT
BRANCH   1   7
ATOM      7  C   UNL     1      10.990   5.956  -0.403  1.00  0.00     0.032 C 
ATOM      8  C   UNL     1      10.025   6.861  -1.161  1.00  0.00     0.009 C 
ENDBRANCH   1   7
BRANCH   3   9
ATOM      9  O   UNL     1      14.954   3.491  -2.010  1.00  0.00    -0.508 OA
ATOM     10  H   UNL     1      15.632   4.100  -2.456  1.00  0.00     0.293 HD
ENDBRANCH   3   9
TORSDOF 2
ENDMDL
MODEL 3
REMARK VINA RESULT:    -3.452      2.782      4.492
REMARK INTER + INTRA:          -3.830
REMARK INTER:                  -3.757
REMARK INTRA:                  -0.072
REMARK UNBOUND:                -0.075
REMARK SMILES CCc1cccc(O)c1
REMARK SMILES IDX 3 1 9 2 7 3 6 4 5 5 4 6 2 7 1 8 8 9
REMARK H PARENT 8 10
REMARK Flexibility Score: inf
ROOT
ATOM      1  C   UNL     1      13.787   3.044  -2.453  1.00  0.00    -0.045 A 
ATOM      2  C   UNL     1      14.283   1.860  -3.024  1.00  0.00     0.049 A 
ATOM      3  C   UNL     1      15.472   1.292  -2.551  1.00  0.00     0.115 A 
ATOM      4  C   UNL     1      16.175   1.911  -1.509  1.00  0.00     0.046 A 
ATOM      5  C   UNL     1      15.694   3.096  -0.946  1.00  0.00     0.004 A 
ATOM      6  C   UNL     1      14.507   3.665  -1.419  1.00  0.00     0.004 A 
ENDROOT
BRANCH   1   7
ATOM      7  C   UNL     1      12.527   3.673  -2.984  1.00  0.00     0.032 C 
ATOM      8  C   UNL     1      11.854   4.524  -1.912  1.00  0.00     0.009 C 
ENDBRANCH   1   7
BRANCH   3   9
ATOM      9  O   UNL     1      15.946   0.114  -3.125  1.00  0.00    -0.508 OA
ATOM     10  H   UNL     1      16.056   0.020  -4.128  1.00  0.00     0.293 HD
ENDBRANCH   3   9
TORSDOF 2
ENDMDL
MODEL 4
REMARK VINA RESULT:    -3.376     16.665     17.390
REMARK INTER + INTRA:          -3.747
REMARK INTER:                  -3.695
REMARK INTRA:                  -0.052
REMARK UNBOUND:                -0.075
REMARK SMILES CCc1cccc(O)c1
REMARK SMILES IDX 3 1 9 2 7 3 6 4 5 5 4 6 2 7 1 8 8 9
REMARK H PARENT 8 10
REMARK Flexibility Score: inf
ROOT
ATOM      1  C   UNL     1      23.181  17.518   0.562  1.00  0.00    -0.045 A 
ATOM      2  C   UNL     1      23.962  16.533  -0.067  1.00  0.00     0.049 A 
ATOM      3  C   UNL     1      23.712  16.176  -1.397  1.00  0.00     0.115 A 
ATOM      4  C   UNL     1      22.673  16.798  -2.103  1.00  0.00     0.046 A 
ATOM      5  C   UNL     1      21.885  17.768  -1.479  1.00  0.00     0.004 A 
ATOM      6  C   UNL     1      22.133  18.125  -0.149  1.00  0.00     0.004 A 
ENDROOT
BRANCH   1   7
ATOM      7  C   UNL     1      23.429  17.878   2.002  1.00  0.00     0.032 C 
ATOM      8  C   UNL     1      24.522  16.998   2.599  1.00  0.00     0.009 C 
ENDBRANCH   1   7
BRANCH   3   9
ATOM      9  O   UNL     1      24.499  15.202  -2.006  1.00  0.00    -0.508 OA
ATOM     10  H   UNL     1      24.926  15.355  -2.913  1.00  0.00     0.293 HD
ENDBRANCH   3   9
TORSDOF 2
ENDMDL
MODEL 5
REMARK VINA RESULT:    -3.273      1.606      2.424
REMARK INTER + INTRA:          -3.635
REMARK INTER:                  -3.568
REMARK INTRA:                  -0.066
REMARK UNBOUND:                -0.075
REMARK SMILES CCc1cccc(O)c1
REMARK SMILES IDX 3 1 9 2 7 3 6 4 5 5 4 6 2 7 1 8 8 9
REMARK H PARENT 8 10
REMARK Flexibility Score: inf
ROOT
ATOM      1  C   UNL     1      13.980   3.217  -2.097  1.00  0.00    -0.045 A 
ATOM      2  C   UNL     1      13.517   4.243  -1.256  1.00  0.00     0.049 A 
ATOM      3  C   UNL     1      12.190   4.682  -1.342  1.00  0.00     0.115 A 
ATOM      4  C   UNL     1      11.322   4.101  -2.276  1.00  0.00     0.046 A 
ATOM      5  C   UNL     1      11.782   3.091  -3.125  1.00  0.00     0.004 A 
ATOM      6  C   UNL     1      13.107   2.652  -3.041  1.00  0.00     0.004 A 
ENDROOT
BRANCH   1   7
ATOM      7  C   UNL     1      15.415   2.769  -2.028  1.00  0.00     0.032 C 
ATOM      8  C   UNL     1      15.505   1.247  -1.994  1.00  0.00     0.009 C 
ENDBRANCH   1   7
BRANCH   3   9
ATOM      9  O   UNL     1      11.746   5.696  -0.496  1.00  0.00    -0.508 OA
ATOM     10  H   UNL     1      12.181   5.863   0.405  1.00  0.00     0.293 HD
ENDBRANCH   3   9
TORSDOF 2
ENDMDL
MODEL 6
REMARK VINA RESULT:    -3.270      2.291      3.502
REMARK INTER + INTRA:          -3.632
REMARK INTER:                  -3.562
REMARK INTRA:                  -0.070
REMARK UNBOUND:                -0.075
REMARK SMILES CCc1cccc(O)c1
REMARK SMILES IDX 3 1 9 2 7 3 6 4 5 5 4 6 2 7 1 8 8 9
REMARK H PARENT 8 10
REMARK Flexibility Score: inf
ROOT
ATOM      1  C   UNL     1      10.813   5.487  -1.092  1.00  0.00    -0.045 A 
ATOM      2  C   UNL     1      10.281   6.755  -0.802  1.00  0.00     0.049 A 
ATOM      3  C   UNL     1       9.150   7.220  -1.483  1.00  0.00     0.115 A 
ATOM      4  C   UNL     1       8.551   6.420  -2.467  1.00  0.00     0.046 A 
ATOM      5  C   UNL     1       9.084   5.165  -2.769  1.00  0.00     0.004 A 
ATOM      6  C   UNL     1      10.214   4.700  -2.089  1.00  0.00     0.004 A 
ENDROOT
BRANCH   1   7
ATOM      7  C   UNL     1      12.049   5.002  -0.382  1.00  0.00     0.032 C 
ATOM      8  C   UNL     1      13.040   4.401  -1.373  1.00  0.00     0.009 C 
ENDBRANCH   1   7
BRANCH   3   9
ATOM      9  O   UNL     1       8.633   8.476  -1.179  1.00  0.00    -0.508 OA
ATOM     10  H   UNL     1       8.599   8.819  -0.225  1.00  0.00     0.293 HD
ENDBRANCH   3   9
TORSDOF 2
ENDMDL
MODEL 7
REMARK VINA RESULT:    -3.192     16.746     17.504
REMARK INTER + INTRA:          -3.547
REMARK INTER:                  -3.471
REMARK INTRA:                  -0.076
REMARK UNBOUND:                -0.075
REMARK SMILES CCc1cccc(O)c1
REMARK SMILES IDX 3 1 9 2 7 3 6 4 5 5 4 6 2 7 1 8 8 9
REMARK H PARENT 8 10
REMARK Flexibility Score: inf
ROOT
ATOM      1  C   UNL     1      23.378  17.490   0.646  1.00  0.00    -0.045 A 
ATOM      2  C   UNL     1      22.368  18.022  -0.173  1.00  0.00     0.049 A 
ATOM      3  C   UNL     1      22.231  17.590  -1.497  1.00  0.00     0.115 A 
ATOM      4  C   UNL     1      23.111  16.630  -2.013  1.00  0.00     0.046 A 
ATOM      5  C   UNL     1      24.127  16.107  -1.207  1.00  0.00     0.004 A 
ATOM      6  C   UNL     1      24.265  16.538   0.116  1.00  0.00     0.004 A 
ENDROOT
BRANCH   1   7
ATOM      7  C   UNL     1      23.546  17.979   2.059  1.00  0.00     0.032 C 
ATOM      8  C   UNL     1      24.802  17.388   2.690  1.00  0.00     0.009 C 
ENDBRANCH   1   7
BRANCH   3   9
ATOM      9  O   UNL     1      21.219  18.124  -2.293  1.00  0.00    -0.508 OA
ATOM     10  H   UNL     1      20.838  17.612  -3.081  1.00  0.00     0.293 HD
ENDBRANCH   3   9
TORSDOF 2
ENDMDL
MODEL 8
REMARK VINA RESULT:    -2.359     16.434     17.220
REMARK INTER + INTRA:          -2.641
REMARK INTER:                  -2.580
REMARK INTRA:                  -0.060
REMARK UNBOUND:                -0.075
REMARK SMILES CCc1cccc(O)c1
REMARK SMILES IDX 3 1 9 2 7 3 6 4 5 5 4 6 2 7 1 8 8 9
REMARK H PARENT 8 10
REMARK Flexibility Score: inf
ROOT
ATOM      1  C   UNL     1      22.525  17.356  -1.695  1.00  0.00    -0.045 A 
ATOM      2  C   UNL     1      23.518  16.362  -1.666  1.00  0.00     0.049 A 
ATOM      3  C   UNL     1      24.247  16.125  -0.494  1.00  0.00     0.115 A 
ATOM      4  C   UNL     1      23.991  16.888   0.653  1.00  0.00     0.046 A 
ATOM      5  C   UNL     1      23.014  17.887   0.626  1.00  0.00     0.004 A 
ATOM      6  C   UNL     1      22.286  18.125  -0.545  1.00  0.00     0.004 A 
ENDROOT
BRANCH   1   7
ATOM      7  C   UNL     1      21.766  17.633  -2.964  1.00  0.00     0.032 C 
ATOM      8  C   UNL     1      20.270  17.418  -2.757  1.00  0.00     0.009 C 
ENDBRANCH   1   7
BRANCH   3   9
ATOM      9  O   UNL     1      25.224  15.132  -0.482  1.00  0.00    -0.508 OA
ATOM     10  H   UNL     1      25.017  14.181  -0.768  1.00  0.00     0.293 HD
ENDBRANCH   3   9
TORSDOF 2
ENDMDL
