MODEL 1
REMARK VINA RESULT:    -2.385      0.000      0.000
REMARK INTER + INTRA:          -8.277
REMARK INTER:                  -5.454
REMARK INTRA:                  -2.823
REMARK UNBOUND:                -2.823
REMARK SMILES CCCCCCCCCCCCCCCCCCCCCCCC(=O)[O-]
REMARK SMILES IDX 13 1 14 2 15 3 16 4 17 5 18 6 19 7 20 8 21 9 22 10 23 11
REMARK SMILES IDX 24 12 25 13 26 14 12 15 11 16 10 17 9 18 8 19 7 20 6 21 5 22
REMARK SMILES IDX 4 23 3 24 2 25 1 26
REMARK H PARENT
REMARK Flexibility Score: inf
ROOT
ATOM      1  C   UNL     1       8.413   5.886  55.118  1.00  0.00     0.000 C 
ENDROOT
BRANCH   1   2
ATOM      2  C   UNL     1       9.755   5.601  54.420  1.00  0.00     0.000 C 
BRANCH   2   3
ATOM      3  C   UNL     1       9.678   5.766  52.887  1.00  0.00     0.000 C 
BRANCH   3   4
ATOM      4  C   UNL     1      10.857   6.550  52.281  1.00  0.00     0.000 C 
BRANCH   4   5
ATOM      5  C   UNL     1      11.072   6.354  50.767  1.00  0.00     0.000 C 
BRANCH   5   6
ATOM      6  C   UNL     1       9.905   6.818  49.876  1.00  0.00     0.000 C 
BRANCH   6   7
ATOM      7  C   UNL     1       8.585   6.967  50.645  1.00  0.00     0.000 C 
BRANCH   7   8
ATOM      8  C   UNL     1       7.442   6.255  49.906  1.00  0.00     0.000 C 
BRANCH   8   9
ATOM      9  C   UNL     1       6.070   6.481  50.562  1.00  0.00     0.000 C 
BRANCH   9  10
ATOM     10  C   UNL     1       4.898   5.720  49.913  1.00  0.00     0.006 C 
BRANCH  10  11
ATOM     11  C   UNL     1       3.958   5.035  50.924  1.00  0.00     0.053 C 
BRANCH  11  12
ATOM     12  C   UNL     1       2.646   4.640  50.314  1.00  0.00     0.041 C 
ATOM     13  O   UNL     1       1.774   5.513  50.064  1.00  0.00    -0.550 OA
ATOM     14  O   UNL     1       2.402   3.313  49.982  1.00  0.00    -0.550 OA
ENDBRANCH  11  12
ENDBRANCH  10  11
ENDBRANCH   9  10
ENDBRANCH   8   9
ENDBRANCH   7   8
ENDBRANCH   6   7
ENDBRANCH   5   6
ENDBRANCH   4   5
ENDBRANCH   3   4
ENDBRANCH   2   3
ENDBRANCH   1   2
BRANCH   1  15
ATOM     15  C   UNL     1       7.737   4.611  55.641  1.00  0.00     0.000 C 
BRANCH  15  16
ATOM     16  C   UNL     1       6.216   4.611  55.414  1.00  0.00     0.000 C 
BRANCH  16  17
ATOM     17  C   UNL     1       5.833   4.472  53.930  1.00  0.00     0.000 C 
BRANCH  17  18
ATOM     18  C   UNL     1       6.285   3.140  53.298  1.00  0.00    -0.000 C 
BRANCH  18  19
ATOM     19  C   UNL     1       7.042   3.353  51.975  1.00  0.00    -0.000 C 
BRANCH  19  20
ATOM     20  C   UNL     1       6.498   2.482  50.831  1.00  0.00    -0.000 C 
BRANCH  20  21
ATOM     21  C   UNL     1       7.607   2.006  49.877  1.00  0.00    -0.000 C 
BRANCH  21  22
ATOM     22  C   UNL     1       8.854   2.905  49.927  1.00  0.00    -0.000 C 
BRANCH  22  23
ATOM     23  C   UNL     1      10.090   2.171  50.471  1.00  0.00    -0.000 C 
BRANCH  23  24
ATOM     24  C   UNL     1      10.321   2.511  51.951  1.00  0.00    -0.000 C 
BRANCH  24  25
ATOM     25  C   UNL     1      11.761   2.966  52.236  1.00  0.00    -0.003 C 
ATOM     26  C   UNL     1      12.607   1.876  52.894  1.00  0.00     0.004 C 
ENDBRANCH  24  25
ENDBRANCH  23  24
ENDBRANCH  22  23
ENDBRANCH  21  22
ENDBRANCH  20  21
ENDBRANCH  19  20
ENDBRANCH  18  19
ENDBRANCH  17  18
ENDBRANCH  16  17
ENDBRANCH  15  16
ENDBRANCH   1  15
TORSDOF 22
ENDMDL
MODEL 2
REMARK VINA RESULT:    -2.281     17.222     20.058
REMARK INTER + INTRA:          -8.037
REMARK INTER:                  -6.665
REMARK INTRA:                  -1.371
REMARK UNBOUND:                -2.823
REMARK SMILES CCCCCCCCCCCCCCCCCCCCCCCC(=O)[O-]
REMARK SMILES IDX 13 1 14 2 15 3 16 4 17 5 18 6 19 7 20 8 21 9 22 10 23 11
REMARK SMILES IDX 24 12 25 13 26 14 12 15 11 16 10 17 9 18 8 19 7 20 6 21 5 22
REMARK SMILES IDX 4 23 3 24 2 25 1 26
REMARK H PARENT
REMARK Flexibility Score: inf
ROOT
ATOM      1  C   UNL     1      12.822  20.922  65.242  1.00  0.00     0.000 C 
ENDROOT
BRANCH   1   2
ATOM      2  C   UNL     1      11.517  21.318  65.954  1.00  0.00     0.000 C 
BRANCH   2   3
ATOM      3  C   UNL     1      11.679  21.416  67.487  1.00  0.00     0.000 C 
BRANCH   3   4
ATOM      4  C   UNL     1      10.437  21.964  68.214  1.00  0.00     0.000 C 
BRANCH   4   5
ATOM      5  C   UNL     1      10.210  21.416  69.637  1.00  0.00     0.000 C 
BRANCH   5   6
ATOM      6  C   UNL     1       8.746  21.090  69.986  1.00  0.00     0.000 C 
BRANCH   6   7
ATOM      7  C   UNL     1       7.814  21.134  68.768  1.00  0.00     0.000 C 
BRANCH   7   8
ATOM      8  C   UNL     1       6.364  20.843  69.181  1.00  0.00     0.000 C 
BRANCH   8   9
ATOM      9  C   UNL     1       6.033  19.342  69.197  1.00  0.00     0.000 C 
BRANCH   9  10
ATOM     10  C   UNL     1       4.671  18.962  68.584  1.00  0.00     0.006 C 
BRANCH  10  11
ATOM     11  C   UNL     1       4.399  17.446  68.549  1.00  0.00     0.053 C 
BRANCH  11  12
ATOM     12  C   UNL     1       4.567  16.864  67.177  1.00  0.00     0.041 C 
ATOM     13  O   UNL     1       4.973  15.680  67.035  1.00  0.00    -0.550 OA
ATOM     14  O   UNL     1       4.237  17.613  66.055  1.00  0.00    -0.550 OA
ENDBRANCH  11  12
ENDBRANCH  10  11
ENDBRANCH   9  10
ENDBRANCH   8   9
ENDBRANCH   7   8
ENDBRANCH   6   7
ENDBRANCH   5   6
ENDBRANCH   4   5
ENDBRANCH   3   4
ENDBRANCH   2   3
ENDBRANCH   1   2
BRANCH   1  15
ATOM     15  C   UNL     1      12.707  19.582  64.499  1.00  0.00     0.000 C 
BRANCH  15  16
ATOM     16  C   UNL     1      11.252  19.216  64.161  1.00  0.00     0.000 C 
BRANCH  16  17
ATOM     17  C   UNL     1      11.097  17.762  63.681  1.00  0.00     0.000 C 
BRANCH  17  18
ATOM     18  C   UNL     1      12.402  17.153  63.127  1.00  0.00    -0.000 C 
BRANCH  18  19
ATOM     19  C   UNL     1      12.624  15.712  63.621  1.00  0.00    -0.000 C 
BRANCH  19  20
ATOM     20  C   UNL     1      11.446  15.182  64.455  1.00  0.00    -0.000 C 
BRANCH  20  21
ATOM     21  C   UNL     1      11.818  13.927  65.264  1.00  0.00    -0.000 C 
BRANCH  21  22
ATOM     22  C   UNL     1      13.139  13.294  64.796  1.00  0.00    -0.000 C 
BRANCH  22  23
ATOM     23  C   UNL     1      13.307  11.847  65.286  1.00  0.00    -0.000 C 
BRANCH  23  24
ATOM     24  C   UNL     1      13.431  10.879  64.100  1.00  0.00    -0.000 C 
BRANCH  24  25
ATOM     25  C   UNL     1      12.381   9.757  64.141  1.00  0.00    -0.003 C 
ATOM     26  C   UNL     1      11.087  10.183  64.833  1.00  0.00     0.004 C 
ENDBRANCH  24  25
ENDBRANCH  23  24
ENDBRANCH  22  23
ENDBRANCH  21  22
ENDBRANCH  20  21
ENDBRANCH  19  20
ENDBRANCH  18  19
ENDBRANCH  17  18
ENDBRANCH  16  17
ENDBRANCH  15  16
ENDBRANCH   1  15
TORSDOF 22
ENDMDL
MODEL 3
REMARK VINA RESULT:    -1.821      3.969      8.161
REMARK INTER + INTRA:          -6.986
REMARK INTER:                  -5.618
REMARK INTRA:                  -1.368
REMARK UNBOUND:                -2.823
REMARK SMILES CCCCCCCCCCCCCCCCCCCCCCCC(=O)[O-]
REMARK SMILES IDX 13 1 14 2 15 3 16 4 17 5 18 6 19 7 20 8 21 9 22 10 23 11
REMARK SMILES IDX 24 12 25 13 26 14 12 15 11 16 10 17 9 18 8 19 7 20 6 21 5 22
REMARK SMILES IDX 4 23 3 24 2 25 1 26
REMARK H PARENT
REMARK Flexibility Score: inf
ROOT
ATOM      1  C   UNL     1       5.998   4.488  54.459  1.00  0.00     0.000 C 
ENDROOT
BRANCH   1   2
ATOM      2  C   UNL     1       7.419   5.058  54.619  1.00  0.00     0.000 C 
BRANCH   2   3
ATOM      3  C   UNL     1       8.498   4.159  53.977  1.00  0.00     0.000 C 
BRANCH   3   4
ATOM      4  C   UNL     1       8.669   4.372  52.461  1.00  0.00     0.000 C 
BRANCH   4   5
ATOM      5  C   UNL     1       9.073   5.797  52.035  1.00  0.00     0.000 C 
BRANCH   5   6
ATOM      6  C   UNL     1       8.891   6.109  50.539  1.00  0.00     0.000 C 
BRANCH   6   7
ATOM      7  C   UNL     1      10.083   6.862  49.933  1.00  0.00     0.000 C 
BRANCH   7   8
ATOM      8  C   UNL     1      11.117   7.205  51.015  1.00  0.00     0.000 C 
BRANCH   8   9
ATOM      9  C   UNL     1      12.542   6.759  50.648  1.00  0.00     0.000 C 
BRANCH   9  10
ATOM     10  C   UNL     1      12.693   5.269  50.287  1.00  0.00     0.006 C 
BRANCH  10  11
ATOM     11  C   UNL     1      12.610   4.318  51.498  1.00  0.00     0.053 C 
BRANCH  11  12
ATOM     12  C   UNL     1      11.601   3.226  51.303  1.00  0.00     0.041 C 
ATOM     13  O   UNL     1      10.834   3.242  50.305  1.00  0.00    -0.550 OA
ATOM     14  O   UNL     1      11.534   2.169  52.202  1.00  0.00    -0.550 OA
ENDBRANCH  11  12
ENDBRANCH  10  11
ENDBRANCH   9  10
ENDBRANCH   8   9
ENDBRANCH   7   8
ENDBRANCH   6   7
ENDBRANCH   5   6
ENDBRANCH   4   5
ENDBRANCH   3   4
ENDBRANCH   2   3
ENDBRANCH   1   2
BRANCH   1  15
ATOM     15  C   UNL     1       5.753   3.895  53.063  1.00  0.00     0.000 C 
BRANCH  15  16
ATOM     16  C   UNL     1       5.012   4.866  52.129  1.00  0.00     0.000 C 
BRANCH  16  17
ATOM     17  C   UNL     1       4.727   4.263  50.742  1.00  0.00     0.000 C 
BRANCH  17  18
ATOM     18  C   UNL     1       3.433   3.425  50.688  1.00  0.00    -0.000 C 
BRANCH  18  19
ATOM     19  C   UNL     1       2.327   4.121  49.875  1.00  0.00    -0.000 C 
BRANCH  19  20
ATOM     20  C   UNL     1       1.201   4.680  50.761  1.00  0.00    -0.000 C 
BRANCH  20  21
ATOM     21  C   UNL     1      -0.134   4.803  50.006  1.00  0.00    -0.000 C 
BRANCH  21  22
ATOM     22  C   UNL     1      -1.057   3.596  50.238  1.00  0.00    -0.000 C 
BRANCH  22  23
ATOM     23  C   UNL     1      -2.532   3.914  49.948  1.00  0.00    -0.000 C 
BRANCH  23  24
ATOM     24  C   UNL     1      -3.432   2.727  50.320  1.00  0.00    -0.000 C 
BRANCH  24  25
ATOM     25  C   UNL     1      -4.408   3.058  51.460  1.00  0.00    -0.003 C 
ATOM     26  C   UNL     1      -5.792   3.465  50.956  1.00  0.00     0.004 C 
ENDBRANCH  24  25
ENDBRANCH  23  24
ENDBRANCH  22  23
ENDBRANCH  21  22
ENDBRANCH  20  21
ENDBRANCH  19  20
ENDBRANCH  18  19
ENDBRANCH  17  18
ENDBRANCH  16  17
ENDBRANCH  15  16
ENDBRANCH   1  15
TORSDOF 22
ENDMDL
MODEL 4
REMARK VINA RESULT:    -1.800      3.744      8.037
REMARK INTER + INTRA:          -6.939
REMARK INTER:                  -5.639
REMARK INTRA:                  -1.299
REMARK UNBOUND:                -2.823
REMARK SMILES CCCCCCCCCCCCCCCCCCCCCCCC(=O)[O-]
REMARK SMILES IDX 13 1 14 2 15 3 16 4 17 5 18 6 19 7 20 8 21 9 22 10 23 11
REMARK SMILES IDX 24 12 25 13 26 14 12 15 11 16 10 17 9 18 8 19 7 20 6 21 5 22
REMARK SMILES IDX 4 23 3 24 2 25 1 26
REMARK H PARENT
REMARK Flexibility Score: inf
ROOT
ATOM      1  C   UNL     1       6.326   5.206  51.179  1.00  0.00     0.000 C 
ENDROOT
BRANCH   1   2
ATOM      2  C   UNL     1       7.060   4.241  50.230  1.00  0.00     0.000 C 
BRANCH   2   3
ATOM      3  C   UNL     1       8.595   4.301  50.388  1.00  0.00     0.000 C 
BRANCH   3   4
ATOM      4  C   UNL     1       9.204   3.058  51.065  1.00  0.00     0.000 C 
BRANCH   4   5
ATOM      5  C   UNL     1      10.697   2.811  50.772  1.00  0.00     0.000 C 
BRANCH   5   6
ATOM      6  C   UNL     1      11.676   3.515  51.729  1.00  0.00     0.000 C 
BRANCH   6   7
ATOM      7  C   UNL     1      12.229   4.829  51.162  1.00  0.00     0.000 C 
BRANCH   7   8
ATOM      8  C   UNL     1      11.458   6.032  51.727  1.00  0.00     0.000 C 
BRANCH   8   9
ATOM      9  C   UNL     1      11.245   5.949  53.247  1.00  0.00     0.000 C 
BRANCH   9  10
ATOM     10  C   UNL     1       9.794   6.164  53.721  1.00  0.00     0.006 C 
BRANCH  10  11
ATOM     11  C   UNL     1       8.995   4.859  53.905  1.00  0.00     0.053 C 
BRANCH  11  12
ATOM     12  C   UNL     1       8.029   4.934  55.049  1.00  0.00     0.041 C 
ATOM     13  O   UNL     1       6.838   4.553  54.900  1.00  0.00    -0.550 OA
ATOM     14  O   UNL     1       8.452   5.386  56.293  1.00  0.00    -0.550 OA
ENDBRANCH  11  12
ENDBRANCH  10  11
ENDBRANCH   9  10
ENDBRANCH   8   9
ENDBRANCH   7   8
ENDBRANCH   6   7
ENDBRANCH   5   6
ENDBRANCH   4   5
ENDBRANCH   3   4
ENDBRANCH   2   3
ENDBRANCH   1   2
BRANCH   1  15
ATOM     15  C   UNL     1       5.526   4.471  52.265  1.00  0.00     0.000 C 
BRANCH  15  16
ATOM     16  C   UNL     1       4.635   3.357  51.692  1.00  0.00     0.000 C 
BRANCH  16  17
ATOM     17  C   UNL     1       3.917   3.771  50.396  1.00  0.00     0.000 C 
BRANCH  17  18
ATOM     18  C   UNL     1       2.691   2.896  50.063  1.00  0.00    -0.000 C 
BRANCH  18  19
ATOM     19  C   UNL     1       1.423   3.374  50.793  1.00  0.00    -0.000 C 
BRANCH  19  20
ATOM     20  C   UNL     1       0.824   4.647  50.174  1.00  0.00    -0.000 C 
BRANCH  20  21
ATOM     21  C   UNL     1      -0.645   4.862  50.578  1.00  0.00    -0.000 C 
BRANCH  21  22
ATOM     22  C   UNL     1      -1.279   6.074  49.875  1.00  0.00    -0.000 C 
BRANCH  22  23
ATOM     23  C   UNL     1      -2.080   6.964  50.838  1.00  0.00    -0.000 C 
BRANCH  23  24
ATOM     24  C   UNL     1      -3.039   7.882  50.066  1.00  0.00    -0.000 C 
BRANCH  24  25
ATOM     25  C   UNL     1      -3.056   9.317  50.616  1.00  0.00    -0.003 C 
ATOM     26  C   UNL     1      -1.660   9.832  50.969  1.00  0.00     0.004 C 
ENDBRANCH  24  25
ENDBRANCH  23  24
ENDBRANCH  22  23
ENDBRANCH  21  22
ENDBRANCH  20  21
ENDBRANCH  19  20
ENDBRANCH  18  19
ENDBRANCH  17  18
ENDBRANCH  16  17
ENDBRANCH  15  16
ENDBRANCH   1  15
TORSDOF 22
ENDMDL
MODEL 5
REMARK VINA RESULT:    -1.458      2.908      7.241
REMARK INTER + INTRA:          -6.157
REMARK INTER:                  -5.741
REMARK INTRA:                  -0.416
REMARK UNBOUND:                -2.823
REMARK SMILES CCCCCCCCCCCCCCCCCCCCCCCC(=O)[O-]
REMARK SMILES IDX 13 1 14 2 15 3 16 4 17 5 18 6 19 7 20 8 21 9 22 10 23 11
REMARK SMILES IDX 24 12 25 13 26 14 12 15 11 16 10 17 9 18 8 19 7 20 6 21 5 22
REMARK SMILES IDX 4 23 3 24 2 25 1 26
REMARK H PARENT
REMARK Flexibility Score: inf
ROOT
ATOM      1  C   UNL     1       6.322   4.706  54.718  1.00  0.00     0.000 C 
ENDROOT
BRANCH   1   2
ATOM      2  C   UNL     1       7.315   5.837  55.037  1.00  0.00     0.000 C 
BRANCH   2   3
ATOM      3  C   UNL     1       8.774   5.341  55.135  1.00  0.00     0.000 C 
BRANCH   3   4
ATOM      4  C   UNL     1       9.468   5.165  53.770  1.00  0.00     0.000 C 
BRANCH   4   5
ATOM      5  C   UNL     1      10.253   6.393  53.266  1.00  0.00     0.000 C 
BRANCH   5   6
ATOM      6  C   UNL     1      10.577   6.387  51.760  1.00  0.00     0.000 C 
BRANCH   6   7
ATOM      7  C   UNL     1      11.657   5.364  51.382  1.00  0.00     0.000 C 
BRANCH   7   8
ATOM      8  C   UNL     1      11.754   4.258  52.445  1.00  0.00     0.000 C 
BRANCH   8   9
ATOM      9  C   UNL     1      11.526   2.851  51.870  1.00  0.00     0.000 C 
BRANCH   9  10
ATOM     10  C   UNL     1      10.797   2.805  50.513  1.00  0.00     0.006 C 
BRANCH  10  11
ATOM     11  C   UNL     1       9.568   1.875  50.492  1.00  0.00     0.053 C 
BRANCH  11  12
ATOM     12  C   UNL     1       8.274   2.633  50.500  1.00  0.00     0.041 C 
ATOM     13  O   UNL     1       8.276   3.889  50.592  1.00  0.00    -0.550 OA
ATOM     14  O   UNL     1       7.068   1.957  50.364  1.00  0.00    -0.550 OA
ENDBRANCH  11  12
ENDBRANCH  10  11
ENDBRANCH   9  10
ENDBRANCH   8   9
ENDBRANCH   7   8
ENDBRANCH   6   7
ENDBRANCH   5   6
ENDBRANCH   4   5
ENDBRANCH   3   4
ENDBRANCH   2   3
ENDBRANCH   1   2
BRANCH   1  15
ATOM     15  C   UNL     1       6.221   4.416  53.213  1.00  0.00     0.000 C 
BRANCH  15  16
ATOM     16  C   UNL     1       5.021   5.117  52.555  1.00  0.00     0.000 C 
BRANCH  16  17
ATOM     17  C   UNL     1       5.082   5.090  51.017  1.00  0.00     0.000 C 
BRANCH  17  18
ATOM     18  C   UNL     1       4.678   3.732  50.407  1.00  0.00    -0.000 C 
BRANCH  18  19
ATOM     19  C   UNL     1       3.226   3.734  49.899  1.00  0.00    -0.000 C 
BRANCH  19  20
ATOM     20  C   UNL     1       2.281   4.545  50.800  1.00  0.00    -0.000 C 
BRANCH  20  21
ATOM     21  C   UNL     1       1.131   5.197  50.011  1.00  0.00    -0.000 C 
BRANCH  21  22
ATOM     22  C   UNL     1      -0.191   5.207  50.796  1.00  0.00    -0.000 C 
BRANCH  22  23
ATOM     23  C   UNL     1      -1.423   5.257  49.878  1.00  0.00    -0.000 C 
BRANCH  23  24
ATOM     24  C   UNL     1      -2.160   3.910  49.877  1.00  0.00    -0.000 C 
BRANCH  24  25
ATOM     25  C   UNL     1      -3.639   4.045  50.274  1.00  0.00    -0.003 C 
ATOM     26  C   UNL     1      -4.148   2.848  51.077  1.00  0.00     0.004 C 
ENDBRANCH  24  25
ENDBRANCH  23  24
ENDBRANCH  22  23
ENDBRANCH  21  22
ENDBRANCH  20  21
ENDBRANCH  19  20
ENDBRANCH  18  19
ENDBRANCH  17  18
ENDBRANCH  16  17
ENDBRANCH  15  16
ENDBRANCH   1  15
TORSDOF 22
ENDMDL
MODEL 6
REMARK VINA RESULT:    -0.930     20.001     23.041
REMARK INTER + INTRA:          -4.950
REMARK INTER:                  -3.456
REMARK INTRA:                  -1.494
REMARK UNBOUND:                -2.823
REMARK SMILES CCCCCCCCCCCCCCCCCCCCCCCC(=O)[O-]
REMARK SMILES IDX 13 1 14 2 15 3 16 4 17 5 18 6 19 7 20 8 21 9 22 10 23 11
REMARK SMILES IDX 24 12 25 13 26 14 12 15 11 16 10 17 9 18 8 19 7 20 6 21 5 22
REMARK SMILES IDX 4 23 3 24 2 25 1 26
REMARK H PARENT
REMARK Flexibility Score: inf
ROOT
ATOM      1  C   UNL     1       4.338  14.438  68.175  1.00  0.00     0.000 C 
ENDROOT
BRANCH   1   2
ATOM      2  C   UNL     1       3.583  13.937  69.420  1.00  0.00     0.000 C 
BRANCH   2   3
ATOM      3  C   UNL     1       2.768  15.051  70.112  1.00  0.00     0.000 C 
BRANCH   3   4
ATOM      4  C   UNL     1       2.510  16.282  69.222  1.00  0.00     0.000 C 
BRANCH   4   5
ATOM      5  C   UNL     1       1.434  17.257  69.740  1.00  0.00     0.000 C 
BRANCH   5   6
ATOM      6  C   UNL     1       1.950  18.656  70.124  1.00  0.00     0.000 C 
BRANCH   6   7
ATOM      7  C   UNL     1       1.852  19.668  68.975  1.00  0.00     0.000 C 
BRANCH   7   8
ATOM      8  C   UNL     1       3.250  20.085  68.495  1.00  0.00     0.000 C 
BRANCH   8   9
ATOM      9  C   UNL     1       3.512  21.592  68.642  1.00  0.00     0.000 C 
BRANCH   9  10
ATOM     10  C   UNL     1       4.922  22.058  68.228  1.00  0.00     0.006 C 
BRANCH  10  11
ATOM     11  C   UNL     1       5.487  21.329  66.994  1.00  0.00     0.053 C 
BRANCH  11  12
ATOM     12  C   UNL     1       4.921  21.853  65.708  1.00  0.00     0.041 C 
ATOM     13  O   UNL     1       5.666  22.016  64.706  1.00  0.00    -0.550 OA
ATOM     14  O   UNL     1       3.562  22.124  65.602  1.00  0.00    -0.550 OA
ENDBRANCH  11  12
ENDBRANCH  10  11
ENDBRANCH   9  10
ENDBRANCH   8   9
ENDBRANCH   7   8
ENDBRANCH   6   7
ENDBRANCH   5   6
ENDBRANCH   4   5
ENDBRANCH   3   4
ENDBRANCH   2   3
ENDBRANCH   1   2
BRANCH   1  15
ATOM     15  C   UNL     1       5.550  15.311  68.532  1.00  0.00     0.000 C 
BRANCH  15  16
ATOM     16  C   UNL     1       5.738  16.489  67.561  1.00  0.00     0.000 C 
BRANCH  16  17
ATOM     17  C   UNL     1       5.582  17.859  68.244  1.00  0.00     0.000 C 
BRANCH  17  18
ATOM     18  C   UNL     1       6.514  18.051  69.459  1.00  0.00    -0.000 C 
BRANCH  18  19
ATOM     19  C   UNL     1       6.492  19.499  69.981  1.00  0.00    -0.000 C 
BRANCH  19  20
ATOM     20  C   UNL     1       7.899  20.104  70.115  1.00  0.00    -0.000 C 
BRANCH  20  21
ATOM     21  C   UNL     1       8.025  21.461  69.399  1.00  0.00    -0.000 C 
BRANCH  21  22
ATOM     22  C   UNL     1       9.485  21.832  69.093  1.00  0.00    -0.000 C 
BRANCH  22  23
ATOM     23  C   UNL     1      10.487  21.062  69.968  1.00  0.00    -0.000 C 
BRANCH  23  24
ATOM     24  C   UNL     1      11.428  20.211  69.103  1.00  0.00    -0.000 C 
BRANCH  24  25
ATOM     25  C   UNL     1      12.433  21.061  68.310  1.00  0.00    -0.003 C 
ATOM     26  C   UNL     1      11.860  21.579  66.991  1.00  0.00     0.004 C 
ENDBRANCH  24  25
ENDBRANCH  23  24
ENDBRANCH  22  23
ENDBRANCH  21  22
ENDBRANCH  20  21
ENDBRANCH  19  20
ENDBRANCH  18  19
ENDBRANCH  17  18
ENDBRANCH  16  17
ENDBRANCH  15  16
ENDBRANCH   1  15
TORSDOF 22
ENDMDL
MODEL 7
REMARK VINA RESULT:    -0.479      3.016      6.531
REMARK INTER + INTRA:          -3.918
REMARK INTER:                  -4.201
REMARK INTRA:                   0.283
REMARK UNBOUND:                -2.823
REMARK SMILES CCCCCCCCCCCCCCCCCCCCCCCC(=O)[O-]
REMARK SMILES IDX 13 1 14 2 15 3 16 4 17 5 18 6 19 7 20 8 21 9 22 10 23 11
REMARK SMILES IDX 24 12 25 13 26 14 12 15 11 16 10 17 9 18 8 19 7 20 6 21 5 22
REMARK SMILES IDX 4 23 3 24 2 25 1 26
REMARK H PARENT
REMARK Flexibility Score: inf
ROOT
ATOM      1  C   UNL     1       7.365   5.268  54.902  1.00  0.00     0.000 C 
ENDROOT
BRANCH   1   2
ATOM      2  C   UNL     1       8.852   5.525  55.205  1.00  0.00     0.000 C 
BRANCH   2   3
ATOM      3  C   UNL     1       9.753   5.350  53.964  1.00  0.00     0.000 C 
BRANCH   3   4
ATOM      4  C   UNL     1      10.054   6.664  53.217  1.00  0.00     0.000 C 
BRANCH   4   5
ATOM      5  C   UNL     1      11.481   6.788  52.648  1.00  0.00     0.000 C 
BRANCH   5   6
ATOM      6  C   UNL     1      11.562   6.952  51.119  1.00  0.00     0.000 C 
BRANCH   6   7
ATOM      7  C   UNL     1      12.935   7.445  50.641  1.00  0.00     0.000 C 
BRANCH   7   8
ATOM      8  C   UNL     1      13.830   6.261  50.244  1.00  0.00     0.000 C 
BRANCH   8   9
ATOM      9  C   UNL     1      13.144   4.898  50.434  1.00  0.00     0.000 C 
BRANCH   9  10
ATOM     10  C   UNL     1      11.711   4.799  49.875  1.00  0.00     0.006 C 
BRANCH  10  11
ATOM     11  C   UNL     1      11.090   3.393  49.985  1.00  0.00     0.053 C 
BRANCH  11  12
ATOM     12  C   UNL     1      10.992   2.918  51.404  1.00  0.00     0.041 C 
ATOM     13  O   UNL     1      10.049   3.311  52.141  1.00  0.00    -0.550 OA
ATOM     14  O   UNL     1      11.918   2.010  51.903  1.00  0.00    -0.550 OA
ENDBRANCH  11  12
ENDBRANCH  10  11
ENDBRANCH   9  10
ENDBRANCH   8   9
ENDBRANCH   7   8
ENDBRANCH   6   7
ENDBRANCH   5   6
ENDBRANCH   4   5
ENDBRANCH   3   4
ENDBRANCH   2   3
ENDBRANCH   1   2
BRANCH   1  15
ATOM     15  C   UNL     1       7.127   4.818  53.453  1.00  0.00     0.000 C 
BRANCH  15  16
ATOM     16  C   UNL     1       6.216   3.583  53.358  1.00  0.00     0.000 C 
BRANCH  16  17
ATOM     17  C   UNL     1       6.512   2.714  52.123  1.00  0.00     0.000 C 
BRANCH  17  18
ATOM     18  C   UNL     1       7.117   3.503  50.944  1.00  0.00    -0.000 C 
BRANCH  18  19
ATOM     19  C   UNL     1       6.064   3.846  49.875  1.00  0.00    -0.000 C 
BRANCH  19  20
ATOM     20  C   UNL     1       4.684   3.244  50.186  1.00  0.00    -0.000 C 
BRANCH  20  21
ATOM     21  C   UNL     1       3.593   4.320  50.329  1.00  0.00    -0.000 C 
BRANCH  21  22
ATOM     22  C   UNL     1       2.500   3.922  51.335  1.00  0.00    -0.000 C 
BRANCH  22  23
ATOM     23  C   UNL     1       1.434   3.004  50.717  1.00  0.00    -0.000 C 
BRANCH  23  24
ATOM     24  C   UNL     1       0.098   3.747  50.557  1.00  0.00    -0.000 C 
BRANCH  24  25
ATOM     25  C   UNL     1       0.277   5.269  50.453  1.00  0.00    -0.003 C 
ATOM     26  C   UNL     1      -1.030   6.000  50.148  1.00  0.00     0.004 C 
ENDBRANCH  24  25
ENDBRANCH  23  24
ENDBRANCH  22  23
ENDBRANCH  21  22
ENDBRANCH  20  21
ENDBRANCH  19  20
ENDBRANCH  18  19
ENDBRANCH  17  18
ENDBRANCH  16  17
ENDBRANCH  15  16
ENDBRANCH   1  15
TORSDOF 22
ENDMDL
