MODEL 1
REMARK VINA RESULT:    10.879      0.000      0.000
REMARK INTER + INTRA:          11.806
REMARK INTER:                  11.833
REMARK INTRA:                  -0.027
REMARK UNBOUND:                -0.027
REMARK SMILES O=C([O-])c1ccc(O)cc1
REMARK SMILES IDX 4 1 5 2 10 3 6 4 9 5 7 6 2 7 1 8 3 9 8 10
REMARK H PARENT 8 11
REMARK Flexibility Score: inf
ROOT
ATOM      1  C   UNL     1     -12.436   1.440 -17.578  1.00  0.00    -0.003 A 
ATOM      2  C   UNL     1     -11.658   0.607 -18.405  1.00  0.00     0.014 A 
ATOM      3  C   UNL     1     -13.283   0.852 -16.621  1.00  0.00     0.014 A 
ATOM      4  C   UNL     1     -11.729  -0.783 -18.275  1.00  0.00     0.047 A 
ATOM      5  C   UNL     1     -13.350  -0.539 -16.495  1.00  0.00     0.047 A 
ATOM      6  C   UNL     1     -12.575  -1.360 -17.319  1.00  0.00     0.115 A 
ENDROOT
BRANCH   1   7
ATOM      7  C   UNL     1     -12.365   2.912 -17.711  1.00  0.00     0.071 C 
ATOM      8  O   UNL     1     -12.966   3.502 -18.647  1.00  0.00    -0.545 OA
ATOM      9  O   UNL     1     -11.633   3.666 -16.800  1.00  0.00    -0.545 OA
ENDBRANCH   1   7
BRANCH   6  10
ATOM     10  O   UNL     1     -12.653  -2.743 -17.181  1.00  0.00    -0.508 OA
ATOM     11  H   UNL     1     -11.827  -3.328 -17.232  1.00  0.00     0.293 HD
ENDBRANCH   6  10
TORSDOF 2
ENDMDL
MODEL 2
REMARK VINA RESULT:    11.398      3.415      4.282
REMARK INTER + INTRA:          12.370
REMARK INTER:                  12.397
REMARK INTRA:                  -0.027
REMARK UNBOUND:                -0.027
REMARK SMILES O=C([O-])c1ccc(O)cc1
REMARK SMILES IDX 4 1 5 2 10 3 6 4 9 5 7 6 2 7 1 8 3 9 8 10
REMARK H PARENT 8 11
REMARK Flexibility Score: inf
ROOT
ATOM      1  C   UNL     1      -9.203  -0.625 -17.125  1.00  0.00    -0.003 A 
ATOM      2  C   UNL     1      -9.823  -1.641 -17.878  1.00  0.00     0.014 A 
ATOM      3  C   UNL     1      -9.958   0.500 -16.749  1.00  0.00     0.014 A 
ATOM      4  C   UNL     1     -11.167  -1.531 -18.245  1.00  0.00     0.047 A 
ATOM      5  C   UNL     1     -11.303   0.607 -17.119  1.00  0.00     0.047 A 
ATOM      6  C   UNL     1     -11.911  -0.406 -17.865  1.00  0.00     0.115 A 
ENDROOT
BRANCH   1   7
ATOM      7  C   UNL     1      -7.781  -0.737 -16.733  1.00  0.00     0.071 C 
ATOM      8  O   UNL     1      -6.875  -0.254 -17.462  1.00  0.00    -0.545 OA
ATOM      9  O   UNL     1      -7.425  -1.377 -15.551  1.00  0.00    -0.545 OA
ENDBRANCH   1   7
BRANCH   6  10
ATOM     10  O   UNL     1     -13.251  -0.285 -18.226  1.00  0.00    -0.508 OA
ATOM     11  H   UNL     1     -13.586  -0.599 -19.129  1.00  0.00     0.293 HD
ENDBRANCH   6  10
TORSDOF 2
ENDMDL
MODEL 3
REMARK VINA RESULT:    13.053     15.049     15.585
REMARK INTER + INTRA:          14.170
REMARK INTER:                  14.197
REMARK INTRA:                  -0.027
REMARK UNBOUND:                -0.027
REMARK SMILES O=C([O-])c1ccc(O)cc1
REMARK SMILES IDX 4 1 5 2 10 3 6 4 9 5 7 6 2 7 1 8 3 9 8 10
REMARK H PARENT 8 11
REMARK Flexibility Score: inf
ROOT
ATOM      1  C   UNL     1     -26.115   7.518 -13.969  1.00  0.00    -0.003 A 
ATOM      2  C   UNL     1     -27.020   6.526 -14.392  1.00  0.00     0.014 A 
ATOM      3  C   UNL     1     -25.320   7.275 -12.834  1.00  0.00     0.014 A 
ATOM      4  C   UNL     1     -27.125   5.319 -13.694  1.00  0.00     0.047 A 
ATOM      5  C   UNL     1     -25.428   6.067 -12.139  1.00  0.00     0.047 A 
ATOM      6  C   UNL     1     -26.328   5.087 -12.565  1.00  0.00     0.115 A 
ENDROOT
BRANCH   1   7
ATOM      7  C   UNL     1     -25.999   8.797 -14.704  1.00  0.00     0.071 C 
ATOM      8  O   UNL     1     -26.827   9.726 -14.509  1.00  0.00    -0.545 OA
ATOM      9  O   UNL     1     -24.971   8.991 -15.620  1.00  0.00    -0.545 OA
ENDBRANCH   1   7
BRANCH   6  10
ATOM     10  O   UNL     1     -26.425   3.888 -11.862  1.00  0.00    -0.508 OA
ATOM     11  H   UNL     1     -27.288   3.358 -11.836  1.00  0.00     0.293 HD
ENDBRANCH   6  10
TORSDOF 2
ENDMDL
