MODEL 1
REMARK VINA RESULT:    -4.231      0.000      0.000
REMARK INTER + INTRA:          -4.355
REMARK INTER:                  -4.355
REMARK INTRA:                   0.000
REMARK UNBOUND:                 0.000
REMARK SMILES C[C@@H]1CC[C@H]2C(C)(C)[C@H]3C[C@@]12CC[C@]3(C)O
REMARK SMILES IDX 1 1 2 2 3 3 4 4 5 5 11 6 12 7 13 8 14 9 9 10 10 11 6 12 7 13
REMARK SMILES IDX 8 14 15 15 16 16
REMARK H PARENT 16 17
REMARK Flexibility Score: inf
ROOT
ATOM      1  C   UNL     1     112.351 111.897 107.366  1.00  0.00     0.008 C 
ATOM      2  C   UNL     1     111.369 110.724 107.222  1.00  0.00    -0.008 C 
ATOM      3  C   UNL     1     112.064 109.467 106.702  1.00  0.00     0.004 C 
ATOM      4  C   UNL     1     110.948 108.631 106.103  1.00  0.00     0.005 C 
ATOM      5  C   UNL     1     110.024 109.658 105.432  1.00  0.00     0.001 C 
ATOM      6  C   UNL     1     110.154 110.950 106.267  1.00  0.00    -0.023 C 
ATOM      7  C   UNL     1     110.253 112.201 105.336  1.00  0.00     0.010 C 
ATOM      8  C   UNL     1     109.062 112.318 104.350  1.00  0.00     0.036 C 
ATOM      9  C   UNL     1     107.681 111.925 104.984  1.00  0.00     0.065 C 
ATOM     10  C   UNL     1     107.823 110.657 105.917  1.00  0.00     0.027 C 
ATOM     11  C   UNL     1     108.824 111.032 107.018  1.00  0.00     0.014 C 
ATOM     12  C   UNL     1     108.486 109.351 105.331  1.00  0.00    -0.026 C 
ATOM     13  C   UNL     1     108.026 108.137 106.191  1.00  0.00     0.012 C 
ATOM     14  C   UNL     1     108.100 108.990 103.878  1.00  0.00     0.012 C 
ATOM     15  C   UNL     1     106.626 111.728 103.875  1.00  0.00     0.042 C 
ENDROOT
BRANCH   9  16
ATOM     16  O   UNL     1     107.171 112.984 105.777  1.00  0.00    -0.390 OA
ATOM     17  H   UNL     1     106.236 113.195 105.521  1.00  0.00     0.211 HD
ENDBRANCH   9  16
TORSDOF 1
ENDMDL
MODEL 2
REMARK VINA RESULT:    -4.181      2.370      4.381
REMARK INTER + INTRA:          -4.303
REMARK INTER:                  -4.303
REMARK INTRA:                   0.000
REMARK UNBOUND:                 0.000
REMARK SMILES C[C@@H]1CC[C@H]2C(C)(C)[C@H]3C[C@@]12CC[C@]3(C)O
REMARK SMILES IDX 1 1 2 2 3 3 4 4 5 5 11 6 12 7 13 8 14 9 9 10 10 11 6 12 7 13
REMARK SMILES IDX 8 14 15 15 16 16
REMARK H PARENT 16 17
REMARK Flexibility Score: inf
ROOT
ATOM      1  C   UNL     1     110.849 112.858 103.876  1.00  0.00     0.008 C 
ATOM      2  C   UNL     1     110.022 111.570 104.008  1.00  0.00    -0.008 C 
ATOM      3  C   UNL     1     108.620 111.853 104.546  1.00  0.00     0.004 C 
ATOM      4  C   UNL     1     108.157 110.531 105.128  1.00  0.00     0.005 C 
ATOM      5  C   UNL     1     109.418 109.942 105.778  1.00  0.00     0.001 C 
ATOM      6  C   UNL     1     110.606 110.461 104.939  1.00  0.00    -0.023 C 
ATOM      7  C   UNL     1     111.780 110.912 105.867  1.00  0.00     0.010 C 
ATOM      8  C   UNL     1     112.254 109.794 106.831  1.00  0.00     0.036 C 
ATOM      9  C   UNL     1     112.281 108.368 106.174  1.00  0.00     0.065 C 
ATOM     10  C   UNL     1     111.018 108.143 105.249  1.00  0.00     0.027 C 
ATOM     11  C   UNL     1     111.071 109.227 104.165  1.00  0.00     0.014 C 
ATOM     12  C   UNL     1     109.581 108.381 105.853  1.00  0.00    -0.026 C 
ATOM     13  C   UNL     1     108.549 107.596 104.990  1.00  0.00     0.012 C 
ATOM     14  C   UNL     1     109.364 107.882 107.300  1.00  0.00     0.012 C 
ATOM     15  C   UNL     1     112.416 107.285 107.265  1.00  0.00     0.042 C 
ENDROOT
BRANCH   9  16
ATOM     16  O   UNL     1     113.436 108.208 105.368  1.00  0.00    -0.390 OA
ATOM     17  H   UNL     1     113.426 108.848 104.610  1.00  0.00     0.211 HD
ENDBRANCH   9  16
TORSDOF 1
ENDMDL
MODEL 3
REMARK VINA RESULT:    -4.181      2.039      3.797
REMARK INTER + INTRA:          -4.303
REMARK INTER:                  -4.303
REMARK INTRA:                   0.000
REMARK UNBOUND:                 0.000
REMARK SMILES C[C@@H]1CC[C@H]2C(C)(C)[C@H]3C[C@@]12CC[C@]3(C)O
REMARK SMILES IDX 1 1 2 2 3 3 4 4 5 5 11 6 12 7 13 8 14 9 9 10 10 11 6 12 7 13
REMARK SMILES IDX 8 14 15 15 16 16
REMARK H PARENT 16 17
REMARK Flexibility Score: inf
ROOT
ATOM      1  C   UNL     1     112.823 109.485 103.875  1.00  0.00     0.008 C 
ATOM      2  C   UNL     1     111.510 110.261 104.059  1.00  0.00    -0.008 C 
ATOM      3  C   UNL     1     111.747 111.630 104.693  1.00  0.00     0.004 C 
ATOM      4  C   UNL     1     110.410 112.010 105.301  1.00  0.00     0.005 C 
ATOM      5  C   UNL     1     109.860 110.690 105.860  1.00  0.00     0.001 C 
ATOM      6  C   UNL     1     110.418 109.579 104.945  1.00  0.00    -0.023 C 
ATOM      7  C   UNL     1     110.905 108.358 105.791  1.00  0.00     0.010 C 
ATOM      8  C   UNL     1     109.801 107.785 106.716  1.00  0.00     0.036 C 
ATOM      9  C   UNL     1     108.378 107.757 106.054  1.00  0.00     0.065 C 
ATOM     10  C   UNL     1     108.115 109.073 105.217  1.00  0.00     0.027 C 
ATOM     11  C   UNL     1     109.201 109.129 104.136  1.00  0.00     0.014 C 
ATOM     12  C   UNL     1     108.305 110.473 105.919  1.00  0.00    -0.026 C 
ATOM     13  C   UNL     1     107.489 111.536 105.126  1.00  0.00     0.012 C 
ATOM     14  C   UNL     1     107.797 110.574 107.376  1.00  0.00     0.012 C 
ATOM     15  C   UNL     1     107.298 107.514 107.129  1.00  0.00     0.042 C 
ENDROOT
BRANCH   9  16
ATOM     16  O   UNL     1     108.255 106.656 105.170  1.00  0.00    -0.390 OA
ATOM     17  H   UNL     1     107.573 106.016 105.501  1.00  0.00     0.211 HD
ENDBRANCH   9  16
TORSDOF 1
ENDMDL
MODEL 4
REMARK VINA RESULT:    -4.156      2.600      4.837
REMARK INTER + INTRA:          -4.278
REMARK INTER:                  -4.278
REMARK INTRA:                   0.000
REMARK UNBOUND:                 0.000
REMARK SMILES C[C@@H]1CC[C@H]2C(C)(C)[C@H]3C[C@@]12CC[C@]3(C)O
REMARK SMILES IDX 1 1 2 2 3 3 4 4 5 5 11 6 12 7 13 8 14 9 9 10 10 11 6 12 7 13
REMARK SMILES IDX 8 14 15 15 16 16
REMARK H PARENT 16 17
REMARK Flexibility Score: inf
ROOT
ATOM      1  C   UNL     1     107.735 108.340 107.391  1.00  0.00     0.008 C 
ATOM      2  C   UNL     1     108.757 109.478 107.249  1.00  0.00    -0.008 C 
ATOM      3  C   UNL     1     108.104 110.762 106.739  1.00  0.00     0.004 C 
ATOM      4  C   UNL     1     109.245 111.562 106.140  1.00  0.00     0.005 C 
ATOM      5  C   UNL     1     110.131 110.508 105.460  1.00  0.00     0.001 C 
ATOM      6  C   UNL     1     109.960 109.216 106.288  1.00  0.00    -0.023 C 
ATOM      7  C   UNL     1     109.812 107.974 105.350  1.00  0.00     0.010 C 
ATOM      8  C   UNL     1     110.995 107.822 104.358  1.00  0.00     0.036 C 
ATOM      9  C   UNL     1     112.391 108.162 104.988  1.00  0.00     0.065 C 
ATOM     10  C   UNL     1     112.297 109.430 105.929  1.00  0.00     0.027 C 
ATOM     11  C   UNL     1     111.289 109.083 107.032  1.00  0.00     0.014 C 
ATOM     12  C   UNL     1     111.677 110.761 105.353  1.00  0.00    -0.026 C 
ATOM     13  C   UNL     1     112.183 111.954 106.218  1.00  0.00     0.012 C 
ATOM     14  C   UNL     1     112.070 111.117 103.900  1.00  0.00     0.012 C 
ATOM     15  C   UNL     1     113.448 108.329 103.875  1.00  0.00     0.042 C 
ENDROOT
BRANCH   9  16
ATOM     16  O   UNL     1     112.867 107.082 105.772  1.00  0.00    -0.390 OA
ATOM     17  H   UNL     1     112.112 106.524 106.094  1.00  0.00     0.211 HD
ENDBRANCH   9  16
TORSDOF 1
ENDMDL
MODEL 5
REMARK VINA RESULT:    -4.149      1.409      3.567
REMARK INTER + INTRA:          -4.270
REMARK INTER:                  -4.270
REMARK INTRA:                   0.000
REMARK UNBOUND:                 0.000
REMARK SMILES C[C@@H]1CC[C@H]2C(C)(C)[C@H]3C[C@@]12CC[C@]3(C)O
REMARK SMILES IDX 1 1 2 2 3 3 4 4 5 5 11 6 12 7 13 8 14 9 9 10 10 11 6 12 7 13
REMARK SMILES IDX 8 14 15 15 16 16
REMARK H PARENT 16 17
REMARK Flexibility Score: inf
ROOT
ATOM      1  C   UNL     1     108.899 107.141 103.877  1.00  0.00     0.008 C 
ATOM      2  C   UNL     1     109.745 108.423 103.886  1.00  0.00    -0.008 C 
ATOM      3  C   UNL     1     111.181 108.148 104.328  1.00  0.00     0.004 C 
ATOM      4  C   UNL     1     111.699 109.490 104.811  1.00  0.00     0.005 C 
ATOM      5  C   UNL     1     110.497 110.123 105.527  1.00  0.00     0.001 C 
ATOM      6  C   UNL     1     109.243 109.580 104.807  1.00  0.00    -0.023 C 
ATOM      7  C   UNL     1     108.140 109.186 105.842  1.00  0.00     0.010 C 
ATOM      8  C   UNL     1     107.752 110.352 106.786  1.00  0.00     0.036 C 
ATOM      9  C   UNL     1     107.685 111.747 106.069  1.00  0.00     0.065 C 
ATOM     10  C   UNL     1     108.875 111.914 105.040  1.00  0.00     0.027 C 
ATOM     11  C   UNL     1     108.730 110.783 104.015  1.00  0.00     0.014 C 
ATOM     12  C   UNL     1     110.353 111.687 105.543  1.00  0.00    -0.026 C 
ATOM     13  C   UNL     1     111.322 112.420 104.568  1.00  0.00     0.012 C 
ATOM     14  C   UNL     1     110.685 112.249 106.945  1.00  0.00     0.012 C 
ATOM     15  C   UNL     1     107.644 112.880 107.116  1.00  0.00     0.042 C 
ENDROOT
BRANCH   9  16
ATOM     16  O   UNL     1     106.474 111.884 105.347  1.00  0.00    -0.390 OA
ATOM     17  H   UNL     1     106.444 112.757 104.875  1.00  0.00     0.211 HD
ENDBRANCH   9  16
TORSDOF 1
ENDMDL
MODEL 6
REMARK VINA RESULT:    -4.115      1.738      4.157
REMARK INTER + INTRA:          -4.236
REMARK INTER:                  -4.236
REMARK INTRA:                   0.000
REMARK UNBOUND:                 0.000
REMARK SMILES C[C@@H]1CC[C@H]2C(C)(C)[C@H]3C[C@@]12CC[C@]3(C)O
REMARK SMILES IDX 1 1 2 2 3 3 4 4 5 5 11 6 12 7 13 8 14 9 9 10 10 11 6 12 7 13
REMARK SMILES IDX 8 14 15 15 16 16
REMARK H PARENT 16 17
REMARK Flexibility Score: inf
ROOT
ATOM      1  C   UNL     1     107.117 111.128 103.875  1.00  0.00     0.008 C 
ATOM      2  C   UNL     1     108.395 110.276 103.885  1.00  0.00    -0.008 C 
ATOM      3  C   UNL     1     108.112 108.840 104.323  1.00  0.00     0.004 C 
ATOM      4  C   UNL     1     109.450 108.315 104.808  1.00  0.00     0.005 C 
ATOM      5  C   UNL     1     110.088 109.512 105.528  1.00  0.00     0.001 C 
ATOM      6  C   UNL     1     109.553 110.769 104.810  1.00  0.00    -0.023 C 
ATOM      7  C   UNL     1     109.162 111.872 105.846  1.00  0.00     0.010 C 
ATOM      8  C   UNL     1     110.328 112.253 106.794  1.00  0.00     0.036 C 
ATOM      9  C   UNL     1     111.724 112.314 106.080  1.00  0.00     0.065 C 
ATOM     10  C   UNL     1     111.888 111.125 105.049  1.00  0.00     0.027 C 
ATOM     11  C   UNL     1     110.760 111.278 104.021  1.00  0.00     0.014 C 
ATOM     12  C   UNL     1     111.653 109.647 105.548  1.00  0.00    -0.026 C 
ATOM     13  C   UNL     1     112.383 108.677 104.573  1.00  0.00     0.012 C 
ATOM     14  C   UNL     1     112.210 109.310 106.950  1.00  0.00     0.012 C 
ATOM     15  C   UNL     1     112.855 112.347 107.129  1.00  0.00     0.042 C 
ENDROOT
BRANCH   9  16
ATOM     16  O   UNL     1     111.870 113.527 105.361  1.00  0.00    -0.390 OA
ATOM     17  H   UNL     1     111.770 114.307 105.966  1.00  0.00     0.211 HD
ENDBRANCH   9  16
TORSDOF 1
ENDMDL
MODEL 7
REMARK VINA RESULT:    -4.082      1.994      3.641
REMARK INTER + INTRA:          -4.202
REMARK INTER:                  -4.202
REMARK INTRA:                   0.000
REMARK UNBOUND:                 0.000
REMARK SMILES C[C@@H]1CC[C@H]2C(C)(C)[C@H]3C[C@@]12CC[C@]3(C)O
REMARK SMILES IDX 1 1 2 2 3 3 4 4 5 5 11 6 12 7 13 8 14 9 9 10 10 11 6 12 7 13
REMARK SMILES IDX 8 14 15 15 16 16
REMARK H PARENT 16 17
REMARK Flexibility Score: inf
ROOT
ATOM      1  C   UNL     1     106.779 112.603 106.708  1.00  0.00     0.008 C 
ATOM      2  C   UNL     1     107.817 111.625 107.279  1.00  0.00    -0.008 C 
ATOM      3  C   UNL     1     109.115 112.337 107.655  1.00  0.00     0.004 C 
ATOM      4  C   UNL     1     110.167 111.244 107.658  1.00  0.00     0.005 C 
ATOM      5  C   UNL     1     109.783 110.346 106.473  1.00  0.00     0.001 C 
ATOM      6  C   UNL     1     108.247 110.446 106.350  1.00  0.00    -0.023 C 
ATOM      7  C   UNL     1     107.821 110.581 104.851  1.00  0.00     0.010 C 
ATOM      8  C   UNL     1     108.356 109.428 103.965  1.00  0.00     0.036 C 
ATOM      9  C   UNL     1     108.311 108.023 104.664  1.00  0.00     0.065 C 
ATOM     10  C   UNL     1     108.744 108.130 106.182  1.00  0.00     0.027 C 
ATOM     11  C   UNL     1     107.753 109.089 106.854  1.00  0.00     0.014 C 
ATOM     12  C   UNL     1     110.121 108.813 106.534  1.00  0.00    -0.026 C 
ATOM     13  C   UNL     1     110.569 108.320 107.942  1.00  0.00     0.012 C 
ATOM     14  C   UNL     1     111.302 108.480 105.593  1.00  0.00     0.012 C 
ATOM     15  C   UNL     1     109.166 107.010 103.875  1.00  0.00     0.042 C 
ENDROOT
BRANCH   9  16
ATOM     16  O   UNL     1     107.000 107.486 104.631  1.00  0.00    -0.390 OA
ATOM     17  H   UNL     1     106.899 106.766 105.306  1.00  0.00     0.211 HD
ENDBRANCH   9  16
TORSDOF 1
ENDMDL
MODEL 8
REMARK VINA RESULT:    -4.075      2.228      3.565
REMARK INTER + INTRA:          -4.194
REMARK INTER:                  -4.194
REMARK INTRA:                   0.000
REMARK UNBOUND:                 0.000
REMARK SMILES C[C@@H]1CC[C@H]2C(C)(C)[C@H]3C[C@@]12CC[C@]3(C)O
REMARK SMILES IDX 1 1 2 2 3 3 4 4 5 5 11 6 12 7 13 8 14 9 9 10 10 11 6 12 7 13
REMARK SMILES IDX 8 14 15 15 16 16
REMARK H PARENT 16 17
REMARK Flexibility Score: inf
ROOT
ATOM      1  C   UNL     1     113.034 107.520 106.912  1.00  0.00     0.008 C 
ATOM      2  C   UNL     1     111.982 108.540 107.373  1.00  0.00    -0.008 C 
ATOM      3  C   UNL     1     110.621 107.884 107.596  1.00  0.00     0.004 C 
ATOM      4  C   UNL     1     109.623 109.022 107.492  1.00  0.00     0.005 C 
ATOM      5  C   UNL     1     110.175 109.907 106.364  1.00  0.00     0.001 C 
ATOM      6  C   UNL     1     111.709 109.740 106.411  1.00  0.00    -0.023 C 
ATOM      7  C   UNL     1     112.293 109.592 104.969  1.00  0.00     0.010 C 
ATOM      8  C   UNL     1     111.911 110.771 104.038  1.00  0.00     0.036 C 
ATOM      9  C   UNL     1     111.938 112.170 104.750  1.00  0.00     0.065 C 
ATOM     10  C   UNL     1     111.335 112.076 106.209  1.00  0.00     0.027 C 
ATOM     11  C   UNL     1     112.202 111.072 106.979  1.00  0.00     0.014 C 
ATOM     12  C   UNL     1     109.898 111.453 106.400  1.00  0.00    -0.026 C 
ATOM     13  C   UNL     1     109.318 111.960 107.754  1.00  0.00     0.012 C 
ATOM     14  C   UNL     1     108.845 111.841 105.336  1.00  0.00     0.012 C 
ATOM     15  C   UNL     1     111.220 113.222 103.879  1.00  0.00     0.042 C 
ENDROOT
BRANCH   9  16
ATOM     16  O   UNL     1     113.267 112.649 104.867  1.00  0.00    -0.390 OA
ATOM     17  H   UNL     1     113.376 113.502 104.371  1.00  0.00     0.211 HD
ENDBRANCH   9  16
TORSDOF 1
ENDMDL
MODEL 9
REMARK VINA RESULT:    -4.023      2.050      3.870
REMARK INTER + INTRA:          -4.140
REMARK INTER:                  -4.140
REMARK INTRA:                   0.000
REMARK UNBOUND:                 0.000
REMARK SMILES C[C@@H]1CC[C@H]2C(C)(C)[C@H]3C[C@@]12CC[C@]3(C)O
REMARK SMILES IDX 1 1 2 2 3 3 4 4 5 5 11 6 12 7 13 8 14 9 9 10 10 11 6 12 7 13
REMARK SMILES IDX 8 14 15 15 16 16
REMARK H PARENT 16 17
REMARK Flexibility Score: inf
ROOT
ATOM      1  C   UNL     1     107.731 108.394 109.708  1.00  0.00     0.008 C 
ATOM      2  C   UNL     1     107.369 108.215 108.226  1.00  0.00    -0.008 C 
ATOM      3  C   UNL     1     106.989 106.770 107.908  1.00  0.00     0.004 C 
ATOM      4  C   UNL     1     107.206 106.634 106.413  1.00  0.00     0.005 C 
ATOM      5  C   UNL     1     108.472 107.458 106.138  1.00  0.00     0.001 C 
ATOM      6  C   UNL     1     108.477 108.588 107.190  1.00  0.00    -0.023 C 
ATOM      7  C   UNL     1     109.910 108.787 107.780  1.00  0.00     0.010 C 
ATOM      8  C   UNL     1     110.979 109.065 106.692  1.00  0.00     0.036 C 
ATOM      9  C   UNL     1     110.474 110.001 105.538  1.00  0.00     0.065 C 
ATOM     10  C   UNL     1     108.989 109.646 105.126  1.00  0.00     0.027 C 
ATOM     11  C   UNL     1     108.128 109.839 106.381  1.00  0.00     0.014 C 
ATOM     12  C   UNL     1     108.642 108.156 104.740  1.00  0.00    -0.026 C 
ATOM     13  C   UNL     1     107.347 108.161 103.875  1.00  0.00     0.012 C 
ATOM     14  C   UNL     1     109.698 107.414 103.888  1.00  0.00     0.012 C 
ATOM     15  C   UNL     1     111.449 109.944 104.344  1.00  0.00     0.042 C 
ENDROOT
BRANCH   9  16
ATOM     16  O   UNL     1     110.491 111.358 105.947  1.00  0.00    -0.390 OA
ATOM     17  H   UNL     1     110.852 111.937 105.227  1.00  0.00     0.211 HD
ENDBRANCH   9  16
TORSDOF 1
ENDMDL
