MODEL 1
REMARK VINA RESULT:    -6.282      0.000      0.000
REMARK INTER + INTRA:         -10.585
REMARK INTER:                  -9.955
REMARK INTRA:                  -0.631
REMARK UNBOUND:                -0.631
REMARK SMILES CCCCCCCCCCCC(=O)[O-]
REMARK SMILES IDX 7 1 8 2 9 3 10 4 11 5 12 6 13 7 14 8 6 9 5 10 4 11 3 12 2 13
REMARK SMILES IDX 1 14
REMARK H PARENT
REMARK Flexibility Score: inf
ROOT
ATOM      1  C   UNL     1      18.071  71.957  72.760  1.00  0.00     0.000 C 
ENDROOT
BRANCH   1   2
ATOM      2  C   UNL     1      19.205  71.477  71.841  1.00  0.00     0.000 C 
BRANCH   2   3
ATOM      3  C   UNL     1      20.263  70.653  72.590  1.00  0.00     0.000 C 
BRANCH   3   4
ATOM      4  C   UNL     1      21.172  69.903  71.605  1.00  0.00     0.006 C 
BRANCH   4   5
ATOM      5  C   UNL     1      20.690  70.036  70.154  1.00  0.00     0.053 C 
BRANCH   5   6
ATOM      6  C   UNL     1      20.297  68.712  69.574  1.00  0.00     0.041 C 
ATOM      7  O   UNL     1      19.396  68.023  70.120  1.00  0.00    -0.550 OA
ATOM      8  O   UNL     1      20.951  68.223  68.450  1.00  0.00    -0.550 OA
ENDBRANCH   5   6
ENDBRANCH   4   5
ENDBRANCH   3   4
ENDBRANCH   2   3
ENDBRANCH   1   2
BRANCH   1   9
ATOM      9  C   UNL     1      17.048  72.841  72.025  1.00  0.00     0.000 C 
BRANCH   9  10
ATOM     10  C   UNL     1      15.602  72.354  72.216  1.00  0.00    -0.000 C 
BRANCH  10  11
ATOM     11  C   UNL     1      15.493  70.822  72.234  1.00  0.00    -0.000 C 
BRANCH  11  12
ATOM     12  C   UNL     1      14.306  70.370  73.099  1.00  0.00    -0.000 C 
BRANCH  12  13
ATOM     13  C   UNL     1      14.483  70.734  74.581  1.00  0.00    -0.003 C 
ATOM     14  C   UNL     1      13.958  69.651  75.524  1.00  0.00     0.004 C 
ENDBRANCH  12  13
ENDBRANCH  11  12
ENDBRANCH  10  11
ENDBRANCH   9  10
ENDBRANCH   1   9
TORSDOF 10
ENDMDL
MODEL 2
REMARK VINA RESULT:    -6.114      3.031      3.311
REMARK INTER + INTRA:         -10.319
REMARK INTER:                  -9.714
REMARK INTRA:                  -0.605
REMARK UNBOUND:                -0.631
REMARK SMILES CCCCCCCCCCCC(=O)[O-]
REMARK SMILES IDX 7 1 8 2 9 3 10 4 11 5 12 6 13 7 14 8 6 9 5 10 4 11 3 12 2 13
REMARK SMILES IDX 1 14
REMARK H PARENT
REMARK Flexibility Score: inf
ROOT
ATOM      1  C   UNL     1      17.399  71.856  72.000  1.00  0.00     0.000 C 
ENDROOT
BRANCH   1   2
ATOM      2  C   UNL     1      18.853  71.934  72.488  1.00  0.00     0.000 C 
BRANCH   2   3
ATOM      3  C   UNL     1      19.026  71.397  73.917  1.00  0.00     0.000 C 
BRANCH   3   4
ATOM      4  C   UNL     1      20.188  70.394  73.990  1.00  0.00     0.006 C 
BRANCH   4   5
ATOM      5  C   UNL     1      21.458  70.929  73.316  1.00  0.00     0.053 C 
BRANCH   5   6
ATOM      6  C   UNL     1      22.676  70.689  74.154  1.00  0.00     0.041 C 
ATOM      7  O   UNL     1      23.806  71.075  73.757  1.00  0.00    -0.550 OA
ATOM      8  O   UNL     1      22.567  70.007  75.360  1.00  0.00    -0.550 OA
ENDBRANCH   5   6
ENDBRANCH   4   5
ENDBRANCH   3   4
ENDBRANCH   2   3
ENDBRANCH   1   2
BRANCH   1   9
ATOM      9  C   UNL     1      16.504  72.940  72.627  1.00  0.00     0.000 C 
BRANCH   9  10
ATOM     10  C   UNL     1      15.159  72.383  73.119  1.00  0.00    -0.000 C 
BRANCH  10  11
ATOM     11  C   UNL     1      14.766  71.077  72.413  1.00  0.00    -0.000 C 
BRANCH  11  12
ATOM     12  C   UNL     1      14.368  70.001  73.435  1.00  0.00    -0.000 C 
BRANCH  12  13
ATOM     13  C   UNL     1      13.660  70.589  74.666  1.00  0.00    -0.003 C 
ATOM     14  C   UNL     1      13.992  69.837  75.955  1.00  0.00     0.004 C 
ENDBRANCH  12  13
ENDBRANCH  11  12
ENDBRANCH  10  11
ENDBRANCH   9  10
ENDBRANCH   1   9
TORSDOF 10
ENDMDL
MODEL 3
REMARK VINA RESULT:    -6.107      2.792      3.267
REMARK INTER + INTRA:         -10.308
REMARK INTER:                  -9.739
REMARK INTRA:                  -0.569
REMARK UNBOUND:                -0.631
REMARK SMILES CCCCCCCCCCCC(=O)[O-]
REMARK SMILES IDX 7 1 8 2 9 3 10 4 11 5 12 6 13 7 14 8 6 9 5 10 4 11 3 12 2 13
REMARK SMILES IDX 1 14
REMARK H PARENT
REMARK Flexibility Score: inf
ROOT
ATOM      1  C   UNL     1      17.609  71.785  71.966  1.00  0.00     0.000 C 
ENDROOT
BRANCH   1   2
ATOM      2  C   UNL     1      19.089  72.104  72.223  1.00  0.00     0.000 C 
BRANCH   2   3
ATOM      3  C   UNL     1      20.004  70.893  71.981  1.00  0.00     0.000 C 
BRANCH   3   4
ATOM      4  C   UNL     1      20.797  70.544  73.250  1.00  0.00     0.006 C 
BRANCH   4   5
ATOM      5  C   UNL     1      21.436  71.781  73.895  1.00  0.00     0.053 C 
BRANCH   5   6
ATOM      6  C   UNL     1      22.892  71.895  73.559  1.00  0.00     0.041 C 
ATOM      7  O   UNL     1      23.627  70.874  73.577  1.00  0.00    -0.550 OA
ATOM      8  O   UNL     1      23.442  73.135  73.258  1.00  0.00    -0.550 OA
ENDBRANCH   5   6
ENDBRANCH   4   5
ENDBRANCH   3   4
ENDBRANCH   2   3
ENDBRANCH   1   2
BRANCH   1   9
ATOM      9  C   UNL     1      16.660  72.782  72.657  1.00  0.00     0.000 C 
BRANCH   9  10
ATOM     10  C   UNL     1      15.289  72.166  72.980  1.00  0.00    -0.000 C 
BRANCH  10  11
ATOM     11  C   UNL     1      15.110  70.770  72.365  1.00  0.00    -0.000 C 
BRANCH  11  12
ATOM     12  C   UNL     1      14.194  69.901  73.241  1.00  0.00    -0.000 C 
BRANCH  12  13
ATOM     13  C   UNL     1      13.703  70.640  74.496  1.00  0.00    -0.003 C 
ATOM     14  C   UNL     1      14.010  69.881  75.788  1.00  0.00     0.004 C 
ENDBRANCH  12  13
ENDBRANCH  11  12
ENDBRANCH  10  11
ENDBRANCH   9  10
ENDBRANCH   1   9
TORSDOF 10
ENDMDL
MODEL 4
REMARK VINA RESULT:    -6.084      2.645      2.970
REMARK INTER + INTRA:         -10.272
REMARK INTER:                  -9.747
REMARK INTRA:                  -0.525
REMARK UNBOUND:                -0.631
REMARK SMILES CCCCCCCCCCCC(=O)[O-]
REMARK SMILES IDX 7 1 8 2 9 3 10 4 11 5 12 6 13 7 14 8 6 9 5 10 4 11 3 12 2 13
REMARK SMILES IDX 1 14
REMARK H PARENT
REMARK Flexibility Score: inf
ROOT
ATOM      1  C   UNL     1      17.801  71.660  72.451  1.00  0.00     0.000 C 
ENDROOT
BRANCH   1   2
ATOM      2  C   UNL     1      19.077  71.988  71.661  1.00  0.00     0.000 C 
BRANCH   2   3
ATOM      3  C   UNL     1      19.887  70.733  71.302  1.00  0.00     0.000 C 
BRANCH   3   4
ATOM      4  C   UNL     1      21.183  71.109  70.567  1.00  0.00     0.006 C 
BRANCH   4   5
ATOM      5  C   UNL     1      21.433  72.624  70.571  1.00  0.00     0.053 C 
BRANCH   5   6
ATOM      6  C   UNL     1      22.896  72.947  70.578  1.00  0.00     0.041 C 
ATOM      7  O   UNL     1      23.495  73.194  69.499  1.00  0.00    -0.550 OA
ATOM      8  O   UNL     1      23.604  72.940  71.773  1.00  0.00    -0.550 OA
ENDBRANCH   5   6
ENDBRANCH   4   5
ENDBRANCH   3   4
ENDBRANCH   2   3
ENDBRANCH   1   2
BRANCH   1   9
ATOM      9  C   UNL     1      16.665  72.664  72.185  1.00  0.00     0.000 C 
BRANCH   9  10
ATOM     10  C   UNL     1      15.293  72.139  72.638  1.00  0.00    -0.000 C 
BRANCH  10  11
ATOM     11  C   UNL     1      15.043  70.687  72.201  1.00  0.00    -0.000 C 
BRANCH  11  12
ATOM     12  C   UNL     1      14.329  69.898  73.309  1.00  0.00    -0.000 C 
BRANCH  12  13
ATOM     13  C   UNL     1      14.247  70.679  74.631  1.00  0.00    -0.003 C 
ATOM     14  C   UNL     1      13.933  69.783  75.829  1.00  0.00     0.004 C 
ENDBRANCH  12  13
ENDBRANCH  11  12
ENDBRANCH  10  11
ENDBRANCH   9  10
ENDBRANCH   1   9
TORSDOF 10
ENDMDL
MODEL 5
REMARK VINA RESULT:    -6.068      2.461      2.785
REMARK INTER + INTRA:         -10.246
REMARK INTER:                  -9.602
REMARK INTRA:                  -0.645
REMARK UNBOUND:                -0.631
REMARK SMILES CCCCCCCCCCCC(=O)[O-]
REMARK SMILES IDX 7 1 8 2 9 3 10 4 11 5 12 6 13 7 14 8 6 9 5 10 4 11 3 12 2 13
REMARK SMILES IDX 1 14
REMARK H PARENT
REMARK Flexibility Score: inf
ROOT
ATOM      1  C   UNL     1      17.458  73.285  71.713  1.00  0.00     0.000 C 
ENDROOT
BRANCH   1   2
ATOM      2  C   UNL     1      18.911  72.799  71.604  1.00  0.00     0.000 C 
BRANCH   2   3
ATOM      3  C   UNL     1      19.040  71.278  71.777  1.00  0.00     0.000 C 
BRANCH   3   4
ATOM      4  C   UNL     1      20.436  70.795  71.354  1.00  0.00     0.006 C 
BRANCH   4   5
ATOM      5  C   UNL     1      21.176  70.088  72.497  1.00  0.00     0.053 C 
BRANCH   5   6
ATOM      6  C   UNL     1      22.298  70.924  73.034  1.00  0.00     0.041 C 
ATOM      7  O   UNL     1      23.270  70.380  73.620  1.00  0.00    -0.550 OA
ATOM      8  O   UNL     1      22.252  72.308  72.917  1.00  0.00    -0.550 OA
ENDBRANCH   5   6
ENDBRANCH   4   5
ENDBRANCH   3   4
ENDBRANCH   2   3
ENDBRANCH   1   2
BRANCH   1   9
ATOM      9  C   UNL     1      16.747  72.747  72.968  1.00  0.00     0.000 C 
BRANCH   9  10
ATOM     10  C   UNL     1      15.331  72.229  72.668  1.00  0.00    -0.000 C 
BRANCH  10  11
ATOM     11  C   UNL     1      15.311  70.734  72.315  1.00  0.00    -0.000 C 
BRANCH  11  12
ATOM     12  C   UNL     1      14.316  69.975  73.207  1.00  0.00    -0.000 C 
BRANCH  12  13
ATOM     13  C   UNL     1      14.046  70.696  74.537  1.00  0.00    -0.003 C 
ATOM     14  C   UNL     1      13.965  69.737  75.725  1.00  0.00     0.004 C 
ENDBRANCH  12  13
ENDBRANCH  11  12
ENDBRANCH  10  11
ENDBRANCH   9  10
ENDBRANCH   1   9
TORSDOF 10
ENDMDL
MODEL 6
REMARK VINA RESULT:    -6.035      1.436      2.197
REMARK INTER + INTRA:         -10.194
REMARK INTER:                  -9.519
REMARK INTRA:                  -0.674
REMARK UNBOUND:                -0.631
REMARK SMILES CCCCCCCCCCCC(=O)[O-]
REMARK SMILES IDX 7 1 8 2 9 3 10 4 11 5 12 6 13 7 14 8 6 9 5 10 4 11 3 12 2 13
REMARK SMILES IDX 1 14
REMARK H PARENT
REMARK Flexibility Score: inf
ROOT
ATOM      1  C   UNL     1      16.509  72.747  72.869  1.00  0.00     0.000 C 
ENDROOT
BRANCH   1   2
ATOM      2  C   UNL     1      17.581  72.223  71.901  1.00  0.00     0.000 C 
BRANCH   2   3
ATOM      3  C   UNL     1      18.892  73.020  71.985  1.00  0.00     0.000 C 
BRANCH   3   4
ATOM      4  C   UNL     1      20.075  72.182  71.477  1.00  0.00     0.006 C 
BRANCH   4   5
ATOM      5  C   UNL     1      19.670  70.734  71.167  1.00  0.00     0.053 C 
BRANCH   5   6
ATOM      6  C   UNL     1      20.786  69.773  71.445  1.00  0.00     0.041 C 
ATOM      7  O   UNL     1      21.682  70.066  72.278  1.00  0.00    -0.550 OA
ATOM      8  O   UNL     1      20.852  68.567  70.757  1.00  0.00    -0.550 OA
ENDBRANCH   5   6
ENDBRANCH   4   5
ENDBRANCH   3   4
ENDBRANCH   2   3
ENDBRANCH   1   2
BRANCH   1   9
ATOM      9  C   UNL     1      15.115  72.162  72.582  1.00  0.00     0.000 C 
BRANCH   9  10
ATOM     10  C   UNL     1      15.115  70.625  72.545  1.00  0.00    -0.000 C 
BRANCH  10  11
ATOM     11  C   UNL     1      13.847  70.019  73.165  1.00  0.00    -0.000 C 
BRANCH  11  12
ATOM     12  C   UNL     1      13.506  70.707  74.495  1.00  0.00    -0.000 C 
BRANCH  12  13
ATOM     13  C   UNL     1      13.941  69.882  75.716  1.00  0.00    -0.003 C 
ATOM     14  C   UNL     1      15.064  70.549  76.512  1.00  0.00     0.004 C 
ENDBRANCH  12  13
ENDBRANCH  11  12
ENDBRANCH  10  11
ENDBRANCH   9  10
ENDBRANCH   1   9
TORSDOF 10
ENDMDL
MODEL 7
REMARK VINA RESULT:    -5.992      7.387     10.368
REMARK INTER + INTRA:         -10.126
REMARK INTER:                  -9.361
REMARK INTRA:                  -0.765
REMARK UNBOUND:                -0.631
REMARK SMILES CCCCCCCCCCCC(=O)[O-]
REMARK SMILES IDX 7 1 8 2 9 3 10 4 11 5 12 6 13 7 14 8 6 9 5 10 4 11 3 12 2 13
REMARK SMILES IDX 1 14
REMARK H PARENT
REMARK Flexibility Score: inf
ROOT
ATOM      1  C   UNL     1      10.747  72.140  73.930  1.00  0.00     0.000 C 
ENDROOT
BRANCH   1   2
ATOM      2  C   UNL     1      11.120  72.145  75.421  1.00  0.00     0.000 C 
BRANCH   2   3
ATOM      3  C   UNL     1       9.906  72.377  76.333  1.00  0.00     0.000 C 
BRANCH   3   4
ATOM      4  C   UNL     1       8.657  71.684  75.769  1.00  0.00     0.006 C 
BRANCH   4   5
ATOM      5  C   UNL     1       7.522  71.605  76.800  1.00  0.00     0.053 C 
BRANCH   5   6
ATOM      6  C   UNL     1       6.189  71.903  76.184  1.00  0.00     0.041 C 
ATOM      7  O   UNL     1       5.929  71.513  75.016  1.00  0.00    -0.550 OA
ATOM      8  O   UNL     1       5.247  72.642  76.889  1.00  0.00    -0.550 OA
ENDBRANCH   5   6
ENDBRANCH   4   5
ENDBRANCH   3   4
ENDBRANCH   2   3
ENDBRANCH   1   2
BRANCH   1   9
ATOM      9  C   UNL     1      11.836  72.772  73.045  1.00  0.00     0.000 C 
BRANCH   9  10
ATOM     10  C   UNL     1      12.457  71.766  72.063  1.00  0.00    -0.000 C 
BRANCH  10  11
ATOM     11  C   UNL     1      13.875  71.340  72.472  1.00  0.00    -0.000 C 
BRANCH  11  12
ATOM     12  C   UNL     1      13.830  70.129  73.417  1.00  0.00    -0.000 C 
BRANCH  12  13
ATOM     13  C   UNL     1      14.608  70.368  74.721  1.00  0.00    -0.003 C 
ATOM     14  C   UNL     1      13.925  69.748  75.940  1.00  0.00     0.004 C 
ENDBRANCH  12  13
ENDBRANCH  11  12
ENDBRANCH  10  11
ENDBRANCH   9  10
ENDBRANCH   1   9
TORSDOF 10
ENDMDL
MODEL 8
REMARK VINA RESULT:    -5.860      3.268      6.609
REMARK INTER + INTRA:          -9.916
REMARK INTER:                  -9.478
REMARK INTRA:                  -0.438
REMARK UNBOUND:                -0.631
REMARK SMILES CCCCCCCCCCCC(=O)[O-]
REMARK SMILES IDX 7 1 8 2 9 3 10 4 11 5 12 6 13 7 14 8 6 9 5 10 4 11 3 12 2 13
REMARK SMILES IDX 1 14
REMARK H PARENT
REMARK Flexibility Score: inf
ROOT
ATOM      1  C   UNL     1      17.348  73.124  72.183  1.00  0.00     0.000 C 
ENDROOT
BRANCH   1   2
ATOM      2  C   UNL     1      16.746  71.714  72.088  1.00  0.00     0.000 C 
BRANCH   2   3
ATOM      3  C   UNL     1      15.225  71.706  72.299  1.00  0.00     0.000 C 
BRANCH   3   4
ATOM      4  C   UNL     1      14.738  70.312  72.726  1.00  0.00     0.006 C 
BRANCH   4   5
ATOM      5  C   UNL     1      13.723  70.379  73.875  1.00  0.00     0.053 C 
BRANCH   5   6
ATOM      6  C   UNL     1      14.391  70.291  75.214  1.00  0.00     0.041 C 
ATOM      7  O   UNL     1      15.459  70.920  75.431  1.00  0.00    -0.550 OA
ATOM      8  O   UNL     1      13.851  69.486  76.209  1.00  0.00    -0.550 OA
ENDBRANCH   5   6
ENDBRANCH   4   5
ENDBRANCH   3   4
ENDBRANCH   2   3
ENDBRANCH   1   2
BRANCH   1   9
ATOM      9  C   UNL     1      18.783  73.194  71.631  1.00  0.00     0.000 C 
BRANCH   9  10
ATOM     10  C   UNL     1      19.579  71.905  71.889  1.00  0.00    -0.000 C 
BRANCH  10  11
ATOM     11  C   UNL     1      20.961  71.919  71.218  1.00  0.00    -0.000 C 
BRANCH  11  12
ATOM     12  C   UNL     1      21.037  70.867  70.101  1.00  0.00    -0.000 C 
BRANCH  12  13
ATOM     13  C   UNL     1      20.252  69.590  70.439  1.00  0.00    -0.003 C 
ATOM     14  C   UNL     1      20.292  68.555  69.313  1.00  0.00     0.004 C 
ENDBRANCH  12  13
ENDBRANCH  11  12
ENDBRANCH  10  11
ENDBRANCH   9  10
ENDBRANCH   1   9
TORSDOF 10
ENDMDL
MODEL 9
REMARK VINA RESULT:    -5.838      7.225      9.832
REMARK INTER + INTRA:          -9.882
REMARK INTER:                  -9.134
REMARK INTRA:                  -0.748
REMARK UNBOUND:                -0.631
REMARK SMILES CCCCCCCCCCCC(=O)[O-]
REMARK SMILES IDX 7 1 8 2 9 3 10 4 11 5 12 6 13 7 14 8 6 9 5 10 4 11 3 12 2 13
REMARK SMILES IDX 1 14
REMARK H PARENT
REMARK Flexibility Score: inf
ROOT
ATOM      1  C   UNL     1      10.927  72.095  72.738  1.00  0.00     0.000 C 
ENDROOT
BRANCH   1   2
ATOM      2  C   UNL     1      10.116  71.892  74.027  1.00  0.00     0.000 C 
BRANCH   2   3
ATOM      3  C   UNL     1      10.946  72.149  75.294  1.00  0.00     0.000 C 
BRANCH   3   4
ATOM      4  C   UNL     1      10.046  72.198  76.538  1.00  0.00     0.006 C 
BRANCH   4   5
ATOM      5  C   UNL     1       8.664  71.581  76.279  1.00  0.00     0.053 C 
BRANCH   5   6
ATOM      6  C   UNL     1       7.757  71.732  77.462  1.00  0.00     0.041 C 
ATOM      7  O   UNL     1       7.914  71.004  78.477  1.00  0.00    -0.550 OA
ATOM      8  O   UNL     1       6.718  72.653  77.429  1.00  0.00    -0.550 OA
ENDBRANCH   5   6
ENDBRANCH   4   5
ENDBRANCH   3   4
ENDBRANCH   2   3
ENDBRANCH   1   2
BRANCH   1   9
ATOM      9  C   UNL     1      12.428  71.810  72.932  1.00  0.00     0.000 C 
BRANCH   9  10
ATOM     10  C   UNL     1      12.951  70.724  71.979  1.00  0.00    -0.000 C 
BRANCH  10  11
ATOM     11  C   UNL     1      14.266  70.096  72.464  1.00  0.00    -0.000 C 
BRANCH  11  12
ATOM     12  C   UNL     1      14.601  70.561  73.890  1.00  0.00    -0.000 C 
BRANCH  12  13
ATOM     13  C   UNL     1      14.050  69.611  74.965  1.00  0.00    -0.003 C 
ATOM     14  C   UNL     1      14.098  70.215  76.369  1.00  0.00     0.004 C 
ENDBRANCH  12  13
ENDBRANCH  11  12
ENDBRANCH  10  11
ENDBRANCH   9  10
ENDBRANCH   1   9
TORSDOF 10
ENDMDL
