MODEL 1
REMARK VINA RESULT:    -4.516      0.000      0.000
REMARK INTER + INTRA:          -9.328
REMARK INTER:                  -7.948
REMARK INTRA:                  -1.380
REMARK UNBOUND:                -1.380
REMARK SMILES CCCCCCCCCCCCCCC(=O)[O-]
REMARK SMILES IDX 9 1 10 2 11 3 12 4 13 5 14 6 15 7 16 8 17 9 8 10 7 11 6 12
REMARK SMILES IDX 5 13 4 14 3 15 2 16 1 17
REMARK H PARENT
REMARK Flexibility Score: inf
ROOT
ATOM      1  C   UNL     1     126.195 143.464 139.873  1.00  0.00     0.000 C 
ENDROOT
BRANCH   1   2
ATOM      2  C   UNL     1     127.566 143.429 140.565  1.00  0.00     0.000 C 
BRANCH   2   3
ATOM      3  C   UNL     1     127.921 142.004 141.009  1.00  0.00     0.000 C 
BRANCH   3   4
ATOM      4  C   UNL     1     129.367 141.654 140.630  1.00  0.00     0.000 C 
BRANCH   4   5
ATOM      5  C   UNL     1     129.600 141.645 139.108  1.00  0.00     0.006 C 
BRANCH   5   6
ATOM      6  C   UNL     1     130.950 141.049 138.677  1.00  0.00     0.053 C 
BRANCH   6   7
ATOM      7  C   UNL     1     130.838 139.598 138.326  1.00  0.00     0.041 C 
ATOM      8  O   UNL     1     130.606 138.745 139.222  1.00  0.00    -0.550 OA
ATOM      9  O   UNL     1     131.023 139.184 137.013  1.00  0.00    -0.550 OA
ENDBRANCH   6   7
ENDBRANCH   5   6
ENDBRANCH   4   5
ENDBRANCH   3   4
ENDBRANCH   2   3
ENDBRANCH   1   2
BRANCH   1  10
ATOM     10  C   UNL     1     126.284 143.907 138.404  1.00  0.00     0.000 C 
BRANCH  10  11
ATOM     11  C   UNL     1     126.480 142.727 137.440  1.00  0.00    -0.000 C 
BRANCH  11  12
ATOM     12  C   UNL     1     125.715 142.959 136.128  1.00  0.00    -0.000 C 
BRANCH  12  13
ATOM     13  C   UNL     1     125.040 141.683 135.601  1.00  0.00    -0.000 C 
BRANCH  13  14
ATOM     14  C   UNL     1     125.108 140.518 136.605  1.00  0.00    -0.000 C 
BRANCH  14  15
ATOM     15  C   UNL     1     125.212 139.149 135.900  1.00  0.00    -0.000 C 
BRANCH  15  16
ATOM     16  C   UNL     1     126.572 138.457 136.097  1.00  0.00    -0.003 C 
ATOM     17  C   UNL     1     127.432 139.122 137.169  1.00  0.00     0.004 C 
ENDBRANCH  15  16
ENDBRANCH  14  15
ENDBRANCH  13  14
ENDBRANCH  12  13
ENDBRANCH  11  12
ENDBRANCH  10  11
ENDBRANCH   1  10
TORSDOF 13
ENDMDL
MODEL 2
REMARK VINA RESULT:    -4.475      1.375      4.678
REMARK INTER + INTRA:          -9.256
REMARK INTER:                  -7.963
REMARK INTRA:                  -1.292
REMARK UNBOUND:                -1.380
REMARK SMILES CCCCCCCCCCCCCCC(=O)[O-]
REMARK SMILES IDX 9 1 10 2 11 3 12 4 13 5 14 6 15 7 16 8 17 9 8 10 7 11 6 12
REMARK SMILES IDX 5 13 4 14 3 15 2 16 1 17
REMARK H PARENT
REMARK Flexibility Score: inf
ROOT
ATOM      1  C   UNL     1     125.834 143.255 136.502  1.00  0.00     0.000 C 
ENDROOT
BRANCH   1   2
ATOM      2  C   UNL     1     125.375 141.882 135.988  1.00  0.00     0.000 C 
BRANCH   2   3
ATOM      3  C   UNL     1     125.899 140.755 136.888  1.00  0.00     0.000 C 
BRANCH   3   4
ATOM      4  C   UNL     1     125.519 139.379 136.324  1.00  0.00     0.000 C 
BRANCH   4   5
ATOM      5  C   UNL     1     126.719 138.418 136.235  1.00  0.00     0.006 C 
BRANCH   5   6
ATOM      6  C   UNL     1     127.861 138.740 137.213  1.00  0.00     0.053 C 
BRANCH   6   7
ATOM      7  C   UNL     1     127.883 137.803 138.380  1.00  0.00     0.041 C 
ATOM      8  O   UNL     1     128.053 138.246 139.546  1.00  0.00    -0.550 OA
ATOM      9  O   UNL     1     127.749 136.435 138.177  1.00  0.00    -0.550 OA
ENDBRANCH   6   7
ENDBRANCH   5   6
ENDBRANCH   4   5
ENDBRANCH   3   4
ENDBRANCH   2   3
ENDBRANCH   1   2
BRANCH   1  10
ATOM     10  C   UNL     1     126.485 143.179 137.892  1.00  0.00     0.000 C 
BRANCH  10  11
ATOM     11  C   UNL     1     126.142 144.389 138.774  1.00  0.00    -0.000 C 
BRANCH  11  12
ATOM     12  C   UNL     1     126.609 144.163 140.220  1.00  0.00    -0.000 C 
BRANCH  12  13
ATOM     13  C   UNL     1     127.201 142.762 140.440  1.00  0.00    -0.000 C 
BRANCH  13  14
ATOM     14  C   UNL     1     128.555 142.798 141.172  1.00  0.00    -0.000 C 
BRANCH  14  15
ATOM     15  C   UNL     1     129.453 141.601 140.791  1.00  0.00    -0.000 C 
BRANCH  15  16
ATOM     16  C   UNL     1     129.606 141.404 139.273  1.00  0.00    -0.003 C 
ATOM     17  C   UNL     1     131.061 141.427 138.810  1.00  0.00     0.004 C 
ENDBRANCH  15  16
ENDBRANCH  14  15
ENDBRANCH  13  14
ENDBRANCH  12  13
ENDBRANCH  11  12
ENDBRANCH  10  11
ENDBRANCH   1  10
TORSDOF 13
ENDMDL
MODEL 3
REMARK VINA RESULT:    -4.467      2.511      5.415
REMARK INTER + INTRA:          -9.241
REMARK INTER:                  -7.817
REMARK INTRA:                  -1.424
REMARK UNBOUND:                -1.380
REMARK SMILES CCCCCCCCCCCCCCC(=O)[O-]
REMARK SMILES IDX 9 1 10 2 11 3 12 4 13 5 14 6 15 7 16 8 17 9 8 10 7 11 6 12
REMARK SMILES IDX 5 13 4 14 3 15 2 16 1 17
REMARK H PARENT
REMARK Flexibility Score: inf
ROOT
ATOM      1  C   UNL     1     126.884 142.733 138.413  1.00  0.00     0.000 C 
ENDROOT
BRANCH   1   2
ATOM      2  C   UNL     1     126.165 143.628 137.393  1.00  0.00     0.000 C 
BRANCH   2   3
ATOM      3  C   UNL     1     125.711 142.816 136.172  1.00  0.00     0.000 C 
BRANCH   3   4
ATOM      4  C   UNL     1     125.655 141.317 136.499  1.00  0.00     0.000 C 
BRANCH   4   5
ATOM      5  C   UNL     1     124.615 140.561 135.653  1.00  0.00     0.006 C 
BRANCH   5   6
ATOM      6  C   UNL     1     124.473 139.071 136.007  1.00  0.00     0.053 C 
BRANCH   6   7
ATOM      7  C   UNL     1     124.836 138.183 134.858  1.00  0.00     0.041 C 
ATOM      8  O   UNL     1     124.099 138.134 133.838  1.00  0.00    -0.550 OA
ATOM      9  O   UNL     1     125.970 137.384 134.926  1.00  0.00    -0.550 OA
ENDBRANCH   6   7
ENDBRANCH   5   6
ENDBRANCH   4   5
ENDBRANCH   3   4
ENDBRANCH   2   3
ENDBRANCH   1   2
BRANCH   1  10
ATOM     10  C   UNL     1     126.942 143.361 139.814  1.00  0.00     0.000 C 
BRANCH  10  11
ATOM     11  C   UNL     1     127.486 142.393 140.876  1.00  0.00    -0.000 C 
BRANCH  11  12
ATOM     12  C   UNL     1     128.990 142.616 141.100  1.00  0.00    -0.000 C 
BRANCH  12  13
ATOM     13  C   UNL     1     129.842 141.422 140.642  1.00  0.00    -0.000 C 
BRANCH  13  14
ATOM     14  C   UNL     1     130.259 141.523 139.163  1.00  0.00    -0.000 C 
BRANCH  14  15
ATOM     15  C   UNL     1     130.118 140.175 138.426  1.00  0.00    -0.000 C 
BRANCH  15  16
ATOM     16  C   UNL     1     128.686 139.613 138.439  1.00  0.00    -0.003 C 
ATOM     17  C   UNL     1     128.320 138.878 137.151  1.00  0.00     0.004 C 
ENDBRANCH  15  16
ENDBRANCH  14  15
ENDBRANCH  13  14
ENDBRANCH  12  13
ENDBRANCH  11  12
ENDBRANCH  10  11
ENDBRANCH   1  10
TORSDOF 13
ENDMDL
MODEL 4
REMARK VINA RESULT:    -4.416      1.402      2.525
REMARK INTER + INTRA:          -9.152
REMARK INTER:                  -7.661
REMARK INTRA:                  -1.491
REMARK UNBOUND:                -1.380
REMARK SMILES CCCCCCCCCCCCCCC(=O)[O-]
REMARK SMILES IDX 9 1 10 2 11 3 12 4 13 5 14 6 15 7 16 8 17 9 8 10 7 11 6 12
REMARK SMILES IDX 5 13 4 14 3 15 2 16 1 17
REMARK H PARENT
REMARK Flexibility Score: inf
ROOT
ATOM      1  C   UNL     1     126.616 142.941 137.795  1.00  0.00     0.000 C 
ENDROOT
BRANCH   1   2
ATOM      2  C   UNL     1     126.328 144.022 138.848  1.00  0.00     0.000 C 
BRANCH   2   3
ATOM      3  C   UNL     1     126.944 143.647 140.203  1.00  0.00     0.000 C 
BRANCH   3   4
ATOM      4  C   UNL     1     127.799 142.377 140.086  1.00  0.00     0.000 C 
BRANCH   4   5
ATOM      5  C   UNL     1     128.999 142.374 141.052  1.00  0.00     0.006 C 
BRANCH   5   6
ATOM      6  C   UNL     1     129.853 141.097 140.997  1.00  0.00     0.053 C 
BRANCH   6   7
ATOM      7  C   UNL     1     131.122 141.302 140.231  1.00  0.00     0.041 C 
ATOM      8  O   UNL     1     132.235 141.213 140.813  1.00  0.00    -0.550 OA
ATOM      9  O   UNL     1     131.077 141.626 138.881  1.00  0.00    -0.550 OA
ENDBRANCH   6   7
ENDBRANCH   5   6
ENDBRANCH   4   5
ENDBRANCH   3   4
ENDBRANCH   2   3
ENDBRANCH   1   2
BRANCH   1  10
ATOM     10  C   UNL     1     125.878 143.194 136.471  1.00  0.00     0.000 C 
BRANCH  10  11
ATOM     11  C   UNL     1     125.371 141.900 135.818  1.00  0.00    -0.000 C 
BRANCH  11  12
ATOM     12  C   UNL     1     125.419 140.729 136.812  1.00  0.00    -0.000 C 
BRANCH  12  13
ATOM     13  C   UNL     1     125.625 139.372 136.122  1.00  0.00    -0.000 C 
BRANCH  13  14
ATOM     14  C   UNL     1     126.634 138.476 136.864  1.00  0.00    -0.000 C 
BRANCH  14  15
ATOM     15  C   UNL     1     127.590 139.295 137.758  1.00  0.00    -0.000 C 
BRANCH  15  16
ATOM     16  C   UNL     1     129.076 139.096 137.414  1.00  0.00    -0.003 C 
ATOM     17  C   UNL     1     129.818 138.242 138.439  1.00  0.00     0.004 C 
ENDBRANCH  15  16
ENDBRANCH  14  15
ENDBRANCH  13  14
ENDBRANCH  12  13
ENDBRANCH  11  12
ENDBRANCH  10  11
ENDBRANCH   1  10
TORSDOF 13
ENDMDL
MODEL 5
REMARK VINA RESULT:    -4.396      8.401     11.976
REMARK INTER + INTRA:          -9.116
REMARK INTER:                  -7.373
REMARK INTRA:                  -1.743
REMARK UNBOUND:                -1.380
REMARK SMILES CCCCCCCCCCCCCCC(=O)[O-]
REMARK SMILES IDX 9 1 10 2 11 3 12 4 13 5 14 6 15 7 16 8 17 9 8 10 7 11 6 12
REMARK SMILES IDX 5 13 4 14 3 15 2 16 1 17
REMARK H PARENT
REMARK Flexibility Score: inf
ROOT
ATOM      1  C   UNL     1     138.209 136.948 139.411  1.00  0.00     0.000 C 
ENDROOT
BRANCH   1   2
ATOM      2  C   UNL     1     139.559 136.399 138.928  1.00  0.00     0.000 C 
BRANCH   2   3
ATOM      3  C   UNL     1     140.532 136.223 140.102  1.00  0.00     0.000 C 
BRANCH   3   4
ATOM      4  C   UNL     1     141.073 134.787 140.157  1.00  0.00     0.000 C 
BRANCH   4   5
ATOM      5  C   UNL     1     140.565 133.912 138.996  1.00  0.00     0.006 C 
BRANCH   5   6
ATOM      6  C   UNL     1     139.717 132.707 139.435  1.00  0.00     0.053 C 
BRANCH   6   7
ATOM      7  C   UNL     1     138.265 133.053 139.551  1.00  0.00     0.041 C 
ATOM      8  O   UNL     1     137.527 133.036 138.532  1.00  0.00    -0.550 OA
ATOM      9  O   UNL     1     137.734 133.427 140.779  1.00  0.00    -0.550 OA
ENDBRANCH   6   7
ENDBRANCH   5   6
ENDBRANCH   4   5
ENDBRANCH   3   4
ENDBRANCH   2   3
ENDBRANCH   1   2
BRANCH   1  10
ATOM     10  C   UNL     1     138.106 137.002 140.943  1.00  0.00     0.000 C 
BRANCH  10  11
ATOM     11  C   UNL     1     136.706 136.633 141.457  1.00  0.00    -0.000 C 
BRANCH  11  12
ATOM     12  C   UNL     1     135.749 136.353 140.287  1.00  0.00    -0.000 C 
BRANCH  12  13
ATOM     13  C   UNL     1     134.437 137.146 140.391  1.00  0.00    -0.000 C 
BRANCH  13  14
ATOM     14  C   UNL     1     134.473 138.462 139.592  1.00  0.00    -0.000 C 
BRANCH  14  15
ATOM     15  C   UNL     1     134.689 139.689 140.503  1.00  0.00    -0.000 C 
BRANCH  15  16
ATOM     16  C   UNL     1     136.143 140.190 140.527  1.00  0.00    -0.003 C 
ATOM     17  C   UNL     1     136.456 141.057 141.744  1.00  0.00     0.004 C 
ENDBRANCH  15  16
ENDBRANCH  14  15
ENDBRANCH  13  14
ENDBRANCH  12  13
ENDBRANCH  11  12
ENDBRANCH  10  11
ENDBRANCH   1  10
TORSDOF 13
ENDMDL
MODEL 6
REMARK VINA RESULT:    -4.391      3.110      5.056
REMARK INTER + INTRA:          -9.107
REMARK INTER:                  -7.702
REMARK INTRA:                  -1.405
REMARK UNBOUND:                -1.380
REMARK SMILES CCCCCCCCCCCCCCC(=O)[O-]
REMARK SMILES IDX 9 1 10 2 11 3 12 4 13 5 14 6 15 7 16 8 17 9 8 10 7 11 6 12
REMARK SMILES IDX 5 13 4 14 3 15 2 16 1 17
REMARK H PARENT
REMARK Flexibility Score: inf
ROOT
ATOM      1  C   UNL     1     130.643 141.568 141.655  1.00  0.00     0.000 C 
ENDROOT
BRANCH   1   2
ATOM      2  C   UNL     1     129.451 142.508 141.426  1.00  0.00     0.000 C 
BRANCH   2   3
ATOM      3  C   UNL     1     128.125 141.736 141.474  1.00  0.00     0.000 C 
BRANCH   3   4
ATOM      4  C   UNL     1     127.018 142.497 140.731  1.00  0.00     0.000 C 
BRANCH   4   5
ATOM      5  C   UNL     1     127.506 143.118 139.408  1.00  0.00     0.006 C 
BRANCH   5   6
ATOM      6  C   UNL     1     126.388 143.718 138.541  1.00  0.00     0.053 C 
BRANCH   6   7
ATOM      7  C   UNL     1     125.946 145.058 139.042  1.00  0.00     0.041 C 
ATOM      8  O   UNL     1     125.930 146.050 138.267  1.00  0.00    -0.550 OA
ATOM      9  O   UNL     1     125.585 145.219 140.374  1.00  0.00    -0.550 OA
ENDBRANCH   6   7
ENDBRANCH   5   6
ENDBRANCH   4   5
ENDBRANCH   3   4
ENDBRANCH   2   3
ENDBRANCH   1   2
BRANCH   1  10
ATOM     10  C   UNL     1     130.857 140.588 140.490  1.00  0.00     0.000 C 
BRANCH  10  11
ATOM     11  C   UNL     1     130.982 141.298 139.134  1.00  0.00    -0.000 C 
BRANCH  11  12
ATOM     12  C   UNL     1     130.652 140.337 137.981  1.00  0.00    -0.000 C 
BRANCH  12  13
ATOM     13  C   UNL     1     129.532 139.346 138.336  1.00  0.00    -0.000 C 
BRANCH  13  14
ATOM     14  C   UNL     1     128.130 139.895 138.015  1.00  0.00    -0.000 C 
BRANCH  14  15
ATOM     15  C   UNL     1     127.158 138.782 137.570  1.00  0.00    -0.000 C 
BRANCH  15  16
ATOM     16  C   UNL     1     126.219 139.204 136.427  1.00  0.00    -0.003 C 
ATOM     17  C   UNL     1     125.585 140.575 136.650  1.00  0.00     0.004 C 
ENDBRANCH  15  16
ENDBRANCH  14  15
ENDBRANCH  13  14
ENDBRANCH  12  13
ENDBRANCH  11  12
ENDBRANCH  10  11
ENDBRANCH   1  10
TORSDOF 13
ENDMDL
MODEL 7
REMARK VINA RESULT:    -4.344      8.651     11.204
REMARK INTER + INTRA:          -9.025
REMARK INTER:                  -7.925
REMARK INTRA:                  -1.099
REMARK UNBOUND:                -1.380
REMARK SMILES CCCCCCCCCCCCCCC(=O)[O-]
REMARK SMILES IDX 9 1 10 2 11 3 12 4 13 5 14 6 15 7 16 8 17 9 8 10 7 11 6 12
REMARK SMILES IDX 5 13 4 14 3 15 2 16 1 17
REMARK H PARENT
REMARK Flexibility Score: inf
ROOT
ATOM      1  C   UNL     1     137.513 136.689 140.535  1.00  0.00     0.000 C 
ENDROOT
BRANCH   1   2
ATOM      2  C   UNL     1     138.092 136.795 139.117  1.00  0.00     0.000 C 
BRANCH   2   3
ATOM      3  C   UNL     1     139.624 136.724 139.142  1.00  0.00     0.000 C 
BRANCH   3   4
ATOM      4  C   UNL     1     140.116 135.870 140.319  1.00  0.00     0.000 C 
BRANCH   4   5
ATOM      5  C   UNL     1     140.690 134.512 139.872  1.00  0.00     0.006 C 
BRANCH   5   6
ATOM      6  C   UNL     1     139.664 133.366 139.857  1.00  0.00     0.053 C 
BRANCH   6   7
ATOM      7  C   UNL     1     138.911 133.303 138.564  1.00  0.00     0.041 C 
ATOM      8  O   UNL     1     137.694 132.982 138.555  1.00  0.00    -0.550 OA
ATOM      9  O   UNL     1     139.563 133.567 137.366  1.00  0.00    -0.550 OA
ENDBRANCH   6   7
ENDBRANCH   5   6
ENDBRANCH   4   5
ENDBRANCH   3   4
ENDBRANCH   2   3
ENDBRANCH   1   2
BRANCH   1  10
ATOM     10  C   UNL     1     136.523 135.524 140.685  1.00  0.00     0.000 C 
BRANCH  10  11
ATOM     11  C   UNL     1     135.060 135.964 140.526  1.00  0.00    -0.000 C 
BRANCH  11  12
ATOM     12  C   UNL     1     134.317 135.050 139.539  1.00  0.00    -0.000 C 
BRANCH  12  13
ATOM     13  C   UNL     1     133.028 135.687 138.996  1.00  0.00    -0.000 C 
BRANCH  13  14
ATOM     14  C   UNL     1     131.911 134.654 138.757  1.00  0.00    -0.000 C 
BRANCH  14  15
ATOM     15  C   UNL     1     132.446 133.206 138.772  1.00  0.00    -0.000 C 
BRANCH  15  16
ATOM     16  C   UNL     1     131.422 132.177 139.279  1.00  0.00    -0.003 C 
ATOM     17  C   UNL     1     130.388 132.779 140.228  1.00  0.00     0.004 C 
ENDBRANCH  15  16
ENDBRANCH  14  15
ENDBRANCH  13  14
ENDBRANCH  12  13
ENDBRANCH  11  12
ENDBRANCH  10  11
ENDBRANCH   1  10
TORSDOF 13
ENDMDL
MODEL 8
REMARK VINA RESULT:    -4.343      2.660      5.233
REMARK INTER + INTRA:          -9.022
REMARK INTER:                  -7.717
REMARK INTRA:                  -1.305
REMARK UNBOUND:                -1.380
REMARK SMILES CCCCCCCCCCCCCCC(=O)[O-]
REMARK SMILES IDX 9 1 10 2 11 3 12 4 13 5 14 6 15 7 16 8 17 9 8 10 7 11 6 12
REMARK SMILES IDX 5 13 4 14 3 15 2 16 1 17
REMARK H PARENT
REMARK Flexibility Score: inf
ROOT
ATOM      1  C   UNL     1     129.634 142.189 141.663  1.00  0.00     0.000 C 
ENDROOT
BRANCH   1   2
ATOM      2  C   UNL     1     128.148 142.020 141.311  1.00  0.00     0.000 C 
BRANCH   2   3
ATOM      3  C   UNL     1     127.674 143.144 140.379  1.00  0.00     0.000 C 
BRANCH   3   4
ATOM      4  C   UNL     1     127.599 142.657 138.925  1.00  0.00     0.000 C 
BRANCH   4   5
ATOM      5  C   UNL     1     126.193 142.814 138.315  1.00  0.00     0.006 C 
BRANCH   5   6
ATOM      6  C   UNL     1     126.187 143.266 136.846  1.00  0.00     0.053 C 
BRANCH   6   7
ATOM      7  C   UNL     1     125.329 142.387 135.990  1.00  0.00     0.041 C 
ATOM      8  O   UNL     1     125.379 141.135 136.117  1.00  0.00    -0.550 OA
ATOM      9  O   UNL     1     124.498 142.948 135.029  1.00  0.00    -0.550 OA
ENDBRANCH   6   7
ENDBRANCH   5   6
ENDBRANCH   4   5
ENDBRANCH   3   4
ENDBRANCH   2   3
ENDBRANCH   1   2
BRANCH   1  10
ATOM     10  C   UNL     1     130.461 140.930 141.358  1.00  0.00     0.000 C 
BRANCH  10  11
ATOM     11  C   UNL     1     131.848 141.256 140.784  1.00  0.00    -0.000 C 
BRANCH  11  12
ATOM     12  C   UNL     1     132.046 140.583 139.417  1.00  0.00    -0.000 C 
BRANCH  12  13
ATOM     13  C   UNL     1     130.855 140.801 138.470  1.00  0.00    -0.000 C 
BRANCH  13  14
ATOM     14  C   UNL     1     130.494 139.537 137.669  1.00  0.00    -0.000 C 
BRANCH  14  15
ATOM     15  C   UNL     1     129.902 138.430 138.567  1.00  0.00    -0.000 C 
BRANCH  15  16
ATOM     16  C   UNL     1     128.451 138.062 138.216  1.00  0.00    -0.003 C 
ATOM     17  C   UNL     1     127.911 138.838 137.016  1.00  0.00     0.004 C 
ENDBRANCH  15  16
ENDBRANCH  14  15
ENDBRANCH  13  14
ENDBRANCH  12  13
ENDBRANCH  11  12
ENDBRANCH  10  11
ENDBRANCH   1  10
TORSDOF 13
ENDMDL
MODEL 9
REMARK VINA RESULT:    -4.245      8.110     12.096
REMARK INTER + INTRA:          -8.851
REMARK INTER:                  -7.054
REMARK INTRA:                  -1.797
REMARK UNBOUND:                -1.380
REMARK SMILES CCCCCCCCCCCCCCC(=O)[O-]
REMARK SMILES IDX 9 1 10 2 11 3 12 4 13 5 14 6 15 7 16 8 17 9 8 10 7 11 6 12
REMARK SMILES IDX 5 13 4 14 3 15 2 16 1 17
REMARK H PARENT
REMARK Flexibility Score: inf
ROOT
ATOM      1  C   UNL     1     137.783 136.944 139.249  1.00  0.00     0.000 C 
ENDROOT
BRANCH   1   2
ATOM      2  C   UNL     1     137.042 136.403 140.480  1.00  0.00     0.000 C 
BRANCH   2   3
ATOM      3  C   UNL     1     136.292 137.526 141.208  1.00  0.00     0.000 C 
BRANCH   3   4
ATOM      4  C   UNL     1     136.563 138.886 140.549  1.00  0.00     0.000 C 
BRANCH   4   5
ATOM      5  C   UNL     1     135.388 139.869 140.704  1.00  0.00     0.006 C 
BRANCH   5   6
ATOM      6  C   UNL     1     134.014 139.195 140.855  1.00  0.00     0.053 C 
BRANCH   6   7
ATOM      7  C   UNL     1     133.312 139.049 139.541  1.00  0.00     0.041 C 
ATOM      8  O   UNL     1     133.558 138.064 138.797  1.00  0.00    -0.550 OA
ATOM      9  O   UNL     1     132.410 140.019 139.122  1.00  0.00    -0.550 OA
ENDBRANCH   6   7
ENDBRANCH   5   6
ENDBRANCH   4   5
ENDBRANCH   3   4
ENDBRANCH   2   3
ENDBRANCH   1   2
BRANCH   1  10
ATOM     10  C   UNL     1     139.308 136.794 139.363  1.00  0.00     0.000 C 
BRANCH  10  11
ATOM     11  C   UNL     1     139.782 136.642 140.816  1.00  0.00    -0.000 C 
BRANCH  11  12
ATOM     12  C   UNL     1     140.658 135.390 140.978  1.00  0.00    -0.000 C 
BRANCH  12  13
ATOM     13  C   UNL     1     140.013 134.328 141.882  1.00  0.00    -0.000 C 
BRANCH  13  14
ATOM     14  C   UNL     1     139.028 133.421 141.121  1.00  0.00    -0.000 C 
BRANCH  14  15
ATOM     15  C   UNL     1     139.574 132.999 139.741  1.00  0.00    -0.000 C 
BRANCH  15  16
ATOM     16  C   UNL     1     138.608 133.291 138.580  1.00  0.00    -0.003 C 
ATOM     17  C   UNL     1     139.323 133.717 137.300  1.00  0.00     0.004 C 
ENDBRANCH  15  16
ENDBRANCH  14  15
ENDBRANCH  13  14
ENDBRANCH  12  13
ENDBRANCH  11  12
ENDBRANCH  10  11
ENDBRANCH   1  10
TORSDOF 13
ENDMDL
