MODEL 1
REMARK VINA RESULT:    -2.391      0.000      0.000
REMARK INTER + INTRA:          -2.391
REMARK INTER:                  -2.391
REMARK INTRA:                   0.000
REMARK UNBOUND:                 0.000
REMARK SMILES CC(=O)[O-]
REMARK SMILES IDX 1 1 2 2 3 3 4 4
REMARK H PARENT
REMARK Flexibility Score: inf
ROOT
ATOM      1  C   UNL     1      28.690  -8.362  -1.747  1.00  0.00     0.063 C 
ATOM      2  C   UNL     1      27.473  -7.753  -2.356  1.00  0.00     0.038 C 
ATOM      3  O   UNL     1      27.541  -7.200  -3.485  1.00  0.00    -0.550 OA
ATOM      4  O   UNL     1      26.273  -7.746  -1.656  1.00  0.00    -0.550 OA
ENDROOT
TORSDOF 0
ENDMDL
MODEL 2
REMARK VINA RESULT:    -2.375      1.576      1.809
REMARK INTER + INTRA:          -2.375
REMARK INTER:                  -2.375
REMARK INTRA:                   0.000
REMARK UNBOUND:                 0.000
REMARK SMILES CC(=O)[O-]
REMARK SMILES IDX 1 1 2 2 3 3 4 4
REMARK H PARENT
REMARK Flexibility Score: inf
ROOT
ATOM      1  C   UNL     1      27.986  -7.628  -2.866  1.00  0.00     0.063 C 
ATOM      2  C   UNL     1      27.297  -8.233  -1.691  1.00  0.00     0.038 C 
ATOM      3  O   UNL     1      27.873  -9.122  -1.010  1.00  0.00    -0.550 OA
ATOM      4  O   UNL     1      25.998  -7.856  -1.375  1.00  0.00    -0.550 OA
ENDROOT
TORSDOF 0
ENDMDL
MODEL 3
REMARK VINA RESULT:    -2.374      1.545      1.916
REMARK INTER + INTRA:          -2.374
REMARK INTER:                  -2.374
REMARK INTRA:                   0.000
REMARK UNBOUND:                 0.000
REMARK SMILES CC(=O)[O-]
REMARK SMILES IDX 1 1 2 2 3 3 4 4
REMARK H PARENT
REMARK Flexibility Score: inf
ROOT
ATOM      1  C   UNL     1      27.911  -7.480  -2.918  1.00  0.00     0.063 C 
ATOM      2  C   UNL     1      27.201  -8.143  -1.788  1.00  0.00     0.038 C 
ATOM      3  O   UNL     1      26.037  -7.780  -1.474  1.00  0.00    -0.550 OA
ATOM      4  O   UNL     1      27.841  -9.125  -1.043  1.00  0.00    -0.550 OA
ENDROOT
TORSDOF 0
ENDMDL
MODEL 4
REMARK VINA RESULT:    -2.283      1.464      2.026
REMARK INTER + INTRA:          -2.283
REMARK INTER:                  -2.283
REMARK INTRA:                   0.000
REMARK UNBOUND:                 0.000
REMARK SMILES CC(=O)[O-]
REMARK SMILES IDX 1 1 2 2 3 3 4 4
REMARK H PARENT
REMARK Flexibility Score: inf
ROOT
ATOM      1  C   UNL     1      26.642  -8.138  -1.328  1.00  0.00     0.063 C 
ATOM      2  C   UNL     1      27.871  -7.862  -2.125  1.00  0.00     0.038 C 
ATOM      3  O   UNL     1      29.000  -8.205  -1.685  1.00  0.00    -0.550 OA
ATOM      4  O   UNL     1      27.779  -7.177  -3.331  1.00  0.00    -0.550 OA
ENDROOT
TORSDOF 0
ENDMDL
MODEL 5
REMARK VINA RESULT:    -2.191     11.886     12.363
REMARK INTER + INTRA:          -2.191
REMARK INTER:                  -2.191
REMARK INTRA:                   0.000
REMARK UNBOUND:                 0.000
REMARK SMILES CC(=O)[O-]
REMARK SMILES IDX 1 1 2 2 3 3 4 4
REMARK H PARENT
REMARK Flexibility Score: inf
ROOT
ATOM      1  C   UNL     1      33.461  -0.444  -9.050  1.00  0.00     0.063 C 
ATOM      2  C   UNL     1      34.494   0.278  -8.253  1.00  0.00     0.038 C 
ATOM      3  O   UNL     1      35.273  -0.363  -7.499  1.00  0.00    -0.550 OA
ATOM      4  O   UNL     1      34.564   1.665  -8.298  1.00  0.00    -0.550 OA
ENDROOT
TORSDOF 0
ENDMDL
MODEL 6
REMARK VINA RESULT:    -2.083     11.046     11.552
REMARK INTER + INTRA:          -2.083
REMARK INTER:                  -2.083
REMARK INTRA:                   0.000
REMARK UNBOUND:                 0.000
REMARK SMILES CC(=O)[O-]
REMARK SMILES IDX 1 1 2 2 3 3 4 4
REMARK H PARENT
REMARK Flexibility Score: inf
ROOT
ATOM      1  C   UNL     1      34.569   0.630  -8.554  1.00  0.00     0.063 C 
ATOM      2  C   UNL     1      33.610  -0.498  -8.725  1.00  0.00     0.038 C 
ATOM      3  O   UNL     1      32.708  -0.434  -9.601  1.00  0.00    -0.550 OA
ATOM      4  O   UNL     1      33.675  -1.600  -7.881  1.00  0.00    -0.550 OA
ENDROOT
TORSDOF 0
ENDMDL
MODEL 7
REMARK VINA RESULT:    -2.070      1.860      1.951
REMARK INTER + INTRA:          -2.070
REMARK INTER:                  -2.070
REMARK INTRA:                   0.000
REMARK UNBOUND:                 0.000
REMARK SMILES CC(=O)[O-]
REMARK SMILES IDX 1 1 2 2 3 3 4 4
REMARK H PARENT
REMARK Flexibility Score: inf
ROOT
ATOM      1  C   UNL     1      27.902  -7.675  -2.396  1.00  0.00     0.063 C 
ATOM      2  C   UNL     1      27.046  -7.757  -1.178  1.00  0.00     0.038 C 
ATOM      3  O   UNL     1      27.110  -6.857  -0.300  1.00  0.00    -0.550 OA
ATOM      4  O   UNL     1      26.218  -8.855  -0.982  1.00  0.00    -0.550 OA
ENDROOT
TORSDOF 0
ENDMDL
MODEL 8
REMARK VINA RESULT:    -1.938     13.255     13.514
REMARK INTER + INTRA:          -1.938
REMARK INTER:                  -1.938
REMARK INTRA:                   0.000
REMARK UNBOUND:                 0.000
REMARK SMILES CC(=O)[O-]
REMARK SMILES IDX 1 1 2 2 3 3 4 4
REMARK H PARENT
REMARK Flexibility Score: inf
ROOT
ATOM      1  C   UNL     1      28.227   3.155  -8.466  1.00  0.00     0.063 C 
ATOM      2  C   UNL     1      29.027   3.349  -9.708  1.00  0.00     0.038 C 
ATOM      3  O   UNL     1      28.463   3.322 -10.834  1.00  0.00    -0.550 OA
ATOM      4  O   UNL     1      30.405   3.507  -9.631  1.00  0.00    -0.550 OA
ENDROOT
TORSDOF 0
ENDMDL
MODEL 9
REMARK VINA RESULT:    -1.919     12.407     12.663
REMARK INTER + INTRA:          -1.919
REMARK INTER:                  -1.919
REMARK INTRA:                   0.000
REMARK UNBOUND:                 0.000
REMARK SMILES CC(=O)[O-]
REMARK SMILES IDX 1 1 2 2 3 3 4 4
REMARK H PARENT
REMARK Flexibility Score: inf
ROOT
ATOM      1  C   UNL     1      26.797   2.513  -9.647  1.00  0.00     0.063 C 
ATOM      2  C   UNL     1      27.852   3.047  -8.739  1.00  0.00     0.038 C 
ATOM      3  O   UNL     1      29.002   3.299  -9.186  1.00  0.00    -0.550 OA
ATOM      4  O   UNL     1      27.586   3.218  -7.386  1.00  0.00    -0.550 OA
ENDROOT
TORSDOF 0
ENDMDL
