MODEL 1
REMARK VINA RESULT:    -5.131      0.000      0.000
REMARK INTER + INTRA:         -12.331
REMARK INTER:                  -9.930
REMARK INTRA:                  -2.401
REMARK UNBOUND:                -2.401
REMARK SMILES CCCCCCCCCCCCCCCCCC(=O)[O-]
REMARK SMILES IDX 10 1 11 2 12 3 13 4 14 5 15 6 16 7 17 8 18 9 19 10 20 11
REMARK SMILES IDX 9 12 8 13 7 14 6 15 5 16 4 17 3 18 2 19 1 20
REMARK H PARENT
REMARK Flexibility Score: inf
ROOT
ATOM      1  C   UNL     1       4.638   7.510   9.792  1.00  0.00     0.000 C 
ENDROOT
BRANCH   1   2
ATOM      2  C   UNL     1       4.357   6.727  11.085  1.00  0.00     0.000 C 
BRANCH   2   3
ATOM      3  C   UNL     1       3.924   7.639  12.247  1.00  0.00     0.000 C 
BRANCH   3   4
ATOM      4  C   UNL     1       4.927   7.626  13.413  1.00  0.00     0.000 C 
BRANCH   4   5
ATOM      5  C   UNL     1       5.627   6.268  13.582  1.00  0.00     0.000 C 
BRANCH   5   6
ATOM      6  C   UNL     1       6.398   6.170  14.918  1.00  0.00     0.000 C 
BRANCH   6   7
ATOM      7  C   UNL     1       5.578   6.634  16.136  1.00  0.00     0.006 C 
BRANCH   7   8
ATOM      8  C   UNL     1       4.525   5.618  16.605  1.00  0.00     0.053 C 
BRANCH   8   9
ATOM      9  C   UNL     1       3.157   6.226  16.680  1.00  0.00     0.041 C 
ATOM     10  O   UNL     1       2.145   5.489  16.811  1.00  0.00    -0.550 OA
ATOM     11  O   UNL     1       2.997   7.601  16.578  1.00  0.00    -0.550 OA
ENDBRANCH   8   9
ENDBRANCH   7   8
ENDBRANCH   6   7
ENDBRANCH   5   6
ENDBRANCH   4   5
ENDBRANCH   3   4
ENDBRANCH   2   3
ENDBRANCH   1   2
BRANCH   1  12
ATOM     12  C   UNL     1       4.137   8.964   9.860  1.00  0.00     0.000 C 
BRANCH  12  13
ATOM     13  C   UNL     1       5.277   9.981  10.051  1.00  0.00    -0.000 C 
BRANCH  13  14
ATOM     14  C   UNL     1       6.419   9.884   9.021  1.00  0.00    -0.000 C 
BRANCH  14  15
ATOM     15  C   UNL     1       7.791   9.649   9.670  1.00  0.00    -0.000 C 
BRANCH  15  16
ATOM     16  C   UNL     1       7.662   9.499  11.191  1.00  0.00    -0.000 C 
BRANCH  16  17
ATOM     17  C   UNL     1       8.372   8.227  11.680  1.00  0.00    -0.000 C 
BRANCH  17  18
ATOM     18  C   UNL     1       8.066   6.997  10.805  1.00  0.00    -0.000 C 
BRANCH  18  19
ATOM     19  C   UNL     1       9.122   5.880  10.868  1.00  0.00    -0.003 C 
ATOM     20  C   UNL     1       9.841   5.661   9.538  1.00  0.00     0.004 C 
ENDBRANCH  18  19
ENDBRANCH  17  18
ENDBRANCH  16  17
ENDBRANCH  15  16
ENDBRANCH  14  15
ENDBRANCH  13  14
ENDBRANCH  12  13
ENDBRANCH   1  12
TORSDOF 16
ENDMDL
MODEL 2
REMARK VINA RESULT:    -5.057      2.296      3.157
REMARK INTER + INTRA:         -12.188
REMARK INTER:                  -9.345
REMARK INTRA:                  -2.843
REMARK UNBOUND:                -2.401
REMARK SMILES CCCCCCCCCCCCCCCCCC(=O)[O-]
REMARK SMILES IDX 10 1 11 2 12 3 13 4 14 5 15 6 16 7 17 8 18 9 19 10 20 11
REMARK SMILES IDX 9 12 8 13 7 14 6 15 5 16 4 17 3 18 2 19 1 20
REMARK H PARENT
REMARK Flexibility Score: inf
ROOT
ATOM      1  C   UNL     1       1.905   8.058  11.009  1.00  0.00     0.000 C 
ENDROOT
BRANCH   1   2
ATOM      2  C   UNL     1       1.875   8.544  12.467  1.00  0.00     0.000 C 
BRANCH   2   3
ATOM      3  C   UNL     1       2.733   9.802  12.690  1.00  0.00     0.000 C 
BRANCH   3   4
ATOM      4  C   UNL     1       3.768   9.621  13.813  1.00  0.00     0.000 C 
BRANCH   4   5
ATOM      5  C   UNL     1       3.297   8.647  14.904  1.00  0.00     0.000 C 
BRANCH   5   6
ATOM      6  C   UNL     1       4.256   7.446  15.069  1.00  0.00     0.000 C 
BRANCH   6   7
ATOM      7  C   UNL     1       5.340   7.371  13.977  1.00  0.00     0.006 C 
BRANCH   7   8
ATOM      8  C   UNL     1       5.984   5.984  13.832  1.00  0.00     0.053 C 
BRANCH   8   9
ATOM      9  C   UNL     1       7.316   5.914  14.516  1.00  0.00     0.041 C 
ATOM     10  O   UNL     1       7.435   6.304  15.707  1.00  0.00    -0.550 OA
ATOM     11  O   UNL     1       8.429   5.444  13.833  1.00  0.00    -0.550 OA
ENDBRANCH   8   9
ENDBRANCH   7   8
ENDBRANCH   6   7
ENDBRANCH   5   6
ENDBRANCH   4   5
ENDBRANCH   3   4
ENDBRANCH   2   3
ENDBRANCH   1   2
BRANCH   1  12
ATOM     12  C   UNL     1       2.800   6.821  10.815  1.00  0.00     0.000 C 
BRANCH  12  13
ATOM     13  C   UNL     1       4.224   7.179  10.354  1.00  0.00    -0.000 C 
BRANCH  13  14
ATOM     14  C   UNL     1       4.304   8.254   9.253  1.00  0.00    -0.000 C 
BRANCH  14  15
ATOM     15  C   UNL     1       5.542   9.154   9.384  1.00  0.00    -0.000 C 
BRANCH  15  16
ATOM     16  C   UNL     1       6.062   9.168  10.827  1.00  0.00    -0.000 C 
BRANCH  16  17
ATOM     17  C   UNL     1       7.592   9.306  10.858  1.00  0.00    -0.000 C 
BRANCH  17  18
ATOM     18  C   UNL     1       8.298   8.029  11.350  1.00  0.00    -0.000 C 
BRANCH  18  19
ATOM     19  C   UNL     1       7.886   6.739  10.620  1.00  0.00    -0.003 C 
ATOM     20  C   UNL     1       9.074   5.849  10.260  1.00  0.00     0.004 C 
ENDBRANCH  18  19
ENDBRANCH  17  18
ENDBRANCH  16  17
ENDBRANCH  15  16
ENDBRANCH  14  15
ENDBRANCH  13  14
ENDBRANCH  12  13
ENDBRANCH   1  12
TORSDOF 16
ENDMDL
MODEL 3
REMARK VINA RESULT:    -5.042      1.348      3.840
REMARK INTER + INTRA:         -12.159
REMARK INTER:                  -9.827
REMARK INTRA:                  -2.333
REMARK UNBOUND:                -2.401
REMARK SMILES CCCCCCCCCCCCCCCCCC(=O)[O-]
REMARK SMILES IDX 10 1 11 2 12 3 13 4 14 5 15 6 16 7 17 8 18 9 19 10 20 11
REMARK SMILES IDX 9 12 8 13 7 14 6 15 5 16 4 17 3 18 2 19 1 20
REMARK H PARENT
REMARK Flexibility Score: inf
ROOT
ATOM      1  C   UNL     1       8.250   6.464  11.985  1.00  0.00     0.000 C 
ENDROOT
BRANCH   1   2
ATOM      2  C   UNL     1       7.487   7.114  13.150  1.00  0.00     0.000 C 
BRANCH   2   3
ATOM      3  C   UNL     1       7.431   6.214  14.397  1.00  0.00     0.000 C 
BRANCH   3   4
ATOM      4  C   UNL     1       6.015   5.690  14.685  1.00  0.00     0.000 C 
BRANCH   4   5
ATOM      5  C   UNL     1       5.374   6.352  15.915  1.00  0.00     0.000 C 
BRANCH   5   6
ATOM      6  C   UNL     1       4.489   5.368  16.714  1.00  0.00     0.000 C 
BRANCH   6   7
ATOM      7  C   UNL     1       3.076   5.907  17.002  1.00  0.00     0.006 C 
BRANCH   7   8
ATOM      8  C   UNL     1       2.854   7.356  16.541  1.00  0.00     0.053 C 
BRANCH   8   9
ATOM      9  C   UNL     1       2.848   8.314  17.693  1.00  0.00     0.041 C 
ATOM     10  O   UNL     1       3.071   9.538  17.498  1.00  0.00    -0.550 OA
ATOM     11  O   UNL     1       2.625   7.854  18.984  1.00  0.00    -0.550 OA
ENDBRANCH   8   9
ENDBRANCH   7   8
ENDBRANCH   6   7
ENDBRANCH   5   6
ENDBRANCH   4   5
ENDBRANCH   3   4
ENDBRANCH   2   3
ENDBRANCH   1   2
BRANCH   1  12
ATOM     12  C   UNL     1       8.293   7.358  10.733  1.00  0.00     0.000 C 
BRANCH  12  13
ATOM     13  C   UNL     1       7.715   8.763  10.981  1.00  0.00    -0.000 C 
BRANCH  13  14
ATOM     14  C   UNL     1       7.019   9.407   9.767  1.00  0.00    -0.000 C 
BRANCH  14  15
ATOM     15  C   UNL     1       5.487   9.350   9.856  1.00  0.00    -0.000 C 
BRANCH  15  16
ATOM     16  C   UNL     1       4.953   8.025   9.297  1.00  0.00    -0.000 C 
BRANCH  16  17
ATOM     17  C   UNL     1       3.785   7.501  10.147  1.00  0.00    -0.000 C 
BRANCH  17  18
ATOM     18  C   UNL     1       4.243   6.907  11.492  1.00  0.00    -0.000 C 
BRANCH  18  19
ATOM     19  C   UNL     1       3.551   7.500  12.731  1.00  0.00    -0.003 C 
ATOM     20  C   UNL     1       4.126   8.852  13.148  1.00  0.00     0.004 C 
ENDBRANCH  18  19
ENDBRANCH  17  18
ENDBRANCH  16  17
ENDBRANCH  15  16
ENDBRANCH  14  15
ENDBRANCH  13  14
ENDBRANCH  12  13
ENDBRANCH   1  12
TORSDOF 16
ENDMDL
MODEL 4
REMARK VINA RESULT:    -5.021      1.890      2.521
REMARK INTER + INTRA:         -12.119
REMARK INTER:                  -9.592
REMARK INTRA:                  -2.527
REMARK UNBOUND:                -2.401
REMARK SMILES CCCCCCCCCCCCCCCCCC(=O)[O-]
REMARK SMILES IDX 10 1 11 2 12 3 13 4 14 5 15 6 16 7 17 8 18 9 19 10 20 11
REMARK SMILES IDX 9 12 8 13 7 14 6 15 5 16 4 17 3 18 2 19 1 20
REMARK H PARENT
REMARK Flexibility Score: inf
ROOT
ATOM      1  C   UNL     1       4.780   7.200  10.355  1.00  0.00     0.000 C 
ENDROOT
BRANCH   1   2
ATOM      2  C   UNL     1       3.559   6.665  11.120  1.00  0.00     0.000 C 
BRANCH   2   3
ATOM      3  C   UNL     1       2.390   7.666  11.144  1.00  0.00     0.000 C 
BRANCH   3   4
ATOM      4  C   UNL     1       2.063   8.158  12.564  1.00  0.00     0.000 C 
BRANCH   4   5
ATOM      5  C   UNL     1       3.154   9.073  13.143  1.00  0.00     0.000 C 
BRANCH   5   6
ATOM      6  C   UNL     1       3.453   8.759  14.626  1.00  0.00     0.000 C 
BRANCH   6   7
ATOM      7  C   UNL     1       4.213   7.436  14.833  1.00  0.00     0.006 C 
BRANCH   7   8
ATOM      8  C   UNL     1       5.618   7.419  14.211  1.00  0.00     0.053 C 
BRANCH   8   9
ATOM      9  C   UNL     1       6.411   6.227  14.657  1.00  0.00     0.041 C 
ATOM     10  O   UNL     1       5.846   5.112  14.805  1.00  0.00    -0.550 OA
ATOM     11  O   UNL     1       7.765   6.353  14.936  1.00  0.00    -0.550 OA
ENDBRANCH   8   9
ENDBRANCH   7   8
ENDBRANCH   6   7
ENDBRANCH   5   6
ENDBRANCH   4   5
ENDBRANCH   3   4
ENDBRANCH   2   3
ENDBRANCH   1   2
BRANCH   1  12
ATOM     12  C   UNL     1       4.392   8.171   9.226  1.00  0.00     0.000 C 
BRANCH  12  13
ATOM     13  C   UNL     1       5.232   9.462   9.232  1.00  0.00    -0.000 C 
BRANCH  13  14
ATOM     14  C   UNL     1       5.782   9.878  10.609  1.00  0.00    -0.000 C 
BRANCH  14  15
ATOM     15  C   UNL     1       7.306  10.068  10.613  1.00  0.00    -0.000 C 
BRANCH  15  16
ATOM     16  C   UNL     1       8.025   8.753  10.289  1.00  0.00    -0.000 C 
BRANCH  16  17
ATOM     17  C   UNL     1       8.443   8.023  11.574  1.00  0.00    -0.000 C 
BRANCH  17  18
ATOM     18  C   UNL     1       8.314   6.493  11.464  1.00  0.00    -0.000 C 
BRANCH  18  19
ATOM     19  C   UNL     1       8.454   5.932  10.038  1.00  0.00    -0.003 C 
ATOM     20  C   UNL     1       9.905   5.675   9.636  1.00  0.00     0.004 C 
ENDBRANCH  18  19
ENDBRANCH  17  18
ENDBRANCH  16  17
ENDBRANCH  15  16
ENDBRANCH  14  15
ENDBRANCH  13  14
ENDBRANCH  12  13
ENDBRANCH   1  12
TORSDOF 16
ENDMDL
MODEL 5
REMARK VINA RESULT:    -4.987      3.230      6.050
REMARK INTER + INTRA:         -12.052
REMARK INTER:                  -9.882
REMARK INTRA:                  -2.171
REMARK UNBOUND:                -2.401
REMARK SMILES CCCCCCCCCCCCCCCCCC(=O)[O-]
REMARK SMILES IDX 10 1 11 2 12 3 13 4 14 5 15 6 16 7 17 8 18 9 19 10 20 11
REMARK SMILES IDX 9 12 8 13 7 14 6 15 5 16 4 17 3 18 2 19 1 20
REMARK H PARENT
REMARK Flexibility Score: inf
ROOT
ATOM      1  C   UNL     1       4.590   7.342  10.181  1.00  0.00     0.000 C 
ENDROOT
BRANCH   1   2
ATOM      2  C   UNL     1       4.307   8.528   9.245  1.00  0.00     0.000 C 
BRANCH   2   3
ATOM      3  C   UNL     1       5.370   9.635   9.355  1.00  0.00     0.000 C 
BRANCH   3   4
ATOM      4  C   UNL     1       5.986   9.726  10.761  1.00  0.00     0.000 C 
BRANCH   4   5
ATOM      5  C   UNL     1       7.515   9.887  10.732  1.00  0.00     0.000 C 
BRANCH   5   6
ATOM      6  C   UNL     1       8.237   8.555  10.426  1.00  0.00     0.000 C 
BRANCH   6   7
ATOM      7  C   UNL     1       7.997   7.468  11.490  1.00  0.00     0.006 C 
BRANCH   7   8
ATOM      8  C   UNL     1       8.966   6.279  11.399  1.00  0.00     0.053 C 
BRANCH   8   9
ATOM      9  C   UNL     1       9.046   5.731  10.006  1.00  0.00     0.041 C 
ATOM     10  O   UNL     1      10.152   5.689   9.406  1.00  0.00    -0.550 OA
ATOM     11  O   UNL     1       7.898   5.293   9.360  1.00  0.00    -0.550 OA
ENDBRANCH   8   9
ENDBRANCH   7   8
ENDBRANCH   6   7
ENDBRANCH   5   6
ENDBRANCH   4   5
ENDBRANCH   3   4
ENDBRANCH   2   3
ENDBRANCH   1   2
BRANCH   1  12
ATOM     12  C   UNL     1       3.336   6.876  10.942  1.00  0.00     0.000 C 
BRANCH  12  13
ATOM     13  C   UNL     1       2.422   8.043  11.362  1.00  0.00    -0.000 C 
BRANCH  13  14
ATOM     14  C   UNL     1       2.879   8.811  12.616  1.00  0.00    -0.000 C 
BRANCH  14  15
ATOM     15  C   UNL     1       3.068   7.902  13.840  1.00  0.00    -0.000 C 
BRANCH  15  16
ATOM     16  C   UNL     1       4.454   8.104  14.467  1.00  0.00    -0.000 C 
BRANCH  16  17
ATOM     17  C   UNL     1       5.430   7.011  14.004  1.00  0.00    -0.000 C 
BRANCH  17  18
ATOM     18  C   UNL     1       5.592   5.878  15.033  1.00  0.00    -0.000 C 
BRANCH  18  19
ATOM     19  C   UNL     1       4.936   6.145  16.400  1.00  0.00    -0.003 C 
ATOM     20  C   UNL     1       4.073   4.982  16.887  1.00  0.00     0.004 C 
ENDBRANCH  18  19
ENDBRANCH  17  18
ENDBRANCH  16  17
ENDBRANCH  15  16
ENDBRANCH  14  15
ENDBRANCH  13  14
ENDBRANCH  12  13
ENDBRANCH   1  12
TORSDOF 16
ENDMDL
MODEL 6
REMARK VINA RESULT:    -4.980      2.881      5.900
REMARK INTER + INTRA:         -12.040
REMARK INTER:                  -9.332
REMARK INTRA:                  -2.707
REMARK UNBOUND:                -2.401
REMARK SMILES CCCCCCCCCCCCCCCCCC(=O)[O-]
REMARK SMILES IDX 10 1 11 2 12 3 13 4 14 5 15 6 16 7 17 8 18 9 19 10 20 11
REMARK SMILES IDX 9 12 8 13 7 14 6 15 5 16 4 17 3 18 2 19 1 20
REMARK H PARENT
REMARK Flexibility Score: inf
ROOT
ATOM      1  C   UNL     1       4.404   7.118  12.211  1.00  0.00     0.000 C 
ENDROOT
BRANCH   1   2
ATOM      2  C   UNL     1       4.208   6.777  10.725  1.00  0.00     0.000 C 
BRANCH   2   3
ATOM      3  C   UNL     1       3.766   7.993   9.892  1.00  0.00     0.000 C 
BRANCH   3   4
ATOM      4  C   UNL     1       4.944   8.690   9.192  1.00  0.00     0.000 C 
BRANCH   4   5
ATOM      5  C   UNL     1       5.269  10.064   9.799  1.00  0.00     0.000 C 
BRANCH   5   6
ATOM      6  C   UNL     1       6.489  10.012  10.746  1.00  0.00     0.000 C 
BRANCH   6   7
ATOM      7  C   UNL     1       7.578   9.022  10.291  1.00  0.00     0.006 C 
BRANCH   7   8
ATOM      8  C   UNL     1       7.955   7.977  11.352  1.00  0.00     0.053 C 
BRANCH   8   9
ATOM      9  C   UNL     1       8.256   6.643  10.738  1.00  0.00     0.041 C 
ATOM     10  O   UNL     1       7.487   6.161   9.865  1.00  0.00    -0.550 OA
ATOM     11  O   UNL     1       9.368   5.920  11.148  1.00  0.00    -0.550 OA
ENDBRANCH   8   9
ENDBRANCH   7   8
ENDBRANCH   6   7
ENDBRANCH   5   6
ENDBRANCH   4   5
ENDBRANCH   3   4
ENDBRANCH   2   3
ENDBRANCH   1   2
BRANCH   1  12
ATOM     12  C   UNL     1       3.344   8.101  12.738  1.00  0.00     0.000 C 
BRANCH  12  13
ATOM     13  C   UNL     1       3.915   9.111  13.750  1.00  0.00    -0.000 C 
BRANCH  13  14
ATOM     14  C   UNL     1       3.487   8.885  15.212  1.00  0.00    -0.000 C 
BRANCH  14  15
ATOM     15  C   UNL     1       2.753   7.552  15.422  1.00  0.00    -0.000 C 
BRANCH  15  16
ATOM     16  C   UNL     1       3.435   6.714  16.512  1.00  0.00    -0.000 C 
BRANCH  16  17
ATOM     17  C   UNL     1       4.956   6.926  16.497  1.00  0.00    -0.000 C 
BRANCH  17  18
ATOM     18  C   UNL     1       5.684   5.976  15.529  1.00  0.00    -0.000 C 
BRANCH  18  19
ATOM     19  C   UNL     1       6.815   6.625  14.712  1.00  0.00    -0.003 C 
ATOM     20  C   UNL     1       7.944   5.653  14.375  1.00  0.00     0.004 C 
ENDBRANCH  18  19
ENDBRANCH  17  18
ENDBRANCH  16  17
ENDBRANCH  15  16
ENDBRANCH  14  15
ENDBRANCH  13  14
ENDBRANCH  12  13
ENDBRANCH   1  12
TORSDOF 16
ENDMDL
MODEL 7
REMARK VINA RESULT:    -4.930      2.016      5.550
REMARK INTER + INTRA:         -11.943
REMARK INTER:                  -9.935
REMARK INTRA:                  -2.008
REMARK UNBOUND:                -2.401
REMARK SMILES CCCCCCCCCCCCCCCCCC(=O)[O-]
REMARK SMILES IDX 10 1 11 2 12 3 13 4 14 5 15 6 16 7 17 8 18 9 19 10 20 11
REMARK SMILES IDX 9 12 8 13 7 14 6 15 5 16 4 17 3 18 2 19 1 20
REMARK H PARENT
REMARK Flexibility Score: inf
ROOT
ATOM      1  C   UNL     1       4.982   7.340  10.012  1.00  0.00     0.000 C 
ENDROOT
BRANCH   1   2
ATOM      2  C   UNL     1       4.671   8.817   9.725  1.00  0.00     0.000 C 
BRANCH   2   3
ATOM      3  C   UNL     1       5.711   9.771  10.337  1.00  0.00     0.000 C 
BRANCH   3   4
ATOM      4  C   UNL     1       7.154   9.391   9.964  1.00  0.00     0.000 C 
BRANCH   4   5
ATOM      5  C   UNL     1       7.972   8.904  11.171  1.00  0.00     0.000 C 
BRANCH   5   6
ATOM      6  C   UNL     1       8.584   7.505  10.936  1.00  0.00     0.000 C 
BRANCH   6   7
ATOM      7  C   UNL     1       8.144   6.459  11.977  1.00  0.00     0.006 C 
BRANCH   7   8
ATOM      8  C   UNL     1       7.393   7.052  13.180  1.00  0.00     0.053 C 
BRANCH   8   9
ATOM      9  C   UNL     1       7.514   6.184  14.396  1.00  0.00     0.041 C 
ATOM     10  O   UNL     1       8.367   5.258  14.429  1.00  0.00    -0.550 OA
ATOM     11  O   UNL     1       6.669   6.377  15.479  1.00  0.00    -0.550 OA
ENDBRANCH   8   9
ENDBRANCH   7   8
ENDBRANCH   6   7
ENDBRANCH   5   6
ENDBRANCH   4   5
ENDBRANCH   3   4
ENDBRANCH   2   3
ENDBRANCH   1   2
BRANCH   1  12
ATOM     12  C   UNL     1       4.018   6.720  11.039  1.00  0.00     0.000 C 
BRANCH  12  13
ATOM     13  C   UNL     1       2.830   7.639  11.376  1.00  0.00    -0.000 C 
BRANCH  13  14
ATOM     14  C   UNL     1       2.645   7.946  12.874  1.00  0.00    -0.000 C 
BRANCH  14  15
ATOM     15  C   UNL     1       3.956   7.855  13.670  1.00  0.00    -0.000 C 
BRANCH  15  16
ATOM     16  C   UNL     1       3.748   8.296  15.125  1.00  0.00    -0.000 C 
BRANCH  16  17
ATOM     17  C   UNL     1       3.007   7.215  15.926  1.00  0.00    -0.000 C 
BRANCH  17  18
ATOM     18  C   UNL     1       3.352   7.237  17.426  1.00  0.00    -0.000 C 
BRANCH  18  19
ATOM     19  C   UNL     1       3.584   5.853  18.057  1.00  0.00    -0.003 C 
ATOM     20  C   UNL     1       3.944   4.780  17.032  1.00  0.00     0.004 C 
ENDBRANCH  18  19
ENDBRANCH  17  18
ENDBRANCH  16  17
ENDBRANCH  15  16
ENDBRANCH  14  15
ENDBRANCH  13  14
ENDBRANCH  12  13
ENDBRANCH   1  12
TORSDOF 16
ENDMDL
MODEL 8
REMARK VINA RESULT:    -4.921      1.413      2.313
REMARK INTER + INTRA:         -11.925
REMARK INTER:                  -9.476
REMARK INTRA:                  -2.449
REMARK UNBOUND:                -2.401
REMARK SMILES CCCCCCCCCCCCCCCCCC(=O)[O-]
REMARK SMILES IDX 10 1 11 2 12 3 13 4 14 5 15 6 16 7 17 8 18 9 19 10 20 11
REMARK SMILES IDX 9 12 8 13 7 14 6 15 5 16 4 17 3 18 2 19 1 20
REMARK H PARENT
REMARK Flexibility Score: inf
ROOT
ATOM      1  C   UNL     1       4.936   7.172   9.969  1.00  0.00     0.000 C 
ENDROOT
BRANCH   1   2
ATOM      2  C   UNL     1       4.304   6.844  11.332  1.00  0.00     0.000 C 
BRANCH   2   3
ATOM      3  C   UNL     1       2.797   7.150  11.374  1.00  0.00     0.000 C 
BRANCH   3   4
ATOM      4  C   UNL     1       2.439   8.219  12.419  1.00  0.00     0.000 C 
BRANCH   4   5
ATOM      5  C   UNL     1       3.678   8.894  13.028  1.00  0.00     0.000 C 
BRANCH   5   6
ATOM      6  C   UNL     1       3.588   9.002  14.568  1.00  0.00     0.000 C 
BRANCH   6   7
ATOM      7  C   UNL     1       4.476   7.986  15.309  1.00  0.00     0.006 C 
BRANCH   7   8
ATOM      8  C   UNL     1       3.731   6.724  15.769  1.00  0.00     0.053 C 
BRANCH   8   9
ATOM      9  C   UNL     1       4.487   5.987  16.834  1.00  0.00     0.041 C 
ATOM     10  O   UNL     1       5.670   6.316  17.110  1.00  0.00    -0.550 OA
ATOM     11  O   UNL     1       3.896   4.922  17.500  1.00  0.00    -0.550 OA
ENDBRANCH   8   9
ENDBRANCH   7   8
ENDBRANCH   6   7
ENDBRANCH   5   6
ENDBRANCH   4   5
ENDBRANCH   3   4
ENDBRANCH   2   3
ENDBRANCH   1   2
BRANCH   1  12
ATOM     12  C   UNL     1       4.462   8.524   9.407  1.00  0.00     0.000 C 
BRANCH  12  13
ATOM     13  C   UNL     1       5.332   9.705   9.875  1.00  0.00    -0.000 C 
BRANCH  13  14
ATOM     14  C   UNL     1       6.644   9.902   9.091  1.00  0.00    -0.000 C 
BRANCH  14  15
ATOM     15  C   UNL     1       7.859  10.125  10.003  1.00  0.00    -0.000 C 
BRANCH  15  16
ATOM     16  C   UNL     1       7.863   9.127  11.168  1.00  0.00    -0.000 C 
BRANCH  16  17
ATOM     17  C   UNL     1       8.334   7.741  10.701  1.00  0.00    -0.000 C 
BRANCH  17  18
ATOM     18  C   UNL     1       8.274   6.681  11.817  1.00  0.00    -0.000 C 
BRANCH  18  19
ATOM     19  C   UNL     1       7.481   7.101  13.067  1.00  0.00    -0.003 C 
ATOM     20  C   UNL     1       7.381   5.991  14.112  1.00  0.00     0.004 C 
ENDBRANCH  18  19
ENDBRANCH  17  18
ENDBRANCH  16  17
ENDBRANCH  15  16
ENDBRANCH  14  15
ENDBRANCH  13  14
ENDBRANCH  12  13
ENDBRANCH   1  12
TORSDOF 16
ENDMDL
MODEL 9
REMARK VINA RESULT:    -4.920      2.603      6.718
REMARK INTER + INTRA:         -11.923
REMARK INTER:                  -9.702
REMARK INTRA:                  -2.221
REMARK UNBOUND:                -2.401
REMARK SMILES CCCCCCCCCCCCCCCCCC(=O)[O-]
REMARK SMILES IDX 10 1 11 2 12 3 13 4 14 5 15 6 16 7 17 8 18 9 19 10 20 11
REMARK SMILES IDX 9 12 8 13 7 14 6 15 5 16 4 17 3 18 2 19 1 20
REMARK H PARENT
REMARK Flexibility Score: inf
ROOT
ATOM      1  C   UNL     1       6.203   5.703  14.550  1.00  0.00     0.000 C 
ENDROOT
BRANCH   1   2
ATOM      2  C   UNL     1       7.675   6.040  14.263  1.00  0.00     0.000 C 
BRANCH   2   3
ATOM      3  C   UNL     1       7.837   7.082  13.142  1.00  0.00     0.000 C 
BRANCH   3   4
ATOM      4  C   UNL     1       8.313   6.459  11.820  1.00  0.00     0.000 C 
BRANCH   4   5
ATOM      5  C   UNL     1       8.270   7.450  10.645  1.00  0.00     0.000 C 
BRANCH   5   6
ATOM      6  C   UNL     1       7.861   8.871  11.095  1.00  0.00     0.000 C 
BRANCH   6   7
ATOM      7  C   UNL     1       6.587   9.391  10.404  1.00  0.00     0.006 C 
BRANCH   7   8
ATOM      8  C   UNL     1       5.282   8.915  11.059  1.00  0.00     0.053 C 
BRANCH   8   9
ATOM      9  C   UNL     1       4.519   7.982  10.168  1.00  0.00     0.041 C 
ATOM     10  O   UNL     1       4.132   6.866  10.605  1.00  0.00    -0.550 OA
ATOM     11  O   UNL     1       4.258   8.331   8.850  1.00  0.00    -0.550 OA
ENDBRANCH   8   9
ENDBRANCH   7   8
ENDBRANCH   6   7
ENDBRANCH   5   6
ENDBRANCH   4   5
ENDBRANCH   3   4
ENDBRANCH   2   3
ENDBRANCH   1   2
BRANCH   1  12
ATOM     12  C   UNL     1       5.229   6.686  13.877  1.00  0.00     0.000 C 
BRANCH  12  13
ATOM     13  C   UNL     1       4.629   7.705  14.864  1.00  0.00    -0.000 C 
BRANCH  13  14
ATOM     14  C   UNL     1       3.232   8.235  14.489  1.00  0.00    -0.000 C 
BRANCH  14  15
ATOM     15  C   UNL     1       2.114   7.642  15.359  1.00  0.00    -0.000 C 
BRANCH  15  16
ATOM     16  C   UNL     1       2.238   8.116  16.813  1.00  0.00    -0.000 C 
BRANCH  16  17
ATOM     17  C   UNL     1       2.310   6.920  17.775  1.00  0.00    -0.000 C 
BRANCH  17  18
ATOM     18  C   UNL     1       2.345   5.565  17.045  1.00  0.00    -0.000 C 
BRANCH  18  19
ATOM     19  C   UNL     1       3.666   4.788  17.187  1.00  0.00    -0.003 C 
ATOM     20  C   UNL     1       4.737   5.562  17.953  1.00  0.00     0.004 C 
ENDBRANCH  18  19
ENDBRANCH  17  18
ENDBRANCH  16  17
ENDBRANCH  15  16
ENDBRANCH  14  15
ENDBRANCH  13  14
ENDBRANCH  12  13
ENDBRANCH   1  12
TORSDOF 16
ENDMDL
