MODEL 1
REMARK VINA RESULT:    -3.708      0.000      0.000
REMARK INTER + INTRA:          -4.693
REMARK INTER:                  -4.575
REMARK INTRA:                  -0.118
REMARK UNBOUND:                -0.118
REMARK SMILES CCCCCC(=O)[O-]
REMARK SMILES IDX 4 1 5 2 6 3 7 4 8 5 3 6 2 7 1 8
REMARK H PARENT
REMARK Flexibility Score: inf
ROOT
ATOM      1  C   UNL     1      28.477  -1.197  45.771  1.00  0.00     0.006 C 
ENDROOT
BRANCH   1   2
ATOM      2  C   UNL     1      29.998  -1.213  45.948  1.00  0.00     0.053 C 
BRANCH   2   3
ATOM      3  C   UNL     1      30.649  -1.972  44.835  1.00  0.00     0.041 C 
ATOM      4  O   UNL     1      31.303  -3.020  45.082  1.00  0.00    -0.550 OA
ATOM      5  O   UNL     1      30.576  -1.497  43.533  1.00  0.00    -0.550 OA
ENDBRANCH   2   3
ENDBRANCH   1   2
BRANCH   1   6
ATOM      6  C   UNL     1      27.890  -2.607  45.937  1.00  0.00     0.000 C 
BRANCH   6   7
ATOM      7  C   UNL     1      26.767  -2.660  46.982  1.00  0.00    -0.003 C 
ATOM      8  C   UNL     1      26.795  -3.938  47.819  1.00  0.00     0.004 C 
ENDBRANCH   6   7
ENDBRANCH   1   6
TORSDOF 4
ENDMDL
MODEL 2
REMARK VINA RESULT:    -3.450      1.132      1.244
REMARK INTER + INTRA:          -4.375
REMARK INTER:                  -4.309
REMARK INTRA:                  -0.066
REMARK UNBOUND:                -0.118
REMARK SMILES CCCCCC(=O)[O-]
REMARK SMILES IDX 4 1 5 2 6 3 7 4 8 5 3 6 2 7 1 8
REMARK H PARENT
REMARK Flexibility Score: inf
ROOT
ATOM      1  C   UNL     1      29.254  -1.239  45.970  1.00  0.00     0.006 C 
ENDROOT
BRANCH   1   2
ATOM      2  C   UNL     1      30.354  -2.066  45.299  1.00  0.00     0.053 C 
BRANCH   2   3
ATOM      3  C   UNL     1      30.674  -1.515  43.945  1.00  0.00     0.041 C 
ATOM      4  O   UNL     1      31.843  -1.129  43.679  1.00  0.00    -0.550 OA
ATOM      5  O   UNL     1      29.671  -1.380  42.994  1.00  0.00    -0.550 OA
ENDBRANCH   2   3
ENDBRANCH   1   2
BRANCH   1   6
ATOM      6  C   UNL     1      27.891  -1.938  45.851  1.00  0.00     0.000 C 
BRANCH   6   7
ATOM      7  C   UNL     1      27.808  -3.216  46.699  1.00  0.00    -0.003 C 
ATOM      8  C   UNL     1      26.522  -3.299  47.520  1.00  0.00     0.004 C 
ENDBRANCH   6   7
ENDBRANCH   1   6
TORSDOF 4
ENDMDL
MODEL 3
REMARK VINA RESULT:    -3.364      2.234      3.945
REMARK INTER + INTRA:          -4.268
REMARK INTER:                  -4.070
REMARK INTRA:                  -0.198
REMARK UNBOUND:                -0.118
REMARK SMILES CCCCCC(=O)[O-]
REMARK SMILES IDX 4 1 5 2 6 3 7 4 8 5 3 6 2 7 1 8
REMARK H PARENT
REMARK Flexibility Score: inf
ROOT
ATOM      1  C   UNL     1      28.229  -1.370  45.411  1.00  0.00     0.006 C 
ENDROOT
BRANCH   1   2
ATOM      2  C   UNL     1      27.177  -1.966  46.352  1.00  0.00     0.053 C 
BRANCH   2   3
ATOM      3  C   UNL     1      27.548  -3.364  46.735  1.00  0.00     0.041 C 
ATOM      4  O   UNL     1      27.085  -3.875  47.789  1.00  0.00    -0.550 OA
ATOM      5  O   UNL     1      28.442  -4.085  45.955  1.00  0.00    -0.550 OA
ENDBRANCH   2   3
ENDBRANCH   1   2
BRANCH   1   6
ATOM      6  C   UNL     1      29.421  -0.811  46.202  1.00  0.00     0.000 C 
BRANCH   6   7
ATOM      7  C   UNL     1      30.760  -1.417  45.759  1.00  0.00    -0.003 C 
ATOM      8  C   UNL     1      30.771  -1.814  44.283  1.00  0.00     0.004 C 
ENDBRANCH   6   7
ENDBRANCH   1   6
TORSDOF 4
ENDMDL
MODEL 4
REMARK VINA RESULT:    -3.182     12.994     14.625
REMARK INTER + INTRA:          -4.044
REMARK INTER:                  -3.789
REMARK INTRA:                  -0.255
REMARK UNBOUND:                -0.118
REMARK SMILES CCCCCC(=O)[O-]
REMARK SMILES IDX 4 1 5 2 6 3 7 4 8 5 3 6 2 7 1 8
REMARK H PARENT
REMARK Flexibility Score: inf
ROOT
ATOM      1  C   UNL     1      20.444 -13.284  43.742  1.00  0.00     0.006 C 
ENDROOT
BRANCH   1   2
ATOM      2  C   UNL     1      19.821 -14.614  44.177  1.00  0.00     0.053 C 
BRANCH   2   3
ATOM      3  C   UNL     1      20.099 -14.875  45.624  1.00  0.00     0.041 C 
ATOM      4  O   UNL     1      20.417 -16.032  46.008  1.00  0.00    -0.550 OA
ATOM      5  O   UNL     1      19.960 -13.854  46.555  1.00  0.00    -0.550 OA
ENDBRANCH   2   3
ENDBRANCH   1   2
BRANCH   1   6
ATOM      6  C   UNL     1      21.927 -13.463  43.384  1.00  0.00     0.000 C 
BRANCH   6   7
ATOM      7  C   UNL     1      22.852 -12.599  44.255  1.00  0.00    -0.003 C 
ATOM      8  C   UNL     1      22.104 -11.498  45.003  1.00  0.00     0.004 C 
ENDBRANCH   6   7
ENDBRANCH   1   6
TORSDOF 4
ENDMDL
MODEL 5
REMARK VINA RESULT:    -3.166      2.797      4.318
REMARK INTER + INTRA:          -4.024
REMARK INTER:                  -3.839
REMARK INTRA:                  -0.185
REMARK UNBOUND:                -0.118
REMARK SMILES CCCCCC(=O)[O-]
REMARK SMILES IDX 4 1 5 2 6 3 7 4 8 5 3 6 2 7 1 8
REMARK H PARENT
REMARK Flexibility Score: inf
ROOT
ATOM      1  C   UNL     1      28.779  -3.362  45.154  1.00  0.00     0.006 C 
ENDROOT
BRANCH   1   2
ATOM      2  C   UNL     1      28.275  -4.230  46.311  1.00  0.00     0.053 C 
BRANCH   2   3
ATOM      3  C   UNL     1      27.270  -3.482  47.129  1.00  0.00     0.041 C 
ATOM      4  O   UNL     1      26.763  -2.417  46.690  1.00  0.00    -0.550 OA
ATOM      5  O   UNL     1      26.931  -3.935  48.397  1.00  0.00    -0.550 OA
ENDBRANCH   2   3
ENDBRANCH   1   2
BRANCH   1   6
ATOM      6  C   UNL     1      30.264  -3.013  45.335  1.00  0.00     0.000 C 
BRANCH   6   7
ATOM      7  C   UNL     1      30.534  -1.505  45.226  1.00  0.00    -0.003 C 
ATOM      8  C   UNL     1      29.690  -0.681  46.198  1.00  0.00     0.004 C 
ENDBRANCH   6   7
ENDBRANCH   1   6
TORSDOF 4
ENDMDL
MODEL 6
REMARK VINA RESULT:    -3.145     12.672     13.648
REMARK INTER + INTRA:          -3.998
REMARK INTER:                  -3.759
REMARK INTRA:                  -0.239
REMARK UNBOUND:                -0.118
REMARK SMILES CCCCCC(=O)[O-]
REMARK SMILES IDX 4 1 5 2 6 3 7 4 8 5 3 6 2 7 1 8
REMARK H PARENT
REMARK Flexibility Score: inf
ROOT
ATOM      1  C   UNL     1      21.709 -11.375  45.899  1.00  0.00     0.006 C 
ENDROOT
BRANCH   1   2
ATOM      2  C   UNL     1      20.207 -11.660  45.989  1.00  0.00     0.053 C 
BRANCH   2   3
ATOM      3  C   UNL     1      19.953 -12.884  46.812  1.00  0.00     0.041 C 
ATOM      4  O   UNL     1      20.386 -14.003  46.430  1.00  0.00    -0.550 OA
ATOM      5  O   UNL     1      19.196 -12.797  47.973  1.00  0.00    -0.550 OA
ENDBRANCH   2   3
ENDBRANCH   1   2
BRANCH   1   6
ATOM      6  C   UNL     1      22.190 -11.424  44.441  1.00  0.00     0.000 C 
BRANCH   6   7
ATOM      7  C   UNL     1      22.764 -12.795  44.054  1.00  0.00    -0.003 C 
ATOM      8  C   UNL     1      21.797 -13.624  43.209  1.00  0.00     0.004 C 
ENDBRANCH   6   7
ENDBRANCH   1   6
TORSDOF 4
ENDMDL
MODEL 7
REMARK VINA RESULT:    -3.141      2.800      4.250
REMARK INTER + INTRA:          -3.993
REMARK INTER:                  -3.850
REMARK INTRA:                  -0.143
REMARK UNBOUND:                -0.118
REMARK SMILES CCCCCC(=O)[O-]
REMARK SMILES IDX 4 1 5 2 6 3 7 4 8 5 3 6 2 7 1 8
REMARK H PARENT
REMARK Flexibility Score: inf
ROOT
ATOM      1  C   UNL     1      29.692  -2.282  46.404  1.00  0.00     0.006 C 
ENDROOT
BRANCH   1   2
ATOM      2  C   UNL     1      28.705  -3.356  45.939  1.00  0.00     0.053 C 
BRANCH   2   3
ATOM      3  C   UNL     1      27.439  -3.285  46.732  1.00  0.00     0.041 C 
ATOM      4  O   UNL     1      26.739  -2.239  46.715  1.00  0.00    -0.550 OA
ATOM      5  O   UNL     1      27.057  -4.356  47.531  1.00  0.00    -0.550 OA
ENDBRANCH   2   3
ENDBRANCH   1   2
BRANCH   1   6
ATOM      6  C   UNL     1      29.886  -1.208  45.324  1.00  0.00     0.000 C 
BRANCH   6   7
ATOM      7  C   UNL     1      29.756  -1.771  43.901  1.00  0.00    -0.003 C 
ATOM      8  C   UNL     1      28.618  -1.127  43.111  1.00  0.00     0.004 C 
ENDBRANCH   6   7
ENDBRANCH   1   6
TORSDOF 4
ENDMDL
MODEL 8
REMARK VINA RESULT:    -3.057      1.801      2.272
REMARK INTER + INTRA:          -3.890
REMARK INTER:                  -3.780
REMARK INTRA:                  -0.110
REMARK UNBOUND:                -0.118
REMARK SMILES CCCCCC(=O)[O-]
REMARK SMILES IDX 4 1 5 2 6 3 7 4 8 5 3 6 2 7 1 8
REMARK H PARENT
REMARK Flexibility Score: inf
ROOT
ATOM      1  C   UNL     1      29.422  -2.444  45.007  1.00  0.00     0.006 C 
ENDROOT
BRANCH   1   2
ATOM      2  C   UNL     1      28.593  -1.390  44.267  1.00  0.00     0.053 C 
BRANCH   2   3
ATOM      3  C   UNL     1      28.801  -1.501  42.789  1.00  0.00     0.041 C 
ATOM      4  O   UNL     1      27.990  -2.158  42.084  1.00  0.00    -0.550 OA
ATOM      5  O   UNL     1      29.916  -0.922  42.198  1.00  0.00    -0.550 OA
ENDBRANCH   2   3
ENDBRANCH   1   2
BRANCH   1   6
ATOM      6  C   UNL     1      28.781  -2.798  46.357  1.00  0.00     0.000 C 
BRANCH   6   7
ATOM      7  C   UNL     1      27.298  -2.403  46.429  1.00  0.00    -0.003 C 
ATOM      8  C   UNL     1      26.504  -3.259  47.414  1.00  0.00     0.004 C 
ENDBRANCH   6   7
ENDBRANCH   1   6
TORSDOF 4
ENDMDL
MODEL 9
REMARK VINA RESULT:    -2.994     11.904     13.338
REMARK INTER + INTRA:          -3.812
REMARK INTER:                  -3.632
REMARK INTRA:                  -0.181
REMARK UNBOUND:                -0.118
REMARK SMILES CCCCCC(=O)[O-]
REMARK SMILES IDX 4 1 5 2 6 3 7 4 8 5 3 6 2 7 1 8
REMARK H PARENT
REMARK Flexibility Score: inf
ROOT
ATOM      1  C   UNL     1      21.561 -13.294  43.169  1.00  0.00     0.006 C 
ENDROOT
BRANCH   1   2
ATOM      2  C   UNL     1      22.635 -12.800  44.143  1.00  0.00     0.053 C 
BRANCH   2   3
ATOM      3  C   UNL     1      22.180 -11.558  44.841  1.00  0.00     0.041 C 
ATOM      4  O   UNL     1      21.855 -11.598  46.057  1.00  0.00    -0.550 OA
ATOM      5  O   UNL     1      22.067 -10.366  44.137  1.00  0.00    -0.550 OA
ENDBRANCH   2   3
ENDBRANCH   1   2
BRANCH   1   6
ATOM      6  C   UNL     1      20.231 -13.540  43.896  1.00  0.00     0.000 C 
BRANCH   6   7
ATOM      7  C   UNL     1      20.135 -14.953  44.489  1.00  0.00    -0.003 C 
ATOM      8  C   UNL     1      20.218 -14.962  46.015  1.00  0.00     0.004 C 
ENDBRANCH   6   7
ENDBRANCH   1   6
TORSDOF 4
ENDMDL
