MODEL 1
REMARK VINA RESULT:    -3.835      0.000      0.000
REMARK INTER + INTRA:          -7.495
REMARK INTER:                  -6.526
REMARK INTRA:                  -0.969
REMARK UNBOUND:                -0.969
REMARK SMILES CCCCCCCCCCCCCC(=O)[O-]
REMARK SMILES IDX 8 1 9 2 10 3 11 4 12 5 13 6 14 7 15 8 16 9 7 10 6 11 5 12
REMARK SMILES IDX 4 13 3 14 2 15 1 16
REMARK H PARENT
REMARK Flexibility Score: inf
ROOT
ATOM      1  C   UNL     1     -20.112   0.839   8.036  1.00  0.00     0.000 C 
ENDROOT
BRANCH   1   2
ATOM      2  C   UNL     1     -21.015   2.082   8.096  1.00  0.00     0.000 C 
BRANCH   2   3
ATOM      3  C   UNL     1     -21.720   2.233   9.454  1.00  0.00     0.000 C 
BRANCH   3   4
ATOM      4  C   UNL     1     -21.121   1.327  10.545  1.00  0.00     0.000 C 
BRANCH   4   5
ATOM      5  C   UNL     1     -21.882   1.325  11.888  1.00  0.00     0.006 C 
BRANCH   5   6
ATOM      6  C   UNL     1     -21.003   1.064  13.121  1.00  0.00     0.053 C 
BRANCH   6   7
ATOM      7  C   UNL     1     -21.122  -0.349  13.606  1.00  0.00     0.041 C 
ATOM      8  O   UNL     1     -21.680  -0.595  14.707  1.00  0.00    -0.550 OA
ATOM      9  O   UNL     1     -20.647  -1.395  12.826  1.00  0.00    -0.550 OA
ENDBRANCH   6   7
ENDBRANCH   5   6
ENDBRANCH   4   5
ENDBRANCH   3   4
ENDBRANCH   2   3
ENDBRANCH   1   2
BRANCH   1  10
ATOM     10  C   UNL     1     -20.533  -0.149   6.937  1.00  0.00     0.000 C 
BRANCH  10  11
ATOM     11  C   UNL     1     -20.343  -1.598   7.400  1.00  0.00    -0.000 C 
BRANCH  11  12
ATOM     12  C   UNL     1     -19.971  -1.656   8.889  1.00  0.00    -0.000 C 
BRANCH  12  13
ATOM     13  C   UNL     1     -19.787  -3.094   9.406  1.00  0.00    -0.000 C 
BRANCH  13  14
ATOM     14  C   UNL     1     -18.926  -4.003   8.509  1.00  0.00    -0.000 C 
BRANCH  14  15
ATOM     15  C   UNL     1     -19.235  -5.496   8.698  1.00  0.00    -0.003 C 
ATOM     16  C   UNL     1     -20.720  -5.720   8.962  1.00  0.00     0.004 C 
ENDBRANCH  14  15
ENDBRANCH  13  14
ENDBRANCH  12  13
ENDBRANCH  11  12
ENDBRANCH  10  11
ENDBRANCH   1  10
TORSDOF 12
ENDMDL
MODEL 2
REMARK VINA RESULT:    -3.760      1.793      5.513
REMARK INTER + INTRA:          -7.366
REMARK INTER:                  -6.448
REMARK INTRA:                  -0.918
REMARK UNBOUND:                -0.969
REMARK SMILES CCCCCCCCCCCCCC(=O)[O-]
REMARK SMILES IDX 8 1 9 2 10 3 11 4 12 5 13 6 14 7 15 8 16 9 7 10 6 11 5 12
REMARK SMILES IDX 4 13 3 14 2 15 1 16
REMARK H PARENT
REMARK Flexibility Score: inf
ROOT
ATOM      1  C   UNL     1     -20.778  -0.817   7.837  1.00  0.00     0.000 C 
ENDROOT
BRANCH   1   2
ATOM      2  C   UNL     1     -19.944  -2.103   7.948  1.00  0.00     0.000 C 
BRANCH   2   3
ATOM      3  C   UNL     1     -19.471  -2.376   9.385  1.00  0.00     0.000 C 
BRANCH   3   4
ATOM      4  C   UNL     1     -20.288  -1.610  10.442  1.00  0.00     0.000 C 
BRANCH   4   5
ATOM      5  C   UNL     1     -19.895  -1.894  11.907  1.00  0.00     0.006 C 
BRANCH   5   6
ATOM      6  C   UNL     1     -21.038  -1.720  12.920  1.00  0.00     0.053 C 
BRANCH   6   7
ATOM      7  C   UNL     1     -20.974  -0.396  13.617  1.00  0.00     0.041 C 
ATOM      8  O   UNL     1     -21.369   0.647  13.033  1.00  0.00    -0.550 OA
ATOM      9  O   UNL     1     -20.510  -0.318  14.924  1.00  0.00    -0.550 OA
ENDBRANCH   6   7
ENDBRANCH   5   6
ENDBRANCH   4   5
ENDBRANCH   3   4
ENDBRANCH   2   3
ENDBRANCH   1   2
BRANCH   1  10
ATOM     10  C   UNL     1     -19.999   0.343   7.196  1.00  0.00     0.000 C 
BRANCH  10  11
ATOM     11  C   UNL     1     -20.541   1.697   7.670  1.00  0.00    -0.000 C 
BRANCH  11  12
ATOM     12  C   UNL     1     -21.118   1.591   9.089  1.00  0.00    -0.000 C 
BRANCH  12  13
ATOM     13  C   UNL     1     -21.866   2.863   9.530  1.00  0.00    -0.000 C 
BRANCH  13  14
ATOM     14  C   UNL     1     -21.833   4.021   8.515  1.00  0.00    -0.000 C 
BRANCH  14  15
ATOM     15  C   UNL     1     -21.849   5.404   9.184  1.00  0.00    -0.003 C 
ATOM     16  C   UNL     1     -20.437   5.860   9.536  1.00  0.00     0.004 C 
ENDBRANCH  14  15
ENDBRANCH  13  14
ENDBRANCH  12  13
ENDBRANCH  11  12
ENDBRANCH  10  11
ENDBRANCH   1  10
TORSDOF 12
ENDMDL
MODEL 3
REMARK VINA RESULT:    -3.502      1.724      4.991
REMARK INTER + INTRA:          -6.928
REMARK INTER:                  -6.077
REMARK INTRA:                  -0.851
REMARK UNBOUND:                -0.969
REMARK SMILES CCCCCCCCCCCCCC(=O)[O-]
REMARK SMILES IDX 8 1 9 2 10 3 11 4 12 5 13 6 14 7 15 8 16 9 7 10 6 11 5 12
REMARK SMILES IDX 4 13 3 14 2 15 1 16
REMARK H PARENT
REMARK Flexibility Score: inf
ROOT
ATOM      1  C   UNL     1     -19.850  -1.738   7.304  1.00  0.00     0.000 C 
ENDROOT
BRANCH   1   2
ATOM      2  C   UNL     1     -19.715  -2.475   8.646  1.00  0.00     0.000 C 
BRANCH   2   3
ATOM      3  C   UNL     1     -20.272  -1.660   9.825  1.00  0.00     0.000 C 
BRANCH   3   4
ATOM      4  C   UNL     1     -19.540  -1.946  11.149  1.00  0.00     0.000 C 
BRANCH   4   5
ATOM      5  C   UNL     1     -20.435  -1.950  12.407  1.00  0.00     0.006 C 
BRANCH   5   6
ATOM      6  C   UNL     1     -20.904  -0.560  12.862  1.00  0.00     0.053 C 
BRANCH   6   7
ATOM      7  C   UNL     1     -21.123  -0.498  14.343  1.00  0.00     0.041 C 
ATOM      8  O   UNL     1     -20.168  -0.223  15.113  1.00  0.00    -0.550 OA
ATOM      9  O   UNL     1     -22.391  -0.712  14.869  1.00  0.00    -0.550 OA
ENDBRANCH   6   7
ENDBRANCH   5   6
ENDBRANCH   4   5
ENDBRANCH   3   4
ENDBRANCH   2   3
ENDBRANCH   1   2
BRANCH   1  10
ATOM     10  C   UNL     1     -20.920  -0.635   7.337  1.00  0.00     0.000 C 
BRANCH  10  11
ATOM     11  C   UNL     1     -20.423   0.633   6.632  1.00  0.00    -0.000 C 
BRANCH  11  12
ATOM     12  C   UNL     1     -20.500   1.848   7.568  1.00  0.00    -0.000 C 
BRANCH  12  13
ATOM     13  C   UNL     1     -21.086   1.506   8.950  1.00  0.00    -0.000 C 
BRANCH  13  14
ATOM     14  C   UNL     1     -21.666   2.703   9.726  1.00  0.00    -0.000 C 
BRANCH  14  15
ATOM     15  C   UNL     1     -22.222   3.800   8.805  1.00  0.00    -0.003 C 
ATOM     16  C   UNL     1     -21.501   5.125   9.032  1.00  0.00     0.004 C 
ENDBRANCH  14  15
ENDBRANCH  13  14
ENDBRANCH  12  13
ENDBRANCH  11  12
ENDBRANCH  10  11
ENDBRANCH   1  10
TORSDOF 12
ENDMDL
MODEL 4
REMARK VINA RESULT:    -3.367      2.316      5.696
REMARK INTER + INTRA:          -6.699
REMARK INTER:                  -5.953
REMARK INTRA:                  -0.746
REMARK UNBOUND:                -0.969
REMARK SMILES CCCCCCCCCCCCCC(=O)[O-]
REMARK SMILES IDX 8 1 9 2 10 3 11 4 12 5 13 6 14 7 15 8 16 9 7 10 6 11 5 12
REMARK SMILES IDX 4 13 3 14 2 15 1 16
REMARK H PARENT
REMARK Flexibility Score: inf
ROOT
ATOM      1  C   UNL     1     -20.013   0.980   7.911  1.00  0.00     0.000 C 
ENDROOT
BRANCH   1   2
ATOM      2  C   UNL     1     -20.230  -0.116   6.857  1.00  0.00     0.000 C 
BRANCH   2   3
ATOM      3  C   UNL     1     -20.342  -1.518   7.478  1.00  0.00     0.000 C 
BRANCH   3   4
ATOM      4  C   UNL     1     -20.088  -1.523   8.996  1.00  0.00     0.000 C 
BRANCH   4   5
ATOM      5  C   UNL     1     -19.815  -2.912   9.612  1.00  0.00     0.006 C 
BRANCH   5   6
ATOM      6  C   UNL     1     -18.937  -3.832   8.750  1.00  0.00     0.053 C 
BRANCH   6   7
ATOM      7  C   UNL     1     -19.480  -5.227   8.683  1.00  0.00     0.041 C 
ATOM      8  O   UNL     1     -18.896  -6.102   7.993  1.00  0.00    -0.550 OA
ATOM      9  O   UNL     1     -20.613  -5.568   9.411  1.00  0.00    -0.550 OA
ENDBRANCH   6   7
ENDBRANCH   5   6
ENDBRANCH   4   5
ENDBRANCH   3   4
ENDBRANCH   2   3
ENDBRANCH   1   2
BRANCH   1  10
ATOM     10  C   UNL     1     -21.086   2.079   7.855  1.00  0.00     0.000 C 
BRANCH  10  11
ATOM     11  C   UNL     1     -21.604   2.413   9.259  1.00  0.00    -0.000 C 
BRANCH  11  12
ATOM     12  C   UNL     1     -21.117   1.380  10.285  1.00  0.00    -0.000 C 
BRANCH  12  13
ATOM     13  C   UNL     1     -21.930   1.401  11.592  1.00  0.00    -0.000 C 
BRANCH  13  14
ATOM     14  C   UNL     1     -21.103   1.215  12.877  1.00  0.00    -0.000 C 
BRANCH  14  15
ATOM     15  C   UNL     1     -21.329  -0.151  13.541  1.00  0.00    -0.003 C 
ATOM     16  C   UNL     1     -20.713  -0.192  14.936  1.00  0.00     0.004 C 
ENDBRANCH  14  15
ENDBRANCH  13  14
ENDBRANCH  12  13
ENDBRANCH  11  12
ENDBRANCH  10  11
ENDBRANCH   1  10
TORSDOF 12
ENDMDL
MODEL 5
REMARK VINA RESULT:    -3.085      3.205      5.001
REMARK INTER + INTRA:          -6.218
REMARK INTER:                  -5.419
REMARK INTRA:                  -0.800
REMARK UNBOUND:                -0.969
REMARK SMILES CCCCCCCCCCCCCC(=O)[O-]
REMARK SMILES IDX 8 1 9 2 10 3 11 4 12 5 13 6 14 7 15 8 16 9 7 10 6 11 5 12
REMARK SMILES IDX 4 13 3 14 2 15 1 16
REMARK H PARENT
REMARK Flexibility Score: inf
ROOT
ATOM      1  C   UNL     1     -20.728  -0.947   7.780  1.00  0.00     0.000 C 
ENDROOT
BRANCH   1   2
ATOM      2  C   UNL     1     -20.228   0.252   6.959  1.00  0.00     0.000 C 
BRANCH   2   3
ATOM      3  C   UNL     1     -20.631   1.601   7.578  1.00  0.00     0.000 C 
BRANCH   3   4
ATOM      4  C   UNL     1     -21.036   1.483   9.059  1.00  0.00     0.000 C 
BRANCH   4   5
ATOM      5  C   UNL     1     -21.446   2.808   9.735  1.00  0.00     0.006 C 
BRANCH   5   6
ATOM      6  C   UNL     1     -22.088   3.836   8.791  1.00  0.00     0.053 C 
BRANCH   6   7
ATOM      7  C   UNL     1     -21.607   5.228   9.066  1.00  0.00     0.041 C 
ATOM      8  O   UNL     1     -22.076   6.199   8.418  1.00  0.00    -0.550 OA
ATOM      9  O   UNL     1     -20.664   5.456  10.061  1.00  0.00    -0.550 OA
ENDBRANCH   6   7
ENDBRANCH   5   6
ENDBRANCH   4   5
ENDBRANCH   3   4
ENDBRANCH   2   3
ENDBRANCH   1   2
BRANCH   1  10
ATOM     10  C   UNL     1     -19.719  -2.105   7.813  1.00  0.00     0.000 C 
BRANCH  10  11
ATOM     11  C   UNL     1     -19.566  -2.660   9.235  1.00  0.00    -0.000 C 
BRANCH  11  12
ATOM     12  C   UNL     1     -20.351  -1.809  10.244  1.00  0.00    -0.000 C 
BRANCH  12  13
ATOM     13  C   UNL     1     -19.739  -1.836  11.657  1.00  0.00    -0.000 C 
BRANCH  13  14
ATOM     14  C   UNL     1     -20.761  -1.885  12.808  1.00  0.00    -0.000 C 
BRANCH  14  15
ATOM     15  C   UNL     1     -20.838  -0.569  13.596  1.00  0.00    -0.003 C 
ATOM     16  C   UNL     1     -21.573  -0.764  14.918  1.00  0.00     0.004 C 
ENDBRANCH  14  15
ENDBRANCH  13  14
ENDBRANCH  12  13
ENDBRANCH  11  12
ENDBRANCH  10  11
ENDBRANCH   1  10
TORSDOF 12
ENDMDL
MODEL 6
REMARK VINA RESULT:    -3.019      2.648      4.462
REMARK INTER + INTRA:          -6.106
REMARK INTER:                  -5.209
REMARK INTRA:                  -0.897
REMARK UNBOUND:                -0.969
REMARK SMILES CCCCCCCCCCCCCC(=O)[O-]
REMARK SMILES IDX 8 1 9 2 10 3 11 4 12 5 13 6 14 7 15 8 16 9 7 10 6 11 5 12
REMARK SMILES IDX 4 13 3 14 2 15 1 16
REMARK H PARENT
REMARK Flexibility Score: inf
ROOT
ATOM      1  C   UNL     1     -20.841  -0.461  14.255  1.00  0.00     0.000 C 
ENDROOT
BRANCH   1   2
ATOM      2  C   UNL     1     -20.823   0.956  13.662  1.00  0.00     0.000 C 
BRANCH   2   3
ATOM      3  C   UNL     1     -21.729   1.090  12.427  1.00  0.00     0.000 C 
BRANCH   3   4
ATOM      4  C   UNL     1     -21.152   2.041  11.361  1.00  0.00     0.000 C 
BRANCH   4   5
ATOM      5  C   UNL     1     -21.571   1.730   9.908  1.00  0.00     0.006 C 
BRANCH   5   6
ATOM      6  C   UNL     1     -20.794   0.579   9.251  1.00  0.00     0.053 C 
BRANCH   6   7
ATOM      7  C   UNL     1     -20.476   0.863   7.815  1.00  0.00     0.041 C 
ATOM      8  O   UNL     1     -20.120  -0.068   7.049  1.00  0.00    -0.550 OA
ATOM      9  O   UNL     1     -20.607   2.153   7.315  1.00  0.00    -0.550 OA
ENDBRANCH   6   7
ENDBRANCH   5   6
ENDBRANCH   4   5
ENDBRANCH   3   4
ENDBRANCH   2   3
ENDBRANCH   1   2
BRANCH   1  10
ATOM     10  C   UNL     1     -21.214  -1.534  13.220  1.00  0.00     0.000 C 
BRANCH  10  11
ATOM     11  C   UNL     1     -20.006  -1.901  12.350  1.00  0.00    -0.000 C 
BRANCH  11  12
ATOM     12  C   UNL     1     -20.451  -2.344  10.949  1.00  0.00    -0.000 C 
BRANCH  12  13
ATOM     13  C   UNL     1     -19.286  -2.424   9.946  1.00  0.00    -0.000 C 
BRANCH  13  14
ATOM     14  C   UNL     1     -19.592  -3.203   8.654  1.00  0.00    -0.000 C 
BRANCH  14  15
ATOM     15  C   UNL     1     -18.981  -4.612   8.646  1.00  0.00    -0.003 C 
ATOM     16  C   UNL     1     -20.062  -5.680   8.779  1.00  0.00     0.004 C 
ENDBRANCH  14  15
ENDBRANCH  13  14
ENDBRANCH  12  13
ENDBRANCH  11  12
ENDBRANCH  10  11
ENDBRANCH   1  10
TORSDOF 12
ENDMDL
MODEL 7
REMARK VINA RESULT:    -3.017      2.063      4.994
REMARK INTER + INTRA:          -6.103
REMARK INTER:                  -5.190
REMARK INTRA:                  -0.913
REMARK UNBOUND:                -0.969
REMARK SMILES CCCCCCCCCCCCCC(=O)[O-]
REMARK SMILES IDX 8 1 9 2 10 3 11 4 12 5 13 6 14 7 15 8 16 9 7 10 6 11 5 12
REMARK SMILES IDX 4 13 3 14 2 15 1 16
REMARK H PARENT
REMARK Flexibility Score: inf
ROOT
ATOM      1  C   UNL     1     -21.469   2.978   8.944  1.00  0.00     0.000 C 
ENDROOT
BRANCH   1   2
ATOM      2  C   UNL     1     -21.100   2.414   7.563  1.00  0.00     0.000 C 
BRANCH   2   3
ATOM      3  C   UNL     1     -20.056   1.288   7.646  1.00  0.00     0.000 C 
BRANCH   3   4
ATOM      4  C   UNL     1     -20.386   0.096   6.728  1.00  0.00     0.000 C 
BRANCH   4   5
ATOM      5  C   UNL     1     -20.420  -1.280   7.426  1.00  0.00     0.006 C 
BRANCH   5   6
ATOM      6  C   UNL     1     -20.330  -1.222   8.959  1.00  0.00     0.053 C 
BRANCH   6   7
ATOM      7  C   UNL     1     -19.462  -2.311   9.512  1.00  0.00     0.041 C 
ATOM      8  O   UNL     1     -18.901  -2.168  10.629  1.00  0.00    -0.550 OA
ATOM      9  O   UNL     1     -19.299  -3.498   8.808  1.00  0.00    -0.550 OA
ENDBRANCH   6   7
ENDBRANCH   5   6
ENDBRANCH   4   5
ENDBRANCH   3   4
ENDBRANCH   2   3
ENDBRANCH   1   2
BRANCH   1  10
ATOM     10  C   UNL     1     -21.985   1.897   9.908  1.00  0.00     0.000 C 
BRANCH  10  11
ATOM     11  C   UNL     1     -21.005   1.684  11.068  1.00  0.00    -0.000 C 
BRANCH  11  12
ATOM     12  C   UNL     1     -21.751   1.312  12.357  1.00  0.00    -0.000 C 
BRANCH  12  13
ATOM     13  C   UNL     1     -20.878   1.450  13.618  1.00  0.00    -0.000 C 
BRANCH  13  14
ATOM     14  C   UNL     1     -20.644   0.140  14.394  1.00  0.00    -0.000 C 
BRANCH  14  15
ATOM     15  C   UNL     1     -21.614  -0.978  13.985  1.00  0.00    -0.003 C 
ATOM     16  C   UNL     1     -20.897  -2.061  13.185  1.00  0.00     0.004 C 
ENDBRANCH  14  15
ENDBRANCH  13  14
ENDBRANCH  12  13
ENDBRANCH  11  12
ENDBRANCH  10  11
ENDBRANCH   1  10
TORSDOF 12
ENDMDL
MODEL 8
REMARK VINA RESULT:    -2.894      2.972      6.719
REMARK INTER + INTRA:          -5.893
REMARK INTER:                  -5.022
REMARK INTRA:                  -0.870
REMARK UNBOUND:                -0.969
REMARK SMILES CCCCCCCCCCCCCC(=O)[O-]
REMARK SMILES IDX 8 1 9 2 10 3 11 4 12 5 13 6 14 7 15 8 16 9 7 10 6 11 5 12
REMARK SMILES IDX 4 13 3 14 2 15 1 16
REMARK H PARENT
REMARK Flexibility Score: inf
ROOT
ATOM      1  C   UNL     1     -20.725  -0.128  14.110  1.00  0.00     0.000 C 
ENDROOT
BRANCH   1   2
ATOM      2  C   UNL     1     -21.160  -1.303  13.220  1.00  0.00     0.000 C 
BRANCH   2   3
ATOM      3  C   UNL     1     -20.019  -1.823  12.330  1.00  0.00     0.000 C 
BRANCH   3   4
ATOM      4  C   UNL     1     -20.523  -2.488  11.036  1.00  0.00     0.000 C 
BRANCH   4   5
ATOM      5  C   UNL     1     -19.819  -2.026   9.743  1.00  0.00     0.006 C 
BRANCH   5   6
ATOM      6  C   UNL     1     -20.352  -0.709   9.160  1.00  0.00     0.053 C 
BRANCH   6   7
ATOM      7  C   UNL     1     -20.311  -0.701   7.662  1.00  0.00     0.041 C 
ATOM      8  O   UNL     1     -20.331   0.389   7.034  1.00  0.00    -0.550 OA
ATOM      9  O   UNL     1     -20.217  -1.897   6.961  1.00  0.00    -0.550 OA
ENDBRANCH   6   7
ENDBRANCH   5   6
ENDBRANCH   4   5
ENDBRANCH   3   4
ENDBRANCH   2   3
ENDBRANCH   1   2
BRANCH   1  10
ATOM     10  C   UNL     1     -21.078   1.239  13.503  1.00  0.00     0.000 C 
BRANCH  10  11
ATOM     11  C   UNL     1     -21.787   1.073  12.153  1.00  0.00    -0.000 C 
BRANCH  11  12
ATOM     12  C   UNL     1     -21.135   1.955  11.078  1.00  0.00    -0.000 C 
BRANCH  12  13
ATOM     13  C   UNL     1     -22.094   2.305   9.926  1.00  0.00    -0.000 C 
BRANCH  13  14
ATOM     14  C   UNL     1     -21.503   3.228   8.845  1.00  0.00    -0.000 C 
BRANCH  14  15
ATOM     15  C   UNL     1     -22.139   4.626   8.838  1.00  0.00    -0.003 C 
ATOM     16  C   UNL     1     -21.095   5.706   9.110  1.00  0.00     0.004 C 
ENDBRANCH  14  15
ENDBRANCH  13  14
ENDBRANCH  12  13
ENDBRANCH  11  12
ENDBRANCH  10  11
ENDBRANCH   1  10
TORSDOF 12
ENDMDL
MODEL 9
REMARK VINA RESULT:    -2.887      2.468      5.601
REMARK INTER + INTRA:          -5.882
REMARK INTER:                  -4.740
REMARK INTRA:                  -1.142
REMARK UNBOUND:                -0.969
REMARK SMILES CCCCCCCCCCCCCC(=O)[O-]
REMARK SMILES IDX 8 1 9 2 10 3 11 4 12 5 13 6 14 7 15 8 16 9 7 10 6 11 5 12
REMARK SMILES IDX 4 13 3 14 2 15 1 16
REMARK H PARENT
REMARK Flexibility Score: inf
ROOT
ATOM      1  C   UNL     1     -21.481   0.386  13.552  1.00  0.00     0.000 C 
ENDROOT
BRANCH   1   2
ATOM      2  C   UNL     1     -20.421  -0.724  13.623  1.00  0.00     0.000 C 
BRANCH   2   3
ATOM      3  C   UNL     1     -20.708  -1.878  12.648  1.00  0.00     0.000 C 
BRANCH   3   4
ATOM      4  C   UNL     1     -19.895  -1.778  11.344  1.00  0.00     0.000 C 
BRANCH   4   5
ATOM      5  C   UNL     1     -20.312  -2.763  10.232  1.00  0.00     0.006 C 
BRANCH   5   6
ATOM      6  C   UNL     1     -19.194  -3.121   9.242  1.00  0.00     0.053 C 
BRANCH   6   7
ATOM      7  C   UNL     1     -19.283  -4.545   8.784  1.00  0.00     0.041 C 
ATOM      8  O   UNL     1     -18.392  -5.027   8.039  1.00  0.00    -0.550 OA
ATOM      9  O   UNL     1     -20.335  -5.347   9.207  1.00  0.00    -0.550 OA
ENDBRANCH   6   7
ENDBRANCH   5   6
ENDBRANCH   4   5
ENDBRANCH   3   4
ENDBRANCH   2   3
ENDBRANCH   1   2
BRANCH   1  10
ATOM     10  C   UNL     1     -21.141   1.466  12.513  1.00  0.00     0.000 C 
BRANCH  10  11
ATOM     11  C   UNL     1     -21.964   1.274  11.233  1.00  0.00    -0.000 C 
BRANCH  11  12
ATOM     12  C   UNL     1     -21.232   1.856  10.015  1.00  0.00    -0.000 C 
BRANCH  12  13
ATOM     13  C   UNL     1     -20.791   0.779   9.008  1.00  0.00    -0.000 C 
BRANCH  13  14
ATOM     14  C   UNL     1     -20.316   1.317   7.646  1.00  0.00    -0.000 C 
BRANCH  14  15
ATOM     15  C   UNL     1     -19.919   0.201   6.668  1.00  0.00    -0.003 C 
ATOM     16  C   UNL     1     -20.746  -1.059   6.907  1.00  0.00     0.004 C 
ENDBRANCH  14  15
ENDBRANCH  13  14
ENDBRANCH  12  13
ENDBRANCH  11  12
ENDBRANCH  10  11
ENDBRANCH   1  10
TORSDOF 12
ENDMDL
