MODEL 1
REMARK VINA RESULT:    -5.386      0.000      0.000
REMARK INTER + INTRA:          -6.229
REMARK INTER:                  -6.016
REMARK INTRA:                  -0.213
REMARK UNBOUND:                -0.213
REMARK SMILES CC(C)c1ccc(C(=O)[O-])cc1
REMARK SMILES IDX 7 1 6 2 11 3 5 4 12 5 4 6 8 7 9 8 10 9 2 10 1 11 3 12
REMARK H PARENT
REMARK Flexibility Score: inf
ROOT
ATOM      1  C   UNL     1       3.668 -12.021  19.176  1.00  0.00    -0.003 A 
ATOM      2  C   UNL     1       3.964 -12.522  17.898  1.00  0.00     0.010 A 
ATOM      3  C   UNL     1       4.672 -11.352  19.897  1.00  0.00     0.010 A 
ATOM      4  C   UNL     1       5.240 -12.357  17.351  1.00  0.00     0.004 A 
ATOM      5  C   UNL     1       5.948 -11.187  19.349  1.00  0.00     0.004 A 
ATOM      6  C   UNL     1       6.246 -11.688  18.068  1.00  0.00    -0.045 A 
ENDROOT
BRANCH   1   7
ATOM      7  C   UNL     1       2.316 -12.197  19.753  1.00  0.00     0.071 C 
ATOM      8  O   UNL     1       1.333 -12.467  19.013  1.00  0.00    -0.545 OA
ATOM      9  O   UNL     1       2.113 -12.068  21.123  1.00  0.00    -0.545 OA
ENDBRANCH   1   7
BRANCH   6  10
ATOM     10  C   UNL     1       7.625 -11.516  17.461  1.00  0.00     0.013 C 
ATOM     11  C   UNL     1       7.835 -12.476  16.284  1.00  0.00     0.012 C 
ATOM     12  C   UNL     1       7.865 -10.062  17.037  1.00  0.00     0.012 C 
ENDBRANCH   6  10
TORSDOF 2
ENDMDL
MODEL 2
REMARK VINA RESULT:    -5.370      0.060      1.681
REMARK INTER + INTRA:          -6.211
REMARK INTER:                  -5.999
REMARK INTRA:                  -0.212
REMARK UNBOUND:                -0.213
REMARK SMILES CC(C)c1ccc(C(=O)[O-])cc1
REMARK SMILES IDX 7 1 6 2 11 3 5 4 12 5 4 6 8 7 9 8 10 9 2 10 1 11 3 12
REMARK H PARENT
REMARK Flexibility Score: inf
ROOT
ATOM      1  C   UNL     1       3.698 -12.000  19.223  1.00  0.00    -0.003 A 
ATOM      2  C   UNL     1       4.722 -11.343  19.923  1.00  0.00     0.010 A 
ATOM      3  C   UNL     1       3.966 -12.508  17.940  1.00  0.00     0.010 A 
ATOM      4  C   UNL     1       5.990 -11.196  19.353  1.00  0.00     0.004 A 
ATOM      5  C   UNL     1       5.234 -12.362  17.370  1.00  0.00     0.004 A 
ATOM      6  C   UNL     1       6.261 -11.704  18.071  1.00  0.00    -0.045 A 
ENDROOT
BRANCH   1   7
ATOM      7  C   UNL     1       2.357 -12.153  19.829  1.00  0.00     0.071 C 
ATOM      8  O   UNL     1       2.197 -12.026  21.072  1.00  0.00    -0.545 OA
ATOM      9  O   UNL     1       1.252 -12.441  19.034  1.00  0.00    -0.545 OA
ENDBRANCH   1   7
BRANCH   6  10
ATOM     10  C   UNL     1       7.642 -11.538  17.465  1.00  0.00     0.013 C 
ATOM     11  C   UNL     1       7.852 -12.505  16.294  1.00  0.00     0.012 C 
ATOM     12  C   UNL     1       7.885 -10.086  17.031  1.00  0.00     0.012 C 
ENDBRANCH   6  10
TORSDOF 2
ENDMDL
MODEL 3
REMARK VINA RESULT:    -5.140      1.719      2.169
REMARK INTER + INTRA:          -5.954
REMARK INTER:                  -5.741
REMARK INTRA:                  -0.213
REMARK UNBOUND:                -0.213
REMARK SMILES CC(C)c1ccc(C(=O)[O-])cc1
REMARK SMILES IDX 7 1 6 2 11 3 5 4 12 5 4 6 8 7 9 8 10 9 2 10 1 11 3 12
REMARK H PARENT
REMARK Flexibility Score: inf
ROOT
ATOM      1  C   UNL     1       4.942 -13.038  20.069  1.00  0.00    -0.003 A 
ATOM      2  C   UNL     1       5.273 -13.842  18.966  1.00  0.00     0.010 A 
ATOM      3  C   UNL     1       5.286 -11.676  20.047  1.00  0.00     0.010 A 
ATOM      4  C   UNL     1       5.935 -13.295  17.863  1.00  0.00     0.004 A 
ATOM      5  C   UNL     1       5.948 -11.128  18.944  1.00  0.00     0.004 A 
ATOM      6  C   UNL     1       6.280 -11.933  17.839  1.00  0.00    -0.045 A 
ENDROOT
BRANCH   1   7
ATOM      7  C   UNL     1       4.241 -13.621  21.235  1.00  0.00     0.071 C 
ATOM      8  O   UNL     1       3.026 -13.366  21.446  1.00  0.00    -0.545 OA
ATOM      9  O   UNL     1       4.916 -14.460  22.115  1.00  0.00    -0.545 OA
ENDBRANCH   1   7
BRANCH   6  10
ATOM     10  C   UNL     1       6.998 -11.353  16.635  1.00  0.00     0.013 C 
ATOM     11  C   UNL     1       7.815 -10.115  17.022  1.00  0.00     0.012 C 
ATOM     12  C   UNL     1       7.882 -12.407  15.957  1.00  0.00     0.012 C 
ENDBRANCH   6  10
TORSDOF 2
ENDMDL
MODEL 4
REMARK VINA RESULT:    -5.068      3.012      5.057
REMARK INTER + INTRA:          -5.874
REMARK INTER:                  -5.661
REMARK INTRA:                  -0.214
REMARK UNBOUND:                -0.213
REMARK SMILES CC(C)c1ccc(C(=O)[O-])cc1
REMARK SMILES IDX 7 1 6 2 11 3 5 4 12 5 4 6 8 7 9 8 10 9 2 10 1 11 3 12
REMARK H PARENT
REMARK Flexibility Score: inf
ROOT
ATOM      1  C   UNL     1       6.167 -11.623  17.986  1.00  0.00    -0.003 A 
ATOM      2  C   UNL     1       5.099 -12.299  17.372  1.00  0.00     0.010 A 
ATOM      3  C   UNL     1       5.978 -11.069  19.264  1.00  0.00     0.010 A 
ATOM      4  C   UNL     1       3.868 -12.419  18.022  1.00  0.00     0.004 A 
ATOM      5  C   UNL     1       4.746 -11.189  19.914  1.00  0.00     0.004 A 
ATOM      6  C   UNL     1       3.677 -11.866  19.300  1.00  0.00    -0.045 A 
ENDROOT
BRANCH   1   7
ATOM      7  C   UNL     1       7.469 -11.499  17.294  1.00  0.00     0.071 C 
ATOM      8  O   UNL     1       8.004 -12.499  16.748  1.00  0.00    -0.545 OA
ATOM      9  O   UNL     1       8.122 -10.271  17.238  1.00  0.00    -0.545 OA
ENDBRANCH   1   7
BRANCH   6  10
ATOM     10  C   UNL     1       2.335 -12.004  19.994  1.00  0.00     0.013 C 
ATOM     11  C   UNL     1       1.809 -10.640  20.457  1.00  0.00     0.012 C 
ATOM     12  C   UNL     1       1.315 -12.711  19.091  1.00  0.00     0.012 C 
ENDBRANCH   6  10
TORSDOF 2
ENDMDL
MODEL 5
REMARK VINA RESULT:    -4.987      3.595      5.285
REMARK INTER + INTRA:          -5.783
REMARK INTER:                  -5.574
REMARK INTRA:                  -0.209
REMARK UNBOUND:                -0.213
REMARK SMILES CC(C)c1ccc(C(=O)[O-])cc1
REMARK SMILES IDX 7 1 6 2 11 3 5 4 12 5 4 6 8 7 9 8 10 9 2 10 1 11 3 12
REMARK H PARENT
REMARK Flexibility Score: inf
ROOT
ATOM      1  C   UNL     1       7.287 -12.222  16.932  1.00  0.00    -0.003 A 
ATOM      2  C   UNL     1       7.306 -10.926  17.473  1.00  0.00     0.010 A 
ATOM      3  C   UNL     1       6.444 -13.188  17.507  1.00  0.00     0.010 A 
ATOM      4  C   UNL     1       6.497 -10.601  18.565  1.00  0.00     0.004 A 
ATOM      5  C   UNL     1       5.635 -12.864  18.599  1.00  0.00     0.004 A 
ATOM      6  C   UNL     1       5.652 -11.565  19.141  1.00  0.00    -0.045 A 
ENDROOT
BRANCH   1   7
ATOM      7  C   UNL     1       8.146 -12.561  15.775  1.00  0.00     0.071 C 
ATOM      8  O   UNL     1       8.930 -13.545  15.826  1.00  0.00    -0.545 OA
ATOM      9  O   UNL     1       8.097 -11.797  14.614  1.00  0.00    -0.545 OA
ENDBRANCH   1   7
BRANCH   6  10
ATOM     10  C   UNL     1       4.779 -11.199  20.327  1.00  0.00     0.013 C 
ATOM     11  C   UNL     1       5.190  -9.846  20.920  1.00  0.00     0.012 C 
ATOM     12  C   UNL     1       3.294 -11.204  19.942  1.00  0.00     0.012 C 
ENDBRANCH   6  10
TORSDOF 2
ENDMDL
MODEL 6
REMARK VINA RESULT:    -4.986      3.011      5.251
REMARK INTER + INTRA:          -5.783
REMARK INTER:                  -5.569
REMARK INTRA:                  -0.213
REMARK UNBOUND:                -0.213
REMARK SMILES CC(C)c1ccc(C(=O)[O-])cc1
REMARK SMILES IDX 7 1 6 2 11 3 5 4 12 5 4 6 8 7 9 8 10 9 2 10 1 11 3 12
REMARK H PARENT
REMARK Flexibility Score: inf
ROOT
ATOM      1  C   UNL     1       6.171 -11.620  17.975  1.00  0.00    -0.003 A 
ATOM      2  C   UNL     1       6.002 -11.015  19.231  1.00  0.00     0.010 A 
ATOM      3  C   UNL     1       5.107 -12.355  17.424  1.00  0.00     0.010 A 
ATOM      4  C   UNL     1       4.793 -11.140  19.922  1.00  0.00     0.004 A 
ATOM      5  C   UNL     1       3.898 -12.480  18.114  1.00  0.00     0.004 A 
ATOM      6  C   UNL     1       3.727 -11.873  19.372  1.00  0.00    -0.045 A 
ENDROOT
BRANCH   1   7
ATOM      7  C   UNL     1       7.452 -11.486  17.247  1.00  0.00     0.071 C 
ATOM      8  O   UNL     1       8.002 -12.491  16.725  1.00  0.00    -0.545 OA
ATOM      9  O   UNL     1       8.068 -10.244  17.129  1.00  0.00    -0.545 OA
ENDBRANCH   1   7
BRANCH   6  10
ATOM     10  C   UNL     1       2.421 -12.000  20.133  1.00  0.00     0.013 C 
ATOM     11  C   UNL     1       1.877 -10.623  20.532  1.00  0.00     0.012 C 
ATOM     12  C   UNL     1       1.384 -12.789  19.323  1.00  0.00     0.012 C 
ENDBRANCH   6  10
TORSDOF 2
ENDMDL
MODEL 7
REMARK VINA RESULT:    -4.867      3.494      5.155
REMARK INTER + INTRA:          -5.650
REMARK INTER:                  -5.429
REMARK INTRA:                  -0.221
REMARK UNBOUND:                -0.213
REMARK SMILES CC(C)c1ccc(C(=O)[O-])cc1
REMARK SMILES IDX 7 1 6 2 11 3 5 4 12 5 4 6 8 7 9 8 10 9 2 10 1 11 3 12
REMARK H PARENT
REMARK Flexibility Score: inf
ROOT
ATOM      1  C   UNL     1       6.687 -11.767  17.704  1.00  0.00    -0.003 A 
ATOM      2  C   UNL     1       6.316 -11.035  18.844  1.00  0.00     0.010 A 
ATOM      3  C   UNL     1       6.281 -13.108  17.594  1.00  0.00     0.010 A 
ATOM      4  C   UNL     1       5.554 -11.631  19.852  1.00  0.00     0.004 A 
ATOM      5  C   UNL     1       5.518 -13.704  18.602  1.00  0.00     0.004 A 
ATOM      6  C   UNL     1       5.146 -12.971  19.744  1.00  0.00    -0.045 A 
ENDROOT
BRANCH   1   7
ATOM      7  C   UNL     1       7.494 -11.133  16.638  1.00  0.00     0.071 C 
ATOM      8  O   UNL     1       7.930  -9.960  16.776  1.00  0.00    -0.545 OA
ATOM      9  O   UNL     1       7.784 -11.826  15.467  1.00  0.00    -0.545 OA
ENDBRANCH   1   7
BRANCH   6  10
ATOM     10  C   UNL     1       4.318 -13.605  20.846  1.00  0.00     0.013 C 
ATOM     11  C   UNL     1       4.819 -15.017  21.172  1.00  0.00     0.012 C 
ATOM     12  C   UNL     1       4.301 -12.723  22.101  1.00  0.00     0.012 C 
ENDBRANCH   6  10
TORSDOF 2
ENDMDL
MODEL 8
REMARK VINA RESULT:    -4.834      1.252      1.832
REMARK INTER + INTRA:          -5.613
REMARK INTER:                  -5.392
REMARK INTRA:                  -0.221
REMARK UNBOUND:                -0.213
REMARK SMILES CC(C)c1ccc(C(=O)[O-])cc1
REMARK SMILES IDX 7 1 6 2 11 3 5 4 12 5 4 6 8 7 9 8 10 9 2 10 1 11 3 12
REMARK H PARENT
REMARK Flexibility Score: inf
ROOT
ATOM      1  C   UNL     1       4.122 -13.070  19.084  1.00  0.00    -0.003 A 
ATOM      2  C   UNL     1       4.646 -11.788  19.317  1.00  0.00     0.010 A 
ATOM      3  C   UNL     1       4.808 -13.940  18.219  1.00  0.00     0.010 A 
ATOM      4  C   UNL     1       5.832 -11.383  18.697  1.00  0.00     0.004 A 
ATOM      5  C   UNL     1       5.994 -13.535  17.600  1.00  0.00     0.004 A 
ATOM      6  C   UNL     1       6.520 -12.251  17.833  1.00  0.00    -0.045 A 
ENDROOT
BRANCH   1   7
ATOM      7  C   UNL     1       2.866 -13.495  19.741  1.00  0.00     0.071 C 
ATOM      8  O   UNL     1       2.095 -12.645  20.262  1.00  0.00    -0.545 OA
ATOM      9  O   UNL     1       2.519 -14.841  19.793  1.00  0.00    -0.545 OA
ENDBRANCH   1   7
BRANCH   6  10
ATOM     10  C   UNL     1       7.806 -11.799  17.168  1.00  0.00     0.013 C 
ATOM     11  C   UNL     1       7.986 -12.467  15.800  1.00  0.00     0.012 C 
ATOM     12  C   UNL     1       7.858 -10.270  17.046  1.00  0.00     0.012 C 
ENDBRANCH   6  10
TORSDOF 2
ENDMDL
MODEL 9
REMARK VINA RESULT:    -4.360      2.557      3.621
REMARK INTER + INTRA:          -5.084
REMARK INTER:                  -4.873
REMARK INTRA:                  -0.210
REMARK UNBOUND:                -0.213
REMARK SMILES CC(C)c1ccc(C(=O)[O-])cc1
REMARK SMILES IDX 7 1 6 2 11 3 5 4 12 5 4 6 8 7 9 8 10 9 2 10 1 11 3 12
REMARK H PARENT
REMARK Flexibility Score: inf
ROOT
ATOM      1  C   UNL     1       3.079 -14.615  17.011  1.00  0.00    -0.003 A 
ATOM      2  C   UNL     1       2.936 -13.219  17.022  1.00  0.00     0.010 A 
ATOM      3  C   UNL     1       4.251 -15.184  17.540  1.00  0.00     0.010 A 
ATOM      4  C   UNL     1       3.942 -12.406  17.551  1.00  0.00     0.004 A 
ATOM      5  C   UNL     1       5.258 -14.372  18.069  1.00  0.00     0.004 A 
ATOM      6  C   UNL     1       5.114 -12.972  18.080  1.00  0.00    -0.045 A 
ENDROOT
BRANCH   1   7
ATOM      7  C   UNL     1       2.011 -15.473  16.450  1.00  0.00     0.071 C 
ATOM      8  O   UNL     1       2.058 -16.724  16.581  1.00  0.00    -0.545 OA
ATOM      9  O   UNL     1       0.938 -14.906  15.769  1.00  0.00    -0.545 OA
ENDBRANCH   1   7
BRANCH   6  10
ATOM     10  C   UNL     1       6.199 -12.078  18.652  1.00  0.00     0.013 C 
ATOM     11  C   UNL     1       6.862 -11.241  17.552  1.00  0.00     0.012 C 
ATOM     12  C   UNL     1       5.646 -11.183  19.768  1.00  0.00     0.012 C 
ENDBRANCH   6  10
TORSDOF 2
ENDMDL
