MODEL 1
REMARK VINA RESULT:    -5.563      0.000      0.000
REMARK INTER + INTRA:         -10.468
REMARK INTER:                  -9.465
REMARK INTRA:                  -1.004
REMARK UNBOUND:                -1.004
REMARK SMILES CCCCCCCCCCCCCC(=O)[O-]
REMARK SMILES IDX 8 1 9 2 10 3 11 4 12 5 13 6 14 7 15 8 16 9 7 10 6 11 5 12
REMARK SMILES IDX 4 13 3 14 2 15 1 16
REMARK H PARENT
REMARK Flexibility Score: inf
ROOT
ATOM      1  C   UNL     1     -16.069  29.498   1.454  1.00  0.00     0.000 C 
ENDROOT
BRANCH   1   2
ATOM      2  C   UNL     1     -16.518  28.858   0.128  1.00  0.00     0.000 C 
BRANCH   2   3
ATOM      3  C   UNL     1     -16.172  27.364  -0.028  1.00  0.00     0.000 C 
BRANCH   3   4
ATOM      4  C   UNL     1     -16.408  26.502   1.228  1.00  0.00     0.000 C 
BRANCH   4   5
ATOM      5  C   UNL     1     -17.727  25.703   1.230  1.00  0.00     0.006 C 
BRANCH   5   6
ATOM      6  C   UNL     1     -18.007  24.936  -0.072  1.00  0.00     0.053 C 
BRANCH   6   7
ATOM      7  C   UNL     1     -19.279  24.150   0.005  1.00  0.00     0.041 C 
ATOM      8  O   UNL     1     -20.059  24.298   0.981  1.00  0.00    -0.550 OA
ATOM      9  O   UNL     1     -19.620  23.278  -1.021  1.00  0.00    -0.550 OA
ENDBRANCH   6   7
ENDBRANCH   5   6
ENDBRANCH   4   5
ENDBRANCH   3   4
ENDBRANCH   2   3
ENDBRANCH   1   2
BRANCH   1  10
ATOM     10  C   UNL     1     -15.530  30.927   1.276  1.00  0.00     0.000 C 
BRANCH  10  11
ATOM     11  C   UNL     1     -16.640  31.989   1.340  1.00  0.00    -0.000 C 
BRANCH  11  12
ATOM     12  C   UNL     1     -16.323  33.231   0.493  1.00  0.00    -0.000 C 
BRANCH  12  13
ATOM     13  C   UNL     1     -17.163  33.251  -0.790  1.00  0.00    -0.000 C 
BRANCH  13  14
ATOM     14  C   UNL     1     -18.198  32.116  -0.787  1.00  0.00    -0.000 C 
BRANCH  14  15
ATOM     15  C   UNL     1     -18.198  31.315  -2.098  1.00  0.00    -0.003 C 
ATOM     16  C   UNL     1     -19.156  30.123  -2.063  1.00  0.00     0.004 C 
ENDBRANCH  14  15
ENDBRANCH  13  14
ENDBRANCH  12  13
ENDBRANCH  11  12
ENDBRANCH  10  11
ENDBRANCH   1  10
TORSDOF 12
ENDMDL
MODEL 2
REMARK VINA RESULT:    -5.494      2.715      6.168
REMARK INTER + INTRA:         -10.353
REMARK INTER:                  -9.509
REMARK INTRA:                  -0.844
REMARK UNBOUND:                -1.004
REMARK SMILES CCCCCCCCCCCCCC(=O)[O-]
REMARK SMILES IDX 8 1 9 2 10 3 11 4 12 5 13 6 14 7 15 8 16 9 7 10 6 11 5 12
REMARK SMILES IDX 4 13 3 14 2 15 1 16
REMARK H PARENT
REMARK Flexibility Score: inf
ROOT
ATOM      1  C   UNL     1     -15.800  29.816   2.347  1.00  0.00     0.000 C 
ENDROOT
BRANCH   1   2
ATOM      2  C   UNL     1     -15.693  30.830   1.194  1.00  0.00     0.000 C 
BRANCH   2   3
ATOM      3  C   UNL     1     -16.587  32.078   1.337  1.00  0.00     0.000 C 
BRANCH   3   4
ATOM      4  C   UNL     1     -16.404  33.146   0.241  1.00  0.00     0.000 C 
BRANCH   4   5
ATOM      5  C   UNL     1     -17.294  32.960  -1.004  1.00  0.00     0.006 C 
BRANCH   5   6
ATOM      6  C   UNL     1     -18.422  31.932  -0.830  1.00  0.00     0.053 C 
BRANCH   6   7
ATOM      7  C   UNL     1     -18.463  30.949  -1.960  1.00  0.00     0.041 C 
ATOM      8  O   UNL     1     -18.879  29.777  -1.767  1.00  0.00    -0.550 OA
ATOM      9  O   UNL     1     -18.072  31.339  -3.234  1.00  0.00    -0.550 OA
ENDBRANCH   6   7
ENDBRANCH   5   6
ENDBRANCH   4   5
ENDBRANCH   3   4
ENDBRANCH   2   3
ENDBRANCH   1   2
BRANCH   1  10
ATOM     10  C   UNL     1     -16.246  28.420   1.876  1.00  0.00     0.000 C 
BRANCH  10  11
ATOM     11  C   UNL     1     -16.557  28.377   0.371  1.00  0.00    -0.000 C 
BRANCH  11  12
ATOM     12  C   UNL     1     -17.021  26.990  -0.099  1.00  0.00    -0.000 C 
BRANCH  12  13
ATOM     13  C   UNL     1     -17.469  26.129   1.089  1.00  0.00    -0.000 C 
BRANCH  13  14
ATOM     14  C   UNL     1     -18.524  25.101   0.656  1.00  0.00    -0.000 C 
BRANCH  14  15
ATOM     15  C   UNL     1     -18.101  24.313  -0.593  1.00  0.00    -0.003 C 
ATOM     16  C   UNL     1     -19.233  23.461  -1.168  1.00  0.00     0.004 C 
ENDBRANCH  14  15
ENDBRANCH  13  14
ENDBRANCH  12  13
ENDBRANCH  11  12
ENDBRANCH  10  11
ENDBRANCH   1  10
TORSDOF 12
ENDMDL
MODEL 3
REMARK VINA RESULT:    -5.488      1.114      2.572
REMARK INTER + INTRA:         -10.342
REMARK INTER:                  -9.616
REMARK INTRA:                  -0.726
REMARK UNBOUND:                -1.004
REMARK SMILES CCCCCCCCCCCCCC(=O)[O-]
REMARK SMILES IDX 8 1 9 2 10 3 11 4 12 5 13 6 14 7 15 8 16 9 7 10 6 11 5 12
REMARK SMILES IDX 4 13 3 14 2 15 1 16
REMARK H PARENT
REMARK Flexibility Score: inf
ROOT
ATOM      1  C   UNL     1     -16.594  27.518  -0.184  1.00  0.00     0.000 C 
ENDROOT
BRANCH   1   2
ATOM      2  C   UNL     1     -16.881  26.727   1.105  1.00  0.00     0.000 C 
BRANCH   2   3
ATOM      3  C   UNL     1     -17.954  25.627   0.971  1.00  0.00     0.000 C 
BRANCH   3   4
ATOM      4  C   UNL     1     -18.051  24.972  -0.420  1.00  0.00     0.000 C 
BRANCH   4   5
ATOM      5  C   UNL     1     -18.500  23.497  -0.416  1.00  0.00     0.006 C 
BRANCH   5   6
ATOM      6  C   UNL     1     -19.691  23.193  -1.338  1.00  0.00     0.053 C 
BRANCH   6   7
ATOM      7  C   UNL     1     -20.978  23.098  -0.576  1.00  0.00     0.041 C 
ATOM      8  O   UNL     1     -21.309  24.010   0.226  1.00  0.00    -0.550 OA
ATOM      9  O   UNL     1     -21.827  22.018  -0.779  1.00  0.00    -0.550 OA
ENDBRANCH   6   7
ENDBRANCH   5   6
ENDBRANCH   4   5
ENDBRANCH   3   4
ENDBRANCH   2   3
ENDBRANCH   1   2
BRANCH   1  10
ATOM     10  C   UNL     1     -16.624  29.041   0.031  1.00  0.00     0.000 C 
BRANCH  10  11
ATOM     11  C   UNL     1     -16.053  29.456   1.397  1.00  0.00    -0.000 C 
BRANCH  11  12
ATOM     12  C   UNL     1     -15.520  30.897   1.404  1.00  0.00    -0.000 C 
BRANCH  12  13
ATOM     13  C   UNL     1     -16.673  31.909   1.355  1.00  0.00    -0.000 C 
BRANCH  13  14
ATOM     14  C   UNL     1     -16.235  33.208   0.662  1.00  0.00    -0.000 C 
BRANCH  14  15
ATOM     15  C   UNL     1     -16.995  33.461  -0.649  1.00  0.00    -0.003 C 
ATOM     16  C   UNL     1     -18.084  32.422  -0.913  1.00  0.00     0.004 C 
ENDBRANCH  14  15
ENDBRANCH  13  14
ENDBRANCH  12  13
ENDBRANCH  11  12
ENDBRANCH  10  11
ENDBRANCH   1  10
TORSDOF 12
ENDMDL
MODEL 4
REMARK VINA RESULT:    -5.450      1.040      1.793
REMARK INTER + INTRA:         -10.277
REMARK INTER:                  -9.447
REMARK INTRA:                  -0.830
REMARK UNBOUND:                -1.004
REMARK SMILES CCCCCCCCCCCCCC(=O)[O-]
REMARK SMILES IDX 8 1 9 2 10 3 11 4 12 5 13 6 14 7 15 8 16 9 7 10 6 11 5 12
REMARK SMILES IDX 4 13 3 14 2 15 1 16
REMARK H PARENT
REMARK Flexibility Score: inf
ROOT
ATOM      1  C   UNL     1     -16.691  28.949   0.129  1.00  0.00     0.000 C 
ENDROOT
BRANCH   1   2
ATOM      2  C   UNL     1     -16.352  27.488  -0.218  1.00  0.00     0.000 C 
BRANCH   2   3
ATOM      3  C   UNL     1     -16.485  26.491   0.952  1.00  0.00     0.000 C 
BRANCH   3   4
ATOM      4  C   UNL     1     -17.797  25.683   0.979  1.00  0.00     0.000 C 
BRANCH   4   5
ATOM      5  C   UNL     1     -17.967  24.677  -0.178  1.00  0.00     0.006 C 
BRANCH   5   6
ATOM      6  C   UNL     1     -19.285  23.887  -0.143  1.00  0.00     0.053 C 
BRANCH   6   7
ATOM      7  C   UNL     1     -19.238  22.682  -1.031  1.00  0.00     0.041 C 
ATOM      8  O   UNL     1     -18.332  21.821  -0.885  1.00  0.00    -0.550 OA
ATOM      9  O   UNL     1     -20.215  22.494  -2.000  1.00  0.00    -0.550 OA
ENDBRANCH   6   7
ENDBRANCH   5   6
ENDBRANCH   4   5
ENDBRANCH   3   4
ENDBRANCH   2   3
ENDBRANCH   1   2
BRANCH   1  10
ATOM     10  C   UNL     1     -15.970  29.445   1.395  1.00  0.00     0.000 C 
BRANCH  10  11
ATOM     11  C   UNL     1     -15.472  30.893   1.262  1.00  0.00    -0.000 C 
BRANCH  11  12
ATOM     12  C   UNL     1     -16.602  31.924   1.404  1.00  0.00    -0.000 C 
BRANCH  12  13
ATOM     13  C   UNL     1     -16.262  33.218   0.652  1.00  0.00    -0.000 C 
BRANCH  13  14
ATOM     14  C   UNL     1     -16.934  33.244  -0.729  1.00  0.00    -0.000 C 
BRANCH  14  15
ATOM     15  C   UNL     1     -18.252  32.456  -0.758  1.00  0.00    -0.003 C 
ATOM     16  C   UNL     1     -18.300  31.424  -1.886  1.00  0.00     0.004 C 
ENDBRANCH  14  15
ENDBRANCH  13  14
ENDBRANCH  12  13
ENDBRANCH  11  12
ENDBRANCH  10  11
ENDBRANCH   1  10
TORSDOF 12
ENDMDL
MODEL 5
REMARK VINA RESULT:    -5.344      3.636      7.538
REMARK INTER + INTRA:         -10.097
REMARK INTER:                  -9.508
REMARK INTRA:                  -0.589
REMARK UNBOUND:                -1.004
REMARK SMILES CCCCCCCCCCCCCC(=O)[O-]
REMARK SMILES IDX 8 1 9 2 10 3 11 4 12 5 13 6 14 7 15 8 16 9 7 10 6 11 5 12
REMARK SMILES IDX 4 13 3 14 2 15 1 16
REMARK H PARENT
REMARK Flexibility Score: inf
ROOT
ATOM      1  C   UNL     1     -17.518  27.805  -0.402  1.00  0.00     0.000 C 
ENDROOT
BRANCH   1   2
ATOM      2  C   UNL     1     -17.305  29.312  -0.631  1.00  0.00     0.000 C 
BRANCH   2   3
ATOM      3  C   UNL     1     -18.430  30.019  -1.415  1.00  0.00     0.000 C 
BRANCH   3   4
ATOM      4  C   UNL     1     -18.118  31.464  -1.850  1.00  0.00     0.000 C 
BRANCH   4   5
ATOM      5  C   UNL     1     -18.142  32.506  -0.714  1.00  0.00     0.006 C 
BRANCH   5   6
ATOM      6  C   UNL     1     -16.838  33.304  -0.557  1.00  0.00     0.053 C 
BRANCH   6   7
ATOM      7  C   UNL     1     -16.280  33.196   0.829  1.00  0.00     0.041 C 
ATOM      8  O   UNL     1     -15.933  34.231   1.456  1.00  0.00    -0.550 OA
ATOM      9  O   UNL     1     -16.175  31.954   1.440  1.00  0.00    -0.550 OA
ENDBRANCH   6   7
ENDBRANCH   5   6
ENDBRANCH   4   5
ENDBRANCH   3   4
ENDBRANCH   2   3
ENDBRANCH   1   2
BRANCH   1  10
ATOM     10  C   UNL     1     -16.828  27.291   0.873  1.00  0.00     0.000 C 
BRANCH  10  11
ATOM     11  C   UNL     1     -17.280  25.873   1.259  1.00  0.00    -0.000 C 
BRANCH  11  12
ATOM     12  C   UNL     1     -18.029  25.160   0.123  1.00  0.00    -0.000 C 
BRANCH  12  13
ATOM     13  C   UNL     1     -19.312  24.497   0.642  1.00  0.00    -0.000 C 
BRANCH  13  14
ATOM     14  C   UNL     1     -19.523  23.122  -0.009  1.00  0.00    -0.000 C 
BRANCH  14  15
ATOM     15  C   UNL     1     -19.302  23.150  -1.529  1.00  0.00    -0.003 C 
ATOM     16  C   UNL     1     -19.426  21.768  -2.171  1.00  0.00     0.004 C 
ENDBRANCH  14  15
ENDBRANCH  13  14
ENDBRANCH  12  13
ENDBRANCH  11  12
ENDBRANCH  10  11
ENDBRANCH   1  10
TORSDOF 12
ENDMDL
MODEL 6
REMARK VINA RESULT:    -5.199      1.123      3.211
REMARK INTER + INTRA:          -9.850
REMARK INTER:                  -8.811
REMARK INTRA:                  -1.039
REMARK UNBOUND:                -1.004
REMARK SMILES CCCCCCCCCCCCCC(=O)[O-]
REMARK SMILES IDX 8 1 9 2 10 3 11 4 12 5 13 6 14 7 15 8 16 9 7 10 6 11 5 12
REMARK SMILES IDX 4 13 3 14 2 15 1 16
REMARK H PARENT
REMARK Flexibility Score: inf
ROOT
ATOM      1  C   UNL     1     -18.138  31.371  -1.989  1.00  0.00     0.000 C 
ENDROOT
BRANCH   1   2
ATOM      2  C   UNL     1     -18.582  29.929  -1.681  1.00  0.00     0.000 C 
BRANCH   2   3
ATOM      3  C   UNL     1     -17.726  29.192  -0.631  1.00  0.00     0.000 C 
BRANCH   3   4
ATOM      4  C   UNL     1     -17.711  27.657  -0.758  1.00  0.00     0.000 C 
BRANCH   4   5
ATOM      5  C   UNL     1     -16.763  26.932   0.219  1.00  0.00     0.006 C 
BRANCH   5   6
ATOM      6  C   UNL     1     -17.475  26.063   1.267  1.00  0.00     0.053 C 
BRANCH   6   7
ATOM      7  C   UNL     1     -18.407  25.075   0.635  1.00  0.00     0.041 C 
ATOM      8  O   UNL     1     -19.644  25.134   0.862  1.00  0.00    -0.550 OA
ATOM      9  O   UNL     1     -17.912  24.110  -0.232  1.00  0.00    -0.550 OA
ENDBRANCH   6   7
ENDBRANCH   5   6
ENDBRANCH   4   5
ENDBRANCH   3   4
ENDBRANCH   2   3
ENDBRANCH   1   2
BRANCH   1  10
ATOM     10  C   UNL     1     -18.167  32.282  -0.750  1.00  0.00     0.000 C 
BRANCH  10  11
ATOM     11  C   UNL     1     -17.004  33.287  -0.729  1.00  0.00    -0.000 C 
BRANCH  11  12
ATOM     12  C   UNL     1     -16.303  33.356   0.636  1.00  0.00    -0.000 C 
BRANCH  12  13
ATOM     13  C   UNL     1     -16.626  32.117   1.481  1.00  0.00    -0.000 C 
BRANCH  13  14
ATOM     14  C   UNL     1     -15.581  31.014   1.262  1.00  0.00    -0.000 C 
BRANCH  14  15
ATOM     15  C   UNL     1     -15.485  30.046   2.452  1.00  0.00    -0.003 C 
ATOM     16  C   UNL     1     -16.219  30.558   3.691  1.00  0.00     0.004 C 
ENDBRANCH  14  15
ENDBRANCH  13  14
ENDBRANCH  12  13
ENDBRANCH  11  12
ENDBRANCH  10  11
ENDBRANCH   1  10
TORSDOF 12
ENDMDL
MODEL 7
REMARK VINA RESULT:    -5.098      2.827      6.245
REMARK INTER + INTRA:          -9.679
REMARK INTER:                  -8.753
REMARK INTRA:                  -0.926
REMARK UNBOUND:                -1.004
REMARK SMILES CCCCCCCCCCCCCC(=O)[O-]
REMARK SMILES IDX 8 1 9 2 10 3 11 4 12 5 13 6 14 7 15 8 16 9 7 10 6 11 5 12
REMARK SMILES IDX 4 13 3 14 2 15 1 16
REMARK H PARENT
REMARK Flexibility Score: inf
ROOT
ATOM      1  C   UNL     1     -18.136  31.508  -2.011  1.00  0.00     0.000 C 
ENDROOT
BRANCH   1   2
ATOM      2  C   UNL     1     -18.158  32.502  -0.836  1.00  0.00     0.000 C 
BRANCH   2   3
ATOM      3  C   UNL     1     -16.854  33.300  -0.630  1.00  0.00     0.000 C 
BRANCH   3   4
ATOM      4  C   UNL     1     -16.305  33.301   0.810  1.00  0.00     0.000 C 
BRANCH   4   5
ATOM      5  C   UNL     1     -16.676  32.061   1.649  1.00  0.00     0.006 C 
BRANCH   5   6
ATOM      6  C   UNL     1     -15.606  30.958   1.657  1.00  0.00     0.053 C 
BRANCH   6   7
ATOM      7  C   UNL     1     -15.582  30.212   2.955  1.00  0.00     0.041 C 
ATOM      8  O   UNL     1     -14.617  30.352   3.750  1.00  0.00    -0.550 OA
ATOM      9  O   UNL     1     -16.644  29.386   3.301  1.00  0.00    -0.550 OA
ENDBRANCH   6   7
ENDBRANCH   5   6
ENDBRANCH   4   5
ENDBRANCH   3   4
ENDBRANCH   2   3
ENDBRANCH   1   2
BRANCH   1  10
ATOM     10  C   UNL     1     -18.495  30.073  -1.587  1.00  0.00     0.000 C 
BRANCH  10  11
ATOM     11  C   UNL     1     -17.451  29.459  -0.640  1.00  0.00    -0.000 C 
BRANCH  11  12
ATOM     12  C   UNL     1     -17.609  27.938  -0.489  1.00  0.00    -0.000 C 
BRANCH  12  13
ATOM     13  C   UNL     1     -16.579  27.375   0.499  1.00  0.00    -0.000 C 
BRANCH  13  14
ATOM     14  C   UNL     1     -17.084  26.072   1.136  1.00  0.00    -0.000 C 
BRANCH  14  15
ATOM     15  C   UNL     1     -18.044  25.300   0.218  1.00  0.00    -0.003 C 
ATOM     16  C   UNL     1     -19.108  24.523   0.994  1.00  0.00     0.004 C 
ENDBRANCH  14  15
ENDBRANCH  13  14
ENDBRANCH  12  13
ENDBRANCH  11  12
ENDBRANCH  10  11
ENDBRANCH   1  10
TORSDOF 12
ENDMDL
MODEL 8
REMARK VINA RESULT:    -5.061      3.263      7.084
REMARK INTER + INTRA:          -9.615
REMARK INTER:                  -8.978
REMARK INTRA:                  -0.636
REMARK UNBOUND:                -1.004
REMARK SMILES CCCCCCCCCCCCCC(=O)[O-]
REMARK SMILES IDX 8 1 9 2 10 3 11 4 12 5 13 6 14 7 15 8 16 9 7 10 6 11 5 12
REMARK SMILES IDX 4 13 3 14 2 15 1 16
REMARK H PARENT
REMARK Flexibility Score: inf
ROOT
ATOM      1  C   UNL     1     -16.616  28.353   0.451  1.00  0.00     0.000 C 
ENDROOT
BRANCH   1   2
ATOM      2  C   UNL     1     -16.231  28.357   1.941  1.00  0.00     0.000 C 
BRANCH   2   3
ATOM      3  C   UNL     1     -15.930  29.749   2.534  1.00  0.00     0.000 C 
BRANCH   3   4
ATOM      4  C   UNL     1     -15.585  30.841   1.503  1.00  0.00     0.000 C 
BRANCH   4   5
ATOM      5  C   UNL     1     -16.493  32.086   1.545  1.00  0.00     0.006 C 
BRANCH   5   6
ATOM      6  C   UNL     1     -16.523  32.893   0.238  1.00  0.00     0.053 C 
BRANCH   6   7
ATOM      7  C   UNL     1     -17.722  32.561  -0.596  1.00  0.00     0.041 C 
ATOM      8  O   UNL     1     -18.444  33.480  -1.065  1.00  0.00    -0.550 OA
ATOM      9  O   UNL     1     -18.023  31.236  -0.885  1.00  0.00    -0.550 OA
ENDBRANCH   6   7
ENDBRANCH   5   6
ENDBRANCH   4   5
ENDBRANCH   3   4
ENDBRANCH   2   3
ENDBRANCH   1   2
BRANCH   1  10
ATOM     10  C   UNL     1     -16.387  26.989  -0.222  1.00  0.00     0.000 C 
BRANCH  10  11
ATOM     11  C   UNL     1     -16.940  25.820   0.610  1.00  0.00    -0.000 C 
BRANCH  11  12
ATOM     12  C   UNL     1     -18.469  25.700   0.522  1.00  0.00    -0.000 C 
BRANCH  12  13
ATOM     13  C   UNL     1     -18.895  24.237   0.343  1.00  0.00    -0.000 C 
BRANCH  13  14
ATOM     14  C   UNL     1     -18.573  23.741  -1.074  1.00  0.00    -0.000 C 
BRANCH  14  15
ATOM     15  C   UNL     1     -18.815  22.233  -1.240  1.00  0.00    -0.003 C 
ATOM     16  C   UNL     1     -20.111  21.920  -1.990  1.00  0.00     0.004 C 
ENDBRANCH  14  15
ENDBRANCH  13  14
ENDBRANCH  12  13
ENDBRANCH  11  12
ENDBRANCH  10  11
ENDBRANCH   1  10
TORSDOF 12
ENDMDL
MODEL 9
REMARK VINA RESULT:    -5.028      3.621      7.728
REMARK INTER + INTRA:          -9.558
REMARK INTER:                  -8.827
REMARK INTRA:                  -0.731
REMARK UNBOUND:                -1.004
REMARK SMILES CCCCCCCCCCCCCC(=O)[O-]
REMARK SMILES IDX 8 1 9 2 10 3 11 4 12 5 13 6 14 7 15 8 16 9 7 10 6 11 5 12
REMARK SMILES IDX 4 13 3 14 2 15 1 16
REMARK H PARENT
REMARK Flexibility Score: inf
ROOT
ATOM      1  C   UNL     1     -17.129  26.312   0.683  1.00  0.00     0.000 C 
ENDROOT
BRANCH   1   2
ATOM      2  C   UNL     1     -17.241  27.453  -0.345  1.00  0.00     0.000 C 
BRANCH   2   3
ATOM      3  C   UNL     1     -16.332  28.669  -0.072  1.00  0.00     0.000 C 
BRANCH   3   4
ATOM      4  C   UNL     1     -16.214  29.081   1.408  1.00  0.00     0.000 C 
BRANCH   4   5
ATOM      5  C   UNL     1     -15.430  30.384   1.661  1.00  0.00     0.006 C 
BRANCH   5   6
ATOM      6  C   UNL     1     -16.298  31.568   2.116  1.00  0.00     0.053 C 
BRANCH   6   7
ATOM      7  C   UNL     1     -16.591  32.511   0.989  1.00  0.00     0.041 C 
ATOM      8  O   UNL     1     -15.928  33.573   0.862  1.00  0.00    -0.550 OA
ATOM      9  O   UNL     1     -17.575  32.198   0.060  1.00  0.00    -0.550 OA
ENDBRANCH   6   7
ENDBRANCH   5   6
ENDBRANCH   4   5
ENDBRANCH   3   4
ENDBRANCH   2   3
ENDBRANCH   1   2
BRANCH   1  10
ATOM     10  C   UNL     1     -17.836  25.024   0.225  1.00  0.00     0.000 C 
BRANCH  10  11
ATOM     11  C   UNL     1     -19.017  24.645   1.132  1.00  0.00    -0.000 C 
BRANCH  11  12
ATOM     12  C   UNL     1     -20.275  24.261   0.338  1.00  0.00    -0.000 C 
BRANCH  12  13
ATOM     13  C   UNL     1     -20.358  22.741   0.141  1.00  0.00    -0.000 C 
BRANCH  13  14
ATOM     14  C   UNL     1     -20.706  22.394  -1.313  1.00  0.00    -0.000 C 
BRANCH  14  15
ATOM     15  C   UNL     1     -19.466  22.042  -2.149  1.00  0.00    -0.003 C 
ATOM     16  C   UNL     1     -18.431  21.236  -1.362  1.00  0.00     0.004 C 
ENDBRANCH  14  15
ENDBRANCH  13  14
ENDBRANCH  12  13
ENDBRANCH  11  12
ENDBRANCH  10  11
ENDBRANCH   1  10
TORSDOF 12
ENDMDL
