MODEL 1
REMARK VINA RESULT:    -5.506      0.000      0.000
REMARK INTER + INTRA:         -12.131
REMARK INTER:                 -10.013
REMARK INTRA:                  -2.118
REMARK UNBOUND:                -2.118
REMARK SMILES CCCCCCCCCCCCCC[C@@H](C)C(=O)[O-]
REMARK SMILES IDX 9 1 10 2 11 3 12 4 13 5 14 6 15 7 16 8 17 9 18 10 19 11 8 12
REMARK SMILES IDX 7 13 6 14 5 15 4 16 3 17 2 18 1 19
REMARK H PARENT
REMARK Flexibility Score: inf
ROOT
ATOM      1  C   UNL     1     102.446  24.026 197.158  1.00  0.00     0.000 C 
ENDROOT
BRANCH   1   2
ATOM      2  C   UNL     1     103.102  25.417 197.217  1.00  0.00     0.000 C 
BRANCH   2   3
ATOM      3  C   UNL     1     104.623  25.430 196.967  1.00  0.00     0.000 C 
BRANCH   3   4
ATOM      4  C   UNL     1     105.051  25.819 195.538  1.00  0.00     0.000 C 
BRANCH   4   5
ATOM      5  C   UNL     1     105.008  24.674 194.507  1.00  0.00     0.001 C 
BRANCH   5   6
ATOM      6  C   UNL     1     105.434  23.319 195.101  1.00  0.00     0.009 C 
BRANCH   6   7
ATOM      7  C   UNL     1     104.817  22.120 194.348  1.00  0.00     0.032 C 
ATOM      8  C   UNL     1     103.710  22.548 193.376  1.00  0.00     0.014 C 
BRANCH   7   9
ATOM      9  C   UNL     1     105.893  21.390 193.590  1.00  0.00     0.044 C 
ATOM     10  O   UNL     1     105.866  21.353 192.331  1.00  0.00    -0.550 OA
ATOM     11  O   UNL     1     106.922  20.752 194.272  1.00  0.00    -0.550 OA
ENDBRANCH   7   9
ENDBRANCH   6   7
ENDBRANCH   5   6
ENDBRANCH   4   5
ENDBRANCH   3   4
ENDBRANCH   2   3
ENDBRANCH   1   2
BRANCH   1  12
ATOM     12  C   UNL     1     102.310  23.372 198.541  1.00  0.00     0.000 C 
BRANCH  12  13
ATOM     13  C   UNL     1     103.580  22.599 198.911  1.00  0.00    -0.000 C 
BRANCH  13  14
ATOM     14  C   UNL     1     104.288  23.246 200.111  1.00  0.00    -0.000 C 
BRANCH  14  15
ATOM     15  C   UNL     1     105.800  23.418 199.888  1.00  0.00    -0.000 C 
BRANCH  15  16
ATOM     16  C   UNL     1     106.508  22.085 199.587  1.00  0.00    -0.000 C 
BRANCH  16  17
ATOM     17  C   UNL     1     107.057  22.019 198.153  1.00  0.00    -0.000 C 
BRANCH  17  18
ATOM     18  C   UNL     1     106.988  20.605 197.556  1.00  0.00    -0.003 C 
ATOM     19  C   UNL     1     105.547  20.106 197.492  1.00  0.00     0.004 C 
ENDBRANCH  17  18
ENDBRANCH  16  17
ENDBRANCH  15  16
ENDBRANCH  14  15
ENDBRANCH  13  14
ENDBRANCH  12  13
ENDBRANCH   1  12
TORSDOF 14
ENDMDL
MODEL 2
REMARK VINA RESULT:    -5.498      1.869      4.115
REMARK INTER + INTRA:         -12.116
REMARK INTER:                  -9.564
REMARK INTRA:                  -2.552
REMARK UNBOUND:                -2.118
REMARK SMILES CCCCCCCCCCCCCC[C@@H](C)C(=O)[O-]
REMARK SMILES IDX 9 1 10 2 11 3 12 4 13 5 14 6 15 7 16 8 17 9 18 10 19 11 8 12
REMARK SMILES IDX 7 13 6 14 5 15 4 16 3 17 2 18 1 19
REMARK H PARENT
REMARK Flexibility Score: inf
ROOT
ATOM      1  C   UNL     1     101.559  21.465 194.891  1.00  0.00     0.000 C 
ENDROOT
BRANCH   1   2
ATOM      2  C   UNL     1     101.913  22.533 193.841  1.00  0.00     0.000 C 
BRANCH   2   3
ATOM      3  C   UNL     1     103.397  22.571 193.426  1.00  0.00     0.000 C 
BRANCH   3   4
ATOM      4  C   UNL     1     104.271  23.574 194.206  1.00  0.00     0.000 C 
BRANCH   4   5
ATOM      5  C   UNL     1     105.502  22.965 194.905  1.00  0.00     0.001 C 
BRANCH   5   6
ATOM      6  C   UNL     1     105.431  21.430 195.009  1.00  0.00     0.009 C 
BRANCH   6   7
ATOM      7  C   UNL     1     105.840  20.909 196.403  1.00  0.00     0.032 C 
ATOM      8  C   UNL     1     104.841  19.887 196.961  1.00  0.00     0.014 C 
BRANCH   7   9
ATOM      9  C   UNL     1     107.206  20.282 196.330  1.00  0.00     0.044 C 
ATOM     10  O   UNL     1     107.926  20.449 195.310  1.00  0.00    -0.550 OA
ATOM     11  O   UNL     1     107.683  19.514 197.386  1.00  0.00    -0.550 OA
ENDBRANCH   7   9
ENDBRANCH   6   7
ENDBRANCH   5   6
ENDBRANCH   4   5
ENDBRANCH   3   4
ENDBRANCH   2   3
ENDBRANCH   1   2
BRANCH   1  12
ATOM     12  C   UNL     1     101.794  21.945 196.331  1.00  0.00     0.000 C 
BRANCH  12  13
ATOM     13  C   UNL     1     101.399  23.417 196.491  1.00  0.00    -0.000 C 
BRANCH  13  14
ATOM     14  C   UNL     1     102.406  24.164 197.380  1.00  0.00    -0.000 C 
BRANCH  14  15
ATOM     15  C   UNL     1     103.464  23.231 197.992  1.00  0.00    -0.000 C 
BRANCH  15  16
ATOM     16  C   UNL     1     103.430  23.230 199.531  1.00  0.00    -0.000 C 
BRANCH  16  17
ATOM     17  C   UNL     1     102.075  22.766 200.090  1.00  0.00    -0.000 C 
BRANCH  17  18
ATOM     18  C   UNL     1     101.298  23.900 200.776  1.00  0.00    -0.003 C 
ATOM     19  C   UNL     1      99.920  24.082 200.144  1.00  0.00     0.004 C 
ENDBRANCH  17  18
ENDBRANCH  16  17
ENDBRANCH  15  16
ENDBRANCH  14  15
ENDBRANCH  13  14
ENDBRANCH  12  13
ENDBRANCH   1  12
TORSDOF 14
ENDMDL
MODEL 3
REMARK VINA RESULT:    -5.492      1.879      3.736
REMARK INTER + INTRA:         -12.105
REMARK INTER:                  -9.510
REMARK INTRA:                  -2.596
REMARK UNBOUND:                -2.118
REMARK SMILES CCCCCCCCCCCCCC[C@@H](C)C(=O)[O-]
REMARK SMILES IDX 9 1 10 2 11 3 12 4 13 5 14 6 15 7 16 8 17 9 18 10 19 11 8 12
REMARK SMILES IDX 7 13 6 14 5 15 4 16 3 17 2 18 1 19
REMARK H PARENT
REMARK Flexibility Score: inf
ROOT
ATOM      1  C   UNL     1     101.547  20.978 195.634  1.00  0.00     0.000 C 
ENDROOT
BRANCH   1   2
ATOM      2  C   UNL     1     101.666  19.933 196.758  1.00  0.00     0.000 C 
BRANCH   2   3
ATOM      3  C   UNL     1     103.103  19.465 197.061  1.00  0.00     0.000 C 
BRANCH   3   4
ATOM      4  C   UNL     1     104.183  20.564 196.982  1.00  0.00     0.000 C 
BRANCH   4   5
ATOM      5  C   UNL     1     105.428  20.199 196.152  1.00  0.00     0.001 C 
BRANCH   5   6
ATOM      6  C   UNL     1     105.999  21.399 195.373  1.00  0.00     0.009 C 
BRANCH   6   7
ATOM      7  C   UNL     1     104.908  22.409 194.956  1.00  0.00     0.032 C 
ATOM      8  C   UNL     1     105.347  23.864 195.172  1.00  0.00     0.014 C 
BRANCH   7   9
ATOM      9  C   UNL     1     104.555  22.205 193.507  1.00  0.00     0.044 C 
ATOM     10  O   UNL     1     105.303  21.515 192.765  1.00  0.00    -0.550 OA
ATOM     11  O   UNL     1     103.402  22.774 192.980  1.00  0.00    -0.550 OA
ENDBRANCH   7   9
ENDBRANCH   6   7
ENDBRANCH   5   6
ENDBRANCH   4   5
ENDBRANCH   3   4
ENDBRANCH   2   3
ENDBRANCH   1   2
BRANCH   1  12
ATOM     12  C   UNL     1     101.089  22.352 196.143  1.00  0.00     0.000 C 
BRANCH  12  13
ATOM     13  C   UNL     1     100.617  22.269 197.599  1.00  0.00    -0.000 C 
BRANCH  13  14
ATOM     14  C   UNL     1     101.508  23.123 198.516  1.00  0.00    -0.000 C 
BRANCH  14  15
ATOM     15  C   UNL     1     102.404  24.098 197.734  1.00  0.00    -0.000 C 
BRANCH  15  16
ATOM     16  C   UNL     1     103.856  24.104 198.244  1.00  0.00    -0.000 C 
BRANCH  16  17
ATOM     17  C   UNL     1     104.058  23.178 199.455  1.00  0.00    -0.000 C 
BRANCH  17  18
ATOM     18  C   UNL     1     105.466  23.295 200.060  1.00  0.00    -0.003 C 
ATOM     19  C   UNL     1     106.410  22.260 199.453  1.00  0.00     0.004 C 
ENDBRANCH  17  18
ENDBRANCH  16  17
ENDBRANCH  15  16
ENDBRANCH  14  15
ENDBRANCH  13  14
ENDBRANCH  12  13
ENDBRANCH   1  12
TORSDOF 14
ENDMDL
MODEL 4
REMARK VINA RESULT:    -5.481      2.750      4.840
REMARK INTER + INTRA:         -12.085
REMARK INTER:                  -9.796
REMARK INTRA:                  -2.289
REMARK UNBOUND:                -2.118
REMARK SMILES CCCCCCCCCCCCCC[C@@H](C)C(=O)[O-]
REMARK SMILES IDX 9 1 10 2 11 3 12 4 13 5 14 6 15 7 16 8 17 9 18 10 19 11 8 12
REMARK SMILES IDX 7 13 6 14 5 15 4 16 3 17 2 18 1 19
REMARK H PARENT
REMARK Flexibility Score: inf
ROOT
ATOM      1  C   UNL     1     105.150  22.613 194.201  1.00  0.00     0.000 C 
ENDROOT
BRANCH   1   2
ATOM      2  C   UNL     1     104.104  22.345 193.104  1.00  0.00     0.000 C 
BRANCH   2   3
ATOM      3  C   UNL     1     102.679  22.831 193.432  1.00  0.00     0.000 C 
BRANCH   3   4
ATOM      4  C   UNL     1     101.870  21.909 194.367  1.00  0.00     0.000 C 
BRANCH   4   5
ATOM      5  C   UNL     1     101.451  22.542 195.708  1.00  0.00     0.001 C 
BRANCH   5   6
ATOM      6  C   UNL     1     101.802  21.659 196.920  1.00  0.00     0.009 C 
BRANCH   6   7
ATOM      7  C   UNL     1     102.705  20.465 196.544  1.00  0.00     0.032 C 
ATOM      8  C   UNL     1     104.116  20.591 197.136  1.00  0.00     0.014 C 
BRANCH   7   9
ATOM      9  C   UNL     1     102.077  19.183 197.022  1.00  0.00     0.044 C 
ATOM     10  O   UNL     1     102.802  18.235 197.425  1.00  0.00    -0.550 OA
ATOM     11  O   UNL     1     100.695  19.036 197.020  1.00  0.00    -0.550 OA
ENDBRANCH   7   9
ENDBRANCH   6   7
ENDBRANCH   5   6
ENDBRANCH   4   5
ENDBRANCH   3   4
ENDBRANCH   2   3
ENDBRANCH   1   2
BRANCH   1  12
ATOM     12  C   UNL     1     104.955  23.970 194.892  1.00  0.00     0.000 C 
BRANCH  12  13
ATOM     13  C   UNL     1     105.688  24.012 196.238  1.00  0.00    -0.000 C 
BRANCH  13  14
ATOM     14  C   UNL     1     104.695  24.170 197.400  1.00  0.00    -0.000 C 
BRANCH  14  15
ATOM     15  C   UNL     1     105.370  24.068 198.777  1.00  0.00    -0.000 C 
BRANCH  15  16
ATOM     16  C   UNL     1     104.550  23.234 199.777  1.00  0.00    -0.000 C 
BRANCH  16  17
ATOM     17  C   UNL     1     103.039  23.307 199.504  1.00  0.00    -0.000 C 
BRANCH  17  18
ATOM     18  C   UNL     1     102.203  23.307 200.793  1.00  0.00    -0.003 C 
ATOM     19  C   UNL     1     100.837  23.949 200.560  1.00  0.00     0.004 C 
ENDBRANCH  17  18
ENDBRANCH  16  17
ENDBRANCH  15  16
ENDBRANCH  14  15
ENDBRANCH  13  14
ENDBRANCH  12  13
ENDBRANCH   1  12
TORSDOF 14
ENDMDL
MODEL 5
REMARK VINA RESULT:    -5.377      2.982      6.009
REMARK INTER + INTRA:         -11.896
REMARK INTER:                  -9.741
REMARK INTRA:                  -2.155
REMARK UNBOUND:                -2.118
REMARK SMILES CCCCCCCCCCCCCC[C@@H](C)C(=O)[O-]
REMARK SMILES IDX 9 1 10 2 11 3 12 4 13 5 14 6 15 7 16 8 17 9 18 10 19 11 8 12
REMARK SMILES IDX 7 13 6 14 5 15 4 16 3 17 2 18 1 19
REMARK H PARENT
REMARK Flexibility Score: inf
ROOT
ATOM      1  C   UNL     1     106.752  21.344 196.819  1.00  0.00     0.000 C 
ENDROOT
BRANCH   1   2
ATOM      2  C   UNL     1     106.298  21.064 198.263  1.00  0.00     0.000 C 
BRANCH   2   3
ATOM      3  C   UNL     1     107.047  21.865 199.346  1.00  0.00     0.000 C 
BRANCH   3   4
ATOM      4  C   UNL     1     106.174  22.834 200.168  1.00  0.00     0.000 C 
BRANCH   4   5
ATOM      5  C   UNL     1     105.093  23.582 199.365  1.00  0.00     0.001 C 
BRANCH   5   6
ATOM      6  C   UNL     1     103.663  23.213 199.801  1.00  0.00     0.009 C 
BRANCH   6   7
ATOM      7  C   UNL     1     102.639  23.343 198.652  1.00  0.00     0.032 C 
ATOM      8  C   UNL     1     102.759  22.204 197.631  1.00  0.00     0.014 C 
BRANCH   7   9
ATOM      9  C   UNL     1     101.244  23.363 199.216  1.00  0.00     0.044 C 
ATOM     10  O   UNL     1     100.280  22.926 198.534  1.00  0.00    -0.550 OA
ATOM     11  O   UNL     1     101.010  23.863 200.491  1.00  0.00    -0.550 OA
ENDBRANCH   7   9
ENDBRANCH   6   7
ENDBRANCH   5   6
ENDBRANCH   4   5
ENDBRANCH   3   4
ENDBRANCH   2   3
ENDBRANCH   1   2
BRANCH   1  12
ATOM     12  C   UNL     1     105.824  20.714 195.769  1.00  0.00     0.000 C 
BRANCH  12  13
ATOM     13  C   UNL     1     106.456  20.768 194.374  1.00  0.00    -0.000 C 
BRANCH  13  14
ATOM     14  C   UNL     1     105.733  21.790 193.482  1.00  0.00    -0.000 C 
BRANCH  14  15
ATOM     15  C   UNL     1     104.320  22.127 193.988  1.00  0.00    -0.000 C 
BRANCH  15  16
ATOM     16  C   UNL     1     104.110  23.638 194.190  1.00  0.00    -0.000 C 
BRANCH  16  17
ATOM     17  C   UNL     1     105.094  24.238 195.208  1.00  0.00    -0.000 C 
BRANCH  17  18
ATOM     18  C   UNL     1     104.473  25.378 196.030  1.00  0.00    -0.003 C 
ATOM     19  C   UNL     1     105.514  26.029 196.938  1.00  0.00     0.004 C 
ENDBRANCH  17  18
ENDBRANCH  16  17
ENDBRANCH  15  16
ENDBRANCH  14  15
ENDBRANCH  13  14
ENDBRANCH  12  13
ENDBRANCH   1  12
TORSDOF 14
ENDMDL
MODEL 6
REMARK VINA RESULT:    -5.361      2.057      4.305
REMARK INTER + INTRA:         -11.867
REMARK INTER:                  -9.378
REMARK INTRA:                  -2.488
REMARK UNBOUND:                -2.118
REMARK SMILES CCCCCCCCCCCCCC[C@@H](C)C(=O)[O-]
REMARK SMILES IDX 9 1 10 2 11 3 12 4 13 5 14 6 15 7 16 8 17 9 18 10 19 11 8 12
REMARK SMILES IDX 7 13 6 14 5 15 4 16 3 17 2 18 1 19
REMARK H PARENT
REMARK Flexibility Score: inf
ROOT
ATOM      1  C   UNL     1     101.809  22.039 194.339  1.00  0.00     0.000 C 
ENDROOT
BRANCH   1   2
ATOM      2  C   UNL     1     103.150  22.789 194.244  1.00  0.00     0.000 C 
BRANCH   2   3
ATOM      3  C   UNL     1     103.987  22.465 192.991  1.00  0.00     0.000 C 
BRANCH   3   4
ATOM      4  C   UNL     1     105.301  21.703 193.258  1.00  0.00     0.000 C 
BRANCH   4   5
ATOM      5  C   UNL     1     105.913  21.923 194.655  1.00  0.00     0.001 C 
BRANCH   5   6
ATOM      6  C   UNL     1     106.439  20.622 195.288  1.00  0.00     0.009 C 
BRANCH   6   7
ATOM      7  C   UNL     1     107.042  20.846 196.692  1.00  0.00     0.032 C 
ATOM      8  C   UNL     1     106.826  22.278 197.199  1.00  0.00     0.014 C 
BRANCH   7   9
ATOM      9  C   UNL     1     106.434  19.874 197.667  1.00  0.00     0.044 C 
ATOM     10  O   UNL     1     105.573  19.042 197.277  1.00  0.00    -0.550 OA
ATOM     11  O   UNL     1     106.816  19.888 199.003  1.00  0.00    -0.550 OA
ENDBRANCH   7   9
ENDBRANCH   6   7
ENDBRANCH   5   6
ENDBRANCH   4   5
ENDBRANCH   3   4
ENDBRANCH   2   3
ENDBRANCH   1   2
BRANCH   1  12
ATOM     12  C   UNL     1     101.623  21.317 195.681  1.00  0.00     0.000 C 
BRANCH  12  13
ATOM     13  C   UNL     1     102.936  21.279 196.471  1.00  0.00    -0.000 C 
BRANCH  13  14
ATOM     14  C   UNL     1     102.699  21.625 197.949  1.00  0.00    -0.000 C 
BRANCH  14  15
ATOM     15  C   UNL     1     103.329  22.969 198.353  1.00  0.00    -0.000 C 
BRANCH  15  16
ATOM     16  C   UNL     1     102.376  24.157 198.133  1.00  0.00    -0.000 C 
BRANCH  16  17
ATOM     17  C   UNL     1     102.940  25.188 197.143  1.00  0.00    -0.000 C 
BRANCH  17  18
ATOM     18  C   UNL     1     104.394  24.894 196.745  1.00  0.00    -0.003 C 
ATOM     19  C   UNL     1     105.334  25.985 197.254  1.00  0.00     0.004 C 
ENDBRANCH  17  18
ENDBRANCH  16  17
ENDBRANCH  15  16
ENDBRANCH  14  15
ENDBRANCH  13  14
ENDBRANCH  12  13
ENDBRANCH   1  12
TORSDOF 14
ENDMDL
MODEL 7
REMARK VINA RESULT:    -5.339      1.801      3.319
REMARK INTER + INTRA:         -11.827
REMARK INTER:                  -9.382
REMARK INTRA:                  -2.445
REMARK UNBOUND:                -2.118
REMARK SMILES CCCCCCCCCCCCCC[C@@H](C)C(=O)[O-]
REMARK SMILES IDX 9 1 10 2 11 3 12 4 13 5 14 6 15 7 16 8 17 9 18 10 19 11 8 12
REMARK SMILES IDX 7 13 6 14 5 15 4 16 3 17 2 18 1 19
REMARK H PARENT
REMARK Flexibility Score: inf
ROOT
ATOM      1  C   UNL     1     103.746  23.245 200.369  1.00  0.00     0.000 C 
ENDROOT
BRANCH   1   2
ATOM      2  C   UNL     1     104.572  23.004 199.092  1.00  0.00     0.000 C 
BRANCH   2   3
ATOM      3  C   UNL     1     105.259  24.259 198.517  1.00  0.00     0.000 C 
BRANCH   3   4
ATOM      4  C   UNL     1     104.634  24.814 197.222  1.00  0.00     0.000 C 
BRANCH   4   5
ATOM      5  C   UNL     1     105.564  24.816 195.994  1.00  0.00     0.001 C 
BRANCH   5   6
ATOM      6  C   UNL     1     104.853  24.368 194.705  1.00  0.00     0.009 C 
BRANCH   6   7
ATOM      7  C   UNL     1     104.302  22.928 194.799  1.00  0.00     0.032 C 
ATOM      8  C   UNL     1     103.369  22.582 193.631  1.00  0.00     0.014 C 
BRANCH   7   9
ATOM      9  C   UNL     1     105.444  21.949 194.833  1.00  0.00     0.044 C 
ATOM     10  O   UNL     1     106.042  21.638 193.769  1.00  0.00    -0.550 OA
ATOM     11  O   UNL     1     105.846  21.382 196.036  1.00  0.00    -0.550 OA
ENDBRANCH   7   9
ENDBRANCH   6   7
ENDBRANCH   5   6
ENDBRANCH   4   5
ENDBRANCH   3   4
ENDBRANCH   2   3
ENDBRANCH   1   2
BRANCH   1  12
ATOM     12  C   UNL     1     102.337  22.639 200.290  1.00  0.00     0.000 C 
BRANCH  12  13
ATOM     13  C   UNL     1     101.308  23.695 199.868  1.00  0.00    -0.000 C 
BRANCH  13  14
ATOM     14  C   UNL     1     100.490  23.212 198.660  1.00  0.00    -0.000 C 
BRANCH  14  15
ATOM     15  C   UNL     1     101.313  23.175 197.361  1.00  0.00    -0.000 C 
BRANCH  15  16
ATOM     16  C   UNL     1     100.806  22.111 196.371  1.00  0.00    -0.000 C 
BRANCH  16  17
ATOM     17  C   UNL     1     101.139  20.680 196.823  1.00  0.00    -0.000 C 
BRANCH  17  18
ATOM     18  C   UNL     1     102.629  20.494 197.151  1.00  0.00    -0.003 C 
ATOM     19  C   UNL     1     102.918  19.061 197.593  1.00  0.00     0.004 C 
ENDBRANCH  17  18
ENDBRANCH  16  17
ENDBRANCH  15  16
ENDBRANCH  14  15
ENDBRANCH  13  14
ENDBRANCH  12  13
ENDBRANCH   1  12
TORSDOF 14
ENDMDL
MODEL 8
REMARK VINA RESULT:    -5.334      1.712      5.006
REMARK INTER + INTRA:         -11.819
REMARK INTER:                  -9.322
REMARK INTRA:                  -2.497
REMARK UNBOUND:                -2.118
REMARK SMILES CCCCCCCCCCCCCC[C@@H](C)C(=O)[O-]
REMARK SMILES IDX 9 1 10 2 11 3 12 4 13 5 14 6 15 7 16 8 17 9 18 10 19 11 8 12
REMARK SMILES IDX 7 13 6 14 5 15 4 16 3 17 2 18 1 19
REMARK H PARENT
REMARK Flexibility Score: inf
ROOT
ATOM      1  C   UNL     1     105.392  23.464 194.874  1.00  0.00     0.000 C 
ENDROOT
BRANCH   1   2
ATOM      2  C   UNL     1     104.619  24.784 195.048  1.00  0.00     0.000 C 
BRANCH   2   3
ATOM      3  C   UNL     1     104.147  25.076 196.486  1.00  0.00     0.000 C 
BRANCH   3   4
ATOM      4  C   UNL     1     105.118  24.630 197.599  1.00  0.00     0.000 C 
BRANCH   4   5
ATOM      5  C   UNL     1     104.523  23.659 198.636  1.00  0.00     0.001 C 
BRANCH   5   6
ATOM      6  C   UNL     1     104.742  22.181 198.264  1.00  0.00     0.009 C 
BRANCH   6   7
ATOM      7  C   UNL     1     106.235  21.824 198.101  1.00  0.00     0.032 C 
ATOM      8  C   UNL     1     106.987  21.832 199.439  1.00  0.00     0.014 C 
BRANCH   7   9
ATOM      9  C   UNL     1     106.366  20.467 197.464  1.00  0.00     0.044 C 
ATOM     10  O   UNL     1     106.747  20.363 196.268  1.00  0.00    -0.550 OA
ATOM     11  O   UNL     1     106.068  19.319 198.190  1.00  0.00    -0.550 OA
ENDBRANCH   7   9
ENDBRANCH   6   7
ENDBRANCH   5   6
ENDBRANCH   4   5
ENDBRANCH   3   4
ENDBRANCH   2   3
ENDBRANCH   1   2
BRANCH   1  12
ATOM     12  C   UNL     1     104.502  22.310 194.392  1.00  0.00     0.000 C 
BRANCH  12  13
ATOM     13  C   UNL     1     103.428  22.813 193.420  1.00  0.00    -0.000 C 
BRANCH  13  14
ATOM     14  C   UNL     1     102.026  22.384 193.879  1.00  0.00    -0.000 C 
BRANCH  14  15
ATOM     15  C   UNL     1     102.003  21.886 195.334  1.00  0.00    -0.000 C 
BRANCH  15  16
ATOM     16  C   UNL     1     101.144  22.776 196.249  1.00  0.00    -0.000 C 
BRANCH  16  17
ATOM     17  C   UNL     1     101.163  22.308 197.713  1.00  0.00    -0.000 C 
BRANCH  17  18
ATOM     18  C   UNL     1     100.256  23.155 198.618  1.00  0.00    -0.003 C 
ATOM     19  C   UNL     1     101.021  23.666 199.837  1.00  0.00     0.004 C 
ENDBRANCH  17  18
ENDBRANCH  16  17
ENDBRANCH  15  16
ENDBRANCH  14  15
ENDBRANCH  13  14
ENDBRANCH  12  13
ENDBRANCH   1  12
TORSDOF 14
ENDMDL
MODEL 9
REMARK VINA RESULT:    -5.300      3.060      5.176
REMARK INTER + INTRA:         -11.757
REMARK INTER:                  -9.610
REMARK INTRA:                  -2.147
REMARK UNBOUND:                -2.118
REMARK SMILES CCCCCCCCCCCCCC[C@@H](C)C(=O)[O-]
REMARK SMILES IDX 9 1 10 2 11 3 12 4 13 5 14 6 15 7 16 8 17 9 18 10 19 11 8 12
REMARK SMILES IDX 7 13 6 14 5 15 4 16 3 17 2 18 1 19
REMARK H PARENT
REMARK Flexibility Score: inf
ROOT
ATOM      1  C   UNL     1     104.296  23.251 194.325  1.00  0.00     0.000 C 
ENDROOT
BRANCH   1   2
ATOM      2  C   UNL     1     103.351  22.497 193.372  1.00  0.00     0.000 C 
BRANCH   2   3
ATOM      3  C   UNL     1     101.856  22.583 193.737  1.00  0.00     0.000 C 
BRANCH   3   4
ATOM      4  C   UNL     1     101.303  21.382 194.531  1.00  0.00     0.000 C 
BRANCH   4   5
ATOM      5  C   UNL     1     101.325  21.545 196.063  1.00  0.00     0.001 C 
BRANCH   5   6
ATOM      6  C   UNL     1     101.165  23.009 196.510  1.00  0.00     0.009 C 
BRANCH   6   7
ATOM      7  C   UNL     1     102.128  23.389 197.657  1.00  0.00     0.032 C 
ATOM      8  C   UNL     1     102.792  24.754 197.433  1.00  0.00     0.014 C 
BRANCH   7   9
ATOM      9  C   UNL     1     101.380  23.406 198.962  1.00  0.00     0.044 C 
ATOM     10  O   UNL     1     100.132  23.235 198.980  1.00  0.00    -0.550 OA
ATOM     11  O   UNL     1     102.059  23.611 200.157  1.00  0.00    -0.550 OA
ENDBRANCH   7   9
ENDBRANCH   6   7
ENDBRANCH   5   6
ENDBRANCH   4   5
ENDBRANCH   3   4
ENDBRANCH   2   3
ENDBRANCH   1   2
BRANCH   1  12
ATOM     12  C   UNL     1     104.951  22.331 195.366  1.00  0.00     0.000 C 
BRANCH  12  13
ATOM     13  C   UNL     1     106.059  21.483 194.731  1.00  0.00    -0.000 C 
BRANCH  13  14
ATOM     14  C   UNL     1     106.848  20.716 195.803  1.00  0.00    -0.000 C 
BRANCH  14  15
ATOM     15  C   UNL     1     105.943  20.118 196.892  1.00  0.00    -0.000 C 
BRANCH  15  16
ATOM     16  C   UNL     1     106.583  20.179 198.291  1.00  0.00    -0.000 C 
BRANCH  16  17
ATOM     17  C   UNL     1     106.878  21.620 198.740  1.00  0.00    -0.000 C 
BRANCH  17  18
ATOM     18  C   UNL     1     105.614  22.490 198.807  1.00  0.00    -0.003 C 
ATOM     19  C   UNL     1     105.585  23.318 200.090  1.00  0.00     0.004 C 
ENDBRANCH  17  18
ENDBRANCH  16  17
ENDBRANCH  15  16
ENDBRANCH  14  15
ENDBRANCH  13  14
ENDBRANCH  12  13
ENDBRANCH   1  12
TORSDOF 14
ENDMDL
