MODEL 1
REMARK VINA RESULT:    -5.470      0.000      0.000
REMARK INTER + INTRA:          -8.098
REMARK INTER:                  -6.909
REMARK INTRA:                  -1.189
REMARK UNBOUND:                -1.189
REMARK SMILES O=C(C=Cc1ccc(O)cc1)c1ccc(O)cc1O
REMARK SMILES IDX 4 1 3 2 5 3 6 4 7 5 8 6 11 7 10 8 9 9 2 11 1 12 12 13 18 14
REMARK SMILES IDX 13 15 17 16 14 17 15 18 19 19 16 21
REMARK H PARENT 9 10 19 20 16 22
REMARK Flexibility Score: inf
ROOT
ATOM      1  C   UNL     1      14.919  -6.625   7.792  1.00  0.00     0.012 C 
ATOM      2  C   UNL     1      15.239  -5.329   7.945  1.00  0.00     0.053 C 
ENDROOT
BRANCH   1   3
ATOM      3  C   UNL     1      15.824  -7.766   8.042  1.00  0.00    -0.025 A 
ATOM      4  C   UNL     1      16.091  -8.155   9.363  1.00  0.00     0.012 A 
ATOM      5  C   UNL     1      16.906  -9.262   9.622  1.00  0.00     0.047 A 
ATOM      6  C   UNL     1      17.444 -10.003   8.561  1.00  0.00     0.115 A 
ATOM      7  C   UNL     1      16.341  -8.532   6.982  1.00  0.00     0.012 A 
ATOM      8  C   UNL     1      17.155  -9.638   7.243  1.00  0.00     0.047 A 
BRANCH   6   9
ATOM      9  O   UNL     1      18.258 -11.106   8.807  1.00  0.00    -0.508 OA
ATOM     10  H   UNL     1      18.198 -11.626   9.675  1.00  0.00     0.293 HD
ENDBRANCH   6   9
ENDBRANCH   1   3
BRANCH   2  11
ATOM     11  C   UNL     1      16.489  -4.824   8.566  1.00  0.00     0.189 C 
ATOM     12  O   UNL     1      16.440  -4.157   9.634  1.00  0.00    -0.289 OA
BRANCH  11  13
ATOM     13  C   UNL     1      17.809  -5.062   7.931  1.00  0.00     0.064 A 
ATOM     14  C   UNL     1      18.872  -5.613   8.677  1.00  0.00     0.130 A 
ATOM     15  C   UNL     1      18.026  -4.721   6.582  1.00  0.00     0.020 A 
ATOM     16  C   UNL     1      20.120  -5.820   8.073  1.00  0.00     0.093 A 
ATOM     17  C   UNL     1      19.273  -4.934   5.988  1.00  0.00     0.047 A 
ATOM     18  C   UNL     1      20.323  -5.484   6.732  1.00  0.00     0.119 A 
BRANCH  14  19
ATOM     19  O   UNL     1      18.683  -5.968  10.014  1.00  0.00    -0.507 OA
ATOM     20  H   UNL     1      19.155  -6.766  10.423  1.00  0.00     0.293 HD
ENDBRANCH  14  19
BRANCH  18  21
ATOM     21  O   UNL     1      21.569  -5.700   6.148  1.00  0.00    -0.508 OA
ATOM     22  H   UNL     1      22.275  -6.267   6.603  1.00  0.00     0.293 HD
ENDBRANCH  18  21
ENDBRANCH  11  13
ENDBRANCH   2  11
TORSDOF 6
ENDMDL
MODEL 2
REMARK VINA RESULT:    -5.308      2.343      5.097
REMARK INTER + INTRA:          -7.894
REMARK INTER:                  -6.812
REMARK INTRA:                  -1.082
REMARK UNBOUND:                -1.189
REMARK SMILES O=C(C=Cc1ccc(O)cc1)c1ccc(O)cc1O
REMARK SMILES IDX 4 1 3 2 5 3 6 4 7 5 8 6 11 7 10 8 9 9 2 11 1 12 12 13 18 14
REMARK SMILES IDX 13 15 17 16 14 17 15 18 19 19 16 21
REMARK H PARENT 9 10 19 20 16 22
REMARK Flexibility Score: inf
ROOT
ATOM      1  C   UNL     1      15.130  -6.156   6.298  1.00  0.00     0.012 C 
ATOM      2  C   UNL     1      14.610  -7.394   6.337  1.00  0.00     0.053 C 
ENDROOT
BRANCH   1   3
ATOM      3  C   UNL     1      15.701  -5.430   7.451  1.00  0.00    -0.025 A 
ATOM      4  C   UNL     1      17.020  -5.697   7.847  1.00  0.00     0.012 A 
ATOM      5  C   UNL     1      17.596  -4.987   8.905  1.00  0.00     0.047 A 
ATOM      6  C   UNL     1      16.866  -3.989   9.565  1.00  0.00     0.115 A 
ATOM      7  C   UNL     1      14.983  -4.406   8.096  1.00  0.00     0.012 A 
ATOM      8  C   UNL     1      15.561  -3.699   9.154  1.00  0.00     0.047 A 
BRANCH   6   9
ATOM      9  O   UNL     1      17.429  -3.277  10.621  1.00  0.00    -0.508 OA
ATOM     10  H   UNL     1      17.557  -3.699  11.534  1.00  0.00     0.293 HD
ENDBRANCH   6   9
ENDBRANCH   1   3
BRANCH   2  11
ATOM     11  C   UNL     1      14.686  -8.318   7.496  1.00  0.00     0.189 C 
ATOM     12  O   UNL     1      13.808  -8.272   8.399  1.00  0.00    -0.289 OA
BRANCH  11  13
ATOM     13  C   UNL     1      15.805  -9.281   7.634  1.00  0.00     0.064 A 
ATOM     14  C   UNL     1      16.543  -9.351   8.835  1.00  0.00     0.130 A 
ATOM     15  C   UNL     1      16.160 -10.124   6.564  1.00  0.00     0.020 A 
ATOM     16  C   UNL     1      17.609 -10.254   8.951  1.00  0.00     0.093 A 
ATOM     17  C   UNL     1      17.223 -11.022   6.691  1.00  0.00     0.047 A 
ATOM     18  C   UNL     1      17.949 -11.091   7.885  1.00  0.00     0.119 A 
BRANCH  14  19
ATOM     19  O   UNL     1      16.208  -8.534   9.916  1.00  0.00    -0.507 OA
ATOM     20  H   UNL     1      16.919  -8.109  10.501  1.00  0.00     0.293 HD
ENDBRANCH  14  19
BRANCH  18  21
ATOM     21  O   UNL     1      19.010 -11.983   8.021  1.00  0.00    -0.508 OA
ATOM     22  H   UNL     1      18.927 -12.823   8.581  1.00  0.00     0.293 HD
ENDBRANCH  18  21
ENDBRANCH  11  13
ENDBRANCH   2  11
TORSDOF 6
ENDMDL
MODEL 3
REMARK VINA RESULT:    -5.192      2.035      3.823
REMARK INTER + INTRA:          -7.747
REMARK INTER:                  -6.729
REMARK INTRA:                  -1.018
REMARK UNBOUND:                -1.189
REMARK SMILES O=C(C=Cc1ccc(O)cc1)c1ccc(O)cc1O
REMARK SMILES IDX 4 1 3 2 5 3 6 4 7 5 8 6 11 7 10 8 9 9 2 11 1 12 12 13 18 14
REMARK SMILES IDX 13 15 17 16 14 17 15 18 19 19 16 21
REMARK H PARENT 9 10 19 20 16 22
REMARK Flexibility Score: inf
ROOT
ATOM      1  C   UNL     1      17.942  -7.841   9.755  1.00  0.00     0.012 C 
ATOM      2  C   UNL     1      18.537  -6.644   9.620  1.00  0.00     0.053 C 
ENDROOT
BRANCH   1   3
ATOM      3  C   UNL     1      16.869  -8.366   8.884  1.00  0.00    -0.025 A 
ATOM      4  C   UNL     1      15.531  -8.229   9.282  1.00  0.00     0.012 A 
ATOM      5  C   UNL     1      14.498  -8.676   8.453  1.00  0.00     0.047 A 
ATOM      6  C   UNL     1      14.793  -9.247   7.207  1.00  0.00     0.115 A 
ATOM      7  C   UNL     1      17.158  -8.912   7.621  1.00  0.00     0.012 A 
ATOM      8  C   UNL     1      16.124  -9.359   6.793  1.00  0.00     0.047 A 
BRANCH   6   9
ATOM      9  O   UNL     1      13.773  -9.698   6.372  1.00  0.00    -0.508 OA
ATOM     10  H   UNL     1      13.484  -9.170   5.557  1.00  0.00     0.293 HD
ENDBRANCH   6   9
ENDBRANCH   1   3
BRANCH   2  11
ATOM     11  C   UNL     1      18.357  -5.723   8.471  1.00  0.00     0.189 C 
ATOM     12  O   UNL     1      19.312  -5.505   7.678  1.00  0.00    -0.289 OA
BRANCH  11  13
ATOM     13  C   UNL     1      17.070  -5.018   8.251  1.00  0.00     0.064 A 
ATOM     14  C   UNL     1      16.614  -4.059   9.180  1.00  0.00     0.130 A 
ATOM     15  C   UNL     1      16.277  -5.310   7.126  1.00  0.00     0.020 A 
ATOM     16  C   UNL     1      15.389  -3.408   8.972  1.00  0.00     0.093 A 
ATOM     17  C   UNL     1      15.059  -4.654   6.926  1.00  0.00     0.047 A 
ATOM     18  C   UNL     1      14.613  -3.700   7.848  1.00  0.00     0.119 A 
BRANCH  14  19
ATOM     19  O   UNL     1      17.384  -3.743  10.301  1.00  0.00    -0.507 OA
ATOM     20  H   UNL     1      18.397  -3.755  10.271  1.00  0.00     0.293 HD
ENDBRANCH  14  19
BRANCH  18  21
ATOM     21  O   UNL     1      13.400  -3.042   7.658  1.00  0.00    -0.508 OA
ATOM     22  H   UNL     1      13.297  -2.055   7.862  1.00  0.00     0.293 HD
ENDBRANCH  18  21
ENDBRANCH  11  13
ENDBRANCH   2  11
TORSDOF 6
ENDMDL
MODEL 4
REMARK VINA RESULT:    -5.155      2.196      3.975
REMARK INTER + INTRA:          -7.701
REMARK INTER:                  -6.421
REMARK INTRA:                  -1.280
REMARK UNBOUND:                -1.189
REMARK SMILES O=C(C=Cc1ccc(O)cc1)c1ccc(O)cc1O
REMARK SMILES IDX 4 1 3 2 5 3 6 4 7 5 8 6 11 7 10 8 9 9 2 11 1 12 12 13 18 14
REMARK SMILES IDX 13 15 17 16 14 17 15 18 19 19 16 21
REMARK H PARENT 9 10 19 20 16 22
REMARK Flexibility Score: inf
ROOT
ATOM      1  C   UNL     1      18.091  -7.718   9.690  1.00  0.00     0.012 C 
ATOM      2  C   UNL     1      18.706  -6.533   9.545  1.00  0.00     0.053 C 
ENDROOT
BRANCH   1   3
ATOM      3  C   UNL     1      16.989  -8.221   8.844  1.00  0.00    -0.025 A 
ATOM      4  C   UNL     1      15.670  -8.139   9.313  1.00  0.00     0.012 A 
ATOM      5  C   UNL     1      14.607  -8.565   8.510  1.00  0.00     0.047 A 
ATOM      6  C   UNL     1      14.852  -9.057   7.221  1.00  0.00     0.115 A 
ATOM      7  C   UNL     1      17.226  -8.686   7.538  1.00  0.00     0.012 A 
ATOM      8  C   UNL     1      16.162  -9.112   6.737  1.00  0.00     0.047 A 
BRANCH   6   9
ATOM      9  O   UNL     1      13.801  -9.486   6.413  1.00  0.00    -0.508 OA
ATOM     10  H   UNL     1      12.988  -8.902   6.248  1.00  0.00     0.293 HD
ENDBRANCH   6   9
ENDBRANCH   1   3
BRANCH   2  11
ATOM     11  C   UNL     1      18.514  -5.604   8.403  1.00  0.00     0.189 C 
ATOM     12  O   UNL     1      19.467  -5.367   7.613  1.00  0.00    -0.289 OA
BRANCH  11  13
ATOM     13  C   UNL     1      17.220  -4.912   8.189  1.00  0.00     0.064 A 
ATOM     14  C   UNL     1      16.589  -4.952   6.928  1.00  0.00     0.130 A 
ATOM     15  C   UNL     1      16.614  -4.188   9.233  1.00  0.00     0.020 A 
ATOM     16  C   UNL     1      15.373  -4.282   6.731  1.00  0.00     0.093 A 
ATOM     17  C   UNL     1      15.401  -3.526   9.027  1.00  0.00     0.047 A 
ATOM     18  C   UNL     1      14.776  -3.572   7.776  1.00  0.00     0.119 A 
BRANCH  14  19
ATOM     19  O   UNL     1      17.162  -5.668   5.876  1.00  0.00    -0.507 OA
ATOM     20  H   UNL     1      17.288  -5.256   4.959  1.00  0.00     0.293 HD
ENDBRANCH  14  19
BRANCH  18  21
ATOM     21  O   UNL     1      13.567  -2.915   7.561  1.00  0.00    -0.508 OA
ATOM     22  H   UNL     1      13.389  -1.994   7.945  1.00  0.00     0.293 HD
ENDBRANCH  18  21
ENDBRANCH  11  13
ENDBRANCH   2  11
TORSDOF 6
ENDMDL
MODEL 5
REMARK VINA RESULT:    -5.137      2.100      3.297
REMARK INTER + INTRA:          -7.678
REMARK INTER:                  -6.632
REMARK INTRA:                  -1.046
REMARK UNBOUND:                -1.189
REMARK SMILES O=C(C=Cc1ccc(O)cc1)c1ccc(O)cc1O
REMARK SMILES IDX 4 1 3 2 5 3 6 4 7 5 8 6 11 7 10 8 9 9 2 11 1 12 12 13 18 14
REMARK SMILES IDX 13 15 17 16 14 17 15 18 19 19 16 21
REMARK H PARENT 9 10 19 20 16 22
REMARK Flexibility Score: inf
ROOT
ATOM      1  C   UNL     1      13.935  -8.385   7.966  1.00  0.00     0.012 C 
ATOM      2  C   UNL     1      13.884  -7.169   7.399  1.00  0.00     0.053 C 
ENDROOT
BRANCH   1   3
ATOM      3  C   UNL     1      15.151  -9.212   8.115  1.00  0.00    -0.025 A 
ATOM      4  C   UNL     1      15.483 -10.133   7.112  1.00  0.00     0.012 A 
ATOM      5  C   UNL     1      16.654 -10.891   7.209  1.00  0.00     0.047 A 
ATOM      6  C   UNL     1      17.515 -10.720   8.302  1.00  0.00     0.115 A 
ATOM      7  C   UNL     1      16.033  -9.021   9.194  1.00  0.00     0.012 A 
ATOM      8  C   UNL     1      17.203  -9.780   9.290  1.00  0.00     0.047 A 
BRANCH   6   9
ATOM      9  O   UNL     1      18.684 -11.470   8.411  1.00  0.00    -0.508 OA
ATOM     10  H   UNL     1      19.543 -11.181   7.957  1.00  0.00     0.293 HD
ENDBRANCH   6   9
ENDBRANCH   1   3
BRANCH   2  11
ATOM     11  C   UNL     1      15.064  -6.364   6.994  1.00  0.00     0.189 C 
ATOM     12  O   UNL     1      15.610  -6.562   5.875  1.00  0.00    -0.289 OA
BRANCH  11  13
ATOM     13  C   UNL     1      15.643  -5.344   7.902  1.00  0.00     0.064 A 
ATOM     14  C   UNL     1      16.972  -5.468   8.359  1.00  0.00     0.130 A 
ATOM     15  C   UNL     1      14.870  -4.252   8.337  1.00  0.00     0.020 A 
ATOM     16  C   UNL     1      17.506  -4.507   9.230  1.00  0.00     0.093 A 
ATOM     17  C   UNL     1      15.412  -3.298   9.202  1.00  0.00     0.047 A 
ATOM     18  C   UNL     1      16.732  -3.422   9.650  1.00  0.00     0.119 A 
BRANCH  14  19
ATOM     19  O   UNL     1      17.765  -6.537   7.939  1.00  0.00    -0.507 OA
ATOM     20  H   UNL     1      18.242  -6.524   7.044  1.00  0.00     0.293 HD
ENDBRANCH  14  19
BRANCH  18  21
ATOM     21  O   UNL     1      17.281  -2.477  10.513  1.00  0.00    -0.508 OA
ATOM     22  H   UNL     1      18.117  -2.674  11.051  1.00  0.00     0.293 HD
ENDBRANCH  18  21
ENDBRANCH  11  13
ENDBRANCH   2  11
TORSDOF 6
ENDMDL
MODEL 6
REMARK VINA RESULT:    -5.079      2.046      3.612
REMARK INTER + INTRA:          -7.605
REMARK INTER:                  -6.847
REMARK INTRA:                  -0.758
REMARK UNBOUND:                -1.189
REMARK SMILES O=C(C=Cc1ccc(O)cc1)c1ccc(O)cc1O
REMARK SMILES IDX 4 1 3 2 5 3 6 4 7 5 8 6 11 7 10 8 9 9 2 11 1 12 12 13 18 14
REMARK SMILES IDX 13 15 17 16 14 17 15 18 19 19 16 21
REMARK H PARENT 9 10 19 20 16 22
REMARK Flexibility Score: inf
ROOT
ATOM      1  C   UNL     1      15.618  -8.385   6.544  1.00  0.00     0.012 C 
ATOM      2  C   UNL     1      15.859  -7.246   5.875  1.00  0.00     0.053 C 
ENDROOT
BRANCH   1   3
ATOM      3  C   UNL     1      16.334  -8.834   7.757  1.00  0.00    -0.025 A 
ATOM      4  C   UNL     1      17.115  -9.998   7.703  1.00  0.00     0.012 A 
ATOM      5  C   UNL     1      17.838 -10.416   8.824  1.00  0.00     0.047 A 
ATOM      6  C   UNL     1      17.804  -9.661  10.005  1.00  0.00     0.115 A 
ATOM      7  C   UNL     1      16.328  -8.064   8.934  1.00  0.00     0.012 A 
ATOM      8  C   UNL     1      17.051  -8.484  10.054  1.00  0.00     0.047 A 
BRANCH   6   9
ATOM      9  O   UNL     1      18.519 -10.068  11.129  1.00  0.00    -0.508 OA
ATOM     10  H   UNL     1      19.528  -9.976  11.176  1.00  0.00     0.293 HD
ENDBRANCH   6   9
ENDBRANCH   1   3
BRANCH   2  11
ATOM     11  C   UNL     1      16.753  -6.155   6.337  1.00  0.00     0.189 C 
ATOM     12  O   UNL     1      17.958  -6.126   5.971  1.00  0.00    -0.289 OA
BRANCH  11  13
ATOM     13  C   UNL     1      16.261  -5.103   7.261  1.00  0.00     0.064 A 
ATOM     14  C   UNL     1      17.067  -4.656   8.329  1.00  0.00     0.130 A 
ATOM     15  C   UNL     1      14.976  -4.552   7.099  1.00  0.00     0.020 A 
ATOM     16  C   UNL     1      16.588  -3.672   9.206  1.00  0.00     0.093 A 
ATOM     17  C   UNL     1      14.508  -3.571   7.976  1.00  0.00     0.047 A 
ATOM     18  C   UNL     1      15.313  -3.127   9.031  1.00  0.00     0.119 A 
BRANCH  14  19
ATOM     19  O   UNL     1      18.349  -5.179   8.509  1.00  0.00    -0.507 OA
ATOM     20  H   UNL     1      18.532  -5.918   9.178  1.00  0.00     0.293 HD
ENDBRANCH  14  19
BRANCH  18  21
ATOM     21  O   UNL     1      14.856  -2.150   9.912  1.00  0.00    -0.508 OA
ATOM     22  H   UNL     1      14.946  -1.163   9.700  1.00  0.00     0.293 HD
ENDBRANCH  18  21
ENDBRANCH  11  13
ENDBRANCH   2  11
TORSDOF 6
ENDMDL
MODEL 7
REMARK VINA RESULT:    -5.072      2.483      5.492
REMARK INTER + INTRA:          -7.595
REMARK INTER:                  -6.310
REMARK INTRA:                  -1.285
REMARK UNBOUND:                -1.189
REMARK SMILES O=C(C=Cc1ccc(O)cc1)c1ccc(O)cc1O
REMARK SMILES IDX 4 1 3 2 5 3 6 4 7 5 8 6 11 7 10 8 9 9 2 11 1 12 12 13 18 14
REMARK SMILES IDX 13 15 17 16 14 17 15 18 19 19 16 21
REMARK H PARENT 9 10 19 20 16 22
REMARK Flexibility Score: inf
ROOT
ATOM      1  C   UNL     1      14.504  -8.505   9.163  1.00  0.00     0.012 C 
ATOM      2  C   UNL     1      14.025  -9.297   8.189  1.00  0.00     0.053 C 
ENDROOT
BRANCH   1   3
ATOM      3  C   UNL     1      15.869  -7.941   9.215  1.00  0.00    -0.025 A 
ATOM      4  C   UNL     1      16.097  -6.646   8.726  1.00  0.00     0.012 A 
ATOM      5  C   UNL     1      17.370  -6.075   8.808  1.00  0.00     0.047 A 
ATOM      6  C   UNL     1      18.424  -6.785   9.400  1.00  0.00     0.115 A 
ATOM      7  C   UNL     1      16.922  -8.637   9.835  1.00  0.00     0.012 A 
ATOM      8  C   UNL     1      18.194  -8.064   9.916  1.00  0.00     0.047 A 
BRANCH   6   9
ATOM      9  O   UNL     1      19.697  -6.226   9.486  1.00  0.00    -0.508 OA
ATOM     10  H   UNL     1      20.511  -6.794   9.693  1.00  0.00     0.293 HD
ENDBRANCH   6   9
ENDBRANCH   1   3
BRANCH   2  11
ATOM     11  C   UNL     1      14.715  -9.592   6.909  1.00  0.00     0.189 C 
ATOM     12  O   UNL     1      14.443  -8.923   5.876  1.00  0.00    -0.289 OA
BRANCH  11  13
ATOM     13  C   UNL     1      15.705 -10.692   6.809  1.00  0.00     0.064 A 
ATOM     14  C   UNL     1      17.034 -10.423   6.419  1.00  0.00     0.130 A 
ATOM     15  C   UNL     1      15.328 -12.021   7.080  1.00  0.00     0.020 A 
ATOM     16  C   UNL     1      17.959 -11.472   6.313  1.00  0.00     0.093 A 
ATOM     17  C   UNL     1      16.258 -13.058   6.974  1.00  0.00     0.047 A 
ATOM     18  C   UNL     1      17.576 -12.786   6.591  1.00  0.00     0.119 A 
BRANCH  14  19
ATOM     19  O   UNL     1      17.439  -9.115   6.152  1.00  0.00    -0.507 OA
ATOM     20  H   UNL     1      16.852  -8.320   6.381  1.00  0.00     0.293 HD
ENDBRANCH  14  19
BRANCH  18  21
ATOM     21  O   UNL     1      18.510 -13.814   6.482  1.00  0.00    -0.508 OA
ATOM     22  H   UNL     1      18.778 -14.373   7.284  1.00  0.00     0.293 HD
ENDBRANCH  18  21
ENDBRANCH  11  13
ENDBRANCH   2  11
TORSDOF 6
ENDMDL
MODEL 8
REMARK VINA RESULT:    -5.027      2.232      5.106
REMARK INTER + INTRA:          -7.539
REMARK INTER:                  -6.670
REMARK INTRA:                  -0.868
REMARK UNBOUND:                -1.189
REMARK SMILES O=C(C=Cc1ccc(O)cc1)c1ccc(O)cc1O
REMARK SMILES IDX 4 1 3 2 5 3 6 4 7 5 8 6 11 7 10 8 9 9 2 11 1 12 12 13 18 14
REMARK SMILES IDX 13 15 17 16 14 17 15 18 19 19 16 21
REMARK H PARENT 9 10 19 20 16 22
REMARK Flexibility Score: inf
ROOT
ATOM      1  C   UNL     1      15.450  -6.353   5.922  1.00  0.00     0.012 C 
ATOM      2  C   UNL     1      14.764  -7.502   6.039  1.00  0.00     0.053 C 
ENDROOT
BRANCH   1   3
ATOM      3  C   UNL     1      15.932  -5.524   7.047  1.00  0.00    -0.025 A 
ATOM      4  C   UNL     1      15.010  -4.774   7.792  1.00  0.00     0.012 A 
ATOM      5  C   UNL     1      15.436  -4.020   8.890  1.00  0.00     0.047 A 
ATOM      6  C   UNL     1      16.787  -4.025   9.265  1.00  0.00     0.115 A 
ATOM      7  C   UNL     1      17.280  -5.549   7.446  1.00  0.00     0.012 A 
ATOM      8  C   UNL     1      17.704  -4.794   8.543  1.00  0.00     0.047 A 
BRANCH   6   9
ATOM      9  O   UNL     1      17.224  -3.276  10.356  1.00  0.00    -0.508 OA
ATOM     10  H   UNL     1      16.569  -2.839  10.994  1.00  0.00     0.293 HD
ENDBRANCH   6   9
ENDBRANCH   1   3
BRANCH   2  11
ATOM     11  C   UNL     1      14.532  -8.233   7.310  1.00  0.00     0.189 C 
ATOM     12  O   UNL     1      13.357  -8.422   7.725  1.00  0.00    -0.289 OA
BRANCH  11  13
ATOM     13  C   UNL     1      15.667  -8.723   8.129  1.00  0.00     0.064 A 
ATOM     14  C   UNL     1      16.398  -9.862   7.728  1.00  0.00     0.130 A 
ATOM     15  C   UNL     1      16.017  -8.074   9.328  1.00  0.00     0.020 A 
ATOM     16  C   UNL     1      17.460 -10.327   8.517  1.00  0.00     0.093 A 
ATOM     17  C   UNL     1      17.079  -8.544  10.105  1.00  0.00     0.047 A 
ATOM     18  C   UNL     1      17.804  -9.671   9.701  1.00  0.00     0.119 A 
BRANCH  14  19
ATOM     19  O   UNL     1      16.078 -10.521   6.540  1.00  0.00    -0.507 OA
ATOM     20  H   UNL     1      15.300 -10.227   5.962  1.00  0.00     0.293 HD
ENDBRANCH  14  19
BRANCH  18  21
ATOM     21  O   UNL     1      18.864 -10.147  10.470  1.00  0.00    -0.508 OA
ATOM     22  H   UNL     1      19.762  -9.678  10.480  1.00  0.00     0.293 HD
ENDBRANCH  18  21
ENDBRANCH  11  13
ENDBRANCH   2  11
TORSDOF 6
ENDMDL
MODEL 9
REMARK VINA RESULT:    -4.862      2.235      3.464
REMARK INTER + INTRA:          -7.330
REMARK INTER:                  -5.999
REMARK INTRA:                  -1.331
REMARK UNBOUND:                -1.189
REMARK SMILES O=C(C=Cc1ccc(O)cc1)c1ccc(O)cc1O
REMARK SMILES IDX 4 1 3 2 5 3 6 4 7 5 8 6 11 7 10 8 9 9 2 11 1 12 12 13 18 14
REMARK SMILES IDX 13 15 17 16 14 17 15 18 19 19 16 21
REMARK H PARENT 9 10 19 20 16 22
REMARK Flexibility Score: inf
ROOT
ATOM      1  C   UNL     1      14.755  -9.013   6.045  1.00  0.00     0.012 C 
ATOM      2  C   UNL     1      14.507  -8.053   6.952  1.00  0.00     0.053 C 
ENDROOT
BRANCH   1   3
ATOM      3  C   UNL     1      15.651 -10.171   6.247  1.00  0.00    -0.025 A 
ATOM      4  C   UNL     1      17.029 -10.019   6.037  1.00  0.00     0.012 A 
ATOM      5  C   UNL     1      17.901 -11.088   6.267  1.00  0.00     0.047 A 
ATOM      6  C   UNL     1      17.404 -12.314   6.730  1.00  0.00     0.115 A 
ATOM      7  C   UNL     1      15.161 -11.393   6.741  1.00  0.00     0.012 A 
ATOM      8  C   UNL     1      16.034 -12.461   6.970  1.00  0.00     0.047 A 
BRANCH   6   9
ATOM      9  O   UNL     1      18.262 -13.386   6.962  1.00  0.00    -0.508 OA
ATOM     10  H   UNL     1      17.984 -14.340   6.758  1.00  0.00     0.293 HD
ENDBRANCH   6   9
ENDBRANCH   1   3
BRANCH   2  11
ATOM     11  C   UNL     1      14.938  -8.085   8.372  1.00  0.00     0.189 C 
ATOM     12  O   UNL     1      14.176  -8.563   9.254  1.00  0.00    -0.289 OA
BRANCH  11  13
ATOM     13  C   UNL     1      16.250  -7.529   8.784  1.00  0.00     0.064 A 
ATOM     14  C   UNL     1      17.215  -8.355   9.399  1.00  0.00     0.130 A 
ATOM     15  C   UNL     1      16.542  -6.166   8.590  1.00  0.00     0.020 A 
ATOM     16  C   UNL     1      18.446  -7.817   9.800  1.00  0.00     0.093 A 
ATOM     17  C   UNL     1      17.773  -5.640   8.990  1.00  0.00     0.047 A 
ATOM     18  C   UNL     1      18.729  -6.464   9.596  1.00  0.00     0.119 A 
BRANCH  14  19
ATOM     19  O   UNL     1      16.955  -9.712   9.598  1.00  0.00    -0.507 OA
ATOM     20  H   UNL     1      16.953 -10.371   8.828  1.00  0.00     0.293 HD
ENDBRANCH  14  19
BRANCH  18  21
ATOM     21  O   UNL     1      19.958  -5.949   9.999  1.00  0.00    -0.508 OA
ATOM     22  H   UNL     1      20.188  -4.969   9.876  1.00  0.00     0.293 HD
ENDBRANCH  18  21
ENDBRANCH  11  13
ENDBRANCH   2  11
TORSDOF 6
ENDMDL
