MODEL 1
REMARK VINA RESULT:    -5.724      0.000      0.000
REMARK INTER + INTRA:          -5.724
REMARK INTER:                  -5.724
REMARK INTRA:                   0.000
REMARK UNBOUND:                 0.000
REMARK SMILES CC1(C)[C@@H]2CC[C@@]1(C)C(=O)C2
REMARK SMILES IDX 1 1 2 2 4 3 5 4 6 5 7 6 9 7 10 8 11 9 8 10 3 11
REMARK H PARENT
REMARK Flexibility Score: inf
ROOT
ATOM      1  C   UNL     1      25.497 -34.490 -26.149  1.00  0.00     0.012 C 
ATOM      2  C   UNL     1      25.901 -33.501 -25.012  1.00  0.00    -0.020 C 
ATOM      3  C   UNL     1      27.404 -33.128 -25.020  1.00  0.00     0.003 C 
ATOM      4  C   UNL     1      27.489 -32.030 -23.924  1.00  0.00     0.005 C 
ATOM      5  C   UNL     1      26.147 -31.273 -24.085  1.00  0.00     0.015 C 
ATOM      6  C   UNL     1      25.462 -32.040 -25.242  1.00  0.00     0.032 C 
ATOM      7  C   UNL     1      26.274 -31.694 -26.466  1.00  0.00     0.139 C 
ATOM      8  O   UNL     1      25.955 -30.903 -27.340  1.00  0.00    -0.299 OA
ATOM      9  C   UNL     1      27.591 -32.403 -26.382  1.00  0.00     0.080 C 
ATOM     10  C   UNL     1      23.955 -31.791 -25.373  1.00  0.00     0.020 C 
ATOM     11  C   UNL     1      25.420 -34.145 -23.677  1.00  0.00     0.012 C 
ENDROOT
TORSDOF 0
ENDMDL
MODEL 2
REMARK VINA RESULT:    -5.515      1.582      2.790
REMARK INTER + INTRA:          -5.515
REMARK INTER:                  -5.515
REMARK INTRA:                   0.000
REMARK UNBOUND:                 0.000
REMARK SMILES CC1(C)[C@@H]2CC[C@@]1(C)C(=O)C2
REMARK SMILES IDX 1 1 2 2 4 3 5 4 6 5 7 6 9 7 10 8 11 9 8 10 3 11
REMARK H PARENT
REMARK Flexibility Score: inf
ROOT
ATOM      1  C   UNL     1      28.059 -32.730 -24.002  1.00  0.00     0.012 C 
ATOM      2  C   UNL     1      26.695 -32.047 -24.329  1.00  0.00    -0.020 C 
ATOM      3  C   UNL     1      26.569 -31.590 -25.803  1.00  0.00     0.003 C 
ATOM      4  C   UNL     1      25.092 -31.116 -25.889  1.00  0.00     0.005 C 
ATOM      5  C   UNL     1      24.354 -32.111 -24.958  1.00  0.00     0.015 C 
ATOM      6  C   UNL     1      25.501 -33.017 -24.452  1.00  0.00     0.032 C 
ATOM      7  C   UNL     1      25.918 -33.820 -25.658  1.00  0.00     0.139 C 
ATOM      8  O   UNL     1      25.635 -34.989 -25.876  1.00  0.00    -0.299 OA
ATOM      9  C   UNL     1      26.650 -32.919 -26.604  1.00  0.00     0.080 C 
ATOM     10  C   UNL     1      25.163 -33.846 -23.207  1.00  0.00     0.020 C 
ATOM     11  C   UNL     1      26.520 -30.893 -23.296  1.00  0.00     0.012 C 
ENDROOT
TORSDOF 0
ENDMDL
MODEL 3
REMARK VINA RESULT:    -5.178      1.260      2.446
REMARK INTER + INTRA:          -5.178
REMARK INTER:                  -5.178
REMARK INTRA:                   0.000
REMARK UNBOUND:                 0.000
REMARK SMILES CC1(C)[C@@H]2CC[C@@]1(C)C(=O)C2
REMARK SMILES IDX 1 1 2 2 4 3 5 4 6 5 7 6 9 7 10 8 11 9 8 10 3 11
REMARK H PARENT
REMARK Flexibility Score: inf
ROOT
ATOM      1  C   UNL     1      24.131 -32.200 -24.711  1.00  0.00     0.012 C 
ATOM      2  C   UNL     1      25.688 -32.179 -24.816  1.00  0.00    -0.020 C 
ATOM      3  C   UNL     1      26.356 -33.508 -24.386  1.00  0.00     0.003 C 
ATOM      4  C   UNL     1      27.849 -33.273 -24.746  1.00  0.00     0.005 C 
ATOM      5  C   UNL     1      27.764 -32.431 -26.044  1.00  0.00     0.015 C 
ATOM      6  C   UNL     1      26.238 -32.284 -26.254  1.00  0.00     0.032 C 
ATOM      7  C   UNL     1      25.768 -33.666 -26.634  1.00  0.00     0.139 C 
ATOM      8  O   UNL     1      25.477 -34.043 -27.759  1.00  0.00    -0.299 OA
ATOM      9  C   UNL     1      25.814 -34.538 -25.417  1.00  0.00     0.080 C 
ATOM     10  C   UNL     1      25.829 -31.170 -27.226  1.00  0.00     0.020 C 
ATOM     11  C   UNL     1      26.168 -30.941 -24.001  1.00  0.00     0.012 C 
ENDROOT
TORSDOF 0
ENDMDL
MODEL 4
REMARK VINA RESULT:    -5.139      1.574      3.088
REMARK INTER + INTRA:          -5.139
REMARK INTER:                  -5.139
REMARK INTRA:                   0.000
REMARK UNBOUND:                 0.000
REMARK SMILES CC1(C)[C@@H]2CC[C@@]1(C)C(=O)C2
REMARK SMILES IDX 1 1 2 2 4 3 5 4 6 5 7 6 9 7 10 8 11 9 8 10 3 11
REMARK H PARENT
REMARK Flexibility Score: inf
ROOT
ATOM      1  C   UNL     1      25.858 -34.545 -25.500  1.00  0.00     0.012 C 
ATOM      2  C   UNL     1      25.617 -33.258 -26.348  1.00  0.00    -0.020 C 
ATOM      3  C   UNL     1      24.435 -32.395 -25.844  1.00  0.00     0.003 C 
ATOM      4  C   UNL     1      24.529 -31.129 -26.739  1.00  0.00     0.005 C 
ATOM      5  C   UNL     1      26.057 -30.942 -26.915  1.00  0.00     0.015 C 
ATOM      6  C   UNL     1      26.639 -32.128 -26.109  1.00  0.00     0.032 C 
ATOM      7  C   UNL     1      26.351 -31.792 -24.667  1.00  0.00     0.139 C 
ATOM      8  O   UNL     1      27.158 -31.368 -23.853  1.00  0.00    -0.299 OA
ATOM      9  C   UNL     1      24.884 -31.960 -24.421  1.00  0.00     0.080 C 
ATOM     10  C   UNL     1      28.106 -32.455 -26.417  1.00  0.00     0.020 C 
ATOM     11  C   UNL     1      25.467 -33.727 -27.827  1.00  0.00     0.012 C 
ENDROOT
TORSDOF 0
ENDMDL
MODEL 5
REMARK VINA RESULT:    -4.732      1.790      3.241
REMARK INTER + INTRA:          -4.732
REMARK INTER:                  -4.732
REMARK INTRA:                   0.000
REMARK UNBOUND:                 0.000
REMARK SMILES CC1(C)[C@@H]2CC[C@@]1(C)C(=O)C2
REMARK SMILES IDX 1 1 2 2 4 3 5 4 6 5 7 6 9 7 10 8 11 9 8 10 3 11
REMARK H PARENT
REMARK Flexibility Score: inf
ROOT
ATOM      1  C   UNL     1      24.032 -31.926 -25.618  1.00  0.00     0.012 C 
ATOM      2  C   UNL     1      25.345 -32.047 -26.451  1.00  0.00    -0.020 C 
ATOM      3  C   UNL     1      26.612 -31.602 -25.680  1.00  0.00     0.003 C 
ATOM      4  C   UNL     1      27.758 -31.980 -26.658  1.00  0.00     0.005 C 
ATOM      5  C   UNL     1      27.244 -33.291 -27.305  1.00  0.00     0.015 C 
ATOM      6  C   UNL     1      25.868 -33.488 -26.625  1.00  0.00     0.032 C 
ATOM      7  C   UNL     1      26.194 -33.841 -25.195  1.00  0.00     0.139 C 
ATOM      8  O   UNL     1      26.146 -34.957 -24.700  1.00  0.00    -0.299 OA
ATOM      9  C   UNL     1      26.692 -32.611 -24.500  1.00  0.00     0.080 C 
ATOM     10  C   UNL     1      24.935 -34.474 -27.338  1.00  0.00     0.020 C 
ATOM     11  C   UNL     1      25.103 -31.257 -27.773  1.00  0.00     0.012 C 
ENDROOT
TORSDOF 0
ENDMDL
MODEL 6
REMARK VINA RESULT:    -4.581      1.867      3.257
REMARK INTER + INTRA:          -4.581
REMARK INTER:                  -4.581
REMARK INTRA:                   0.000
REMARK UNBOUND:                 0.000
REMARK SMILES CC1(C)[C@@H]2CC[C@@]1(C)C(=O)C2
REMARK SMILES IDX 1 1 2 2 4 3 5 4 6 5 7 6 9 7 10 8 11 9 8 10 3 11
REMARK H PARENT
REMARK Flexibility Score: inf
ROOT
ATOM      1  C   UNL     1      24.313 -31.753 -25.620  1.00  0.00     0.012 C 
ATOM      2  C   UNL     1      25.821 -31.968 -25.285  1.00  0.00    -0.020 C 
ATOM      3  C   UNL     1      26.299 -31.178 -24.042  1.00  0.00     0.003 C 
ATOM      4  C   UNL     1      27.749 -31.699 -23.842  1.00  0.00     0.005 C 
ATOM      5  C   UNL     1      27.641 -33.190 -24.247  1.00  0.00     0.015 C 
ATOM      6  C   UNL     1      26.149 -33.329 -24.636  1.00  0.00     0.032 C 
ATOM      7  C   UNL     1      25.399 -33.205 -23.333  1.00  0.00     0.139 C 
ATOM      8  O   UNL     1      24.901 -34.124 -22.700  1.00  0.00    -0.299 OA
ATOM      9  C   UNL     1      25.454 -31.778 -22.883  1.00  0.00     0.080 C 
ATOM     10  C   UNL     1      25.815 -34.578 -25.460  1.00  0.00     0.020 C 
ATOM     11  C   UNL     1      26.613 -31.635 -26.585  1.00  0.00     0.012 C 
ENDROOT
TORSDOF 0
ENDMDL
MODEL 7
REMARK VINA RESULT:    -3.910      1.461      2.481
REMARK INTER + INTRA:          -3.910
REMARK INTER:                  -3.910
REMARK INTRA:                   0.000
REMARK UNBOUND:                 0.000
REMARK SMILES CC1(C)[C@@H]2CC[C@@]1(C)C(=O)C2
REMARK SMILES IDX 1 1 2 2 4 3 5 4 6 5 7 6 9 7 10 8 11 9 8 10 3 11
REMARK H PARENT
REMARK Flexibility Score: inf
ROOT
ATOM      1  C   UNL     1      26.683 -31.596 -26.959  1.00  0.00     0.012 C 
ATOM      2  C   UNL     1      26.172 -32.830 -26.154  1.00  0.00    -0.020 C 
ATOM      3  C   UNL     1      27.270 -33.512 -25.301  1.00  0.00     0.003 C 
ATOM      4  C   UNL     1      26.469 -34.571 -24.494  1.00  0.00     0.005 C 
ATOM      5  C   UNL     1      25.124 -33.853 -24.220  1.00  0.00     0.015 C 
ATOM      6  C   UNL     1      25.322 -32.484 -24.913  1.00  0.00     0.032 C 
ATOM      7  C   UNL     1      26.345 -31.769 -24.065  1.00  0.00     0.139 C 
ATOM      8  O   UNL     1      26.117 -30.875 -23.264  1.00  0.00    -0.299 OA
ATOM      9  C   UNL     1      27.681 -32.408 -24.287  1.00  0.00     0.080 C 
ATOM     10  C   UNL     1      24.029 -31.699 -25.167  1.00  0.00     0.020 C 
ATOM     11  C   UNL     1      25.496 -33.782 -27.186  1.00  0.00     0.012 C 
ENDROOT
TORSDOF 0
ENDMDL
MODEL 8
REMARK VINA RESULT:    -3.828     12.581     13.973
REMARK INTER + INTRA:          -3.828
REMARK INTER:                  -3.828
REMARK INTRA:                   0.000
REMARK UNBOUND:                 0.000
REMARK SMILES CC1(C)[C@@H]2CC[C@@]1(C)C(=O)C2
REMARK SMILES IDX 1 1 2 2 4 3 5 4 6 5 7 6 9 7 10 8 11 9 8 10 3 11
REMARK H PARENT
REMARK Flexibility Score: inf
ROOT
ATOM      1  C   UNL     1      12.848 -37.060 -25.424  1.00  0.00     0.012 C 
ATOM      2  C   UNL     1      13.857 -38.079 -26.039  1.00  0.00    -0.020 C 
ATOM      3  C   UNL     1      15.268 -38.013 -25.404  1.00  0.00     0.003 C 
ATOM      4  C   UNL     1      15.996 -39.216 -26.065  1.00  0.00     0.005 C 
ATOM      5  C   UNL     1      14.873 -40.276 -26.191  1.00  0.00     0.015 C 
ATOM      6  C   UNL     1      13.647 -39.542 -25.597  1.00  0.00     0.032 C 
ATOM      7  C   UNL     1      13.940 -39.433 -24.122  1.00  0.00     0.139 C 
ATOM      8  O   UNL     1      13.449 -40.120 -23.238  1.00  0.00    -0.299 OA
ATOM      9  C   UNL     1      15.018 -38.413 -23.923  1.00  0.00     0.080 C 
ATOM     10  C   UNL     1      12.292 -40.173 -25.943  1.00  0.00     0.020 C 
ATOM     11  C   UNL     1      13.848 -37.833 -27.578  1.00  0.00     0.012 C 
ENDROOT
TORSDOF 0
ENDMDL
MODEL 9
REMARK VINA RESULT:    -3.754     12.476     13.771
REMARK INTER + INTRA:          -3.754
REMARK INTER:                  -3.754
REMARK INTRA:                   0.000
REMARK UNBOUND:                 0.000
REMARK SMILES CC1(C)[C@@H]2CC[C@@]1(C)C(=O)C2
REMARK SMILES IDX 1 1 2 2 4 3 5 4 6 5 7 6 9 7 10 8 11 9 8 10 3 11
REMARK H PARENT
REMARK Flexibility Score: inf
ROOT
ATOM      1  C   UNL     1      13.544 -39.409 -23.633  1.00  0.00     0.012 C 
ATOM      2  C   UNL     1      14.486 -38.805 -24.721  1.00  0.00    -0.020 C 
ATOM      3  C   UNL     1      15.319 -39.866 -25.479  1.00  0.00     0.003 C 
ATOM      4  C   UNL     1      16.016 -39.028 -26.585  1.00  0.00     0.005 C 
ATOM      5  C   UNL     1      14.939 -37.978 -26.955  1.00  0.00     0.015 C 
ATOM      6  C   UNL     1      13.771 -38.342 -26.007  1.00  0.00     0.032 C 
ATOM      7  C   UNL     1      13.251 -39.659 -26.527  1.00  0.00     0.139 C 
ATOM      8  O   UNL     1      12.234 -39.821 -27.185  1.00  0.00    -0.299 OA
ATOM      9  C   UNL     1      14.244 -40.730 -26.195  1.00  0.00     0.080 C 
ATOM     10  C   UNL     1      12.711 -37.245 -25.844  1.00  0.00     0.020 C 
ATOM     11  C   UNL     1      15.348 -37.722 -24.004  1.00  0.00     0.012 C 
ENDROOT
TORSDOF 0
ENDMDL
