MODEL 1
REMARK VINA RESULT:    -3.679      0.000      0.000
REMARK INTER + INTRA:          -4.441
REMARK INTER:                  -4.324
REMARK INTRA:                  -0.117
REMARK UNBOUND:                -0.117
REMARK SMILES O=C([O-])CCC(=O)[O-]
REMARK SMILES IDX 4 1 2 2 1 3 3 4 5 5 6 6 7 7 8 8
REMARK H PARENT
REMARK Flexibility Score: inf
ROOT
ATOM      1  C   UNL     1       8.048   2.308   8.721  1.00  0.00     0.059 C 
ENDROOT
BRANCH   1   2
ATOM      2  C   UNL     1       6.697   2.939   8.572  1.00  0.00     0.042 C 
ATOM      3  O   UNL     1       6.002   2.713   7.548  1.00  0.00    -0.550 OA
ATOM      4  O   UNL     1       6.224   3.808   9.548  1.00  0.00    -0.550 OA
ENDBRANCH   1   2
BRANCH   1   5
ATOM      5  C   UNL     1       8.020   1.149   9.723  1.00  0.00     0.059 C 
BRANCH   5   6
ATOM      6  C   UNL     1       7.016   0.108   9.332  1.00  0.00     0.042 C 
ATOM      7  O   UNL     1       7.164  -0.546   8.266  1.00  0.00    -0.550 OA
ATOM      8  O   UNL     1       5.897  -0.110  10.125  1.00  0.00    -0.550 OA
ENDBRANCH   5   6
ENDBRANCH   1   5
TORSDOF 3
ENDMDL
MODEL 2
REMARK VINA RESULT:    -3.573     10.518     12.221
REMARK INTER + INTRA:          -4.317
REMARK INTER:                  -4.237
REMARK INTRA:                  -0.079
REMARK UNBOUND:                -0.117
REMARK SMILES O=C([O-])CCC(=O)[O-]
REMARK SMILES IDX 4 1 2 2 1 3 3 4 5 5 6 6 7 7 8 8
REMARK H PARENT
REMARK Flexibility Score: inf
ROOT
ATOM      1  C   UNL     1       5.064  -9.663   3.060  1.00  0.00     0.059 C 
ENDROOT
BRANCH   1   2
ATOM      2  C   UNL     1       3.672  -9.487   2.533  1.00  0.00     0.042 C 
ATOM      3  O   UNL     1       2.853 -10.441   2.576  1.00  0.00    -0.550 OA
ATOM      4  O   UNL     1       3.293  -8.279   1.959  1.00  0.00    -0.550 OA
ENDBRANCH   1   2
BRANCH   1   5
ATOM      5  C   UNL     1       5.189  -9.150   4.499  1.00  0.00     0.059 C 
BRANCH   5   6
ATOM      6  C   UNL     1       6.278  -8.129   4.626  1.00  0.00     0.042 C 
ATOM      7  O   UNL     1       6.687  -7.778   5.765  1.00  0.00    -0.550 OA
ATOM      8  O   UNL     1       6.810  -7.534   3.490  1.00  0.00    -0.550 OA
ENDBRANCH   5   6
ENDBRANCH   1   5
TORSDOF 3
ENDMDL
MODEL 3
REMARK VINA RESULT:    -3.557      0.243      3.241
REMARK INTER + INTRA:          -4.298
REMARK INTER:                  -4.304
REMARK INTRA:                   0.007
REMARK UNBOUND:                -0.117
REMARK SMILES O=C([O-])CCC(=O)[O-]
REMARK SMILES IDX 4 1 2 2 1 3 3 4 5 5 6 6 7 7 8 8
REMARK H PARENT
REMARK Flexibility Score: inf
ROOT
ATOM      1  C   UNL     1       8.287   1.138   9.451  1.00  0.00     0.059 C 
ENDROOT
BRANCH   1   2
ATOM      2  C   UNL     1       7.136   0.196   9.271  1.00  0.00     0.042 C 
ATOM      3  O   UNL     1       6.212   0.152  10.125  1.00  0.00    -0.550 OA
ATOM      4  O   UNL     1       7.103  -0.662   8.178  1.00  0.00    -0.550 OA
ENDBRANCH   1   2
BRANCH   1   5
ATOM      5  C   UNL     1       8.153   2.369   8.548  1.00  0.00     0.059 C 
BRANCH   5   6
ATOM      6  C   UNL     1       6.749   2.891   8.532  1.00  0.00     0.042 C 
ATOM      7  O   UNL     1       6.025   2.734   7.512  1.00  0.00    -0.550 OA
ATOM      8  O   UNL     1       6.253   3.586   9.627  1.00  0.00    -0.550 OA
ENDBRANCH   5   6
ENDBRANCH   1   5
TORSDOF 3
ENDMDL
MODEL 4
REMARK VINA RESULT:    -3.547     10.532     12.181
REMARK INTER + INTRA:          -4.287
REMARK INTER:                  -4.211
REMARK INTRA:                  -0.076
REMARK UNBOUND:                -0.117
REMARK SMILES O=C([O-])CCC(=O)[O-]
REMARK SMILES IDX 4 1 2 2 1 3 3 4 5 5 6 6 7 7 8 8
REMARK H PARENT
REMARK Flexibility Score: inf
ROOT
ATOM      1  C   UNL     1       5.208  -9.035   4.470  1.00  0.00     0.059 C 
ENDROOT
BRANCH   1   2
ATOM      2  C   UNL     1       6.396  -8.124   4.521  1.00  0.00     0.042 C 
ATOM      3  O   UNL     1       6.850  -7.737   5.630  1.00  0.00    -0.550 OA
ATOM      4  O   UNL     1       6.978  -7.672   3.343  1.00  0.00    -0.550 OA
ENDBRANCH   1   2
BRANCH   1   5
ATOM      5  C   UNL     1       5.059  -9.688   3.091  1.00  0.00     0.059 C 
BRANCH   5   6
ATOM      6  C   UNL     1       3.681  -9.495   2.536  1.00  0.00     0.042 C 
ATOM      7  O   UNL     1       2.850 -10.442   2.559  1.00  0.00    -0.550 OA
ATOM      8  O   UNL     1       3.328  -8.283   1.957  1.00  0.00    -0.550 OA
ENDBRANCH   5   6
ENDBRANCH   1   5
TORSDOF 3
ENDMDL
MODEL 5
REMARK VINA RESULT:    -3.535      2.101      3.484
REMARK INTER + INTRA:          -4.272
REMARK INTER:                  -4.140
REMARK INTRA:                  -0.132
REMARK UNBOUND:                -0.117
REMARK SMILES O=C([O-])CCC(=O)[O-]
REMARK SMILES IDX 4 1 2 2 1 3 3 4 5 5 6 6 7 7 8 8
REMARK H PARENT
REMARK Flexibility Score: inf
ROOT
ATOM      1  C   UNL     1       8.030   0.829   8.816  1.00  0.00     0.059 C 
ENDROOT
BRANCH   1   2
ATOM      2  C   UNL     1       9.309   1.579   9.029  1.00  0.00     0.042 C 
ATOM      3  O   UNL     1       9.921   1.491  10.125  1.00  0.00    -0.550 OA
ATOM      4  O   UNL     1       9.805   2.408   8.029  1.00  0.00    -0.550 OA
ENDBRANCH   1   2
BRANCH   1   5
ATOM      5  C   UNL     1       6.836   1.566   9.430  1.00  0.00     0.059 C 
BRANCH   5   6
ATOM      6  C   UNL     1       6.410   2.726   8.583  1.00  0.00     0.042 C 
ATOM      7  O   UNL     1       6.381   3.889   9.068  1.00  0.00    -0.550 OA
ATOM      8  O   UNL     1       6.006   2.517   7.271  1.00  0.00    -0.550 OA
ENDBRANCH   5   6
ENDBRANCH   1   5
TORSDOF 3
ENDMDL
MODEL 6
REMARK VINA RESULT:    -3.534     11.936     12.762
REMARK INTER + INTRA:          -4.271
REMARK INTER:                  -4.149
REMARK INTRA:                  -0.122
REMARK UNBOUND:                -0.117
REMARK SMILES O=C([O-])CCC(=O)[O-]
REMARK SMILES IDX 4 1 2 2 1 3 3 4 5 5 6 6 7 7 8 8
REMARK H PARENT
REMARK Flexibility Score: inf
ROOT
ATOM      1  C   UNL     1       4.854  -9.422   3.464  1.00  0.00     0.059 C 
ENDROOT
BRANCH   1   2
ATOM      2  C   UNL     1       3.649  -9.394   2.574  1.00  0.00     0.042 C 
ATOM      3  O   UNL     1       2.960 -10.434   2.406  1.00  0.00    -0.550 OA
ATOM      4  O   UNL     1       3.310  -8.228   1.898  1.00  0.00    -0.550 OA
ENDBRANCH   1   2
BRANCH   1   5
ATOM      5  C   UNL     1       4.694 -10.443   4.595  1.00  0.00     0.059 C 
BRANCH   5   6
ATOM      6  C   UNL     1       3.897  -9.884   5.733  1.00  0.00     0.042 C 
ATOM      7  O   UNL     1       4.462  -9.195   6.625  1.00  0.00    -0.550 OA
ATOM      8  O   UNL     1       2.539 -10.157   5.832  1.00  0.00    -0.550 OA
ENDBRANCH   5   6
ENDBRANCH   1   5
TORSDOF 3
ENDMDL
MODEL 7
REMARK VINA RESULT:    -3.529     11.928     12.779
REMARK INTER + INTRA:          -4.265
REMARK INTER:                  -4.138
REMARK INTRA:                  -0.127
REMARK UNBOUND:                -0.117
REMARK SMILES O=C([O-])CCC(=O)[O-]
REMARK SMILES IDX 4 1 2 2 1 3 3 4 5 5 6 6 7 7 8 8
REMARK H PARENT
REMARK Flexibility Score: inf
ROOT
ATOM      1  C   UNL     1       4.843  -9.350   3.470  1.00  0.00     0.059 C 
ENDROOT
BRANCH   1   2
ATOM      2  C   UNL     1       3.665  -9.366   2.545  1.00  0.00     0.042 C 
ATOM      3  O   UNL     1       3.365  -8.338   1.883  1.00  0.00    -0.550 OA
ATOM      4  O   UNL     1       2.875 -10.505   2.444  1.00  0.00    -0.550 OA
ENDBRANCH   1   2
BRANCH   1   5
ATOM      5  C   UNL     1       4.702 -10.397   4.580  1.00  0.00     0.059 C 
BRANCH   5   6
ATOM      6  C   UNL     1       3.910  -9.870   5.737  1.00  0.00     0.042 C 
ATOM      7  O   UNL     1       4.481  -9.213   6.648  1.00  0.00    -0.550 OA
ATOM      8  O   UNL     1       2.551 -10.140   5.830  1.00  0.00    -0.550 OA
ENDBRANCH   5   6
ENDBRANCH   1   5
TORSDOF 3
ENDMDL
MODEL 8
REMARK VINA RESULT:    -3.516     11.997     12.985
REMARK INTER + INTRA:          -4.249
REMARK INTER:                  -4.120
REMARK INTRA:                  -0.129
REMARK UNBOUND:                -0.117
REMARK SMILES O=C([O-])CCC(=O)[O-]
REMARK SMILES IDX 4 1 2 2 1 3 3 4 5 5 6 6 7 7 8 8
REMARK H PARENT
REMARK Flexibility Score: inf
ROOT
ATOM      1  C   UNL     1       4.598 -10.489   4.645  1.00  0.00     0.059 C 
ENDROOT
BRANCH   1   2
ATOM      2  C   UNL     1       3.776  -9.927   5.766  1.00  0.00     0.042 C 
ATOM      3  O   UNL     1       4.322  -9.246   6.672  1.00  0.00    -0.550 OA
ATOM      4  O   UNL     1       2.413 -10.190   5.828  1.00  0.00    -0.550 OA
ENDBRANCH   1   2
BRANCH   1   5
ATOM      5  C   UNL     1       4.800  -9.461   3.526  1.00  0.00     0.059 C 
BRANCH   5   6
ATOM      6  C   UNL     1       3.641  -9.445   2.577  1.00  0.00     0.042 C 
ATOM      7  O   UNL     1       3.373  -8.404   1.921  1.00  0.00    -0.550 OA
ATOM      8  O   UNL     1       2.831 -10.567   2.449  1.00  0.00    -0.550 OA
ENDBRANCH   5   6
ENDBRANCH   1   5
TORSDOF 3
ENDMDL
MODEL 9
REMARK VINA RESULT:    -3.297     11.275     12.424
REMARK INTER + INTRA:          -3.992
REMARK INTER:                  -3.963
REMARK INTRA:                  -0.028
REMARK UNBOUND:                -0.117
REMARK SMILES O=C([O-])CCC(=O)[O-]
REMARK SMILES IDX 4 1 2 2 1 3 3 4 5 5 6 6 7 7 8 8
REMARK H PARENT
REMARK Flexibility Score: inf
ROOT
ATOM      1  C   UNL     1       4.858  -9.330   3.481  1.00  0.00     0.059 C 
ENDROOT
BRANCH   1   2
ATOM      2  C   UNL     1       3.669  -9.367   2.571  1.00  0.00     0.042 C 
ATOM      3  O   UNL     1       3.349  -8.349   1.903  1.00  0.00    -0.550 OA
ATOM      4  O   UNL     1       2.890 -10.516   2.489  1.00  0.00    -0.550 OA
ENDBRANCH   1   2
BRANCH   1   5
ATOM      5  C   UNL     1       4.581 -10.062   4.799  1.00  0.00     0.059 C 
BRANCH   5   6
ATOM      6  C   UNL     1       5.259  -9.392   5.954  1.00  0.00     0.042 C 
ATOM      7  O   UNL     1       6.515  -9.424   6.058  1.00  0.00    -0.550 OA
ATOM      8  O   UNL     1       4.503  -8.769   6.938  1.00  0.00    -0.550 OA
ENDBRANCH   5   6
ENDBRANCH   1   5
TORSDOF 3
ENDMDL
