MODEL 1
REMARK VINA RESULT:    -2.436      0.000      0.000
REMARK INTER + INTRA:          -4.079
REMARK INTER:                  -3.504
REMARK INTRA:                  -0.575
REMARK UNBOUND:                -0.575
REMARK SMILES O=C(CO)[C@@H](O)[C@@H](O)[C@H](O)CO
REMARK SMILES IDX 7 1 9 2 11 3 12 4 10 6 5 8 2 9 1 10 3 11 4 12 6 14 8 16
REMARK H PARENT 12 5 10 7 4 13 6 15 8 17
REMARK Flexibility Score: inf
ROOT
ATOM      1  C   UNL     1      45.300 -24.422  -4.510  1.00  0.00     0.181 C 
ENDROOT
BRANCH   1   2
ATOM      2  C   UNL     1      46.124 -25.162  -3.412  1.00  0.00     0.171 C 
BRANCH   2   3
ATOM      3  C   UNL     1      45.810 -24.761  -1.954  1.00  0.00     0.190 C 
BRANCH   3   4
ATOM      4  O   UNL     1      44.435 -24.829  -1.689  1.00  0.00    -0.394 OA
ATOM      5  H   UNL     1      44.045 -23.982  -2.032  1.00  0.00     0.210 HD
ENDBRANCH   3   4
ENDBRANCH   2   3
BRANCH   2   6
ATOM      6  O   UNL     1      46.084 -26.557  -3.587  1.00  0.00    -0.388 OA
ATOM      7  H   UNL     1      45.142 -26.855  -3.522  1.00  0.00     0.211 HD
ENDBRANCH   2   6
ENDBRANCH   1   2
BRANCH   1   8
ATOM      8  C   UNL     1      46.107 -23.921  -5.744  1.00  0.00     0.214 C 
BRANCH   8   9
ATOM      9  C   UNL     1      46.104 -24.957  -6.850  1.00  0.00     0.189 C 
ATOM     10  O   UNL     1      46.124 -26.146  -6.565  1.00  0.00    -0.294 OA
BRANCH   9  11
ATOM     11  C   UNL     1      46.088 -24.556  -8.301  1.00  0.00     0.234 C 
BRANCH  11  12
ATOM     12  O   UNL     1      45.932 -25.687  -9.112  1.00  0.00    -0.388 OA
ATOM     13  H   UNL     1      46.198 -25.421 -10.031  1.00  0.00     0.211 HD
ENDBRANCH  11  12
ENDBRANCH   9  11
ENDBRANCH   8   9
BRANCH   8  14
ATOM     14  O   UNL     1      45.607 -22.703  -6.235  1.00  0.00    -0.382 OA
ATOM     15  H   UNL     1      46.130 -22.465  -7.045  1.00  0.00     0.211 HD
ENDBRANCH   8  14
ENDBRANCH   1   8
BRANCH   1  16
ATOM     16  O   UNL     1      44.221 -25.228  -4.923  1.00  0.00    -0.387 OA
ATOM     17  H   UNL     1      44.594 -26.011  -5.406  1.00  0.00     0.211 HD
ENDBRANCH   1  16
TORSDOF 10
ENDMDL
MODEL 2
REMARK VINA RESULT:    -2.223      1.705      2.671
REMARK INTER + INTRA:          -3.773
REMARK INTER:                  -3.030
REMARK INTRA:                  -0.743
REMARK UNBOUND:                -0.575
REMARK SMILES O=C(CO)[C@@H](O)[C@@H](O)[C@H](O)CO
REMARK SMILES IDX 7 1 9 2 11 3 12 4 10 6 5 8 2 9 1 10 3 11 4 12 6 14 8 16
REMARK H PARENT 12 5 10 7 4 13 6 15 8 17
REMARK Flexibility Score: inf
ROOT
ATOM      1  C   UNL     1      45.303 -24.247  -2.200  1.00  0.00     0.181 C 
ENDROOT
BRANCH   1   2
ATOM      2  C   UNL     1      46.117 -24.613  -0.921  1.00  0.00     0.171 C 
BRANCH   2   3
ATOM      3  C   UNL     1      45.776 -23.798   0.346  1.00  0.00     0.190 C 
BRANCH   3   4
ATOM      4  O   UNL     1      45.781 -22.420   0.086  1.00  0.00    -0.394 OA
ATOM      5  H   UNL     1      44.926 -22.068   0.449  1.00  0.00     0.210 HD
ENDBRANCH   3   4
ENDBRANCH   2   3
BRANCH   2   6
ATOM      6  O   UNL     1      46.092 -25.997  -0.671  1.00  0.00    -0.388 OA
ATOM      7  H   UNL     1      46.821 -26.215  -0.036  1.00  0.00     0.211 HD
ENDBRANCH   2   6
ENDBRANCH   1   2
BRANCH   1   8
ATOM      8  C   UNL     1      46.125 -24.126  -3.517  1.00  0.00     0.214 C 
BRANCH   8   9
ATOM      9  C   UNL     1      46.050 -25.408  -4.322  1.00  0.00     0.189 C 
ATOM     10  O   UNL     1      46.125 -26.486  -3.750  1.00  0.00    -0.294 OA
BRANCH   9  11
ATOM     11  C   UNL     1      45.896 -25.386  -5.819  1.00  0.00     0.234 C 
BRANCH  11  12
ATOM     12  O   UNL     1      44.665 -24.815  -6.169  1.00  0.00    -0.388 OA
ATOM     13  H   UNL     1      43.960 -25.451  -5.876  1.00  0.00     0.211 HD
ENDBRANCH  11  12
ENDBRANCH   9  11
ENDBRANCH   8   9
BRANCH   8  14
ATOM     14  O   UNL     1      45.692 -23.046  -4.305  1.00  0.00    -0.382 OA
ATOM     15  H   UNL     1      45.499 -23.393  -5.216  1.00  0.00     0.211 HD
ENDBRANCH   8  14
ENDBRANCH   1   8
BRANCH   1  16
ATOM     16  O   UNL     1      44.240 -25.155  -2.367  1.00  0.00    -0.387 OA
ATOM     17  H   UNL     1      43.461 -24.807  -1.860  1.00  0.00     0.211 HD
ENDBRANCH   1  16
TORSDOF 10
ENDMDL
MODEL 3
REMARK VINA RESULT:    -1.883     11.118     14.088
REMARK INTER + INTRA:          -3.285
REMARK INTER:                  -2.784
REMARK INTRA:                  -0.501
REMARK UNBOUND:                -0.575
REMARK SMILES O=C(CO)[C@@H](O)[C@@H](O)[C@H](O)CO
REMARK SMILES IDX 7 1 9 2 11 3 12 4 10 6 5 8 2 9 1 10 3 11 4 12 6 14 8 16
REMARK H PARENT 12 5 10 7 4 13 6 15 8 17
REMARK Flexibility Score: inf
ROOT
ATOM      1  C   UNL     1      45.003 -29.154   8.605  1.00  0.00     0.181 C 
ENDROOT
BRANCH   1   2
ATOM      2  C   UNL     1      44.992 -29.369  10.150  1.00  0.00     0.171 C 
BRANCH   2   3
ATOM      3  C   UNL     1      45.440 -30.765  10.636  1.00  0.00     0.190 C 
BRANCH   3   4
ATOM      4  O   UNL     1      44.406 -31.704  10.521  1.00  0.00    -0.394 OA
ATOM      5  H   UNL     1      44.210 -32.013  11.444  1.00  0.00     0.210 HD
ENDBRANCH   3   4
ENDBRANCH   2   3
BRANCH   2   6
ATOM      6  O   UNL     1      45.680 -28.340  10.819  1.00  0.00    -0.388 OA
ATOM      7  H   UNL     1      45.429 -28.367  11.777  1.00  0.00     0.211 HD
ENDBRANCH   2   6
ENDBRANCH   1   2
BRANCH   1   8
ATOM      8  C   UNL     1      46.125 -28.225   8.056  1.00  0.00     0.214 C 
BRANCH   8   9
ATOM      9  C   UNL     1      46.121 -28.208   6.540  1.00  0.00     0.189 C 
ATOM     10  O   UNL     1      46.123 -29.265   5.925  1.00  0.00    -0.294 OA
BRANCH   9  11
ATOM     11  C   UNL     1      46.125 -26.915   5.769  1.00  0.00     0.234 C 
BRANCH  11  12
ATOM     12  O   UNL     1      45.967 -27.170   4.401  1.00  0.00    -0.388 OA
ATOM     13  H   UNL     1      45.057 -27.550   4.283  1.00  0.00     0.211 HD
ENDBRANCH  11  12
ENDBRANCH   9  11
ENDBRANCH   8   9
BRANCH   8  14
ATOM     14  O   UNL     1      46.001 -26.912   8.544  1.00  0.00    -0.382 OA
ATOM     15  H   UNL     1      45.524 -26.377   7.857  1.00  0.00     0.211 HD
ENDBRANCH   8  14
ENDBRANCH   1   8
BRANCH   1  16
ATOM     16  O   UNL     1      45.032 -30.400   7.949  1.00  0.00    -0.387 OA
ATOM     17  H   UNL     1      45.742 -30.949   8.370  1.00  0.00     0.211 HD
ENDBRANCH   1  16
TORSDOF 10
ENDMDL
MODEL 4
REMARK VINA RESULT:    -1.462      4.587      7.085
REMARK INTER + INTRA:          -2.679
REMARK INTER:                  -2.106
REMARK INTRA:                  -0.573
REMARK UNBOUND:                -0.575
REMARK SMILES O=C(CO)[C@@H](O)[C@@H](O)[C@H](O)CO
REMARK SMILES IDX 7 1 9 2 11 3 12 4 10 6 5 8 2 9 1 10 3 11 4 12 6 14 8 16
REMARK H PARENT 12 5 10 7 4 13 6 15 8 17
REMARK Flexibility Score: inf
ROOT
ATOM      1  C   UNL     1      45.218 -26.099   2.334  1.00  0.00     0.181 C 
ENDROOT
BRANCH   1   2
ATOM      2  C   UNL     1      46.125 -27.016   3.211  1.00  0.00     0.171 C 
BRANCH   2   3
ATOM      3  C   UNL     1      45.987 -26.832   4.738  1.00  0.00     0.190 C 
BRANCH   3   4
ATOM      4  O   UNL     1      45.893 -28.066   5.397  1.00  0.00    -0.394 OA
ATOM      5  H   UNL     1      46.034 -28.761   4.702  1.00  0.00     0.210 HD
ENDBRANCH   3   4
ENDBRANCH   2   3
BRANCH   2   6
ATOM      6  O   UNL     1      46.007 -28.368   2.838  1.00  0.00    -0.388 OA
ATOM      7  H   UNL     1      46.598 -28.531   2.060  1.00  0.00     0.211 HD
ENDBRANCH   2   6
ENDBRANCH   1   2
BRANCH   1   8
ATOM      8  C   UNL     1      45.955 -25.225   1.277  1.00  0.00     0.214 C 
BRANCH   8   9
ATOM      9  C   UNL     1      46.066 -25.955  -0.046  1.00  0.00     0.189 C 
ATOM     10  O   UNL     1      46.125 -27.177  -0.059  1.00  0.00    -0.294 OA
BRANCH   9  11
ATOM     11  C   UNL     1      46.117 -25.209  -1.353  1.00  0.00     0.234 C 
BRANCH  11  12
ATOM     12  O   UNL     1      44.828 -24.808  -1.729  1.00  0.00    -0.388 OA
ATOM     13  H   UNL     1      44.890 -24.487  -2.667  1.00  0.00     0.211 HD
ENDBRANCH  11  12
ENDBRANCH   9  11
ENDBRANCH   8   9
BRANCH   8  14
ATOM     14  O   UNL     1      45.315 -23.989   1.083  1.00  0.00    -0.382 OA
ATOM     15  H   UNL     1      45.305 -23.513   1.954  1.00  0.00     0.211 HD
ENDBRANCH   8  14
ENDBRANCH   1   8
BRANCH   1  16
ATOM     16  O   UNL     1      44.211 -26.868   1.720  1.00  0.00    -0.387 OA
ATOM     17  H   UNL     1      43.728 -27.361   2.433  1.00  0.00     0.211 HD
ENDBRANCH   1  16
TORSDOF 10
ENDMDL
MODEL 5
REMARK VINA RESULT:    -0.617      1.938      5.485
REMARK INTER + INTRA:          -1.463
REMARK INTER:                  -1.152
REMARK INTRA:                  -0.311
REMARK UNBOUND:                -0.575
REMARK SMILES O=C(CO)[C@@H](O)[C@@H](O)[C@H](O)CO
REMARK SMILES IDX 7 1 9 2 11 3 12 4 10 6 5 8 2 9 1 10 3 11 4 12 6 14 8 16
REMARK H PARENT 12 5 10 7 4 13 6 15 8 17
REMARK Flexibility Score: inf
ROOT
ATOM      1  C   UNL     1      46.070 -24.656  -3.115  1.00  0.00     0.181 C 
ENDROOT
BRANCH   1   2
ATOM      2  C   UNL     1      46.125 -23.808  -4.423  1.00  0.00     0.171 C 
BRANCH   2   3
ATOM      3  C   UNL     1      45.197 -24.277  -5.565  1.00  0.00     0.190 C 
BRANCH   3   4
ATOM      4  O   UNL     1      45.409 -25.628  -5.876  1.00  0.00    -0.394 OA
ATOM      5  H   UNL     1      45.101 -26.144  -5.087  1.00  0.00     0.210 HD
ENDBRANCH   3   4
ENDBRANCH   2   3
BRANCH   2   6
ATOM      6  O   UNL     1      45.968 -22.436  -4.156  1.00  0.00    -0.388 OA
ATOM      7  H   UNL     1      45.095 -22.301  -3.707  1.00  0.00     0.211 HD
ENDBRANCH   2   6
ENDBRANCH   1   2
BRANCH   1   8
ATOM      8  C   UNL     1      45.516 -23.928  -1.856  1.00  0.00     0.214 C 
BRANCH   8   9
ATOM      9  C   UNL     1      45.702 -24.777  -0.614  1.00  0.00     0.189 C 
ATOM     10  O   UNL     1      46.118 -25.922  -0.721  1.00  0.00    -0.294 OA
BRANCH   9  11
ATOM     11  C   UNL     1      45.376 -24.246   0.757  1.00  0.00     0.234 C 
BRANCH  11  12
ATOM     12  O   UNL     1      46.051 -23.038   0.979  1.00  0.00    -0.388 OA
ATOM     13  H   UNL     1      45.850 -22.764   1.912  1.00  0.00     0.211 HD
ENDBRANCH  11  12
ENDBRANCH   9  11
ENDBRANCH   8   9
BRANCH   8  14
ATOM     14  O   UNL     1      46.123 -22.675  -1.667  1.00  0.00    -0.382 OA
ATOM     15  H   UNL     1      45.431 -21.978  -1.808  1.00  0.00     0.211 HD
ENDBRANCH   8  14
ENDBRANCH   1   8
BRANCH   1  16
ATOM     16  O   UNL     1      45.357 -25.849  -3.347  1.00  0.00    -0.387 OA
ATOM     17  H   UNL     1      44.969 -25.798  -4.259  1.00  0.00     0.211 HD
ENDBRANCH   1  16
TORSDOF 10
ENDMDL
MODEL 6
REMARK VINA RESULT:    -0.257      5.256      7.947
REMARK INTER + INTRA:          -0.945
REMARK INTER:                  -0.853
REMARK INTRA:                  -0.092
REMARK UNBOUND:                -0.575
REMARK SMILES O=C(CO)[C@@H](O)[C@@H](O)[C@H](O)CO
REMARK SMILES IDX 7 1 9 2 11 3 12 4 10 6 5 8 2 9 1 10 3 11 4 12 6 14 8 16
REMARK H PARENT 12 5 10 7 4 13 6 15 8 17
REMARK Flexibility Score: inf
ROOT
ATOM      1  C   UNL     1      46.025 -26.805   3.031  1.00  0.00     0.181 C 
ENDROOT
BRANCH   1   2
ATOM      2  C   UNL     1      46.123 -28.334   2.743  1.00  0.00     0.171 C 
BRANCH   2   3
ATOM      3  C   UNL     1      45.339 -29.251   3.707  1.00  0.00     0.190 C 
BRANCH   3   4
ATOM      4  O   UNL     1      45.880 -29.215   5.001  1.00  0.00    -0.394 OA
ATOM      5  H   UNL     1      46.803 -28.864   4.904  1.00  0.00     0.210 HD
ENDBRANCH   3   4
ENDBRANCH   2   3
BRANCH   2   6
ATOM      6  O   UNL     1      45.832 -28.626   1.397  1.00  0.00    -0.388 OA
ATOM      7  H   UNL     1      44.849 -28.607   1.277  1.00  0.00     0.211 HD
ENDBRANCH   2   6
ENDBRANCH   1   2
BRANCH   1   8
ATOM      8  C   UNL     1      44.965 -26.023   2.201  1.00  0.00     0.214 C 
BRANCH   8   9
ATOM      9  C   UNL     1      45.620 -25.267   1.062  1.00  0.00     0.189 C 
ATOM     10  O   UNL     1      45.737 -24.052   1.131  1.00  0.00    -0.294 OA
BRANCH   9  11
ATOM     11  C   UNL     1      46.124 -25.979  -0.165  1.00  0.00     0.234 C 
BRANCH  11  12
ATOM     12  O   UNL     1      45.554 -25.419  -1.316  1.00  0.00    -0.388 OA
ATOM     13  H   UNL     1      46.278 -24.926  -1.784  1.00  0.00     0.211 HD
ENDBRANCH  11  12
ENDBRANCH   9  11
ENDBRANCH   8   9
BRANCH   8  14
ATOM     14  O   UNL     1      43.968 -26.873   1.693  1.00  0.00    -0.382 OA
ATOM     15  H   UNL     1      43.387 -26.336   1.094  1.00  0.00     0.211 HD
ENDBRANCH   8  14
ENDBRANCH   1   8
BRANCH   1  16
ATOM     16  O   UNL     1      45.826 -26.590   4.409  1.00  0.00    -0.387 OA
ATOM     17  H   UNL     1      46.395 -27.235   4.903  1.00  0.00     0.211 HD
ENDBRANCH   1  16
TORSDOF 10
ENDMDL
MODEL 7
REMARK VINA RESULT:    -0.162      1.194      5.010
REMARK INTER + INTRA:          -0.809
REMARK INTER:                  -0.208
REMARK INTRA:                  -0.601
REMARK UNBOUND:                -0.575
REMARK SMILES O=C(CO)[C@@H](O)[C@@H](O)[C@H](O)CO
REMARK SMILES IDX 7 1 9 2 11 3 12 4 10 6 5 8 2 9 1 10 3 11 4 12 6 14 8 16
REMARK H PARENT 12 5 10 7 4 13 6 15 8 17
REMARK Flexibility Score: inf
ROOT
ATOM      1  C   UNL     1      45.439 -25.344  -4.604  1.00  0.00     0.181 C 
ENDROOT
BRANCH   1   2
ATOM      2  C   UNL     1      46.125 -24.445  -5.678  1.00  0.00     0.171 C 
BRANCH   2   3
ATOM      3  C   UNL     1      46.060 -24.967  -7.130  1.00  0.00     0.190 C 
BRANCH   3   4
ATOM      4  O   UNL     1      46.125 -26.366  -7.175  1.00  0.00    -0.394 OA
ATOM      5  H   UNL     1      45.238 -26.694  -6.872  1.00  0.00     0.210 HD
ENDBRANCH   3   4
ENDBRANCH   2   3
BRANCH   2   6
ATOM      6  O   UNL     1      45.693 -23.109  -5.586  1.00  0.00    -0.388 OA
ATOM      7  H   UNL     1      44.711 -23.104  -5.457  1.00  0.00     0.211 HD
ENDBRANCH   2   6
ENDBRANCH   1   2
BRANCH   1   8
ATOM      8  C   UNL     1      46.125 -25.377  -3.207  1.00  0.00     0.214 C 
BRANCH   8   9
ATOM      9  C   UNL     1      45.732 -24.167  -2.382  1.00  0.00     0.189 C 
ATOM     10  O   UNL     1      46.038 -23.048  -2.768  1.00  0.00    -0.294 OA
BRANCH   9  11
ATOM     11  C   UNL     1      44.981 -24.312  -1.086  1.00  0.00     0.234 C 
BRANCH  11  12
ATOM     12  O   UNL     1      45.758 -25.011  -0.153  1.00  0.00    -0.388 OA
ATOM     13  H   UNL     1      45.828 -25.946  -0.482  1.00  0.00     0.211 HD
ENDBRANCH  11  12
ENDBRANCH   9  11
ENDBRANCH   8   9
BRANCH   8  14
ATOM     14  O   UNL     1      45.815 -26.552  -2.501  1.00  0.00    -0.382 OA
ATOM     15  H   UNL     1      44.949 -26.408  -2.037  1.00  0.00     0.211 HD
ENDBRANCH   8  14
ENDBRANCH   1   8
BRANCH   1  16
ATOM     16  O   UNL     1      44.082 -24.987  -4.477  1.00  0.00    -0.387 OA
ATOM     17  H   UNL     1      44.043 -24.053  -4.146  1.00  0.00     0.211 HD
ENDBRANCH   1  16
TORSDOF 10
ENDMDL
