MODEL 1
REMARK VINA RESULT:    -4.733      0.000      0.000
REMARK INTER + INTRA:          -6.119
REMARK INTER:                  -5.839
REMARK INTRA:                  -0.280
REMARK UNBOUND:                -0.280
REMARK SMILES COC(=O)c1ccccc1C(=O)OC
REMARK SMILES IDX 5 1 6 2 7 3 8 4 9 5 10 6 3 7 4 8 2 9 1 10 11 11 12 12 13 13
REMARK SMILES IDX 14 14
REMARK H PARENT
REMARK Flexibility Score: inf
ROOT
ATOM      1  C   UNL     1     -30.135  28.710   5.695  1.00  0.00     0.074 A 
ATOM      2  C   UNL     1     -29.521  29.858   6.231  1.00  0.00     0.016 A 
ATOM      3  C   UNL     1     -29.353  31.005   5.455  1.00  0.00     0.001 A 
ATOM      4  C   UNL     1     -29.793  31.026   4.134  1.00  0.00     0.001 A 
ATOM      5  C   UNL     1     -30.424  29.908   3.589  1.00  0.00     0.016 A 
ATOM      6  C   UNL     1     -30.626  28.748   4.360  1.00  0.00     0.074 A 
ENDROOT
BRANCH   1   7
ATOM      7  C   UNL     1     -30.179  27.493   6.536  1.00  0.00     0.338 C 
ATOM      8  O   UNL     1     -31.280  27.056   6.970  1.00  0.00    -0.246 OA
BRANCH   7   9
ATOM      9  O   UNL     1     -28.995  26.795   6.799  1.00  0.00    -0.465 OA
ATOM     10  C   UNL     1     -28.362  26.812   8.074  1.00  0.00     0.282 C 
ENDBRANCH   7   9
ENDBRANCH   1   7
BRANCH   6  11
ATOM     11  C   UNL     1     -31.402  27.642   3.754  1.00  0.00     0.338 C 
ATOM     12  O   UNL     1     -32.630  27.507   4.017  1.00  0.00    -0.246 OA
BRANCH  11  13
ATOM     13  O   UNL     1     -30.781  26.782   2.842  1.00  0.00    -0.465 OA
ATOM     14  C   UNL     1     -29.629  26.017   3.172  1.00  0.00     0.282 C 
ENDBRANCH  11  13
ENDBRANCH   6  11
TORSDOF 4
ENDMDL
MODEL 2
REMARK VINA RESULT:    -4.711      0.069      3.309
REMARK INTER + INTRA:          -6.092
REMARK INTER:                  -5.810
REMARK INTRA:                  -0.281
REMARK UNBOUND:                -0.280
REMARK SMILES COC(=O)c1ccccc1C(=O)OC
REMARK SMILES IDX 5 1 6 2 7 3 8 4 9 5 10 6 3 7 4 8 2 9 1 10 11 11 12 12 13 13
REMARK SMILES IDX 14 14
REMARK H PARENT
REMARK Flexibility Score: inf
ROOT
ATOM      1  C   UNL     1     -30.611  28.730   4.386  1.00  0.00     0.074 A 
ATOM      2  C   UNL     1     -30.411  29.885   3.607  1.00  0.00     0.016 A 
ATOM      3  C   UNL     1     -29.788  31.011   4.147  1.00  0.00     0.001 A 
ATOM      4  C   UNL     1     -29.355  31.002   5.472  1.00  0.00     0.001 A 
ATOM      5  C   UNL     1     -29.523  29.860   6.255  1.00  0.00     0.016 A 
ATOM      6  C   UNL     1     -30.128  28.705   5.724  1.00  0.00     0.074 A 
ENDROOT
BRANCH   1   7
ATOM      7  C   UNL     1     -31.378  27.616   3.784  1.00  0.00     0.338 C 
ATOM      8  O   UNL     1     -32.610  27.489   4.023  1.00  0.00    -0.246 OA
BRANCH   7   9
ATOM      9  O   UNL     1     -30.740  26.737   2.902  1.00  0.00    -0.465 OA
ATOM     10  C   UNL     1     -29.686  25.871   3.309  1.00  0.00     0.282 C 
ENDBRANCH   7   9
ENDBRANCH   1   7
BRANCH   6  11
ATOM     11  C   UNL     1     -30.171  27.494   6.575  1.00  0.00     0.338 C 
ATOM     12  O   UNL     1     -31.274  27.059   7.007  1.00  0.00    -0.246 OA
BRANCH  11  13
ATOM     13  O   UNL     1     -28.987  26.800   6.847  1.00  0.00    -0.465 OA
ATOM     14  C   UNL     1     -28.340  26.854   8.112  1.00  0.00     0.282 C 
ENDBRANCH  11  13
ENDBRANCH   6  11
TORSDOF 4
ENDMDL
MODEL 3
REMARK VINA RESULT:    -4.665      0.668      1.371
REMARK INTER + INTRA:          -6.035
REMARK INTER:                  -5.770
REMARK INTRA:                  -0.265
REMARK UNBOUND:                -0.280
REMARK SMILES COC(=O)c1ccccc1C(=O)OC
REMARK SMILES IDX 5 1 6 2 7 3 8 4 9 5 10 6 3 7 4 8 2 9 1 10 11 11 12 12 13 13
REMARK SMILES IDX 14 14
REMARK H PARENT
REMARK Flexibility Score: inf
ROOT
ATOM      1  C   UNL     1     -30.126  28.702   5.718  1.00  0.00     0.074 A 
ATOM      2  C   UNL     1     -29.524  29.859   6.247  1.00  0.00     0.016 A 
ATOM      3  C   UNL     1     -29.361  31.002   5.463  1.00  0.00     0.001 A 
ATOM      4  C   UNL     1     -29.795  31.008   4.139  1.00  0.00     0.001 A 
ATOM      5  C   UNL     1     -30.414  29.880   3.601  1.00  0.00     0.016 A 
ATOM      6  C   UNL     1     -30.610  28.725   4.380  1.00  0.00     0.074 A 
ENDROOT
BRANCH   1   7
ATOM      7  C   UNL     1     -30.163  27.492   6.569  1.00  0.00     0.338 C 
ATOM      8  O   UNL     1     -31.263  27.050   7.001  1.00  0.00    -0.246 OA
BRANCH   7   9
ATOM      9  O   UNL     1     -28.975  26.806   6.844  1.00  0.00    -0.465 OA
ATOM     10  C   UNL     1     -28.336  26.857   8.115  1.00  0.00     0.282 C 
ENDBRANCH   7   9
ENDBRANCH   1   7
BRANCH   6  11
ATOM     11  C   UNL     1     -31.374  27.607   3.780  1.00  0.00     0.338 C 
ATOM     12  O   UNL     1     -30.779  26.707   3.126  1.00  0.00    -0.246 OA
BRANCH  11  13
ATOM     13  O   UNL     1     -32.754  27.523   3.993  1.00  0.00    -0.465 OA
ATOM     14  C   UNL     1     -33.407  26.302   4.317  1.00  0.00     0.282 C 
ENDBRANCH  11  13
ENDBRANCH   6  11
TORSDOF 4
ENDMDL
MODEL 4
REMARK VINA RESULT:    -4.639      0.700      3.560
REMARK INTER + INTRA:          -6.004
REMARK INTER:                  -5.766
REMARK INTRA:                  -0.238
REMARK UNBOUND:                -0.280
REMARK SMILES COC(=O)c1ccccc1C(=O)OC
REMARK SMILES IDX 5 1 6 2 7 3 8 4 9 5 10 6 3 7 4 8 2 9 1 10 11 11 12 12 13 13
REMARK SMILES IDX 14 14
REMARK H PARENT
REMARK Flexibility Score: inf
ROOT
ATOM      1  C   UNL     1     -30.672  28.719   4.406  1.00  0.00     0.074 A 
ATOM      2  C   UNL     1     -30.486  29.873   3.622  1.00  0.00     0.016 A 
ATOM      3  C   UNL     1     -29.824  30.988   4.138  1.00  0.00     0.001 A 
ATOM      4  C   UNL     1     -29.339  30.970   5.444  1.00  0.00     0.001 A 
ATOM      5  C   UNL     1     -29.493  29.829   6.231  1.00  0.00     0.016 A 
ATOM      6  C   UNL     1     -30.136  28.685   5.724  1.00  0.00     0.074 A 
ENDROOT
BRANCH   1   7
ATOM      7  C   UNL     1     -31.480  27.619   3.835  1.00  0.00     0.338 C 
ATOM      8  O   UNL     1     -30.927  26.695   3.178  1.00  0.00    -0.246 OA
BRANCH   7   9
ATOM      9  O   UNL     1     -32.858  27.578   4.078  1.00  0.00    -0.465 OA
ATOM     10  C   UNL     1     -33.547  26.372   4.387  1.00  0.00     0.282 C 
ENDBRANCH   7   9
ENDBRANCH   1   7
BRANCH   6  11
ATOM     11  C   UNL     1     -30.163  27.473   6.574  1.00  0.00     0.338 C 
ATOM     12  O   UNL     1     -31.260  27.025   7.010  1.00  0.00    -0.246 OA
BRANCH  11  13
ATOM     13  O   UNL     1     -28.971  26.792   6.843  1.00  0.00    -0.465 OA
ATOM     14  C   UNL     1     -28.315  26.862   8.103  1.00  0.00     0.282 C 
ENDBRANCH  11  13
ENDBRANCH   6  11
TORSDOF 4
ENDMDL
MODEL 5
REMARK VINA RESULT:    -4.634      0.962      3.302
REMARK INTER + INTRA:          -5.998
REMARK INTER:                  -5.579
REMARK INTRA:                  -0.418
REMARK UNBOUND:                -0.280
REMARK SMILES COC(=O)c1ccccc1C(=O)OC
REMARK SMILES IDX 5 1 6 2 7 3 8 4 9 5 10 6 3 7 4 8 2 9 1 10 11 11 12 12 13 13
REMARK SMILES IDX 14 14
REMARK H PARENT
REMARK Flexibility Score: inf
ROOT
ATOM      1  C   UNL     1     -30.777  28.894   4.346  1.00  0.00     0.074 A 
ATOM      2  C   UNL     1     -30.533  30.142   3.741  1.00  0.00     0.016 A 
ATOM      3  C   UNL     1     -29.757  31.107   4.383  1.00  0.00     0.001 A 
ATOM      4  C   UNL     1     -29.213  30.844   5.639  1.00  0.00     0.001 A 
ATOM      5  C   UNL     1     -29.424  29.606   6.247  1.00  0.00     0.016 A 
ATOM      6  C   UNL     1     -30.184  28.610   5.608  1.00  0.00     0.074 A 
ENDROOT
BRANCH   1   7
ATOM      7  C   UNL     1     -31.701  27.963   3.660  1.00  0.00     0.338 C 
ATOM      8  O   UNL     1     -31.297  27.259   2.694  1.00  0.00    -0.246 OA
BRANCH   7   9
ATOM      9  O   UNL     1     -33.012  27.824   4.128  1.00  0.00    -0.465 OA
ATOM     10  C   UNL     1     -33.605  26.556   4.387  1.00  0.00     0.282 C 
ENDBRANCH   7   9
ENDBRANCH   1   7
BRANCH   6  11
ATOM     11  C   UNL     1     -30.272  27.283   6.259  1.00  0.00     0.338 C 
ATOM     12  O   UNL     1     -31.262  26.995   6.987  1.00  0.00    -0.246 OA
BRANCH  11  13
ATOM     13  O   UNL     1     -29.279  26.328   6.015  1.00  0.00    -0.465 OA
ATOM     14  C   UNL     1     -29.319  25.449   4.897  1.00  0.00     0.282 C 
ENDBRANCH  11  13
ENDBRANCH   6  11
TORSDOF 4
ENDMDL
MODEL 6
REMARK VINA RESULT:    -4.627      1.701      3.386
REMARK INTER + INTRA:          -5.989
REMARK INTER:                  -5.702
REMARK INTRA:                  -0.286
REMARK UNBOUND:                -0.280
REMARK SMILES COC(=O)c1ccccc1C(=O)OC
REMARK SMILES IDX 5 1 6 2 7 3 8 4 9 5 10 6 3 7 4 8 2 9 1 10 11 11 12 12 13 13
REMARK SMILES IDX 14 14
REMARK H PARENT
REMARK Flexibility Score: inf
ROOT
ATOM      1  C   UNL     1     -29.627  26.566   5.499  1.00  0.00     0.074 A 
ATOM      2  C   UNL     1     -29.137  25.403   4.874  1.00  0.00     0.016 A 
ATOM      3  C   UNL     1     -29.274  25.221   3.498  1.00  0.00     0.001 A 
ATOM      4  C   UNL     1     -29.902  26.193   2.723  1.00  0.00     0.001 A 
ATOM      5  C   UNL     1     -30.376  27.363   3.318  1.00  0.00     0.016 A 
ATOM      6  C   UNL     1     -30.228  27.579   4.700  1.00  0.00     0.074 A 
ENDROOT
BRANCH   1   7
ATOM      7  C   UNL     1     -29.550  26.642   6.975  1.00  0.00     0.338 C 
ATOM      8  O   UNL     1     -30.326  25.953   7.691  1.00  0.00    -0.246 OA
BRANCH   7   9
ATOM      9  O   UNL     1     -28.569  27.441   7.572  1.00  0.00    -0.465 OA
ATOM     10  C   UNL     1     -27.740  26.975   8.632  1.00  0.00     0.282 C 
ENDBRANCH   7   9
ENDBRANCH   1   7
BRANCH   6  11
ATOM     11  C   UNL     1     -30.651  28.889   5.244  1.00  0.00     0.338 C 
ATOM     12  O   UNL     1     -31.713  28.986   5.919  1.00  0.00    -0.246 OA
BRANCH  11  13
ATOM     13  O   UNL     1     -29.834  30.010   5.057  1.00  0.00    -0.465 OA
ATOM     14  C   UNL     1     -29.072  30.588   6.109  1.00  0.00     0.282 C 
ENDBRANCH  11  13
ENDBRANCH   6  11
TORSDOF 4
ENDMDL
MODEL 7
REMARK VINA RESULT:    -4.460      1.362      1.541
REMARK INTER + INTRA:          -5.783
REMARK INTER:                  -5.399
REMARK INTRA:                  -0.384
REMARK UNBOUND:                -0.280
REMARK SMILES COC(=O)c1ccccc1C(=O)OC
REMARK SMILES IDX 5 1 6 2 7 3 8 4 9 5 10 6 3 7 4 8 2 9 1 10 11 11 12 12 13 13
REMARK SMILES IDX 14 14
REMARK H PARENT
REMARK Flexibility Score: inf
ROOT
ATOM      1  C   UNL     1     -30.627  28.486   5.402  1.00  0.00     0.074 A 
ATOM      2  C   UNL     1     -29.784  29.244   6.236  1.00  0.00     0.016 A 
ATOM      3  C   UNL     1     -29.292  30.481   5.819  1.00  0.00     0.001 A 
ATOM      4  C   UNL     1     -29.632  30.981   4.564  1.00  0.00     0.001 A 
ATOM      5  C   UNL     1     -30.485  30.257   3.730  1.00  0.00     0.016 A 
ATOM      6  C   UNL     1     -31.011  29.018   4.139  1.00  0.00     0.074 A 
ENDROOT
BRANCH   1   7
ATOM      7  C   UNL     1     -31.019  27.135   5.861  1.00  0.00     0.338 C 
ATOM      8  O   UNL     1     -32.218  26.888   6.169  1.00  0.00    -0.246 OA
BRANCH   7   9
ATOM      9  O   UNL     1     -30.062  26.115   5.896  1.00  0.00    -0.465 OA
ATOM     10  C   UNL     1     -29.384  25.658   4.731  1.00  0.00     0.282 C 
ENDBRANCH   7   9
ENDBRANCH   1   7
BRANCH   6  11
ATOM     11  C   UNL     1     -31.997  28.359   3.253  1.00  0.00     0.338 C 
ATOM     12  O   UNL     1     -33.172  28.812   3.159  1.00  0.00    -0.246 OA
BRANCH  11  13
ATOM     13  O   UNL     1     -31.602  27.266   2.474  1.00  0.00    -0.465 OA
ATOM     14  C   UNL     1     -32.311  26.034   2.466  1.00  0.00     0.282 C 
ENDBRANCH  11  13
ENDBRANCH   6  11
TORSDOF 4
ENDMDL
MODEL 8
REMARK VINA RESULT:    -4.401      1.629      2.093
REMARK INTER + INTRA:          -5.710
REMARK INTER:                  -5.398
REMARK INTRA:                  -0.312
REMARK UNBOUND:                -0.280
REMARK SMILES COC(=O)c1ccccc1C(=O)OC
REMARK SMILES IDX 5 1 6 2 7 3 8 4 9 5 10 6 3 7 4 8 2 9 1 10 11 11 12 12 13 13
REMARK SMILES IDX 14 14
REMARK H PARENT
REMARK Flexibility Score: inf
ROOT
ATOM      1  C   UNL     1     -30.192  27.533   5.939  1.00  0.00     0.074 A 
ATOM      2  C   UNL     1     -30.150  28.925   6.145  1.00  0.00     0.016 A 
ATOM      3  C   UNL     1     -30.235  29.809   5.069  1.00  0.00     0.001 A 
ATOM      4  C   UNL     1     -30.363  29.319   3.771  1.00  0.00     0.001 A 
ATOM      5  C   UNL     1     -30.429  27.944   3.546  1.00  0.00     0.016 A 
ATOM      6  C   UNL     1     -30.369  27.035   4.618  1.00  0.00     0.074 A 
ENDROOT
BRANCH   1   7
ATOM      7  C   UNL     1     -29.983  26.655   7.112  1.00  0.00     0.338 C 
ATOM      8  O   UNL     1     -30.969  26.149   7.715  1.00  0.00    -0.246 OA
BRANCH   7   9
ATOM      9  O   UNL     1     -28.680  26.341   7.513  1.00  0.00    -0.465 OA
ATOM     10  C   UNL     1     -27.968  27.108   8.478  1.00  0.00     0.282 C 
ENDBRANCH   7   9
ENDBRANCH   1   7
BRANCH   6  11
ATOM     11  C   UNL     1     -30.559  25.597   4.318  1.00  0.00     0.338 C 
ATOM     12  O   UNL     1     -29.584  24.799   4.384  1.00  0.00    -0.246 OA
BRANCH  11  13
ATOM     13  O   UNL     1     -31.839  25.119   4.018  1.00  0.00    -0.465 OA
ATOM     14  C   UNL     1     -32.752  24.692   5.022  1.00  0.00     0.282 C 
ENDBRANCH  11  13
ENDBRANCH   6  11
TORSDOF 4
ENDMDL
MODEL 9
REMARK VINA RESULT:    -4.376      1.888      4.384
REMARK INTER + INTRA:          -5.679
REMARK INTER:                  -5.288
REMARK INTRA:                  -0.391
REMARK UNBOUND:                -0.280
REMARK SMILES COC(=O)c1ccccc1C(=O)OC
REMARK SMILES IDX 5 1 6 2 7 3 8 4 9 5 10 6 3 7 4 8 2 9 1 10 11 11 12 12 13 13
REMARK SMILES IDX 14 14
REMARK H PARENT
REMARK Flexibility Score: inf
ROOT
ATOM      1  C   UNL     1     -30.295  27.416   4.639  1.00  0.00     0.074 A 
ATOM      2  C   UNL     1     -30.189  27.348   3.237  1.00  0.00     0.016 A 
ATOM      3  C   UNL     1     -29.620  26.235   2.617  1.00  0.00     0.001 A 
ATOM      4  C   UNL     1     -29.148  25.173   3.385  1.00  0.00     0.001 A 
ATOM      5  C   UNL     1     -29.263  25.209   4.775  1.00  0.00     0.016 A 
ATOM      6  C   UNL     1     -29.854  26.311   5.420  1.00  0.00     0.074 A 
ENDROOT
BRANCH   1   7
ATOM      7  C   UNL     1     -30.804  28.672   5.234  1.00  0.00     0.338 C 
ATOM      8  O   UNL     1     -30.042  29.669   5.367  1.00  0.00    -0.246 OA
BRANCH   7   9
ATOM      9  O   UNL     1     -32.152  28.767   5.594  1.00  0.00    -0.465 OA
ATOM     10  C   UNL     1     -33.193  28.932   4.637  1.00  0.00     0.282 C 
ENDBRANCH   7   9
ENDBRANCH   1   7
BRANCH   6  11
ATOM     11  C   UNL     1     -30.046  26.232   6.887  1.00  0.00     0.338 C 
ATOM     12  O   UNL     1     -31.188  25.994   7.367  1.00  0.00    -0.246 OA
BRANCH  11  13
ATOM     13  O   UNL     1     -28.941  26.365   7.734  1.00  0.00    -0.465 OA
ATOM     14  C   UNL     1     -28.149  27.545   7.783  1.00  0.00     0.282 C 
ENDBRANCH  11  13
ENDBRANCH   6  11
TORSDOF 4
ENDMDL
