MODEL 1
REMARK VINA RESULT:    -5.006      0.000      0.000
REMARK INTER + INTRA:         -12.493
REMARK INTER:                  -9.395
REMARK INTRA:                  -3.098
REMARK UNBOUND:                -3.098
REMARK SMILES CCCCCCCCC=CCCCCCCCC(=O)[O-]
REMARK SMILES IDX 10 1 9 2 11 3 12 4 13 5 14 6 15 7 16 8 17 9 18 10 19 11
REMARK SMILES IDX 20 12 8 13 7 14 6 15 5 16 4 17 3 18 2 19 1 20
REMARK H PARENT
REMARK Flexibility Score: inf
ROOT
ATOM      1  C   UNL     1     -33.760  39.069  43.793  1.00  0.00    -0.031 C 
ATOM      2  C   UNL     1     -34.006  40.138  44.575  1.00  0.00    -0.031 C 
ENDROOT
BRANCH   1   3
ATOM      3  C   UNL     1     -33.094  39.109  42.441  1.00  0.00     0.027 C 
BRANCH   3   4
ATOM      4  C   UNL     1     -34.114  39.007  41.302  1.00  0.00     0.004 C 
BRANCH   4   5
ATOM      5  C   UNL     1     -33.783  39.995  40.178  1.00  0.00     0.000 C 
BRANCH   5   6
ATOM      6  C   UNL     1     -32.570  40.860  40.542  1.00  0.00     0.000 C 
BRANCH   6   7
ATOM      7  C   UNL     1     -32.942  42.348  40.554  1.00  0.00     0.000 C 
BRANCH   7   8
ATOM      8  C   UNL     1     -34.344  42.571  39.970  1.00  0.00     0.006 C 
BRANCH   8   9
ATOM      9  C   UNL     1     -34.686  44.064  39.923  1.00  0.00     0.053 C 
BRANCH   9  10
ATOM     10  C   UNL     1     -34.652  44.567  38.516  1.00  0.00     0.041 C 
ATOM     11  O   UNL     1     -34.141  43.866  37.603  1.00  0.00    -0.550 OA
ATOM     12  O   UNL     1     -35.151  45.830  38.215  1.00  0.00    -0.550 OA
ENDBRANCH   9  10
ENDBRANCH   8   9
ENDBRANCH   7   8
ENDBRANCH   6   7
ENDBRANCH   5   6
ENDBRANCH   4   5
ENDBRANCH   3   4
ENDBRANCH   1   3
BRANCH   2  13
ATOM     13  C   UNL     1     -33.626  41.566  44.256  1.00  0.00     0.027 C 
BRANCH  13  14
ATOM     14  C   UNL     1     -34.792  42.542  44.501  1.00  0.00     0.004 C 
BRANCH  14  15
ATOM     15  C   UNL     1     -35.686  42.800  43.274  1.00  0.00     0.000 C 
BRANCH  15  16
ATOM     16  C   UNL     1     -36.965  41.945  43.276  1.00  0.00     0.000 C 
BRANCH  16  17
ATOM     17  C   UNL     1     -37.030  40.983  42.078  1.00  0.00    -0.000 C 
BRANCH  17  18
ATOM     18  C   UNL     1     -37.635  39.618  42.454  1.00  0.00    -0.000 C 
BRANCH  18  19
ATOM     19  C   UNL     1     -38.206  39.599  43.880  1.00  0.00    -0.003 C 
ATOM     20  C   UNL     1     -37.473  38.620  44.796  1.00  0.00     0.004 C 
ENDBRANCH  18  19
ENDBRANCH  17  18
ENDBRANCH  16  17
ENDBRANCH  15  16
ENDBRANCH  14  15
ENDBRANCH  13  14
ENDBRANCH   2  13
TORSDOF 15
ENDMDL
MODEL 2
REMARK VINA RESULT:    -4.961      1.338      3.479
REMARK INTER + INTRA:         -12.410
REMARK INTER:                  -9.934
REMARK INTRA:                  -2.476
REMARK UNBOUND:                -3.098
REMARK SMILES CCCCCCCCC=CCCCCCCCC(=O)[O-]
REMARK SMILES IDX 10 1 9 2 11 3 12 4 13 5 14 6 15 7 16 8 17 9 18 10 19 11
REMARK SMILES IDX 20 12 8 13 7 14 6 15 5 16 4 17 3 18 2 19 1 20
REMARK H PARENT
REMARK Flexibility Score: inf
ROOT
ATOM      1  C   UNL     1     -32.583  41.772  44.150  1.00  0.00    -0.031 C 
ATOM      2  C   UNL     1     -31.441  41.298  43.616  1.00  0.00    -0.031 C 
ENDROOT
BRANCH   1   3
ATOM      3  C   UNL     1     -33.921  41.077  44.112  1.00  0.00     0.027 C 
BRANCH   3   4
ATOM      4  C   UNL     1     -35.055  42.001  44.573  1.00  0.00     0.004 C 
BRANCH   4   5
ATOM      5  C   UNL     1     -36.122  42.146  43.482  1.00  0.00     0.000 C 
BRANCH   5   6
ATOM      6  C   UNL     1     -35.755  43.260  42.495  1.00  0.00     0.000 C 
BRANCH   6   7
ATOM      7  C   UNL     1     -35.462  42.685  41.103  1.00  0.00     0.000 C 
BRANCH   7   8
ATOM      8  C   UNL     1     -34.268  43.397  40.453  1.00  0.00     0.006 C 
BRANCH   8   9
ATOM      9  C   UNL     1     -34.663  44.796  39.968  1.00  0.00     0.053 C 
BRANCH   9  10
ATOM     10  C   UNL     1     -34.645  44.860  38.474  1.00  0.00     0.041 C 
ATOM     11  O   UNL     1     -34.949  45.928  37.881  1.00  0.00    -0.550 OA
ATOM     12  O   UNL     1     -34.329  43.727  37.732  1.00  0.00    -0.550 OA
ENDBRANCH   9  10
ENDBRANCH   8   9
ENDBRANCH   7   8
ENDBRANCH   6   7
ENDBRANCH   5   6
ENDBRANCH   4   5
ENDBRANCH   3   4
ENDBRANCH   1   3
BRANCH   2  13
ATOM     13  C   UNL     1     -31.286  39.967  42.914  1.00  0.00     0.027 C 
BRANCH  13  14
ATOM     14  C   UNL     1     -31.002  40.138  41.410  1.00  0.00     0.004 C 
BRANCH  14  15
ATOM     15  C   UNL     1     -32.247  40.405  40.545  1.00  0.00     0.000 C 
BRANCH  15  16
ATOM     16  C   UNL     1     -33.415  39.458  40.870  1.00  0.00     0.000 C 
BRANCH  16  17
ATOM     17  C   UNL     1     -34.252  39.110  39.628  1.00  0.00    -0.000 C 
BRANCH  17  18
ATOM     18  C   UNL     1     -35.762  39.079  39.927  1.00  0.00    -0.000 C 
BRANCH  18  19
ATOM     19  C   UNL     1     -36.063  38.816  41.411  1.00  0.00    -0.003 C 
ATOM     20  C   UNL     1     -37.514  39.120  41.781  1.00  0.00     0.004 C 
ENDBRANCH  18  19
ENDBRANCH  17  18
ENDBRANCH  16  17
ENDBRANCH  15  16
ENDBRANCH  14  15
ENDBRANCH  13  14
ENDBRANCH   2  13
TORSDOF 15
ENDMDL
MODEL 3
REMARK VINA RESULT:    -4.929      1.468      4.492
REMARK INTER + INTRA:         -12.349
REMARK INTER:                  -9.730
REMARK INTRA:                  -2.619
REMARK UNBOUND:                -3.098
REMARK SMILES CCCCCCCCC=CCCCCCCCC(=O)[O-]
REMARK SMILES IDX 10 1 9 2 11 3 12 4 13 5 14 6 15 7 16 8 17 9 18 10 19 11
REMARK SMILES IDX 20 12 8 13 7 14 6 15 5 16 4 17 3 18 2 19 1 20
REMARK H PARENT
REMARK Flexibility Score: inf
ROOT
ATOM      1  C   UNL     1     -38.098  39.886  43.127  1.00  0.00    -0.031 C 
ATOM      2  C   UNL     1     -37.810  39.133  42.047  1.00  0.00    -0.031 C 
ENDROOT
BRANCH   1   3
ATOM      3  C   UNL     1     -37.670  41.317  43.334  1.00  0.00     0.027 C 
BRANCH   3   4
ATOM      4  C   UNL     1     -36.397  41.412  44.185  1.00  0.00     0.004 C 
BRANCH   4   5
ATOM      5  C   UNL     1     -35.264  42.085  43.402  1.00  0.00     0.000 C 
BRANCH   5   6
ATOM      6  C   UNL     1     -35.800  43.216  42.516  1.00  0.00     0.000 C 
BRANCH   6   7
ATOM      7  C   UNL     1     -35.435  42.981  41.045  1.00  0.00     0.000 C 
BRANCH   7   8
ATOM      8  C   UNL     1     -34.627  44.156  40.482  1.00  0.00     0.006 C 
BRANCH   8   9
ATOM      9  C   UNL     1     -33.979  43.785  39.144  1.00  0.00     0.053 C 
BRANCH   9  10
ATOM     10  C   UNL     1     -34.310  44.802  38.099  1.00  0.00     0.041 C 
ATOM     11  O   UNL     1     -35.175  45.688  38.328  1.00  0.00    -0.550 OA
ATOM     12  O   UNL     1     -33.692  44.749  36.855  1.00  0.00    -0.550 OA
ENDBRANCH   9  10
ENDBRANCH   8   9
ENDBRANCH   7   8
ENDBRANCH   6   7
ENDBRANCH   5   6
ENDBRANCH   4   5
ENDBRANCH   3   4
ENDBRANCH   1   3
BRANCH   2  13
ATOM     13  C   UNL     1     -37.038  39.598  40.833  1.00  0.00     0.027 C 
BRANCH  13  14
ATOM     14  C   UNL     1     -35.549  39.212  40.913  1.00  0.00     0.004 C 
BRANCH  14  15
ATOM     15  C   UNL     1     -34.768  39.379  39.597  1.00  0.00     0.000 C 
BRANCH  15  16
ATOM     16  C   UNL     1     -33.384  40.019  39.801  1.00  0.00     0.000 C 
BRANCH  16  17
ATOM     17  C   UNL     1     -32.972  40.070  41.281  1.00  0.00    -0.000 C 
BRANCH  17  18
ATOM     18  C   UNL     1     -32.142  41.323  41.617  1.00  0.00    -0.000 C 
BRANCH  18  19
ATOM     19  C   UNL     1     -31.101  41.062  42.717  1.00  0.00    -0.003 C 
ATOM     20  C   UNL     1     -31.496  41.676  44.059  1.00  0.00     0.004 C 
ENDBRANCH  18  19
ENDBRANCH  17  18
ENDBRANCH  16  17
ENDBRANCH  15  16
ENDBRANCH  14  15
ENDBRANCH  13  14
ENDBRANCH   2  13
TORSDOF 15
ENDMDL
MODEL 4
REMARK VINA RESULT:    -4.831      1.931      4.368
REMARK INTER + INTRA:         -12.165
REMARK INTER:                  -8.893
REMARK INTRA:                  -3.272
REMARK UNBOUND:                -3.098
REMARK SMILES CCCCCCCCC=CCCCCCCCC(=O)[O-]
REMARK SMILES IDX 10 1 9 2 11 3 12 4 13 5 14 6 15 7 16 8 17 9 18 10 19 11
REMARK SMILES IDX 20 12 8 13 7 14 6 15 5 16 4 17 3 18 2 19 1 20
REMARK H PARENT
REMARK Flexibility Score: inf
ROOT
ATOM      1  C   UNL     1     -37.915  39.179  43.084  1.00  0.00    -0.031 C 
ATOM      2  C   UNL     1     -37.082  38.129  42.947  1.00  0.00    -0.031 C 
ENDROOT
BRANCH   1   3
ATOM      3  C   UNL     1     -37.627  40.588  42.631  1.00  0.00     0.027 C 
BRANCH   3   4
ATOM      4  C   UNL     1     -37.768  41.594  43.781  1.00  0.00     0.004 C 
BRANCH   4   5
ATOM      5  C   UNL     1     -36.458  41.713  44.569  1.00  0.00     0.000 C 
BRANCH   5   6
ATOM      6  C   UNL     1     -35.336  42.281  43.692  1.00  0.00     0.000 C 
BRANCH   6   7
ATOM      7  C   UNL     1     -33.965  41.787  44.170  1.00  0.00     0.000 C 
BRANCH   7   8
ATOM      8  C   UNL     1     -33.068  41.415  42.982  1.00  0.00     0.006 C 
BRANCH   8   9
ATOM      9  C   UNL     1     -33.800  41.634  41.653  1.00  0.00     0.053 C 
BRANCH   9  10
ATOM     10  C   UNL     1     -32.913  42.334  40.674  1.00  0.00     0.041 C 
ATOM     11  O   UNL     1     -33.395  43.172  39.867  1.00  0.00    -0.550 OA
ATOM     12  O   UNL     1     -31.556  42.034  40.624  1.00  0.00    -0.550 OA
ENDBRANCH   9  10
ENDBRANCH   8   9
ENDBRANCH   7   8
ENDBRANCH   6   7
ENDBRANCH   5   6
ENDBRANCH   4   5
ENDBRANCH   3   4
ENDBRANCH   1   3
BRANCH   2  13
ATOM     13  C   UNL     1     -35.724  38.166  42.284  1.00  0.00     0.027 C 
BRANCH  13  14
ATOM     14  C   UNL     1     -34.579  38.178  43.313  1.00  0.00     0.004 C 
BRANCH  14  15
ATOM     15  C   UNL     1     -34.937  37.576  44.684  1.00  0.00     0.000 C 
BRANCH  15  16
ATOM     16  C   UNL     1     -34.742  38.569  45.843  1.00  0.00     0.000 C 
BRANCH  16  17
ATOM     17  C   UNL     1     -36.018  38.753  46.680  1.00  0.00    -0.000 C 
BRANCH  17  18
ATOM     18  C   UNL     1     -36.798  37.438  46.858  1.00  0.00    -0.000 C 
BRANCH  18  19
ATOM     19  C   UNL     1     -38.296  37.596  46.553  1.00  0.00    -0.003 C 
ATOM     20  C   UNL     1     -38.768  39.046  46.650  1.00  0.00     0.004 C 
ENDBRANCH  18  19
ENDBRANCH  17  18
ENDBRANCH  16  17
ENDBRANCH  15  16
ENDBRANCH  14  15
ENDBRANCH  13  14
ENDBRANCH   2  13
TORSDOF 15
ENDMDL
MODEL 5
REMARK VINA RESULT:    -4.828      1.239      2.551
REMARK INTER + INTRA:         -12.159
REMARK INTER:                  -9.153
REMARK INTRA:                  -3.006
REMARK UNBOUND:                -3.098
REMARK SMILES CCCCCCCCC=CCCCCCCCC(=O)[O-]
REMARK SMILES IDX 10 1 9 2 11 3 12 4 13 5 14 6 15 7 16 8 17 9 18 10 19 11
REMARK SMILES IDX 20 12 8 13 7 14 6 15 5 16 4 17 3 18 2 19 1 20
REMARK H PARENT
REMARK Flexibility Score: inf
ROOT
ATOM      1  C   UNL     1     -34.244  41.517  44.295  1.00  0.00    -0.031 C 
ATOM      2  C   UNL     1     -35.159  42.340  43.747  1.00  0.00    -0.031 C 
ENDROOT
BRANCH   1   3
ATOM      3  C   UNL     1     -34.232  40.014  44.167  1.00  0.00     0.027 C 
BRANCH   3   4
ATOM      4  C   UNL     1     -33.273  39.546  43.066  1.00  0.00     0.004 C 
BRANCH   4   5
ATOM      5  C   UNL     1     -34.045  39.110  41.815  1.00  0.00     0.000 C 
BRANCH   5   6
ATOM      6  C   UNL     1     -33.585  39.893  40.580  1.00  0.00     0.000 C 
BRANCH   6   7
ATOM      7  C   UNL     1     -32.273  40.636  40.860  1.00  0.00     0.000 C 
BRANCH   7   8
ATOM      8  C   UNL     1     -32.472  42.155  40.783  1.00  0.00     0.006 C 
BRANCH   8   9
ATOM      9  C   UNL     1     -33.826  42.498  40.153  1.00  0.00     0.053 C 
BRANCH   9  10
ATOM     10  C   UNL     1     -33.700  43.679  39.244  1.00  0.00     0.041 C 
ATOM     11  O   UNL     1     -33.007  44.673  39.588  1.00  0.00    -0.550 OA
ATOM     12  O   UNL     1     -34.379  43.701  38.032  1.00  0.00    -0.550 OA
ENDBRANCH   9  10
ENDBRANCH   8   9
ENDBRANCH   7   8
ENDBRANCH   6   7
ENDBRANCH   5   6
ENDBRANCH   4   5
ENDBRANCH   3   4
ENDBRANCH   1   3
BRANCH   2  13
ATOM     13  C   UNL     1     -36.317  41.910  42.875  1.00  0.00     0.027 C 
BRANCH  13  14
ATOM     14  C   UNL     1     -37.621  41.756  43.681  1.00  0.00     0.004 C 
BRANCH  14  15
ATOM     15  C   UNL     1     -38.253  40.353  43.623  1.00  0.00     0.000 C 
BRANCH  15  16
ATOM     16  C   UNL     1     -37.771  39.530  42.416  1.00  0.00     0.000 C 
BRANCH  16  17
ATOM     17  C   UNL     1     -37.446  38.074  42.789  1.00  0.00    -0.000 C 
BRANCH  17  18
ATOM     18  C   UNL     1     -37.191  37.897  44.297  1.00  0.00    -0.000 C 
BRANCH  18  19
ATOM     19  C   UNL     1     -36.558  36.538  44.631  1.00  0.00    -0.003 C 
ATOM     20  C   UNL     1     -35.151  36.384  44.054  1.00  0.00     0.004 C 
ENDBRANCH  18  19
ENDBRANCH  17  18
ENDBRANCH  16  17
ENDBRANCH  15  16
ENDBRANCH  14  15
ENDBRANCH  13  14
ENDBRANCH   2  13
TORSDOF 15
ENDMDL
MODEL 6
REMARK VINA RESULT:    -4.799      5.153      7.848
REMARK INTER + INTRA:         -12.106
REMARK INTER:                  -9.431
REMARK INTRA:                  -2.674
REMARK UNBOUND:                -3.098
REMARK SMILES CCCCCCCCC=CCCCCCCCC(=O)[O-]
REMARK SMILES IDX 10 1 9 2 11 3 12 4 13 5 14 6 15 7 16 8 17 9 18 10 19 11
REMARK SMILES IDX 20 12 8 13 7 14 6 15 5 16 4 17 3 18 2 19 1 20
REMARK H PARENT
REMARK Flexibility Score: inf
ROOT
ATOM      1  C   UNL     1     -34.616  38.332  43.023  1.00  0.00    -0.031 C 
ATOM      2  C   UNL     1     -35.727  38.536  42.288  1.00  0.00    -0.031 C 
ENDROOT
BRANCH   1   3
ATOM      3  C   UNL     1     -34.568  37.635  44.359  1.00  0.00     0.027 C 
BRANCH   3   4
ATOM      4  C   UNL     1     -34.834  38.605  45.517  1.00  0.00     0.004 C 
BRANCH   4   5
ATOM      5  C   UNL     1     -35.772  37.977  46.555  1.00  0.00     0.000 C 
BRANCH   5   6
ATOM      6  C   UNL     1     -37.051  38.806  46.717  1.00  0.00     0.000 C 
BRANCH   6   7
ATOM      7  C   UNL     1     -38.287  37.990  46.316  1.00  0.00     0.000 C 
BRANCH   7   8
ATOM      8  C   UNL     1     -39.574  38.652  46.827  1.00  0.00     0.006 C 
BRANCH   8   9
ATOM      9  C   UNL     1     -40.444  37.644  47.586  1.00  0.00     0.053 C 
BRANCH   9  10
ATOM     10  C   UNL     1     -40.363  37.885  49.059  1.00  0.00     0.041 C 
ATOM     11  O   UNL     1     -39.250  38.097  49.608  1.00  0.00    -0.550 OA
ATOM     12  O   UNL     1     -41.515  37.838  49.837  1.00  0.00    -0.550 OA
ENDBRANCH   9  10
ENDBRANCH   8   9
ENDBRANCH   7   8
ENDBRANCH   6   7
ENDBRANCH   5   6
ENDBRANCH   4   5
ENDBRANCH   3   4
ENDBRANCH   1   3
BRANCH   2  13
ATOM     13  C   UNL     1     -37.119  38.072  42.651  1.00  0.00     0.027 C 
BRANCH  13  14
ATOM     14  C   UNL     1     -38.161  39.194  42.494  1.00  0.00     0.004 C 
BRANCH  14  15
ATOM     15  C   UNL     1     -38.144  40.252  43.612  1.00  0.00     0.000 C 
BRANCH  15  16
ATOM     16  C   UNL     1     -37.372  41.524  43.220  1.00  0.00     0.000 C 
BRANCH  16  17
ATOM     17  C   UNL     1     -36.218  41.833  44.188  1.00  0.00    -0.000 C 
BRANCH  17  18
ATOM     18  C   UNL     1     -34.888  42.081  43.455  1.00  0.00    -0.000 C 
BRANCH  18  19
ATOM     19  C   UNL     1     -33.665  41.782  44.336  1.00  0.00    -0.003 C 
ATOM     20  C   UNL     1     -32.451  41.330  43.525  1.00  0.00     0.004 C 
ENDBRANCH  18  19
ENDBRANCH  17  18
ENDBRANCH  16  17
ENDBRANCH  15  16
ENDBRANCH  14  15
ENDBRANCH  13  14
ENDBRANCH   2  13
TORSDOF 15
ENDMDL
MODEL 7
REMARK VINA RESULT:    -4.799      2.306      4.368
REMARK INTER + INTRA:         -12.105
REMARK INTER:                  -8.864
REMARK INTRA:                  -3.241
REMARK UNBOUND:                -3.098
REMARK SMILES CCCCCCCCC=CCCCCCCCC(=O)[O-]
REMARK SMILES IDX 10 1 9 2 11 3 12 4 13 5 14 6 15 7 16 8 17 9 18 10 19 11
REMARK SMILES IDX 20 12 8 13 7 14 6 15 5 16 4 17 3 18 2 19 1 20
REMARK H PARENT
REMARK Flexibility Score: inf
ROOT
ATOM      1  C   UNL     1     -36.025  37.733  42.940  1.00  0.00    -0.031 C 
ATOM      2  C   UNL     1     -37.330  38.028  43.093  1.00  0.00    -0.031 C 
ENDROOT
BRANCH   1   3
ATOM      3  C   UNL     1     -34.946  38.716  42.558  1.00  0.00     0.027 C 
BRANCH   3   4
ATOM      4  C   UNL     1     -33.822  38.758  43.601  1.00  0.00     0.004 C 
BRANCH   4   5
ATOM      5  C   UNL     1     -33.689  40.160  44.207  1.00  0.00     0.000 C 
BRANCH   5   6
ATOM      6  C   UNL     1     -34.722  40.383  45.317  1.00  0.00     0.000 C 
BRANCH   6   7
ATOM      7  C   UNL     1     -35.614  41.590  45.002  1.00  0.00     0.000 C 
BRANCH   7   8
ATOM      8  C   UNL     1     -34.995  42.460  43.900  1.00  0.00     0.006 C 
BRANCH   8   9
ATOM      9  C   UNL     1     -35.989  42.684  42.756  1.00  0.00     0.053 C 
BRANCH   9  10
ATOM     10  C   UNL     1     -35.407  42.225  41.457  1.00  0.00     0.041 C 
ATOM     11  O   UNL     1     -36.153  41.751  40.559  1.00  0.00    -0.550 OA
ATOM     12  O   UNL     1     -34.034  42.283  41.249  1.00  0.00    -0.550 OA
ENDBRANCH   9  10
ENDBRANCH   8   9
ENDBRANCH   7   8
ENDBRANCH   6   7
ENDBRANCH   5   6
ENDBRANCH   4   5
ENDBRANCH   3   4
ENDBRANCH   1   3
BRANCH   2  13
ATOM     13  C   UNL     1     -37.944  39.401  42.946  1.00  0.00     0.027 C 
BRANCH  13  14
ATOM     14  C   UNL     1     -38.991  39.686  44.040  1.00  0.00     0.004 C 
BRANCH  14  15
ATOM     15  C   UNL     1     -38.463  39.577  45.482  1.00  0.00     0.000 C 
BRANCH  15  16
ATOM     16  C   UNL     1     -39.290  38.613  46.350  1.00  0.00     0.000 C 
BRANCH  16  17
ATOM     17  C   UNL     1     -38.421  37.543  47.031  1.00  0.00    -0.000 C 
BRANCH  17  18
ATOM     18  C   UNL     1     -36.917  37.859  46.934  1.00  0.00    -0.000 C 
BRANCH  18  19
ATOM     19  C   UNL     1     -36.089  36.646  46.481  1.00  0.00    -0.003 C 
ATOM     20  C   UNL     1     -36.957  35.502  45.958  1.00  0.00     0.004 C 
ENDBRANCH  18  19
ENDBRANCH  17  18
ENDBRANCH  16  17
ENDBRANCH  15  16
ENDBRANCH  14  15
ENDBRANCH  13  14
ENDBRANCH   2  13
TORSDOF 15
ENDMDL
MODEL 8
REMARK VINA RESULT:    -4.793      1.442      3.271
REMARK INTER + INTRA:         -12.094
REMARK INTER:                  -9.424
REMARK INTRA:                  -2.670
REMARK UNBOUND:                -3.098
REMARK SMILES CCCCCCCCC=CCCCCCCCC(=O)[O-]
REMARK SMILES IDX 10 1 9 2 11 3 12 4 13 5 14 6 15 7 16 8 17 9 18 10 19 11
REMARK SMILES IDX 20 12 8 13 7 14 6 15 5 16 4 17 3 18 2 19 1 20
REMARK H PARENT
REMARK Flexibility Score: inf
ROOT
ATOM      1  C   UNL     1     -34.828  39.125  39.805  1.00  0.00    -0.031 C 
ATOM      2  C   UNL     1     -36.074  39.157  40.315  1.00  0.00    -0.031 C 
ENDROOT
BRANCH   1   3
ATOM      3  C   UNL     1     -33.997  40.332  39.451  1.00  0.00     0.027 C 
BRANCH   3   4
ATOM      4  C   UNL     1     -33.147  40.804  40.637  1.00  0.00     0.004 C 
BRANCH   4   5
ATOM      5  C   UNL     1     -33.218  42.328  40.790  1.00  0.00     0.000 C 
BRANCH   5   6
ATOM      6  C   UNL     1     -34.193  42.940  39.777  1.00  0.00     0.000 C 
BRANCH   6   7
ATOM      7  C   UNL     1     -35.023  44.058  40.422  1.00  0.00     0.000 C 
BRANCH   7   8
ATOM      8  C   UNL     1     -34.756  45.406  39.740  1.00  0.00     0.006 C 
BRANCH   8   9
ATOM      9  C   UNL     1     -34.801  45.267  38.215  1.00  0.00     0.053 C 
BRANCH   9  10
ATOM     10  C   UNL     1     -33.531  45.766  37.604  1.00  0.00     0.041 C 
ATOM     11  O   UNL     1     -33.539  46.286  36.457  1.00  0.00    -0.550 OA
ATOM     12  O   UNL     1     -32.327  45.621  38.284  1.00  0.00    -0.550 OA
ENDBRANCH   9  10
ENDBRANCH   8   9
ENDBRANCH   7   8
ENDBRANCH   6   7
ENDBRANCH   5   6
ENDBRANCH   4   5
ENDBRANCH   3   4
ENDBRANCH   1   3
BRANCH   2  13
ATOM     13  C   UNL     1     -36.851  40.408  40.658  1.00  0.00     0.027 C 
BRANCH  13  14
ATOM     14  C   UNL     1     -37.034  40.575  42.178  1.00  0.00     0.004 C 
BRANCH  14  15
ATOM     15  C   UNL     1     -36.404  41.851  42.767  1.00  0.00     0.000 C 
BRANCH  15  16
ATOM     16  C   UNL     1     -36.247  41.789  44.296  1.00  0.00     0.000 C 
BRANCH  16  17
ATOM     17  C   UNL     1     -34.791  41.987  44.746  1.00  0.00    -0.000 C 
BRANCH  17  18
ATOM     18  C   UNL     1     -33.848  40.913  44.173  1.00  0.00    -0.000 C 
BRANCH  18  19
ATOM     19  C   UNL     1     -34.310  39.486  44.507  1.00  0.00    -0.003 C 
ATOM     20  C   UNL     1     -33.816  38.454  43.493  1.00  0.00     0.004 C 
ENDBRANCH  18  19
ENDBRANCH  17  18
ENDBRANCH  16  17
ENDBRANCH  15  16
ENDBRANCH  14  15
ENDBRANCH  13  14
ENDBRANCH   2  13
TORSDOF 15
ENDMDL
MODEL 9
REMARK VINA RESULT:    -4.744      4.850      7.472
REMARK INTER + INTRA:         -12.001
REMARK INTER:                  -8.665
REMARK INTRA:                  -3.336
REMARK UNBOUND:                -3.098
REMARK SMILES CCCCCCCCC=CCCCCCCCC(=O)[O-]
REMARK SMILES IDX 10 1 9 2 11 3 12 4 13 5 14 6 15 7 16 8 17 9 18 10 19 11
REMARK SMILES IDX 20 12 8 13 7 14 6 15 5 16 4 17 3 18 2 19 1 20
REMARK H PARENT
REMARK Flexibility Score: inf
ROOT
ATOM      1  C   UNL     1     -37.436  38.787  42.016  1.00  0.00    -0.031 C 
ATOM      2  C   UNL     1     -37.716  40.078  42.282  1.00  0.00    -0.031 C 
ENDROOT
BRANCH   1   3
ATOM      3  C   UNL     1     -37.355  37.682  43.037  1.00  0.00     0.027 C 
BRANCH   3   4
ATOM      4  C   UNL     1     -35.916  37.460  43.522  1.00  0.00     0.004 C 
BRANCH   4   5
ATOM      5  C   UNL     1     -35.845  37.474  45.053  1.00  0.00     0.000 C 
BRANCH   5   6
ATOM      6  C   UNL     1     -37.225  37.222  45.673  1.00  0.00     0.000 C 
BRANCH   6   7
ATOM      7  C   UNL     1     -37.368  37.959  47.010  1.00  0.00     0.000 C 
BRANCH   7   8
ATOM      8  C   UNL     1     -38.451  39.043  46.929  1.00  0.00     0.006 C 
BRANCH   8   9
ATOM      9  C   UNL     1     -39.820  38.429  46.619  1.00  0.00     0.053 C 
BRANCH   9  10
ATOM     10  C   UNL     1     -40.329  37.658  47.796  1.00  0.00     0.041 C 
ATOM     11  O   UNL     1     -40.410  36.403  47.745  1.00  0.00    -0.550 OA
ATOM     12  O   UNL     1     -40.751  38.329  48.938  1.00  0.00    -0.550 OA
ENDBRANCH   9  10
ENDBRANCH   8   9
ENDBRANCH   7   8
ENDBRANCH   6   7
ENDBRANCH   5   6
ENDBRANCH   4   5
ENDBRANCH   3   4
ENDBRANCH   1   3
BRANCH   2  13
ATOM     13  C   UNL     1     -38.034  40.644  43.647  1.00  0.00     0.027 C 
BRANCH  13  14
ATOM     14  C   UNL     1     -37.013  41.712  44.082  1.00  0.00     0.004 C 
BRANCH  14  15
ATOM     15  C   UNL     1     -36.261  41.392  45.387  1.00  0.00     0.000 C 
BRANCH  15  16
ATOM     16  C   UNL     1     -34.843  40.847  45.142  1.00  0.00     0.000 C 
BRANCH  16  17
ATOM     17  C   UNL     1     -34.189  41.453  43.889  1.00  0.00    -0.000 C 
BRANCH  17  18
ATOM     18  C   UNL     1     -33.763  40.379  42.872  1.00  0.00    -0.000 C 
BRANCH  18  19
ATOM     19  C   UNL     1     -34.186  40.727  41.437  1.00  0.00    -0.003 C 
ATOM     20  C   UNL     1     -34.604  42.189  41.283  1.00  0.00     0.004 C 
ENDBRANCH  18  19
ENDBRANCH  17  18
ENDBRANCH  16  17
ENDBRANCH  15  16
ENDBRANCH  14  15
ENDBRANCH  13  14
ENDBRANCH   2  13
TORSDOF 15
ENDMDL
