MODEL 1
REMARK VINA RESULT:    -4.219      0.000      0.000
REMARK INTER + INTRA:          -6.775
REMARK INTER:                  -6.439
REMARK INTRA:                  -0.336
REMARK UNBOUND:                -0.336
REMARK SMILES O=C([O-])CCCCCCCCC(=O)[O-]
REMARK SMILES IDX 7 1 6 2 5 3 4 4 2 5 1 6 3 7 8 8 9 9 10 10 11 11 12 12 13 13
REMARK SMILES IDX 14 14
REMARK H PARENT
REMARK Flexibility Score: inf
ROOT
ATOM      1  C   UNL     1     -17.369 -17.680  -3.347  1.00  0.00     0.000 C 
ENDROOT
BRANCH   1   2
ATOM      2  C   UNL     1     -18.252 -18.289  -4.444  1.00  0.00     0.000 C 
BRANCH   2   3
ATOM      3  C   UNL     1     -19.337 -19.192  -3.839  1.00  0.00     0.006 C 
BRANCH   3   4
ATOM      4  C   UNL     1     -19.175 -20.657  -4.263  1.00  0.00     0.053 C 
BRANCH   4   5
ATOM      5  C   UNL     1     -20.348 -21.488  -3.844  1.00  0.00     0.041 C 
ATOM      6  O   UNL     1     -21.197 -21.863  -4.695  1.00  0.00    -0.550 OA
ATOM      7  O   UNL     1     -20.522 -21.822  -2.506  1.00  0.00    -0.550 OA
ENDBRANCH   4   5
ENDBRANCH   3   4
ENDBRANCH   2   3
ENDBRANCH   1   2
BRANCH   1   8
ATOM      8  C   UNL     1     -16.086 -17.087  -3.940  1.00  0.00     0.000 C 
BRANCH   8   9
ATOM      9  C   UNL     1     -15.642 -15.843  -3.160  1.00  0.00     0.000 C 
BRANCH   9  10
ATOM     10  C   UNL     1     -16.132 -14.559  -3.845  1.00  0.00     0.006 C 
BRANCH  10  11
ATOM     11  C   UNL     1     -16.182 -14.697  -5.372  1.00  0.00     0.053 C 
BRANCH  11  12
ATOM     12  C   UNL     1     -16.405 -13.376  -6.044  1.00  0.00     0.041 C 
ATOM     13  O   UNL     1     -15.682 -12.388  -5.753  1.00  0.00    -0.550 OA
ATOM     14  O   UNL     1     -17.434 -13.230  -6.967  1.00  0.00    -0.550 OA
ENDBRANCH  11  12
ENDBRANCH  10  11
ENDBRANCH   9  10
ENDBRANCH   8   9
ENDBRANCH   1   8
TORSDOF 9
ENDMDL
MODEL 2
REMARK VINA RESULT:    -4.079      0.944      7.366
REMARK INTER + INTRA:          -6.562
REMARK INTER:                  -6.088
REMARK INTRA:                  -0.474
REMARK UNBOUND:                -0.336
REMARK SMILES O=C([O-])CCCCCCCCC(=O)[O-]
REMARK SMILES IDX 7 1 6 2 5 3 4 4 2 5 1 6 3 7 8 8 9 9 10 10 11 11 12 12 13 13
REMARK SMILES IDX 14 14
REMARK H PARENT
REMARK Flexibility Score: inf
ROOT
ATOM      1  C   UNL     1     -15.699 -16.513  -4.750  1.00  0.00     0.000 C 
ENDROOT
BRANCH   1   2
ATOM      2  C   UNL     1     -15.988 -15.457  -3.676  1.00  0.00     0.000 C 
BRANCH   2   3
ATOM      3  C   UNL     1     -16.161 -14.066  -4.305  1.00  0.00     0.006 C 
BRANCH   3   4
ATOM      4  C   UNL     1     -16.261 -14.129  -5.835  1.00  0.00     0.053 C 
BRANCH   4   5
ATOM      5  C   UNL     1     -16.738 -12.833  -6.413  1.00  0.00     0.041 C 
ATOM      6  O   UNL     1     -16.128 -11.761  -6.158  1.00  0.00    -0.550 OA
ATOM      7  O   UNL     1     -17.877 -12.803  -7.208  1.00  0.00    -0.550 OA
ENDBRANCH   4   5
ENDBRANCH   3   4
ENDBRANCH   2   3
ENDBRANCH   1   2
BRANCH   1   8
ATOM      8  C   UNL     1     -16.547 -17.771  -4.528  1.00  0.00     0.000 C 
BRANCH   8   9
ATOM      9  C   UNL     1     -17.806 -17.449  -3.714  1.00  0.00     0.000 C 
BRANCH   9  10
ATOM     10  C   UNL     1     -18.676 -18.701  -3.528  1.00  0.00     0.006 C 
BRANCH  10  11
ATOM     11  C   UNL     1     -18.553 -19.675  -4.706  1.00  0.00     0.053 C 
BRANCH  11  12
ATOM     12  C   UNL     1     -19.495 -20.834  -4.572  1.00  0.00     0.041 C 
ATOM     13  O   UNL     1     -20.299 -21.106  -5.501  1.00  0.00    -0.550 OA
ATOM     14  O   UNL     1     -19.506 -21.591  -3.407  1.00  0.00    -0.550 OA
ENDBRANCH  11  12
ENDBRANCH  10  11
ENDBRANCH   9  10
ENDBRANCH   8   9
ENDBRANCH   1   8
TORSDOF 9
ENDMDL
MODEL 3
REMARK VINA RESULT:    -4.075      1.153      7.153
REMARK INTER + INTRA:          -6.555
REMARK INTER:                  -6.056
REMARK INTRA:                  -0.499
REMARK UNBOUND:                -0.336
REMARK SMILES O=C([O-])CCCCCCCCC(=O)[O-]
REMARK SMILES IDX 7 1 6 2 5 3 4 4 2 5 1 6 3 7 8 8 9 9 10 10 11 11 12 12 13 13
REMARK SMILES IDX 14 14
REMARK H PARENT
REMARK Flexibility Score: inf
ROOT
ATOM      1  C   UNL     1     -17.493 -17.198  -3.121  1.00  0.00     0.000 C 
ENDROOT
BRANCH   1   2
ATOM      2  C   UNL     1     -16.407 -16.244  -2.607  1.00  0.00     0.000 C 
BRANCH   2   3
ATOM      3  C   UNL     1     -15.617 -15.630  -3.773  1.00  0.00     0.006 C 
BRANCH   3   4
ATOM      4  C   UNL     1     -16.229 -14.309  -4.256  1.00  0.00     0.053 C 
BRANCH   4   5
ATOM      5  C   UNL     1     -16.162 -14.181  -5.747  1.00  0.00     0.041 C 
ATOM      6  O   UNL     1     -16.943 -13.401  -6.353  1.00  0.00    -0.550 OA
ATOM      7  O   UNL     1     -15.257 -14.947  -6.471  1.00  0.00    -0.550 OA
ENDBRANCH   4   5
ENDBRANCH   3   4
ENDBRANCH   2   3
ENDBRANCH   1   2
BRANCH   1   8
ATOM      8  C   UNL     1     -17.082 -17.829  -4.457  1.00  0.00     0.000 C 
BRANCH   8   9
ATOM      9  C   UNL     1     -17.950 -19.052  -4.778  1.00  0.00     0.000 C 
BRANCH   9  10
ATOM     10  C   UNL     1     -19.352 -18.909  -4.167  1.00  0.00     0.006 C 
BRANCH  10  11
ATOM     11  C   UNL     1     -19.770 -20.155  -3.377  1.00  0.00     0.053 C 
BRANCH  11  12
ATOM     12  C   UNL     1     -20.097 -21.305  -4.280  1.00  0.00     0.041 C 
ATOM     13  O   UNL     1     -19.557 -22.427  -4.097  1.00  0.00    -0.550 OA
ATOM     14  O   UNL     1     -20.973 -21.128  -5.344  1.00  0.00    -0.550 OA
ENDBRANCH  11  12
ENDBRANCH  10  11
ENDBRANCH   9  10
ENDBRANCH   8   9
ENDBRANCH   1   8
TORSDOF 9
ENDMDL
MODEL 4
REMARK VINA RESULT:    -3.960     10.740     12.627
REMARK INTER + INTRA:          -6.380
REMARK INTER:                  -5.811
REMARK INTRA:                  -0.569
REMARK UNBOUND:                -0.336
REMARK SMILES O=C([O-])CCCCCCCCC(=O)[O-]
REMARK SMILES IDX 7 1 6 2 5 3 4 4 2 5 1 6 3 7 8 8 9 9 10 10 11 11 12 12 13 13
REMARK SMILES IDX 14 14
REMARK H PARENT
REMARK Flexibility Score: inf
ROOT
ATOM      1  C   UNL     1     -23.883 -10.865   5.949  1.00  0.00     0.000 C 
ENDROOT
BRANCH   1   2
ATOM      2  C   UNL     1     -22.708  -9.914   5.687  1.00  0.00     0.000 C 
BRANCH   2   3
ATOM      3  C   UNL     1     -22.210 -10.041   4.239  1.00  0.00     0.006 C 
BRANCH   3   4
ATOM      4  C   UNL     1     -20.683  -9.934   4.139  1.00  0.00     0.053 C 
BRANCH   4   5
ATOM      5  C   UNL     1     -20.052 -11.263   3.858  1.00  0.00     0.041 C 
ATOM      6  O   UNL     1     -18.910 -11.324   3.329  1.00  0.00    -0.550 OA
ATOM      7  O   UNL     1     -20.738 -12.435   4.150  1.00  0.00    -0.550 OA
ENDBRANCH   4   5
ENDBRANCH   3   4
ENDBRANCH   2   3
ENDBRANCH   1   2
BRANCH   1   8
ATOM      8  C   UNL     1     -24.226 -11.674   4.693  1.00  0.00     0.000 C 
BRANCH   8   9
ATOM      9  C   UNL     1     -25.127 -12.866   5.034  1.00  0.00     0.000 C 
BRANCH   9  10
ATOM     10  C   UNL     1     -25.473 -13.675   3.774  1.00  0.00     0.006 C 
BRANCH  10  11
ATOM     11  C   UNL     1     -24.928 -15.107   3.836  1.00  0.00     0.053 C 
BRANCH  11  12
ATOM     12  C   UNL     1     -23.860 -15.343   2.811  1.00  0.00     0.041 C 
ATOM     13  O   UNL     1     -22.901 -14.535   2.700  1.00  0.00    -0.550 OA
ATOM     14  O   UNL     1     -23.944 -16.435   1.957  1.00  0.00    -0.550 OA
ENDBRANCH  11  12
ENDBRANCH  10  11
ENDBRANCH   9  10
ENDBRANCH   8   9
ENDBRANCH   1   8
TORSDOF 9
ENDMDL
MODEL 5
REMARK VINA RESULT:    -3.871     10.651     11.244
REMARK INTER + INTRA:          -6.243
REMARK INTER:                  -5.781
REMARK INTRA:                  -0.462
REMARK UNBOUND:                -0.336
REMARK SMILES O=C([O-])CCCCCCCCC(=O)[O-]
REMARK SMILES IDX 7 1 6 2 5 3 4 4 2 5 1 6 3 7 8 8 9 9 10 10 11 11 12 12 13 13
REMARK SMILES IDX 14 14
REMARK H PARENT
REMARK Flexibility Score: inf
ROOT
ATOM      1  C   UNL     1     -24.471 -12.683   4.920  1.00  0.00     0.000 C 
ENDROOT
BRANCH   1   2
ATOM      2  C   UNL     1     -25.526 -13.085   3.882  1.00  0.00     0.000 C 
BRANCH   2   3
ATOM      3  C   UNL     1     -25.845 -14.585   3.974  1.00  0.00     0.006 C 
BRANCH   3   4
ATOM      4  C   UNL     1     -24.579 -15.440   4.114  1.00  0.00     0.053 C 
BRANCH   4   5
ATOM      5  C   UNL     1     -23.834 -15.541   2.819  1.00  0.00     0.041 C 
ATOM      6  O   UNL     1     -24.227 -16.331   1.920  1.00  0.00    -0.550 OA
ATOM      7  O   UNL     1     -22.685 -14.787   2.617  1.00  0.00    -0.550 OA
ENDBRANCH   4   5
ENDBRANCH   3   4
ENDBRANCH   2   3
ENDBRANCH   1   2
BRANCH   1   8
ATOM      8  C   UNL     1     -24.612 -11.206   5.304  1.00  0.00     0.000 C 
BRANCH   8   9
ATOM      9  C   UNL     1     -23.594 -10.341   4.551  1.00  0.00     0.000 C 
BRANCH   9  10
ATOM     10  C   UNL     1     -22.198 -10.459   5.182  1.00  0.00     0.006 C 
BRANCH  10  11
ATOM     11  C   UNL     1     -21.081 -10.106   4.191  1.00  0.00     0.053 C 
BRANCH  11  12
ATOM     12  C   UNL     1     -20.248 -11.302   3.841  1.00  0.00     0.041 C 
ATOM     13  O   UNL     1     -20.793 -12.422   3.664  1.00  0.00    -0.550 OA
ATOM     14  O   UNL     1     -18.867 -11.184   3.744  1.00  0.00    -0.550 OA
ENDBRANCH  11  12
ENDBRANCH  10  11
ENDBRANCH   9  10
ENDBRANCH   8   9
ENDBRANCH   1   8
TORSDOF 9
ENDMDL
MODEL 6
REMARK VINA RESULT:    -3.791      3.284      7.402
REMARK INTER + INTRA:          -6.122
REMARK INTER:                  -5.749
REMARK INTRA:                  -0.373
REMARK UNBOUND:                -0.336
REMARK SMILES O=C([O-])CCCCCCCCC(=O)[O-]
REMARK SMILES IDX 7 1 6 2 5 3 4 4 2 5 1 6 3 7 8 8 9 9 10 10 11 11 12 12 13 13
REMARK SMILES IDX 14 14
REMARK H PARENT
REMARK Flexibility Score: inf
ROOT
ATOM      1  C   UNL     1     -20.133 -19.331  -4.033  1.00  0.00     0.000 C 
ENDROOT
BRANCH   1   2
ATOM      2  C   UNL     1     -18.631 -19.235  -3.742  1.00  0.00     0.000 C 
BRANCH   2   3
ATOM      3  C   UNL     1     -18.084 -17.850  -4.120  1.00  0.00     0.006 C 
BRANCH   3   4
ATOM      4  C   UNL     1     -17.200 -17.254  -3.017  1.00  0.00     0.053 C 
BRANCH   4   5
ATOM      5  C   UNL     1     -16.272 -16.210  -3.555  1.00  0.00     0.041 C 
ATOM      6  O   UNL     1     -15.202 -15.937  -2.949  1.00  0.00    -0.550 OA
ATOM      7  O   UNL     1     -16.603 -15.513  -4.711  1.00  0.00    -0.550 OA
ENDBRANCH   4   5
ENDBRANCH   3   4
ENDBRANCH   2   3
ENDBRANCH   1   2
BRANCH   1   8
ATOM      8  C   UNL     1     -20.483 -20.677  -4.678  1.00  0.00     0.000 C 
BRANCH   8   9
ATOM      9  C   UNL     1     -21.613 -20.520  -5.703  1.00  0.00     0.000 C 
BRANCH   9  10
ATOM     10  C   UNL     1     -22.237 -19.119  -5.626  1.00  0.00     0.006 C 
BRANCH  10  11
ATOM     11  C   UNL     1     -23.704 -19.111  -6.073  1.00  0.00     0.053 C 
BRANCH  11  12
ATOM     12  C   UNL     1     -23.874 -19.703  -7.439  1.00  0.00     0.041 C 
ATOM     13  O   UNL     1     -24.620 -20.702  -7.607  1.00  0.00    -0.550 OA
ATOM     14  O   UNL     1     -23.182 -19.170  -8.519  1.00  0.00    -0.550 OA
ENDBRANCH  11  12
ENDBRANCH  10  11
ENDBRANCH   9  10
ENDBRANCH   8   9
ENDBRANCH   1   8
TORSDOF 9
ENDMDL
MODEL 7
REMARK VINA RESULT:    -3.726     11.019     13.161
REMARK INTER + INTRA:          -6.023
REMARK INTER:                  -5.440
REMARK INTRA:                  -0.583
REMARK UNBOUND:                -0.336
REMARK SMILES O=C([O-])CCCCCCCCC(=O)[O-]
REMARK SMILES IDX 7 1 6 2 5 3 4 4 2 5 1 6 3 7 8 8 9 9 10 10 11 11 12 12 13 13
REMARK SMILES IDX 14 14
REMARK H PARENT
REMARK Flexibility Score: inf
ROOT
ATOM      1  C   UNL     1     -23.852 -11.541   5.530  1.00  0.00     0.000 C 
ENDROOT
BRANCH   1   2
ATOM      2  C   UNL     1     -23.770 -10.283   4.656  1.00  0.00     0.000 C 
BRANCH   2   3
ATOM      3  C   UNL     1     -22.309  -9.902   4.376  1.00  0.00     0.006 C 
BRANCH   3   4
ATOM      4  C   UNL     1     -21.320 -10.879   5.024  1.00  0.00     0.053 C 
BRANCH   4   5
ATOM      5  C   UNL     1     -20.462 -11.558   4.002  1.00  0.00     0.041 C 
ATOM      6  O   UNL     1     -20.885 -12.578   3.394  1.00  0.00    -0.550 OA
ATOM      7  O   UNL     1     -19.182 -11.085   3.742  1.00  0.00    -0.550 OA
ENDBRANCH   4   5
ENDBRANCH   3   4
ENDBRANCH   2   3
ENDBRANCH   1   2
BRANCH   1   8
ATOM      8  C   UNL     1     -24.778 -12.588   4.901  1.00  0.00     0.000 C 
BRANCH   8   9
ATOM      9  C   UNL     1     -23.975 -13.759   4.323  1.00  0.00     0.000 C 
BRANCH   9  10
ATOM     10  C   UNL     1     -24.642 -15.103   4.655  1.00  0.00     0.006 C 
BRANCH  10  11
ATOM     11  C   UNL     1     -25.247 -15.773   3.415  1.00  0.00     0.053 C 
BRANCH  11  12
ATOM     12  C   UNL     1     -26.737 -15.896   3.519  1.00  0.00     0.041 C 
ATOM     13  O   UNL     1     -27.293 -17.012   3.346  1.00  0.00    -0.550 OA
ATOM     14  O   UNL     1     -27.513 -14.772   3.773  1.00  0.00    -0.550 OA
ENDBRANCH  11  12
ENDBRANCH  10  11
ENDBRANCH   9  10
ENDBRANCH   8   9
ENDBRANCH   1   8
TORSDOF 9
ENDMDL
MODEL 8
REMARK VINA RESULT:    -3.706     10.813     11.396
REMARK INTER + INTRA:          -5.992
REMARK INTER:                  -5.571
REMARK INTRA:                  -0.421
REMARK UNBOUND:                -0.336
REMARK SMILES O=C([O-])CCCCCCCCC(=O)[O-]
REMARK SMILES IDX 7 1 6 2 5 3 4 4 2 5 1 6 3 7 8 8 9 9 10 10 11 11 12 12 13 13
REMARK SMILES IDX 14 14
REMARK H PARENT
REMARK Flexibility Score: inf
ROOT
ATOM      1  C   UNL     1     -23.945 -12.920   5.046  1.00  0.00     0.000 C 
ENDROOT
BRANCH   1   2
ATOM      2  C   UNL     1     -24.729 -13.530   3.877  1.00  0.00     0.000 C 
BRANCH   2   3
ATOM      3  C   UNL     1     -23.977 -14.729   3.277  1.00  0.00     0.006 C 
BRANCH   3   4
ATOM      4  C   UNL     1     -24.912 -15.906   2.974  1.00  0.00     0.053 C 
BRANCH   4   5
ATOM      5  C   UNL     1     -26.079 -15.944   3.912  1.00  0.00     0.041 C 
ATOM      6  O   UNL     1     -25.931 -16.355   5.093  1.00  0.00    -0.550 OA
ATOM      7  O   UNL     1     -27.338 -15.554   3.472  1.00  0.00    -0.550 OA
ENDBRANCH   4   5
ENDBRANCH   3   4
ENDBRANCH   2   3
ENDBRANCH   1   2
BRANCH   1   8
ATOM      8  C   UNL     1     -24.420 -11.492   5.340  1.00  0.00     0.000 C 
BRANCH   8   9
ATOM      9  C   UNL     1     -23.508 -10.459   4.666  1.00  0.00     0.000 C 
BRANCH   9  10
ATOM     10  C   UNL     1     -22.078 -10.541   5.220  1.00  0.00     0.006 C 
BRANCH  10  11
ATOM     11  C   UNL     1     -21.023 -10.224   4.153  1.00  0.00     0.053 C 
BRANCH  11  12
ATOM     12  C   UNL     1     -20.212 -11.432   3.795  1.00  0.00     0.041 C 
ATOM     13  O   UNL     1     -20.761 -12.561   3.715  1.00  0.00    -0.550 OA
ATOM     14  O   UNL     1     -18.844 -11.314   3.583  1.00  0.00    -0.550 OA
ENDBRANCH  11  12
ENDBRANCH  10  11
ENDBRANCH   9  10
ENDBRANCH   8   9
ENDBRANCH   1   8
TORSDOF 9
ENDMDL
MODEL 9
REMARK VINA RESULT:    -3.658      2.595      3.805
REMARK INTER + INTRA:          -5.919
REMARK INTER:                  -5.618
REMARK INTRA:                  -0.301
REMARK UNBOUND:                -0.336
REMARK SMILES O=C([O-])CCCCCCCCC(=O)[O-]
REMARK SMILES IDX 7 1 6 2 5 3 4 4 2 5 1 6 3 7 8 8 9 9 10 10 11 11 12 12 13 13
REMARK SMILES IDX 14 14
REMARK H PARENT
REMARK Flexibility Score: inf
ROOT
ATOM      1  C   UNL     1     -18.964 -20.480  -4.363  1.00  0.00     0.000 C 
ENDROOT
BRANCH   1   2
ATOM      2  C   UNL     1     -20.264 -21.263  -4.582  1.00  0.00     0.000 C 
BRANCH   2   3
ATOM      3  C   UNL     1     -21.300 -20.411  -5.333  1.00  0.00     0.006 C 
BRANCH   3   4
ATOM      4  C   UNL     1     -22.586 -21.191  -5.633  1.00  0.00     0.053 C 
BRANCH   4   5
ATOM      5  C   UNL     1     -23.668 -20.296  -6.153  1.00  0.00     0.041 C 
ATOM      6  O   UNL     1     -23.376 -19.260  -6.807  1.00  0.00    -0.550 OA
ATOM      7  O   UNL     1     -25.000 -20.588  -5.887  1.00  0.00    -0.550 OA
ENDBRANCH   4   5
ENDBRANCH   3   4
ENDBRANCH   2   3
ENDBRANCH   1   2
BRANCH   1   8
ATOM      8  C   UNL     1     -19.254 -19.009  -4.044  1.00  0.00     0.000 C 
BRANCH   8   9
ATOM      9  C   UNL     1     -18.064 -18.118  -4.419  1.00  0.00     0.000 C 
BRANCH   9  10
ATOM     10  C   UNL     1     -17.287 -17.682  -3.168  1.00  0.00     0.006 C 
BRANCH  10  11
ATOM     11  C   UNL     1     -17.362 -16.167  -2.936  1.00  0.00     0.053 C 
BRANCH  11  12
ATOM     12  C   UNL     1     -16.117 -15.471  -3.395  1.00  0.00     0.041 C 
ATOM     13  O   UNL     1     -14.990 -15.999  -3.207  1.00  0.00    -0.550 OA
ATOM     14  O   UNL     1     -16.200 -14.222  -3.998  1.00  0.00    -0.550 OA
ENDBRANCH  11  12
ENDBRANCH  10  11
ENDBRANCH   9  10
ENDBRANCH   8   9
ENDBRANCH   1   8
TORSDOF 9
ENDMDL
