MODEL 1
REMARK VINA RESULT:    -4.198      0.000      0.000
REMARK INTER + INTRA:         -10.164
REMARK INTER:                  -8.125
REMARK INTRA:                  -2.039
REMARK UNBOUND:                -2.039
REMARK SMILES CCCCCCCCCCCCCCCCCC(=O)[O-]
REMARK SMILES IDX 10 1 11 2 12 3 13 4 14 5 15 6 16 7 17 8 18 9 19 10 20 11
REMARK SMILES IDX 9 12 8 13 7 14 6 15 5 16 4 17 3 18 2 19 1 20
REMARK H PARENT
REMARK Flexibility Score: inf
ROOT
ATOM      1  C   UNL     1      17.484  42.889  19.226  1.00  0.00     0.000 C 
ENDROOT
BRANCH   1   2
ATOM      2  C   UNL     1      17.366  42.392  20.678  1.00  0.00     0.000 C 
BRANCH   2   3
ATOM      3  C   UNL     1      18.558  42.739  21.593  1.00  0.00     0.000 C 
BRANCH   3   4
ATOM      4  C   UNL     1      19.929  42.796  20.895  1.00  0.00     0.000 C 
BRANCH   4   5
ATOM      5  C   UNL     1      20.642  44.145  21.092  1.00  0.00     0.000 C 
BRANCH   5   6
ATOM      6  C   UNL     1      20.155  45.220  20.107  1.00  0.00     0.000 C 
BRANCH   6   7
ATOM      7  C   UNL     1      20.235  46.642  20.692  1.00  0.00     0.006 C 
BRANCH   7   8
ATOM      8  C   UNL     1      18.953  47.445  20.435  1.00  0.00     0.053 C 
BRANCH   8   9
ATOM      9  C   UNL     1      19.235  48.909  20.288  1.00  0.00     0.041 C 
ATOM     10  O   UNL     1      20.349  49.380  20.640  1.00  0.00    -0.550 OA
ATOM     11  O   UNL     1      18.255  49.759  19.792  1.00  0.00    -0.550 OA
ENDBRANCH   8   9
ENDBRANCH   7   8
ENDBRANCH   6   7
ENDBRANCH   5   6
ENDBRANCH   4   5
ENDBRANCH   3   4
ENDBRANCH   2   3
ENDBRANCH   1   2
BRANCH   1  12
ATOM     12  C   UNL     1      16.678  44.174  18.969  1.00  0.00     0.000 C 
BRANCH  12  13
ATOM     13  C   UNL     1      16.140  44.803  20.265  1.00  0.00    -0.000 C 
BRANCH  13  14
ATOM     14  C   UNL     1      14.607  44.890  20.289  1.00  0.00    -0.000 C 
BRANCH  14  15
ATOM     15  C   UNL     1      13.987  43.906  19.288  1.00  0.00    -0.000 C 
BRANCH  15  16
ATOM     16  C   UNL     1      12.477  44.128  19.087  1.00  0.00    -0.000 C 
BRANCH  16  17
ATOM     17  C   UNL     1      12.138  45.452  18.370  1.00  0.00    -0.000 C 
BRANCH  17  18
ATOM     18  C   UNL     1      12.888  45.595  17.033  1.00  0.00    -0.000 C 
BRANCH  18  19
ATOM     19  C   UNL     1      13.474  47.002  16.832  1.00  0.00    -0.003 C 
ATOM     20  C   UNL     1      14.889  47.140  17.394  1.00  0.00     0.004 C 
ENDBRANCH  18  19
ENDBRANCH  17  18
ENDBRANCH  16  17
ENDBRANCH  15  16
ENDBRANCH  14  15
ENDBRANCH  13  14
ENDBRANCH  12  13
ENDBRANCH   1  12
TORSDOF 16
ENDMDL
MODEL 2
REMARK VINA RESULT:    -4.174      1.455      3.574
REMARK INTER + INTRA:         -10.118
REMARK INTER:                  -8.317
REMARK INTRA:                  -1.802
REMARK UNBOUND:                -2.039
REMARK SMILES CCCCCCCCCCCCCCCCCC(=O)[O-]
REMARK SMILES IDX 10 1 11 2 12 3 13 4 14 5 15 6 16 7 17 8 18 9 19 10 20 11
REMARK SMILES IDX 9 12 8 13 7 14 6 15 5 16 4 17 3 18 2 19 1 20
REMARK H PARENT
REMARK Flexibility Score: inf
ROOT
ATOM      1  C   UNL     1      15.302  46.242  19.585  1.00  0.00     0.000 C 
ENDROOT
BRANCH   1   2
ATOM      2  C   UNL     1      15.271  44.942  20.408  1.00  0.00     0.000 C 
BRANCH   2   3
ATOM      3  C   UNL     1      15.194  43.640  19.585  1.00  0.00     0.000 C 
BRANCH   3   4
ATOM      4  C   UNL     1      16.468  42.777  19.601  1.00  0.00     0.000 C 
BRANCH   4   5
ATOM      5  C   UNL     1      17.720  43.553  19.159  1.00  0.00     0.000 C 
BRANCH   5   6
ATOM      6  C   UNL     1      18.797  43.609  20.256  1.00  0.00     0.000 C 
BRANCH   6   7
ATOM      7  C   UNL     1      19.575  44.938  20.258  1.00  0.00     0.006 C 
BRANCH   7   8
ATOM      8  C   UNL     1      18.747  46.091  20.841  1.00  0.00     0.053 C 
BRANCH   8   9
ATOM      9  C   UNL     1      19.164  47.414  20.276  1.00  0.00     0.041 C 
ATOM     10  O   UNL     1      18.313  48.177  19.748  1.00  0.00    -0.550 OA
ATOM     11  O   UNL     1      20.501  47.791  20.305  1.00  0.00    -0.550 OA
ENDBRANCH   8   9
ENDBRANCH   7   8
ENDBRANCH   6   7
ENDBRANCH   5   6
ENDBRANCH   4   5
ENDBRANCH   3   4
ENDBRANCH   2   3
ENDBRANCH   1   2
BRANCH   1  12
ATOM     12  C   UNL     1      15.319  45.986  18.068  1.00  0.00     0.000 C 
BRANCH  12  13
ATOM     13  C   UNL     1      14.996  47.250  17.253  1.00  0.00    -0.000 C 
BRANCH  13  14
ATOM     14  C   UNL     1      13.658  47.147  16.506  1.00  0.00    -0.000 C 
BRANCH  14  15
ATOM     15  C   UNL     1      12.881  45.899  16.944  1.00  0.00    -0.000 C 
BRANCH  15  16
ATOM     16  C   UNL     1      11.877  46.183  18.075  1.00  0.00    -0.000 C 
BRANCH  16  17
ATOM     17  C   UNL     1      11.540  44.942  18.929  1.00  0.00    -0.000 C 
BRANCH  17  18
ATOM     18  C   UNL     1      10.384  45.210  19.910  1.00  0.00    -0.000 C 
BRANCH  18  19
ATOM     19  C   UNL     1       9.925  43.939  20.643  1.00  0.00    -0.003 C 
ATOM     20  C   UNL     1      10.365  42.658  19.936  1.00  0.00     0.004 C 
ENDBRANCH  18  19
ENDBRANCH  17  18
ENDBRANCH  16  17
ENDBRANCH  15  16
ENDBRANCH  14  15
ENDBRANCH  13  14
ENDBRANCH  12  13
ENDBRANCH   1  12
TORSDOF 16
ENDMDL
MODEL 3
REMARK VINA RESULT:    -4.159      2.071      4.276
REMARK INTER + INTRA:         -10.087
REMARK INTER:                  -7.968
REMARK INTRA:                  -2.119
REMARK UNBOUND:                -2.039
REMARK SMILES CCCCCCCCCCCCCCCCCC(=O)[O-]
REMARK SMILES IDX 10 1 11 2 12 3 13 4 14 5 15 6 16 7 17 8 18 9 19 10 20 11
REMARK SMILES IDX 9 12 8 13 7 14 6 15 5 16 4 17 3 18 2 19 1 20
REMARK H PARENT
REMARK Flexibility Score: inf
ROOT
ATOM      1  C   UNL     1      14.401  47.073  16.892  1.00  0.00     0.000 C 
ENDROOT
BRANCH   1   2
ATOM      2  C   UNL     1      15.483  46.713  17.925  1.00  0.00     0.000 C 
BRANCH   2   3
ATOM      3  C   UNL     1      15.618  45.210  18.244  1.00  0.00     0.000 C 
BRANCH   3   4
ATOM      4  C   UNL     1      16.215  44.882  19.624  1.00  0.00     0.000 C 
BRANCH   4   5
ATOM      5  C   UNL     1      16.084  46.044  20.622  1.00  0.00     0.000 C 
BRANCH   5   6
ATOM      6  C   UNL     1      17.420  46.393  21.301  1.00  0.00     0.000 C 
BRANCH   6   7
ATOM      7  C   UNL     1      18.491  46.861  20.299  1.00  0.00     0.006 C 
BRANCH   7   8
ATOM      8  C   UNL     1      18.292  48.324  19.881  1.00  0.00     0.053 C 
BRANCH   8   9
ATOM      9  C   UNL     1      19.296  49.227  20.530  1.00  0.00     0.041 C 
ATOM     10  O   UNL     1      19.473  50.396  20.096  1.00  0.00    -0.550 OA
ATOM     11  O   UNL     1      20.059  48.766  21.595  1.00  0.00    -0.550 OA
ENDBRANCH   8   9
ENDBRANCH   7   8
ENDBRANCH   6   7
ENDBRANCH   5   6
ENDBRANCH   4   5
ENDBRANCH   3   4
ENDBRANCH   2   3
ENDBRANCH   1   2
BRANCH   1  12
ATOM     12  C   UNL     1      13.115  46.246  17.063  1.00  0.00     0.000 C 
BRANCH  12  13
ATOM     13  C   UNL     1      11.946  47.080  17.615  1.00  0.00    -0.000 C 
BRANCH  13  14
ATOM     14  C   UNL     1      11.346  46.482  18.897  1.00  0.00    -0.000 C 
BRANCH  14  15
ATOM     15  C   UNL     1      12.427  46.283  19.967  1.00  0.00    -0.000 C 
BRANCH  15  16
ATOM     16  C   UNL     1      12.589  44.811  20.388  1.00  0.00    -0.000 C 
BRANCH  16  17
ATOM     17  C   UNL     1      11.750  43.831  19.541  1.00  0.00    -0.000 C 
BRANCH  17  18
ATOM     18  C   UNL     1      10.554  43.263  20.327  1.00  0.00    -0.000 C 
BRANCH  18  19
ATOM     19  C   UNL     1       9.220  43.449  19.587  1.00  0.00    -0.003 C 
ATOM     20  C   UNL     1       8.594  42.123  19.156  1.00  0.00     0.004 C 
ENDBRANCH  18  19
ENDBRANCH  17  18
ENDBRANCH  16  17
ENDBRANCH  15  16
ENDBRANCH  14  15
ENDBRANCH  13  14
ENDBRANCH  12  13
ENDBRANCH   1  12
TORSDOF 16
ENDMDL
MODEL 4
REMARK VINA RESULT:    -4.081      2.961      6.076
REMARK INTER + INTRA:          -9.938
REMARK INTER:                  -7.851
REMARK INTRA:                  -2.087
REMARK UNBOUND:                -2.039
REMARK SMILES CCCCCCCCCCCCCCCCCC(=O)[O-]
REMARK SMILES IDX 10 1 11 2 12 3 13 4 14 5 15 6 16 7 17 8 18 9 19 10 20 11
REMARK SMILES IDX 9 12 8 13 7 14 6 15 5 16 4 17 3 18 2 19 1 20
REMARK H PARENT
REMARK Flexibility Score: inf
ROOT
ATOM      1  C   UNL     1      18.827  42.446  21.465  1.00  0.00     0.000 C 
ENDROOT
BRANCH   1   2
ATOM      2  C   UNL     1      18.952  42.136  19.963  1.00  0.00     0.000 C 
BRANCH   2   3
ATOM      3  C   UNL     1      17.706  42.467  19.115  1.00  0.00     0.000 C 
BRANCH   3   4
ATOM      4  C   UNL     1      16.360  42.357  19.853  1.00  0.00     0.000 C 
BRANCH   4   5
ATOM      5  C   UNL     1      15.640  43.710  19.983  1.00  0.00     0.000 C 
BRANCH   5   6
ATOM      6  C   UNL     1      15.425  44.398  18.624  1.00  0.00     0.000 C 
BRANCH   6   7
ATOM      7  C   UNL     1      15.132  45.903  18.760  1.00  0.00     0.006 C 
BRANCH   7   8
ATOM      8  C   UNL     1      13.691  46.172  19.215  1.00  0.00     0.053 C 
BRANCH   8   9
ATOM      9  C   UNL     1      12.702  45.370  18.426  1.00  0.00     0.041 C 
ATOM     10  O   UNL     1      12.496  45.631  17.212  1.00  0.00    -0.550 OA
ATOM     11  O   UNL     1      11.983  44.354  19.043  1.00  0.00    -0.550 OA
ENDBRANCH   8   9
ENDBRANCH   7   8
ENDBRANCH   6   7
ENDBRANCH   5   6
ENDBRANCH   4   5
ENDBRANCH   3   4
ENDBRANCH   2   3
ENDBRANCH   1   2
BRANCH   1  12
ATOM     12  C   UNL     1      19.202  43.898  21.807  1.00  0.00     0.000 C 
BRANCH  12  13
ATOM     13  C   UNL     1      20.244  44.483  20.839  1.00  0.00    -0.000 C 
BRANCH  13  14
ATOM     14  C   UNL     1      19.855  45.876  20.321  1.00  0.00    -0.000 C 
BRANCH  14  15
ATOM     15  C   UNL     1      18.373  46.166  20.591  1.00  0.00    -0.000 C 
BRANCH  15  16
ATOM     16  C   UNL     1      18.008  47.649  20.394  1.00  0.00    -0.000 C 
BRANCH  16  17
ATOM     17  C   UNL     1      17.996  48.461  21.706  1.00  0.00    -0.000 C 
BRANCH  17  18
ATOM     18  C   UNL     1      19.321  49.212  21.934  1.00  0.00    -0.000 C 
BRANCH  18  19
ATOM     19  C   UNL     1      19.587  50.280  20.861  1.00  0.00    -0.003 C 
ATOM     20  C   UNL     1      20.856  50.005  20.054  1.00  0.00     0.004 C 
ENDBRANCH  18  19
ENDBRANCH  17  18
ENDBRANCH  16  17
ENDBRANCH  15  16
ENDBRANCH  14  15
ENDBRANCH  13  14
ENDBRANCH  12  13
ENDBRANCH   1  12
TORSDOF 16
ENDMDL
MODEL 5
REMARK VINA RESULT:    -4.058      1.493      2.524
REMARK INTER + INTRA:          -9.893
REMARK INTER:                  -8.300
REMARK INTRA:                  -1.593
REMARK UNBOUND:                -2.039
REMARK SMILES CCCCCCCCCCCCCCCCCC(=O)[O-]
REMARK SMILES IDX 10 1 11 2 12 3 13 4 14 5 15 6 16 7 17 8 18 9 19 10 20 11
REMARK SMILES IDX 9 12 8 13 7 14 6 15 5 16 4 17 3 18 2 19 1 20
REMARK H PARENT
REMARK Flexibility Score: inf
ROOT
ATOM      1  C   UNL     1      16.399  42.473  19.612  1.00  0.00     0.000 C 
ENDROOT
BRANCH   1   2
ATOM      2  C   UNL     1      16.950  42.426  21.048  1.00  0.00     0.000 C 
BRANCH   2   3
ATOM      3  C   UNL     1      18.488  42.406  21.166  1.00  0.00     0.000 C 
BRANCH   3   4
ATOM      4  C   UNL     1      19.127  43.716  21.659  1.00  0.00     0.000 C 
BRANCH   4   5
ATOM      5  C   UNL     1      20.155  44.287  20.669  1.00  0.00     0.000 C 
BRANCH   5   6
ATOM      6  C   UNL     1      19.924  45.779  20.372  1.00  0.00     0.000 C 
BRANCH   6   7
ATOM      7  C   UNL     1      18.512  46.250  20.764  1.00  0.00     0.006 C 
BRANCH   7   8
ATOM      8  C   UNL     1      18.259  47.711  20.366  1.00  0.00     0.053 C 
BRANCH   8   9
ATOM      9  C   UNL     1      18.597  48.655  21.479  1.00  0.00     0.041 C 
ATOM     10  O   UNL     1      17.684  49.163  22.181  1.00  0.00    -0.550 OA
ATOM     11  O   UNL     1      19.922  48.999  21.720  1.00  0.00    -0.550 OA
ENDBRANCH   8   9
ENDBRANCH   7   8
ENDBRANCH   6   7
ENDBRANCH   5   6
ENDBRANCH   4   5
ENDBRANCH   3   4
ENDBRANCH   2   3
ENDBRANCH   1   2
BRANCH   1  12
ATOM     12  C   UNL     1      16.961  43.650  18.797  1.00  0.00     0.000 C 
BRANCH  12  13
ATOM     13  C   UNL     1      15.864  44.620  18.328  1.00  0.00    -0.000 C 
BRANCH  13  14
ATOM     14  C   UNL     1      14.954  45.085  19.476  1.00  0.00    -0.000 C 
BRANCH  14  15
ATOM     15  C   UNL     1      13.964  46.152  18.992  1.00  0.00    -0.000 C 
BRANCH  15  16
ATOM     16  C   UNL     1      12.635  46.132  19.769  1.00  0.00    -0.000 C 
BRANCH  16  17
ATOM     17  C   UNL     1      11.395  46.355  18.877  1.00  0.00    -0.000 C 
BRANCH  17  18
ATOM     18  C   UNL     1      10.115  45.780  19.510  1.00  0.00    -0.000 C 
BRANCH  18  19
ATOM     19  C   UNL     1      10.404  44.620  20.476  1.00  0.00    -0.003 C 
ATOM     20  C   UNL     1      10.339  43.253  19.796  1.00  0.00     0.004 C 
ENDBRANCH  18  19
ENDBRANCH  17  18
ENDBRANCH  16  17
ENDBRANCH  15  16
ENDBRANCH  14  15
ENDBRANCH  13  14
ENDBRANCH  12  13
ENDBRANCH   1  12
TORSDOF 16
ENDMDL
MODEL 6
REMARK VINA RESULT:    -4.009      1.776      3.137
REMARK INTER + INTRA:          -9.798
REMARK INTER:                  -8.049
REMARK INTRA:                  -1.749
REMARK UNBOUND:                -2.039
REMARK SMILES CCCCCCCCCCCCCCCCCC(=O)[O-]
REMARK SMILES IDX 10 1 11 2 12 3 13 4 14 5 15 6 16 7 17 8 18 9 19 10 20 11
REMARK SMILES IDX 9 12 8 13 7 14 6 15 5 16 4 17 3 18 2 19 1 20
REMARK H PARENT
REMARK Flexibility Score: inf
ROOT
ATOM      1  C   UNL     1      16.243  43.848  18.802  1.00  0.00     0.000 C 
ENDROOT
BRANCH   1   2
ATOM      2  C   UNL     1      17.733  43.762  19.176  1.00  0.00     0.000 C 
BRANCH   2   3
ATOM      3  C   UNL     1      18.033  43.713  20.689  1.00  0.00     0.000 C 
BRANCH   3   4
ATOM      4  C   UNL     1      18.105  45.082  21.389  1.00  0.00     0.000 C 
BRANCH   4   5
ATOM      5  C   UNL     1      18.905  46.121  20.586  1.00  0.00     0.000 C 
BRANCH   5   6
ATOM      6  C   UNL     1      18.125  47.429  20.370  1.00  0.00     0.000 C 
BRANCH   6   7
ATOM      7  C   UNL     1      18.387  48.466  21.477  1.00  0.00     0.006 C 
BRANCH   7   8
ATOM      8  C   UNL     1      19.854  48.912  21.515  1.00  0.00     0.053 C 
BRANCH   8   9
ATOM      9  C   UNL     1      20.109  50.061  20.588  1.00  0.00     0.041 C 
ATOM     10  O   UNL     1      19.176  50.850  20.282  1.00  0.00    -0.550 OA
ATOM     11  O   UNL     1      21.370  50.240  20.034  1.00  0.00    -0.550 OA
ENDBRANCH   8   9
ENDBRANCH   7   8
ENDBRANCH   6   7
ENDBRANCH   5   6
ENDBRANCH   4   5
ENDBRANCH   3   4
ENDBRANCH   2   3
ENDBRANCH   1   2
BRANCH   1  12
ATOM     12  C   UNL     1      15.847  45.226  18.245  1.00  0.00     0.000 C 
BRANCH  12  13
ATOM     13  C   UNL     1      14.954  46.019  19.213  1.00  0.00    -0.000 C 
BRANCH  13  14
ATOM     14  C   UNL     1      14.624  45.235  20.492  1.00  0.00    -0.000 C 
BRANCH  14  15
ATOM     15  C   UNL     1      13.107  45.078  20.663  1.00  0.00    -0.000 C 
BRANCH  15  16
ATOM     16  C   UNL     1      12.301  45.944  19.678  1.00  0.00    -0.000 C 
BRANCH  16  17
ATOM     17  C   UNL     1      11.041  45.242  19.128  1.00  0.00    -0.000 C 
BRANCH  17  18
ATOM     18  C   UNL     1      10.297  44.449  20.217  1.00  0.00    -0.000 C 
BRANCH  18  19
ATOM     19  C   UNL     1      10.234  42.944  19.913  1.00  0.00    -0.003 C 
ATOM     20  C   UNL     1       8.802  42.428  19.772  1.00  0.00     0.004 C 
ENDBRANCH  18  19
ENDBRANCH  17  18
ENDBRANCH  16  17
ENDBRANCH  15  16
ENDBRANCH  14  15
ENDBRANCH  13  14
ENDBRANCH  12  13
ENDBRANCH   1  12
TORSDOF 16
ENDMDL
MODEL 7
REMARK VINA RESULT:    -3.999      2.413      6.119
REMARK INTER + INTRA:          -9.778
REMARK INTER:                  -7.945
REMARK INTRA:                  -1.833
REMARK UNBOUND:                -2.039
REMARK SMILES CCCCCCCCCCCCCCCCCC(=O)[O-]
REMARK SMILES IDX 10 1 11 2 12 3 13 4 14 5 15 6 16 7 17 8 18 9 19 10 20 11
REMARK SMILES IDX 9 12 8 13 7 14 6 15 5 16 4 17 3 18 2 19 1 20
REMARK H PARENT
REMARK Flexibility Score: inf
ROOT
ATOM      1  C   UNL     1      18.009  42.283  20.555  1.00  0.00     0.000 C 
ENDROOT
BRANCH   1   2
ATOM      2  C   UNL     1      17.653  42.607  19.094  1.00  0.00     0.000 C 
BRANCH   2   3
ATOM      3  C   UNL     1      16.569  43.687  18.902  1.00  0.00     0.000 C 
BRANCH   3   4
ATOM      4  C   UNL     1      15.759  44.037  20.163  1.00  0.00     0.000 C 
BRANCH   4   5
ATOM      5  C   UNL     1      15.605  45.553  20.370  1.00  0.00     0.000 C 
BRANCH   5   6
ATOM      6  C   UNL     1      14.133  45.992  20.446  1.00  0.00     0.000 C 
BRANCH   6   7
ATOM      7  C   UNL     1      13.248  45.287  19.401  1.00  0.00     0.006 C 
BRANCH   7   8
ATOM      8  C   UNL     1      12.608  46.281  18.423  1.00  0.00     0.053 C 
BRANCH   8   9
ATOM      9  C   UNL     1      13.371  46.362  17.136  1.00  0.00     0.041 C 
ATOM     10  O   UNL     1      14.254  47.245  16.976  1.00  0.00    -0.550 OA
ATOM     11  O   UNL     1      13.084  45.481  16.101  1.00  0.00    -0.550 OA
ENDBRANCH   8   9
ENDBRANCH   7   8
ENDBRANCH   6   7
ENDBRANCH   5   6
ENDBRANCH   4   5
ENDBRANCH   3   4
ENDBRANCH   2   3
ENDBRANCH   1   2
BRANCH   1  12
ATOM     12  C   UNL     1      19.373  42.856  20.977  1.00  0.00     0.000 C 
BRANCH  12  13
ATOM     13  C   UNL     1      19.295  44.341  21.369  1.00  0.00    -0.000 C 
BRANCH  13  14
ATOM     14  C   UNL     1      19.846  45.272  20.279  1.00  0.00    -0.000 C 
BRANCH  14  15
ATOM     15  C   UNL     1      20.637  46.432  20.897  1.00  0.00    -0.000 C 
BRANCH  15  16
ATOM     16  C   UNL     1      20.031  47.810  20.573  1.00  0.00    -0.000 C 
BRANCH  16  17
ATOM     17  C   UNL     1      18.504  47.777  20.356  1.00  0.00    -0.000 C 
BRANCH  17  18
ATOM     18  C   UNL     1      17.732  48.289  21.586  1.00  0.00    -0.000 C 
BRANCH  18  19
ATOM     19  C   UNL     1      18.499  49.379  22.351  1.00  0.00    -0.003 C 
ATOM     20  C   UNL     1      18.124  50.791  21.901  1.00  0.00     0.004 C 
ENDBRANCH  18  19
ENDBRANCH  17  18
ENDBRANCH  16  17
ENDBRANCH  15  16
ENDBRANCH  14  15
ENDBRANCH  13  14
ENDBRANCH  12  13
ENDBRANCH   1  12
TORSDOF 16
ENDMDL
MODEL 8
REMARK VINA RESULT:    -3.995      1.313      2.676
REMARK INTER + INTRA:          -9.770
REMARK INTER:                  -7.530
REMARK INTRA:                  -2.241
REMARK UNBOUND:                -2.039
REMARK SMILES CCCCCCCCCCCCCCCCCC(=O)[O-]
REMARK SMILES IDX 10 1 11 2 12 3 13 4 14 5 15 6 16 7 17 8 18 9 19 10 20 11
REMARK SMILES IDX 9 12 8 13 7 14 6 15 5 16 4 17 3 18 2 19 1 20
REMARK H PARENT
REMARK Flexibility Score: inf
ROOT
ATOM      1  C   UNL     1      18.171  42.355  21.732  1.00  0.00     0.000 C 
ENDROOT
BRANCH   1   2
ATOM      2  C   UNL     1      19.698  42.248  21.570  1.00  0.00     0.000 C 
BRANCH   2   3
ATOM      3  C   UNL     1      20.357  43.381  20.756  1.00  0.00     0.000 C 
BRANCH   3   4
ATOM      4  C   UNL     1      20.089  44.805  21.275  1.00  0.00     0.000 C 
BRANCH   4   5
ATOM      5  C   UNL     1      20.078  45.856  20.152  1.00  0.00     0.000 C 
BRANCH   5   6
ATOM      6  C   UNL     1      19.863  47.283  20.682  1.00  0.00     0.000 C 
BRANCH   6   7
ATOM      7  C   UNL     1      18.399  47.557  21.075  1.00  0.00     0.006 C 
BRANCH   7   8
ATOM      8  C   UNL     1      18.256  48.830  21.919  1.00  0.00     0.053 C 
BRANCH   8   9
ATOM      9  C   UNL     1      18.982  49.988  21.304  1.00  0.00     0.041 C 
ATOM     10  O   UNL     1      19.951  50.522  21.905  1.00  0.00    -0.550 OA
ATOM     11  O   UNL     1      18.566  50.497  20.080  1.00  0.00    -0.550 OA
ENDBRANCH   8   9
ENDBRANCH   7   8
ENDBRANCH   6   7
ENDBRANCH   5   6
ENDBRANCH   4   5
ENDBRANCH   3   4
ENDBRANCH   2   3
ENDBRANCH   1   2
BRANCH   1  12
ATOM     12  C   UNL     1      17.402  41.518  20.695  1.00  0.00     0.000 C 
BRANCH  12  13
ATOM     13  C   UNL     1      16.444  42.368  19.844  1.00  0.00    -0.000 C 
BRANCH  13  14
ATOM     14  C   UNL     1      17.174  43.448  19.031  1.00  0.00    -0.000 C 
BRANCH  14  15
ATOM     15  C   UNL     1      16.439  44.791  19.120  1.00  0.00    -0.000 C 
BRANCH  15  16
ATOM     16  C   UNL     1      15.877  45.075  20.525  1.00  0.00    -0.000 C 
BRANCH  16  17
ATOM     17  C   UNL     1      14.529  45.826  20.511  1.00  0.00    -0.000 C 
BRANCH  17  18
ATOM     18  C   UNL     1      13.806  45.693  19.158  1.00  0.00    -0.000 C 
BRANCH  18  19
ATOM     19  C   UNL     1      12.577  44.774  19.233  1.00  0.00    -0.003 C 
ATOM     20  C   UNL     1      12.944  43.291  19.189  1.00  0.00     0.004 C 
ENDBRANCH  18  19
ENDBRANCH  17  18
ENDBRANCH  16  17
ENDBRANCH  15  16
ENDBRANCH  14  15
ENDBRANCH  13  14
ENDBRANCH  12  13
ENDBRANCH   1  12
TORSDOF 16
ENDMDL
MODEL 9
REMARK VINA RESULT:    -3.966      1.552      2.622
REMARK INTER + INTRA:          -9.714
REMARK INTER:                  -8.234
REMARK INTRA:                  -1.480
REMARK UNBOUND:                -2.039
REMARK SMILES CCCCCCCCCCCCCCCCCC(=O)[O-]
REMARK SMILES IDX 10 1 11 2 12 3 13 4 14 5 15 6 16 7 17 8 18 9 19 10 20 11
REMARK SMILES IDX 9 12 8 13 7 14 6 15 5 16 4 17 3 18 2 19 1 20
REMARK H PARENT
REMARK Flexibility Score: inf
ROOT
ATOM      1  C   UNL     1      18.280  42.556  19.809  1.00  0.00     0.000 C 
ENDROOT
BRANCH   1   2
ATOM      2  C   UNL     1      18.785  43.426  20.973  1.00  0.00     0.000 C 
BRANCH   2   3
ATOM      3  C   UNL     1      20.039  44.272  20.668  1.00  0.00     0.000 C 
BRANCH   3   4
ATOM      4  C   UNL     1      19.762  45.712  20.200  1.00  0.00     0.000 C 
BRANCH   4   5
ATOM      5  C   UNL     1      18.543  46.341  20.896  1.00  0.00     0.000 C 
BRANCH   5   6
ATOM      6  C   UNL     1      17.949  47.515  20.099  1.00  0.00     0.000 C 
BRANCH   6   7
ATOM      7  C   UNL     1      18.912  48.712  19.998  1.00  0.00     0.006 C 
BRANCH   7   8
ATOM      8  C   UNL     1      19.429  49.155  21.374  1.00  0.00     0.053 C 
BRANCH   8   9
ATOM      9  C   UNL     1      20.521  50.174  21.254  1.00  0.00     0.041 C 
ATOM     10  O   UNL     1      21.108  50.350  20.154  1.00  0.00    -0.550 OA
ATOM     11  O   UNL     1      20.912  50.906  22.368  1.00  0.00    -0.550 OA
ENDBRANCH   8   9
ENDBRANCH   7   8
ENDBRANCH   6   7
ENDBRANCH   5   6
ENDBRANCH   4   5
ENDBRANCH   3   4
ENDBRANCH   2   3
ENDBRANCH   1   2
BRANCH   1  12
ATOM     12  C   UNL     1      17.257  43.284  18.920  1.00  0.00     0.000 C 
BRANCH  12  13
ATOM     13  C   UNL     1      15.974  43.658  19.681  1.00  0.00    -0.000 C 
BRANCH  13  14
ATOM     14  C   UNL     1      15.143  44.724  18.951  1.00  0.00    -0.000 C 
BRANCH  14  15
ATOM     15  C   UNL     1      14.777  45.875  19.897  1.00  0.00    -0.000 C 
BRANCH  15  16
ATOM     16  C   UNL     1      13.420  45.668  20.595  1.00  0.00    -0.000 C 
BRANCH  16  17
ATOM     17  C   UNL     1      12.426  44.822  19.773  1.00  0.00    -0.000 C 
BRANCH  17  18
ATOM     18  C   UNL     1      11.583  45.685  18.816  1.00  0.00    -0.000 C 
BRANCH  18  19
ATOM     19  C   UNL     1      10.283  46.187  19.465  1.00  0.00    -0.003 C 
ATOM     20  C   UNL     1       9.947  47.627  19.078  1.00  0.00     0.004 C 
ENDBRANCH  18  19
ENDBRANCH  17  18
ENDBRANCH  16  17
ENDBRANCH  15  16
ENDBRANCH  14  15
ENDBRANCH  13  14
ENDBRANCH  12  13
ENDBRANCH   1  12
TORSDOF 16
ENDMDL
