MODEL 1
REMARK VINA RESULT:    -3.658      0.000      0.000
REMARK INTER + INTRA:          -9.521
REMARK INTER:                  -6.652
REMARK INTRA:                  -2.869
REMARK UNBOUND:                -2.869
REMARK SMILES CCCCCCCCCCCCCC[C@H](C)C(=O)[O-]
REMARK SMILES IDX 9 1 10 2 11 3 12 4 13 5 14 6 15 7 16 8 17 9 18 10 19 11 8 12
REMARK SMILES IDX 7 13 6 14 5 15 4 16 3 17 2 18 1 19
REMARK H PARENT
REMARK Flexibility Score: inf
ROOT
ATOM      1  C   UNL     1      29.625  32.765   3.744  1.00  0.00     0.000 C 
ENDROOT
BRANCH   1   2
ATOM      2  C   UNL     1      28.638  33.818   4.282  1.00  0.00     0.000 C 
BRANCH   2   3
ATOM      3  C   UNL     1      27.285  33.883   3.549  1.00  0.00     0.000 C 
BRANCH   3   4
ATOM      4  C   UNL     1      27.183  32.872   2.393  1.00  0.00     0.000 C 
BRANCH   4   5
ATOM      5  C   UNL     1      26.082  33.238   1.384  1.00  0.00     0.001 C 
BRANCH   5   6
ATOM      6  C   UNL     1      25.291  34.495   1.800  1.00  0.00     0.009 C 
BRANCH   6   7
ATOM      7  C   UNL     1      25.541  35.726   0.899  1.00  0.00     0.032 C 
ATOM      8  C   UNL     1      25.758  37.014   1.706  1.00  0.00     0.014 C 
BRANCH   7   9
ATOM      9  C   UNL     1      24.455  35.892  -0.133  1.00  0.00     0.044 C 
ATOM     10  O   UNL     1      24.691  36.529  -1.193  1.00  0.00    -0.550 OA
ATOM     11  O   UNL     1      23.207  35.306   0.047  1.00  0.00    -0.550 OA
ENDBRANCH   7   9
ENDBRANCH   6   7
ENDBRANCH   5   6
ENDBRANCH   4   5
ENDBRANCH   3   4
ENDBRANCH   2   3
ENDBRANCH   1   2
BRANCH   1  12
ATOM     12  C   UNL     1      31.114  33.141   3.860  1.00  0.00     0.000 C 
BRANCH  12  13
ATOM     13  C   UNL     1      31.892  33.033   2.531  1.00  0.00    -0.000 C 
BRANCH  13  14
ATOM     14  C   UNL     1      30.971  32.762   1.328  1.00  0.00    -0.000 C 
BRANCH  14  15
ATOM     15  C   UNL     1      30.867  33.976   0.379  1.00  0.00    -0.000 C 
BRANCH  15  16
ATOM     16  C   UNL     1      29.439  34.537   0.238  1.00  0.00    -0.000 C 
BRANCH  16  17
ATOM     17  C   UNL     1      29.247  35.973   0.760  1.00  0.00    -0.000 C 
BRANCH  17  18
ATOM     18  C   UNL     1      29.976  36.285   2.080  1.00  0.00    -0.003 C 
ATOM     19  C   UNL     1      29.180  37.214   2.996  1.00  0.00     0.004 C 
ENDBRANCH  17  18
ENDBRANCH  16  17
ENDBRANCH  15  16
ENDBRANCH  14  15
ENDBRANCH  13  14
ENDBRANCH  12  13
ENDBRANCH   1  12
TORSDOF 14
ENDMDL
MODEL 2
REMARK VINA RESULT:    -3.610      3.423      6.134
REMARK INTER + INTRA:          -9.434
REMARK INTER:                  -6.884
REMARK INTRA:                  -2.550
REMARK UNBOUND:                -2.869
REMARK SMILES CCCCCCCCCCCCCC[C@H](C)C(=O)[O-]
REMARK SMILES IDX 9 1 10 2 11 3 12 4 13 5 14 6 15 7 16 8 17 9 18 10 19 11 8 12
REMARK SMILES IDX 7 13 6 14 5 15 4 16 3 17 2 18 1 19
REMARK H PARENT
REMARK Flexibility Score: inf
ROOT
ATOM      1  C   UNL     1      26.697  34.212   2.808  1.00  0.00     0.000 C 
ENDROOT
BRANCH   1   2
ATOM      2  C   UNL     1      27.301  32.850   2.412  1.00  0.00     0.000 C 
BRANCH   2   3
ATOM      3  C   UNL     1      28.839  32.779   2.453  1.00  0.00     0.000 C 
BRANCH   3   4
ATOM      4  C   UNL     1      29.419  33.188   3.818  1.00  0.00     0.000 C 
BRANCH   4   5
ATOM      5  C   UNL     1      30.956  33.137   3.846  1.00  0.00     0.001 C 
BRANCH   5   6
ATOM      6  C   UNL     1      31.563  32.799   2.469  1.00  0.00     0.009 C 
BRANCH   6   7
ATOM      7  C   UNL     1      33.102  32.920   2.409  1.00  0.00     0.032 C 
ATOM      8  C   UNL     1      33.644  34.027   3.325  1.00  0.00     0.014 C 
BRANCH   7   9
ATOM      9  C   UNL     1      33.594  33.079   0.993  1.00  0.00     0.044 C 
ATOM     10  O   UNL     1      32.855  32.739   0.032  1.00  0.00    -0.550 OA
ATOM     11  O   UNL     1      34.836  33.645   0.730  1.00  0.00    -0.550 OA
ENDBRANCH   7   9
ENDBRANCH   6   7
ENDBRANCH   5   6
ENDBRANCH   4   5
ENDBRANCH   3   4
ENDBRANCH   2   3
ENDBRANCH   1   2
BRANCH   1  12
ATOM     12  C   UNL     1      26.412  35.169   1.635  1.00  0.00     0.000 C 
BRANCH  12  13
ATOM     13  C   UNL     1      26.489  36.663   2.015  1.00  0.00    -0.000 C 
BRANCH  13  14
ATOM     14  C   UNL     1      27.877  37.271   1.744  1.00  0.00    -0.000 C 
BRANCH  14  15
ATOM     15  C   UNL     1      28.917  36.868   2.812  1.00  0.00    -0.000 C 
BRANCH  15  16
ATOM     16  C   UNL     1      30.268  36.414   2.227  1.00  0.00    -0.000 C 
BRANCH  16  17
ATOM     17  C   UNL     1      30.358  36.449   0.689  1.00  0.00    -0.000 C 
BRANCH  17  18
ATOM     18  C   UNL     1      30.299  35.070   0.007  1.00  0.00    -0.003 C 
ATOM     19  C   UNL     1      29.069  34.897  -0.883  1.00  0.00     0.004 C 
ENDBRANCH  17  18
ENDBRANCH  16  17
ENDBRANCH  15  16
ENDBRANCH  14  15
ENDBRANCH  13  14
ENDBRANCH  12  13
ENDBRANCH   1  12
TORSDOF 14
ENDMDL
MODEL 3
REMARK VINA RESULT:    -3.548      1.674      3.370
REMARK INTER + INTRA:          -9.321
REMARK INTER:                  -7.020
REMARK INTRA:                  -2.301
REMARK UNBOUND:                -2.869
REMARK SMILES CCCCCCCCCCCCCC[C@H](C)C(=O)[O-]
REMARK SMILES IDX 9 1 10 2 11 3 12 4 13 5 14 6 15 7 16 8 17 9 18 10 19 11 8 12
REMARK SMILES IDX 7 13 6 14 5 15 4 16 3 17 2 18 1 19
REMARK H PARENT
REMARK Flexibility Score: inf
ROOT
ATOM      1  C   UNL     1      30.457  35.669   1.936  1.00  0.00     0.000 C 
ENDROOT
BRANCH   1   2
ATOM      2  C   UNL     1      29.232  36.111   2.759  1.00  0.00     0.000 C 
BRANCH   2   3
ATOM      3  C   UNL     1      28.578  35.004   3.607  1.00  0.00     0.000 C 
BRANCH   3   4
ATOM      4  C   UNL     1      29.150  33.607   3.308  1.00  0.00     0.000 C 
BRANCH   4   5
ATOM      5  C   UNL     1      28.226  32.771   2.407  1.00  0.00     0.001 C 
BRANCH   5   6
ATOM      6  C   UNL     1      26.779  33.307   2.381  1.00  0.00     0.009 C 
BRANCH   6   7
ATOM      7  C   UNL     1      26.203  33.501   0.960  1.00  0.00     0.032 C 
ATOM      8  C   UNL     1      26.820  34.703   0.231  1.00  0.00     0.014 C 
BRANCH   7   9
ATOM      9  C   UNL     1      24.697  33.574   0.976  1.00  0.00     0.044 C 
ATOM     10  O   UNL     1      24.018  32.534   0.767  1.00  0.00    -0.550 OA
ATOM     11  O   UNL     1      24.045  34.766   1.268  1.00  0.00    -0.550 OA
ENDBRANCH   7   9
ENDBRANCH   6   7
ENDBRANCH   5   6
ENDBRANCH   4   5
ENDBRANCH   3   4
ENDBRANCH   2   3
ENDBRANCH   1   2
BRANCH   1  12
ATOM     12  C   UNL     1      30.250  35.645   0.410  1.00  0.00     0.000 C 
BRANCH  12  13
ATOM     13  C   UNL     1      31.190  34.672  -0.333  1.00  0.00    -0.000 C 
BRANCH  13  14
ATOM     14  C   UNL     1      31.335  33.322   0.391  1.00  0.00    -0.000 C 
BRANCH  14  15
ATOM     15  C   UNL     1      32.810  32.952   0.663  1.00  0.00    -0.000 C 
BRANCH  15  16
ATOM     16  C   UNL     1      33.060  32.382   2.071  1.00  0.00    -0.000 C 
BRANCH  16  17
ATOM     17  C   UNL     1      33.010  33.415   3.213  1.00  0.00    -0.000 C 
BRANCH  17  18
ATOM     18  C   UNL     1      34.261  34.305   3.334  1.00  0.00    -0.003 C 
ATOM     19  C   UNL     1      34.033  35.727   2.822  1.00  0.00     0.004 C 
ENDBRANCH  17  18
ENDBRANCH  16  17
ENDBRANCH  15  16
ENDBRANCH  14  15
ENDBRANCH  13  14
ENDBRANCH  12  13
ENDBRANCH   1  12
TORSDOF 14
ENDMDL
MODEL 4
REMARK VINA RESULT:    -3.531      1.343      2.019
REMARK INTER + INTRA:          -9.289
REMARK INTER:                  -6.630
REMARK INTRA:                  -2.659
REMARK UNBOUND:                -2.869
REMARK SMILES CCCCCCCCCCCCCC[C@H](C)C(=O)[O-]
REMARK SMILES IDX 9 1 10 2 11 3 12 4 13 5 14 6 15 7 16 8 17 9 18 10 19 11 8 12
REMARK SMILES IDX 7 13 6 14 5 15 4 16 3 17 2 18 1 19
REMARK H PARENT
REMARK Flexibility Score: inf
ROOT
ATOM      1  C   UNL     1      31.508  32.634   2.413  1.00  0.00     0.000 C 
ENDROOT
BRANCH   1   2
ATOM      2  C   UNL     1      31.030  33.067   3.813  1.00  0.00     0.000 C 
BRANCH   2   3
ATOM      3  C   UNL     1      29.508  33.253   3.957  1.00  0.00     0.000 C 
BRANCH   3   4
ATOM      4  C   UNL     1      28.737  32.880   2.678  1.00  0.00     0.000 C 
BRANCH   4   5
ATOM      5  C   UNL     1      27.223  32.760   2.915  1.00  0.00     0.001 C 
BRANCH   5   6
ATOM      6  C   UNL     1      26.487  34.105   2.739  1.00  0.00     0.009 C 
BRANCH   6   7
ATOM      7  C   UNL     1      26.430  34.607   1.278  1.00  0.00     0.032 C 
ATOM      8  C   UNL     1      26.278  36.131   1.183  1.00  0.00     0.014 C 
BRANCH   7   9
ATOM      9  C   UNL     1      25.367  33.891   0.484  1.00  0.00     0.044 C 
ATOM     10  O   UNL     1      24.382  33.377   1.077  1.00  0.00    -0.550 OA
ATOM     11  O   UNL     1      25.432  33.833  -0.903  1.00  0.00    -0.550 OA
ENDBRANCH   7   9
ENDBRANCH   6   7
ENDBRANCH   5   6
ENDBRANCH   4   5
ENDBRANCH   3   4
ENDBRANCH   2   3
ENDBRANCH   1   2
BRANCH   1  12
ATOM     12  C   UNL     1      32.892  33.168   1.998  1.00  0.00     0.000 C 
BRANCH  12  13
ATOM     13  C   UNL     1      32.998  33.533   0.501  1.00  0.00    -0.000 C 
BRANCH  13  14
ATOM     14  C   UNL     1      31.776  33.064  -0.309  1.00  0.00    -0.000 C 
BRANCH  14  15
ATOM     15  C   UNL     1      31.015  34.239  -0.962  1.00  0.00    -0.000 C 
BRANCH  15  16
ATOM     16  C   UNL     1      29.878  34.806  -0.090  1.00  0.00    -0.000 C 
BRANCH  16  17
ATOM     17  C   UNL     1      30.132  36.216   0.478  1.00  0.00    -0.000 C 
BRANCH  17  18
ATOM     18  C   UNL     1      30.492  36.255   1.975  1.00  0.00    -0.003 C 
ATOM     19  C   UNL     1      29.352  36.777   2.848  1.00  0.00     0.004 C 
ENDBRANCH  17  18
ENDBRANCH  16  17
ENDBRANCH  15  16
ENDBRANCH  14  15
ENDBRANCH  13  14
ENDBRANCH  12  13
ENDBRANCH   1  12
TORSDOF 14
ENDMDL
MODEL 5
REMARK VINA RESULT:    -3.520      4.328      6.872
REMARK INTER + INTRA:          -9.269
REMARK INTER:                  -7.119
REMARK INTRA:                  -2.150
REMARK UNBOUND:                -2.869
REMARK SMILES CCCCCCCCCCCCCC[C@H](C)C(=O)[O-]
REMARK SMILES IDX 9 1 10 2 11 3 12 4 13 5 14 6 15 7 16 8 17 9 18 10 19 11 8 12
REMARK SMILES IDX 7 13 6 14 5 15 4 16 3 17 2 18 1 19
REMARK H PARENT
REMARK Flexibility Score: inf
ROOT
ATOM      1  C   UNL     1      30.136  35.248   2.350  1.00  0.00     0.000 C 
ENDROOT
BRANCH   1   2
ATOM      2  C   UNL     1      29.967  34.266   1.175  1.00  0.00     0.000 C 
BRANCH   2   3
ATOM      3  C   UNL     1      30.682  32.912   1.345  1.00  0.00     0.000 C 
BRANCH   3   4
ATOM      4  C   UNL     1      31.654  32.895   2.538  1.00  0.00     0.000 C 
BRANCH   4   5
ATOM      5  C   UNL     1      33.095  32.558   2.120  1.00  0.00     0.001 C 
BRANCH   5   6
ATOM      6  C   UNL     1      33.969  33.815   1.935  1.00  0.00     0.009 C 
BRANCH   6   7
ATOM      7  C   UNL     1      33.837  34.850   3.075  1.00  0.00     0.032 C 
ATOM      8  C   UNL     1      33.778  36.294   2.558  1.00  0.00     0.014 C 
BRANCH   7   9
ATOM      9  C   UNL     1      34.915  34.675   4.114  1.00  0.00     0.044 C 
ATOM     10  O   UNL     1      36.122  34.853   3.800  1.00  0.00    -0.550 OA
ATOM     11  O   UNL     1      34.592  34.368   5.430  1.00  0.00    -0.550 OA
ENDBRANCH   7   9
ENDBRANCH   6   7
ENDBRANCH   5   6
ENDBRANCH   4   5
ENDBRANCH   3   4
ENDBRANCH   2   3
ENDBRANCH   1   2
BRANCH   1  12
ATOM     12  C   UNL     1      28.900  35.409   3.254  1.00  0.00     0.000 C 
BRANCH  12  13
ATOM     13  C   UNL     1      28.508  34.122   4.011  1.00  0.00    -0.000 C 
BRANCH  13  14
ATOM     14  C   UNL     1      27.077  33.657   3.685  1.00  0.00    -0.000 C 
BRANCH  14  15
ATOM     15  C   UNL     1      27.001  32.867   2.360  1.00  0.00    -0.000 C 
BRANCH  15  16
ATOM     16  C   UNL     1      25.937  33.397   1.380  1.00  0.00    -0.000 C 
BRANCH  16  17
ATOM     17  C   UNL     1      26.246  34.774   0.761  1.00  0.00    -0.000 C 
BRANCH  17  18
ATOM     18  C   UNL     1      25.261  35.893   1.148  1.00  0.00    -0.003 C 
ATOM     19  C   UNL     1      25.938  37.066   1.855  1.00  0.00     0.004 C 
ENDBRANCH  17  18
ENDBRANCH  16  17
ENDBRANCH  15  16
ENDBRANCH  14  15
ENDBRANCH  13  14
ENDBRANCH  12  13
ENDBRANCH   1  12
TORSDOF 14
ENDMDL
MODEL 6
REMARK VINA RESULT:    -3.486      1.733      3.318
REMARK INTER + INTRA:          -9.208
REMARK INTER:                  -7.291
REMARK INTRA:                  -1.917
REMARK UNBOUND:                -2.869
REMARK SMILES CCCCCCCCCCCCCC[C@H](C)C(=O)[O-]
REMARK SMILES IDX 9 1 10 2 11 3 12 4 13 5 14 6 15 7 16 8 17 9 18 10 19 11 8 12
REMARK SMILES IDX 7 13 6 14 5 15 4 16 3 17 2 18 1 19
REMARK H PARENT
REMARK Flexibility Score: inf
ROOT
ATOM      1  C   UNL     1      30.169  35.211   2.435  1.00  0.00     0.000 C 
ENDROOT
BRANCH   1   2
ATOM      2  C   UNL     1      28.804  35.381   3.128  1.00  0.00     0.000 C 
BRANCH   2   3
ATOM      3  C   UNL     1      28.359  34.190   3.998  1.00  0.00     0.000 C 
BRANCH   3   4
ATOM      4  C   UNL     1      26.973  33.649   3.606  1.00  0.00     0.000 C 
BRANCH   4   5
ATOM      5  C   UNL     1      27.007  32.816   2.314  1.00  0.00     0.001 C 
BRANCH   5   6
ATOM      6  C   UNL     1      26.314  33.526   1.132  1.00  0.00     0.009 C 
BRANCH   6   7
ATOM      7  C   UNL     1      24.798  33.753   1.332  1.00  0.00     0.032 C 
ATOM      8  C   UNL     1      23.942  32.711   0.600  1.00  0.00     0.014 C 
BRANCH   7   9
ATOM      9  C   UNL     1      24.394  35.159   0.970  1.00  0.00     0.044 C 
ATOM     10  O   UNL     1      25.073  36.134   1.387  1.00  0.00    -0.550 OA
ATOM     11  O   UNL     1      23.307  35.395   0.136  1.00  0.00    -0.550 OA
ENDBRANCH   7   9
ENDBRANCH   6   7
ENDBRANCH   5   6
ENDBRANCH   4   5
ENDBRANCH   3   4
ENDBRANCH   2   3
ENDBRANCH   1   2
BRANCH   1  12
ATOM     12  C   UNL     1      30.165  34.304   1.190  1.00  0.00     0.000 C 
BRANCH  12  13
ATOM     13  C   UNL     1      30.615  32.855   1.471  1.00  0.00    -0.000 C 
BRANCH  13  14
ATOM     14  C   UNL     1      31.670  32.770   2.589  1.00  0.00    -0.000 C 
BRANCH  14  15
ATOM     15  C   UNL     1      33.084  32.469   2.045  1.00  0.00    -0.000 C 
BRANCH  15  16
ATOM     16  C   UNL     1      33.935  33.727   1.791  1.00  0.00    -0.000 C 
BRANCH  16  17
ATOM     17  C   UNL     1      34.385  33.928   0.331  1.00  0.00    -0.000 C 
BRANCH  17  18
ATOM     18  C   UNL     1      33.536  33.183  -0.715  1.00  0.00    -0.003 C 
ATOM     19  C   UNL     1      32.822  34.126  -1.684  1.00  0.00     0.004 C 
ENDBRANCH  17  18
ENDBRANCH  16  17
ENDBRANCH  15  16
ENDBRANCH  14  15
ENDBRANCH  13  14
ENDBRANCH  12  13
ENDBRANCH   1  12
TORSDOF 14
ENDMDL
MODEL 7
REMARK VINA RESULT:    -3.473      1.522      2.084
REMARK INTER + INTRA:          -9.184
REMARK INTER:                  -6.948
REMARK INTRA:                  -2.236
REMARK UNBOUND:                -2.869
REMARK SMILES CCCCCCCCCCCCCC[C@H](C)C(=O)[O-]
REMARK SMILES IDX 9 1 10 2 11 3 12 4 13 5 14 6 15 7 16 8 17 9 18 10 19 11 8 12
REMARK SMILES IDX 7 13 6 14 5 15 4 16 3 17 2 18 1 19
REMARK H PARENT
REMARK Flexibility Score: inf
ROOT
ATOM      1  C   UNL     1      29.753  33.234   3.917  1.00  0.00     0.000 C 
ENDROOT
BRANCH   1   2
ATOM      2  C   UNL     1      28.586  34.233   4.034  1.00  0.00     0.000 C 
BRANCH   2   3
ATOM      3  C   UNL     1      27.193  33.649   3.735  1.00  0.00     0.000 C 
BRANCH   3   4
ATOM      4  C   UNL     1      27.146  32.860   2.414  1.00  0.00     0.000 C 
BRANCH   4   5
ATOM      5  C   UNL     1      26.427  33.629   1.293  1.00  0.00     0.001 C 
BRANCH   5   6
ATOM      6  C   UNL     1      25.054  33.019   0.942  1.00  0.00     0.009 C 
BRANCH   6   7
ATOM      7  C   UNL     1      24.172  33.921   0.048  1.00  0.00     0.032 C 
ATOM      8  C   UNL     1      23.839  35.265   0.711  1.00  0.00     0.014 C 
BRANCH   7   9
ATOM      9  C   UNL     1      22.928  33.203  -0.411  1.00  0.00     0.044 C 
ATOM     10  O   UNL     1      22.806  31.967  -0.205  1.00  0.00    -0.550 OA
ATOM     11  O   UNL     1      21.888  33.899  -1.015  1.00  0.00    -0.550 OA
ENDBRANCH   7   9
ENDBRANCH   6   7
ENDBRANCH   5   6
ENDBRANCH   4   5
ENDBRANCH   3   4
ENDBRANCH   2   3
ENDBRANCH   1   2
BRANCH   1  12
ATOM     12  C   UNL     1      30.837  33.607   2.888  1.00  0.00     0.000 C 
BRANCH  12  13
ATOM     13  C   UNL     1      30.752  32.805   1.572  1.00  0.00    -0.000 C 
BRANCH  13  14
ATOM     14  C   UNL     1      30.482  33.701   0.350  1.00  0.00    -0.000 C 
BRANCH  14  15
ATOM     15  C   UNL     1      30.061  35.133   0.749  1.00  0.00    -0.000 C 
BRANCH  15  16
ATOM     16  C   UNL     1      29.370  35.917  -0.382  1.00  0.00    -0.000 C 
BRANCH  16  17
ATOM     17  C   UNL     1      28.082  36.656   0.028  1.00  0.00    -0.000 C 
BRANCH  17  18
ATOM     18  C   UNL     1      27.902  36.848   1.545  1.00  0.00    -0.003 C 
ATOM     19  C   UNL     1      26.601  37.565   1.905  1.00  0.00     0.004 C 
ENDBRANCH  17  18
ENDBRANCH  16  17
ENDBRANCH  15  16
ENDBRANCH  14  15
ENDBRANCH  13  14
ENDBRANCH  12  13
ENDBRANCH   1  12
TORSDOF 14
ENDMDL
MODEL 8
REMARK VINA RESULT:    -3.437      1.454      3.013
REMARK INTER + INTRA:          -9.118
REMARK INTER:                  -6.727
REMARK INTRA:                  -2.391
REMARK UNBOUND:                -2.869
REMARK SMILES CCCCCCCCCCCCCC[C@H](C)C(=O)[O-]
REMARK SMILES IDX 9 1 10 2 11 3 12 4 13 5 14 6 15 7 16 8 17 9 18 10 19 11 8 12
REMARK SMILES IDX 7 13 6 14 5 15 4 16 3 17 2 18 1 19
REMARK H PARENT
REMARK Flexibility Score: inf
ROOT
ATOM      1  C   UNL     1      29.928  35.821   2.367  1.00  0.00     0.000 C 
ENDROOT
BRANCH   1   2
ATOM      2  C   UNL     1      28.896  35.288   3.379  1.00  0.00     0.000 C 
BRANCH   2   3
ATOM      3  C   UNL     1      29.102  33.826   3.816  1.00  0.00     0.000 C 
BRANCH   3   4
ATOM      4  C   UNL     1      28.143  32.851   3.112  1.00  0.00     0.000 C 
BRANCH   4   5
ATOM      5  C   UNL     1      26.740  33.446   2.908  1.00  0.00     0.001 C 
BRANCH   5   6
ATOM      6  C   UNL     1      26.112  33.037   1.560  1.00  0.00     0.009 C 
BRANCH   6   7
ATOM      7  C   UNL     1      25.547  34.219   0.740  1.00  0.00     0.032 C 
ATOM      8  C   UNL     1      25.783  35.575   1.420  1.00  0.00     0.014 C 
BRANCH   7   9
ATOM      9  C   UNL     1      24.094  34.015   0.396  1.00  0.00     0.044 C 
ATOM     10  O   UNL     1      23.348  35.012   0.210  1.00  0.00    -0.550 OA
ATOM     11  O   UNL     1      23.575  32.736   0.231  1.00  0.00    -0.550 OA
ENDBRANCH   7   9
ENDBRANCH   6   7
ENDBRANCH   5   6
ENDBRANCH   4   5
ENDBRANCH   3   4
ENDBRANCH   2   3
ENDBRANCH   1   2
BRANCH   1  12
ATOM     12  C   UNL     1      29.796  35.261   0.938  1.00  0.00     0.000 C 
BRANCH  12  13
ATOM     13  C   UNL     1      31.148  34.960   0.258  1.00  0.00    -0.000 C 
BRANCH  13  14
ATOM     14  C   UNL     1      31.338  33.462  -0.041  1.00  0.00    -0.000 C 
BRANCH  14  15
ATOM     15  C   UNL     1      31.343  32.600   1.240  1.00  0.00    -0.000 C 
BRANCH  15  16
ATOM     16  C   UNL     1      32.698  32.580   1.973  1.00  0.00    -0.000 C 
BRANCH  16  17
ATOM     17  C   UNL     1      32.769  33.455   3.239  1.00  0.00    -0.000 C 
BRANCH  17  18
ATOM     18  C   UNL     1      33.667  34.699   3.115  1.00  0.00    -0.003 C 
ATOM     19  C   UNL     1      34.605  34.640   1.910  1.00  0.00     0.004 C 
ENDBRANCH  17  18
ENDBRANCH  16  17
ENDBRANCH  15  16
ENDBRANCH  14  15
ENDBRANCH  13  14
ENDBRANCH  12  13
ENDBRANCH   1  12
TORSDOF 14
ENDMDL
MODEL 9
REMARK VINA RESULT:    -3.407      3.165      5.330
REMARK INTER + INTRA:          -9.064
REMARK INTER:                  -6.740
REMARK INTRA:                  -2.324
REMARK UNBOUND:                -2.869
REMARK SMILES CCCCCCCCCCCCCC[C@H](C)C(=O)[O-]
REMARK SMILES IDX 9 1 10 2 11 3 12 4 13 5 14 6 15 7 16 8 17 9 18 10 19 11 8 12
REMARK SMILES IDX 7 13 6 14 5 15 4 16 3 17 2 18 1 19
REMARK H PARENT
REMARK Flexibility Score: inf
ROOT
ATOM      1  C   UNL     1      26.915  33.595   3.522  1.00  0.00     0.000 C 
ENDROOT
BRANCH   1   2
ATOM      2  C   UNL     1      28.281  33.977   4.126  1.00  0.00     0.000 C 
BRANCH   2   3
ATOM      3  C   UNL     1      29.414  34.183   3.103  1.00  0.00     0.000 C 
BRANCH   3   4
ATOM      4  C   UNL     1      30.644  33.305   3.390  1.00  0.00     0.000 C 
BRANCH   4   5
ATOM      5  C   UNL     1      31.280  32.742   2.108  1.00  0.00     0.001 C 
BRANCH   5   6
ATOM      6  C   UNL     1      30.518  33.161   0.834  1.00  0.00     0.009 C 
BRANCH   6   7
ATOM      7  C   UNL     1      31.390  33.886  -0.216  1.00  0.00     0.032 C 
ATOM      8  C   UNL     1      30.565  34.765  -1.165  1.00  0.00     0.014 C 
BRANCH   7   9
ATOM      9  C   UNL     1      32.267  32.921  -0.972  1.00  0.00     0.044 C 
ATOM     10  O   UNL     1      31.755  32.142  -1.819  1.00  0.00    -0.550 OA
ATOM     11  O   UNL     1      33.644  32.913  -0.785  1.00  0.00    -0.550 OA
ENDBRANCH   7   9
ENDBRANCH   6   7
ENDBRANCH   5   6
ENDBRANCH   4   5
ENDBRANCH   3   4
ENDBRANCH   2   3
ENDBRANCH   1   2
BRANCH   1  12
ATOM     12  C   UNL     1      26.964  33.046   2.084  1.00  0.00     0.000 C 
BRANCH  12  13
ATOM     13  C   UNL     1      25.652  33.243   1.295  1.00  0.00    -0.000 C 
BRANCH  13  14
ATOM     14  C   UNL     1      25.840  34.120   0.044  1.00  0.00    -0.000 C 
BRANCH  14  15
ATOM     15  C   UNL     1      27.166  34.911   0.071  1.00  0.00    -0.000 C 
BRANCH  15  16
ATOM     16  C   UNL     1      26.985  36.420   0.325  1.00  0.00    -0.000 C 
BRANCH  16  17
ATOM     17  C   UNL     1      27.276  36.880   1.766  1.00  0.00    -0.000 C 
BRANCH  17  18
ATOM     18  C   UNL     1      28.599  37.646   1.947  1.00  0.00    -0.003 C 
ATOM     19  C   UNL     1      28.974  37.852   3.414  1.00  0.00     0.004 C 
ENDBRANCH  17  18
ENDBRANCH  16  17
ENDBRANCH  15  16
ENDBRANCH  14  15
ENDBRANCH  13  14
ENDBRANCH  12  13
ENDBRANCH   1  12
TORSDOF 14
ENDMDL
