MODEL 1
REMARK VINA RESULT:    -4.219      0.000      0.000
REMARK INTER + INTRA:         -10.413
REMARK INTER:                  -7.919
REMARK INTRA:                  -2.494
REMARK UNBOUND:                -2.494
REMARK SMILES CCCCCCCCC=CCCCCCCCC(=O)[O-]
REMARK SMILES IDX 10 1 9 2 11 3 12 4 13 5 14 6 15 7 16 8 17 9 18 10 19 11
REMARK SMILES IDX 20 12 8 13 7 14 6 15 5 16 4 17 3 18 2 19 1 20
REMARK H PARENT
REMARK Flexibility Score: inf
ROOT
ATOM      1  C   UNL     1      -7.447  -3.793   9.096  1.00  0.00    -0.031 C 
ATOM      2  C   UNL     1      -6.130  -3.555   8.995  1.00  0.00    -0.031 C 
ENDROOT
BRANCH   1   3
ATOM      3  C   UNL     1      -8.393  -2.759   9.639  1.00  0.00     0.027 C 
BRANCH   3   4
ATOM      4  C   UNL     1      -9.690  -2.714   8.817  1.00  0.00     0.004 C 
BRANCH   4   5
ATOM      5  C   UNL     1      -9.429  -2.550   7.311  1.00  0.00     0.000 C 
BRANCH   5   6
ATOM      6  C   UNL     1      -8.739  -1.216   6.976  1.00  0.00     0.000 C 
BRANCH   6   7
ATOM      7  C   UNL     1      -7.403  -1.410   6.239  1.00  0.00     0.000 C 
BRANCH   7   8
ATOM      8  C   UNL     1      -7.537  -2.319   5.005  1.00  0.00     0.006 C 
BRANCH   8   9
ATOM      9  C   UNL     1      -6.833  -3.668   5.202  1.00  0.00     0.053 C 
BRANCH   9  10
ATOM     10  C   UNL     1      -7.813  -4.798   5.303  1.00  0.00     0.041 C 
ATOM     11  O   UNL     1      -7.601  -5.752   6.095  1.00  0.00    -0.550 OA
ATOM     12  O   UNL     1      -8.946  -4.808   4.499  1.00  0.00    -0.550 OA
ENDBRANCH   9  10
ENDBRANCH   8   9
ENDBRANCH   7   8
ENDBRANCH   6   7
ENDBRANCH   5   6
ENDBRANCH   4   5
ENDBRANCH   3   4
ENDBRANCH   1   3
BRANCH   2  13
ATOM     13  C   UNL     1      -5.180  -4.597   8.471  1.00  0.00     0.027 C 
BRANCH  13  14
ATOM     14  C   UNL     1      -4.146  -4.988   9.534  1.00  0.00     0.004 C 
BRANCH  14  15
ATOM     15  C   UNL     1      -3.443  -3.748  10.098  1.00  0.00     0.000 C 
BRANCH  15  16
ATOM     16  C   UNL     1      -1.919  -3.857   9.930  1.00  0.00     0.000 C 
BRANCH  16  17
ATOM     17  C   UNL     1      -1.485  -3.862   8.456  1.00  0.00    -0.000 C 
BRANCH  17  18
ATOM     18  C   UNL     1      -1.692  -2.498   7.773  1.00  0.00    -0.000 C 
BRANCH  18  19
ATOM     19  C   UNL     1      -2.707  -2.564   6.622  1.00  0.00    -0.003 C 
ATOM     20  C   UNL     1      -3.742  -1.441   6.683  1.00  0.00     0.004 C 
ENDBRANCH  18  19
ENDBRANCH  17  18
ENDBRANCH  16  17
ENDBRANCH  15  16
ENDBRANCH  14  15
ENDBRANCH  13  14
ENDBRANCH   2  13
TORSDOF 15
ENDMDL
MODEL 2
REMARK VINA RESULT:    -4.199     10.783     14.416
REMARK INTER + INTRA:         -10.375
REMARK INTER:                  -7.502
REMARK INTRA:                  -2.873
REMARK UNBOUND:                -2.494
REMARK SMILES CCCCCCCCC=CCCCCCCCC(=O)[O-]
REMARK SMILES IDX 10 1 9 2 11 3 12 4 13 5 14 6 15 7 16 8 17 9 18 10 19 11
REMARK SMILES IDX 20 12 8 13 7 14 6 15 5 16 4 17 3 18 2 19 1 20
REMARK H PARENT
REMARK Flexibility Score: inf
ROOT
ATOM      1  C   UNL     1       4.973   2.666   8.311  1.00  0.00    -0.031 C 
ATOM      2  C   UNL     1       4.696   3.721   9.093  1.00  0.00    -0.031 C 
ENDROOT
BRANCH   1   3
ATOM      3  C   UNL     1       5.158   1.288   8.886  1.00  0.00     0.027 C 
BRANCH   3   4
ATOM      4  C   UNL     1       6.463   1.198   9.690  1.00  0.00     0.004 C 
BRANCH   4   5
ATOM      5  C   UNL     1       7.615   0.584   8.877  1.00  0.00     0.000 C 
BRANCH   5   6
ATOM      6  C   UNL     1       8.602   1.646   8.361  1.00  0.00     0.000 C 
BRANCH   6   7
ATOM      7  C   UNL     1       8.611   2.915   9.228  1.00  0.00     0.000 C 
BRANCH   7   8
ATOM      8  C   UNL     1       8.566   4.203   8.389  1.00  0.00     0.006 C 
BRANCH   8   9
ATOM      9  C   UNL     1       8.036   3.951   6.971  1.00  0.00     0.053 C 
BRANCH   9  10
ATOM     10  C   UNL     1       7.840   5.230   6.215  1.00  0.00     0.041 C 
ATOM     11  O   UNL     1       8.223   5.325   5.019  1.00  0.00    -0.550 OA
ATOM     12  O   UNL     1       7.259   6.325   6.841  1.00  0.00    -0.550 OA
ENDBRANCH   9  10
ENDBRANCH   8   9
ENDBRANCH   7   8
ENDBRANCH   6   7
ENDBRANCH   5   6
ENDBRANCH   4   5
ENDBRANCH   3   4
ENDBRANCH   1   3
BRANCH   2  13
ATOM     13  C   UNL     1       4.531   5.102   8.521  1.00  0.00     0.027 C 
BRANCH  13  14
ATOM     14  C   UNL     1       3.195   5.240   7.782  1.00  0.00     0.004 C 
BRANCH  14  15
ATOM     15  C   UNL     1       2.015   4.984   8.727  1.00  0.00     0.000 C 
BRANCH  15  16
ATOM     16  C   UNL     1       1.006   4.012   8.096  1.00  0.00     0.000 C 
BRANCH  16  17
ATOM     17  C   UNL     1       1.165   2.575   8.618  1.00  0.00    -0.000 C 
BRANCH  17  18
ATOM     18  C   UNL     1       1.574   1.586   7.513  1.00  0.00    -0.000 C 
BRANCH  18  19
ATOM     19  C   UNL     1       1.478   2.201   6.108  1.00  0.00    -0.003 C 
ATOM     20  C   UNL     1       2.823   2.230   5.384  1.00  0.00     0.004 C 
ENDBRANCH  18  19
ENDBRANCH  17  18
ENDBRANCH  16  17
ENDBRANCH  15  16
ENDBRANCH  14  15
ENDBRANCH  13  14
ENDBRANCH   2  13
TORSDOF 15
ENDMDL
MODEL 3
REMARK VINA RESULT:    -4.169      1.684      2.719
REMARK INTER + INTRA:         -10.319
REMARK INTER:                  -7.863
REMARK INTRA:                  -2.456
REMARK UNBOUND:                -2.494
REMARK SMILES CCCCCCCCC=CCCCCCCCC(=O)[O-]
REMARK SMILES IDX 10 1 9 2 11 3 12 4 13 5 14 6 15 7 16 8 17 9 18 10 19 11
REMARK SMILES IDX 20 12 8 13 7 14 6 15 5 16 4 17 3 18 2 19 1 20
REMARK H PARENT
REMARK Flexibility Score: inf
ROOT
ATOM      1  C   UNL     1      -6.613  -0.418   8.525  1.00  0.00    -0.031 C 
ATOM      2  C   UNL     1      -5.790  -1.119   9.319  1.00  0.00    -0.031 C 
ENDROOT
BRANCH   1   3
ATOM      3  C   UNL     1      -7.686   0.470   9.093  1.00  0.00     0.027 C 
BRANCH   3   4
ATOM      4  C   UNL     1      -9.022  -0.281   9.201  1.00  0.00     0.004 C 
BRANCH   4   5
ATOM      5  C   UNL     1      -9.183  -1.008  10.546  1.00  0.00     0.000 C 
BRANCH   5   6
ATOM      6  C   UNL     1      -9.532  -2.497  10.372  1.00  0.00     0.000 C 
BRANCH   6   7
ATOM      7  C   UNL     1      -9.517  -2.939   8.900  1.00  0.00     0.000 C 
BRANCH   7   8
ATOM      8  C   UNL     1      -8.296  -3.810   8.559  1.00  0.00     0.006 C 
BRANCH   8   9
ATOM      9  C   UNL     1      -7.879  -3.670   7.088  1.00  0.00     0.053 C 
BRANCH   9  10
ATOM     10  C   UNL     1      -7.826  -4.998   6.396  1.00  0.00     0.041 C 
ATOM     11  O   UNL     1      -8.230  -5.110   5.209  1.00  0.00    -0.550 OA
ATOM     12  O   UNL     1      -7.355  -6.115   7.073  1.00  0.00    -0.550 OA
ENDBRANCH   9  10
ENDBRANCH   8   9
ENDBRANCH   7   8
ENDBRANCH   6   7
ENDBRANCH   5   6
ENDBRANCH   4   5
ENDBRANCH   3   4
ENDBRANCH   1   3
BRANCH   2  13
ATOM     13  C   UNL     1      -4.730  -2.023   8.751  1.00  0.00     0.027 C 
BRANCH  13  14
ATOM     14  C   UNL     1      -4.672  -3.353   9.512  1.00  0.00     0.004 C 
BRANCH  14  15
ATOM     15  C   UNL     1      -4.602  -4.538   8.541  1.00  0.00     0.000 C 
BRANCH  15  16
ATOM     16  C   UNL     1      -3.257  -4.561   7.799  1.00  0.00     0.000 C 
BRANCH  16  17
ATOM     17  C   UNL     1      -2.071  -4.855   8.732  1.00  0.00    -0.000 C 
BRANCH  17  18
ATOM     18  C   UNL     1      -1.065  -3.693   8.794  1.00  0.00    -0.000 C 
BRANCH  18  19
ATOM     19  C   UNL     1      -1.270  -2.675   7.662  1.00  0.00    -0.003 C 
ATOM     20  C   UNL     1      -1.195  -1.229   8.147  1.00  0.00     0.004 C 
ENDBRANCH  18  19
ENDBRANCH  17  18
ENDBRANCH  16  17
ENDBRANCH  15  16
ENDBRANCH  14  15
ENDBRANCH  13  14
ENDBRANCH   2  13
TORSDOF 15
ENDMDL
MODEL 4
REMARK VINA RESULT:    -4.168      1.606      2.539
REMARK INTER + INTRA:         -10.317
REMARK INTER:                  -7.975
REMARK INTRA:                  -2.342
REMARK UNBOUND:                -2.494
REMARK SMILES CCCCCCCCC=CCCCCCCCC(=O)[O-]
REMARK SMILES IDX 10 1 9 2 11 3 12 4 13 5 14 6 15 7 16 8 17 9 18 10 19 11
REMARK SMILES IDX 20 12 8 13 7 14 6 15 5 16 4 17 3 18 2 19 1 20
REMARK H PARENT
REMARK Flexibility Score: inf
ROOT
ATOM      1  C   UNL     1      -4.909  -4.858   9.179  1.00  0.00    -0.031 C 
ATOM      2  C   UNL     1      -3.848  -4.883   8.358  1.00  0.00    -0.031 C 
ENDROOT
BRANCH   1   3
ATOM      3  C   UNL     1      -6.315  -4.812   8.646  1.00  0.00     0.027 C 
BRANCH   3   4
ATOM      4  C   UNL     1      -7.025  -3.519   9.077  1.00  0.00     0.004 C 
BRANCH   4   5
ATOM      5  C   UNL     1      -8.552  -3.677   9.140  1.00  0.00     0.000 C 
BRANCH   5   6
ATOM      6  C   UNL     1      -9.284  -2.717   8.185  1.00  0.00     0.000 C 
BRANCH   6   7
ATOM      7  C   UNL     1      -8.316  -1.834   7.380  1.00  0.00     0.000 C 
BRANCH   7   8
ATOM      8  C   UNL     1      -8.459  -2.034   5.862  1.00  0.00     0.006 C 
BRANCH   8   9
ATOM      9  C   UNL     1      -8.939  -3.448   5.508  1.00  0.00     0.053 C 
BRANCH   9  10
ATOM     10  C   UNL     1      -7.794  -4.405   5.367  1.00  0.00     0.041 C 
ATOM     11  O   UNL     1      -7.991  -5.646   5.447  1.00  0.00    -0.550 OA
ATOM     12  O   UNL     1      -6.506  -3.923   5.175  1.00  0.00    -0.550 OA
ENDBRANCH   9  10
ENDBRANCH   8   9
ENDBRANCH   7   8
ENDBRANCH   6   7
ENDBRANCH   5   6
ENDBRANCH   4   5
ENDBRANCH   3   4
ENDBRANCH   1   3
BRANCH   2  13
ATOM     13  C   UNL     1      -2.442  -4.909   8.890  1.00  0.00     0.027 C 
BRANCH  13  14
ATOM     14  C   UNL     1      -1.787  -3.526   8.790  1.00  0.00     0.004 C 
BRANCH  14  15
ATOM     15  C   UNL     1      -1.341  -3.028  10.169  1.00  0.00     0.000 C 
BRANCH  15  16
ATOM     16  C   UNL     1      -2.526  -2.985  11.147  1.00  0.00     0.000 C 
BRANCH  16  17
ATOM     17  C   UNL     1      -2.902  -1.553  11.558  1.00  0.00    -0.000 C 
BRANCH  17  18
ATOM     18  C   UNL     1      -3.231  -0.657  10.350  1.00  0.00    -0.000 C 
BRANCH  18  19
ATOM     19  C   UNL     1      -4.552  -1.047   9.671  1.00  0.00    -0.003 C 
ATOM     20  C   UNL     1      -4.452  -1.054   8.146  1.00  0.00     0.004 C 
ENDBRANCH  18  19
ENDBRANCH  17  18
ENDBRANCH  16  17
ENDBRANCH  15  16
ENDBRANCH  14  15
ENDBRANCH  13  14
ENDBRANCH   2  13
TORSDOF 15
ENDMDL
MODEL 5
REMARK VINA RESULT:    -4.140     12.273     15.227
REMARK INTER + INTRA:         -10.265
REMARK INTER:                  -8.342
REMARK INTRA:                  -1.923
REMARK UNBOUND:                -2.494
REMARK SMILES CCCCCCCCC=CCCCCCCCC(=O)[O-]
REMARK SMILES IDX 10 1 9 2 11 3 12 4 13 5 14 6 15 7 16 8 17 9 18 10 19 11
REMARK SMILES IDX 20 12 8 13 7 14 6 15 5 16 4 17 3 18 2 19 1 20
REMARK H PARENT
REMARK Flexibility Score: inf
ROOT
ATOM      1  C   UNL     1       7.193   4.255   8.811  1.00  0.00    -0.031 C 
ATOM      2  C   UNL     1       6.406   5.200   8.274  1.00  0.00    -0.031 C 
ENDROOT
BRANCH   1   3
ATOM      3  C   UNL     1       8.655   4.162   8.470  1.00  0.00     0.027 C 
BRANCH   3   4
ATOM      4  C   UNL     1       9.204   2.762   8.781  1.00  0.00     0.004 C 
BRANCH   4   5
ATOM      5  C   UNL     1       8.174   1.652   8.518  1.00  0.00     0.000 C 
BRANCH   5   6
ATOM      6  C   UNL     1       8.198   1.161   7.059  1.00  0.00     0.000 C 
BRANCH   6   7
ATOM      7  C   UNL     1       6.943   1.579   6.275  1.00  0.00     0.000 C 
BRANCH   7   8
ATOM      8  C   UNL     1       7.282   2.346   4.986  1.00  0.00     0.006 C 
BRANCH   8   9
ATOM      9  C   UNL     1       6.967   3.843   5.104  1.00  0.00     0.053 C 
BRANCH   9  10
ATOM     10  C   UNL     1       8.189   4.686   4.897  1.00  0.00     0.041 C 
ATOM     11  O   UNL     1       9.328   4.152   4.852  1.00  0.00    -0.550 OA
ATOM     12  O   UNL     1       8.069   6.065   4.783  1.00  0.00    -0.550 OA
ENDBRANCH   9  10
ENDBRANCH   8   9
ENDBRANCH   7   8
ENDBRANCH   6   7
ENDBRANCH   5   6
ENDBRANCH   4   5
ENDBRANCH   3   4
ENDBRANCH   1   3
BRANCH   2  13
ATOM     13  C   UNL     1       4.940   5.281   8.599  1.00  0.00     0.027 C 
BRANCH  13  14
ATOM     14  C   UNL     1       4.103   4.494   7.583  1.00  0.00     0.004 C 
BRANCH  14  15
ATOM     15  C   UNL     1       2.627   4.902   7.653  1.00  0.00     0.000 C 
BRANCH  15  16
ATOM     16  C   UNL     1       2.233   5.295   9.085  1.00  0.00     0.000 C 
BRANCH  16  17
ATOM     17  C   UNL     1       1.698   4.106   9.899  1.00  0.00    -0.000 C 
BRANCH  17  18
ATOM     18  C   UNL     1       2.627   3.720  11.063  1.00  0.00    -0.000 C 
BRANCH  18  19
ATOM     19  C   UNL     1       1.861   3.471  12.371  1.00  0.00    -0.003 C 
ATOM     20  C   UNL     1       2.236   4.461  13.472  1.00  0.00     0.004 C 
ENDBRANCH  18  19
ENDBRANCH  17  18
ENDBRANCH  16  17
ENDBRANCH  15  16
ENDBRANCH  14  15
ENDBRANCH  13  14
ENDBRANCH   2  13
TORSDOF 15
ENDMDL
MODEL 6
REMARK VINA RESULT:    -4.108      3.032      6.076
REMARK INTER + INTRA:         -10.203
REMARK INTER:                  -7.698
REMARK INTRA:                  -2.506
REMARK UNBOUND:                -2.494
REMARK SMILES CCCCCCCCC=CCCCCCCCC(=O)[O-]
REMARK SMILES IDX 10 1 9 2 11 3 12 4 13 5 14 6 15 7 16 8 17 9 18 10 19 11
REMARK SMILES IDX 20 12 8 13 7 14 6 15 5 16 4 17 3 18 2 19 1 20
REMARK H PARENT
REMARK Flexibility Score: inf
ROOT
ATOM      1  C   UNL     1      -8.051  -4.124   8.618  1.00  0.00    -0.031 C 
ATOM      2  C   UNL     1      -9.114  -3.305   8.595  1.00  0.00    -0.031 C 
ENDROOT
BRANCH   1   3
ATOM      3  C   UNL     1      -7.075  -4.178   7.475  1.00  0.00     0.027 C 
BRANCH   3   4
ATOM      4  C   UNL     1      -5.885  -3.239   7.723  1.00  0.00     0.004 C 
BRANCH   4   5
ATOM      5  C   UNL     1      -5.284  -3.406   9.128  1.00  0.00     0.000 C 
BRANCH   5   6
ATOM      6  C   UNL     1      -4.459  -4.699   9.265  1.00  0.00     0.000 C 
BRANCH   6   7
ATOM      7  C   UNL     1      -3.392  -4.838   8.167  1.00  0.00     0.000 C 
BRANCH   7   8
ATOM      8  C   UNL     1      -1.973  -4.990   8.740  1.00  0.00     0.006 C 
BRANCH   8   9
ATOM      9  C   UNL     1      -1.152  -3.701   8.600  1.00  0.00     0.053 C 
BRANCH   9  10
ATOM     10  C   UNL     1      -1.604  -2.646   9.563  1.00  0.00     0.041 C 
ATOM     11  O   UNL     1      -1.490  -2.829  10.804  1.00  0.00    -0.550 OA
ATOM     12  O   UNL     1      -2.177  -1.473   9.090  1.00  0.00    -0.550 OA
ENDBRANCH   9  10
ENDBRANCH   8   9
ENDBRANCH   7   8
ENDBRANCH   6   7
ENDBRANCH   5   6
ENDBRANCH   4   5
ENDBRANCH   3   4
ENDBRANCH   1   3
BRANCH   2  13
ATOM     13  C   UNL     1     -10.101  -3.265   9.728  1.00  0.00     0.027 C 
BRANCH  13  14
ATOM     14  C   UNL     1      -9.673  -2.255  10.800  1.00  0.00     0.004 C 
BRANCH  14  15
ATOM     15  C   UNL     1      -9.366  -0.889  10.177  1.00  0.00     0.000 C 
BRANCH  15  16
ATOM     16  C   UNL     1      -7.907  -0.483  10.432  1.00  0.00     0.000 C 
BRANCH  16  17
ATOM     17  C   UNL     1      -7.217   0.067   9.173  1.00  0.00    -0.000 C 
BRANCH  17  18
ATOM     18  C   UNL     1      -8.205   0.325   8.022  1.00  0.00    -0.000 C 
BRANCH  18  19
ATOM     19  C   UNL     1      -7.650  -0.119   6.660  1.00  0.00    -0.003 C 
ATOM     20  C   UNL     1      -8.634  -0.989   5.878  1.00  0.00     0.004 C 
ENDBRANCH  18  19
ENDBRANCH  17  18
ENDBRANCH  16  17
ENDBRANCH  15  16
ENDBRANCH  14  15
ENDBRANCH  13  14
ENDBRANCH   2  13
TORSDOF 15
ENDMDL
MODEL 7
REMARK VINA RESULT:    -4.078     12.130     15.117
REMARK INTER + INTRA:         -10.148
REMARK INTER:                  -7.707
REMARK INTRA:                  -2.441
REMARK UNBOUND:                -2.494
REMARK SMILES CCCCCCCCC=CCCCCCCCC(=O)[O-]
REMARK SMILES IDX 10 1 9 2 11 3 12 4 13 5 14 6 15 7 16 8 17 9 18 10 19 11
REMARK SMILES IDX 20 12 8 13 7 14 6 15 5 16 4 17 3 18 2 19 1 20
REMARK H PARENT
REMARK Flexibility Score: inf
ROOT
ATOM      1  C   UNL     1       8.633   1.210   7.907  1.00  0.00    -0.031 C 
ATOM      2  C   UNL     1       7.703   0.439   7.323  1.00  0.00    -0.031 C 
ENDROOT
BRANCH   1   3
ATOM      3  C   UNL     1       8.458   1.728   9.309  1.00  0.00     0.027 C 
BRANCH   3   4
ATOM      4  C   UNL     1       9.064   3.132   9.457  1.00  0.00     0.004 C 
BRANCH   4   5
ATOM      5  C   UNL     1       8.339   4.180   8.598  1.00  0.00     0.000 C 
BRANCH   5   6
ATOM      6  C   UNL     1       6.807   4.076   8.710  1.00  0.00     0.000 C 
BRANCH   6   7
ATOM      7  C   UNL     1       6.098   5.395   8.362  1.00  0.00     0.000 C 
BRANCH   7   8
ATOM      8  C   UNL     1       4.567   5.251   8.334  1.00  0.00     0.006 C 
BRANCH   8   9
ATOM      9  C   UNL     1       4.126   3.789   8.185  1.00  0.00     0.053 C 
BRANCH   9  10
ATOM     10  C   UNL     1       3.547   3.518   6.829  1.00  0.00     0.041 C 
ATOM     11  O   UNL     1       3.651   4.375   5.912  1.00  0.00    -0.550 OA
ATOM     12  O   UNL     1       2.869   2.331   6.588  1.00  0.00    -0.550 OA
ENDBRANCH   9  10
ENDBRANCH   8   9
ENDBRANCH   7   8
ENDBRANCH   6   7
ENDBRANCH   5   6
ENDBRANCH   4   5
ENDBRANCH   3   4
ENDBRANCH   1   3
BRANCH   2  13
ATOM     13  C   UNL     1       7.868  -0.061   5.915  1.00  0.00     0.027 C 
BRANCH  13  14
ATOM     14  C   UNL     1       9.236  -0.725   5.720  1.00  0.00     0.004 C 
BRANCH  14  15
ATOM     15  C   UNL     1       9.892  -0.259   4.415  1.00  0.00     0.000 C 
BRANCH  15  16
ATOM     16  C   UNL     1       9.155   0.958   3.834  1.00  0.00     0.000 C 
BRANCH  16  17
ATOM     17  C   UNL     1       9.993   2.245   3.902  1.00  0.00    -0.000 C 
BRANCH  17  18
ATOM     18  C   UNL     1       9.574   3.163   5.064  1.00  0.00    -0.000 C 
BRANCH  18  19
ATOM     19  C   UNL     1       8.496   4.177   4.654  1.00  0.00    -0.003 C 
ATOM     20  C   UNL     1       7.090   3.743   5.066  1.00  0.00     0.004 C 
ENDBRANCH  18  19
ENDBRANCH  17  18
ENDBRANCH  16  17
ENDBRANCH  15  16
ENDBRANCH  14  15
ENDBRANCH  13  14
ENDBRANCH   2  13
TORSDOF 15
ENDMDL
MODEL 8
REMARK VINA RESULT:    -4.069      1.909      5.617
REMARK INTER + INTRA:         -10.130
REMARK INTER:                  -7.879
REMARK INTRA:                  -2.251
REMARK UNBOUND:                -2.494
REMARK SMILES CCCCCCCCC=CCCCCCCCC(=O)[O-]
REMARK SMILES IDX 10 1 9 2 11 3 12 4 13 5 14 6 15 7 16 8 17 9 18 10 19 11
REMARK SMILES IDX 20 12 8 13 7 14 6 15 5 16 4 17 3 18 2 19 1 20
REMARK H PARENT
REMARK Flexibility Score: inf
ROOT
ATOM      1  C   UNL     1      -5.269  -4.923   9.135  1.00  0.00    -0.031 C 
ATOM      2  C   UNL     1      -6.208  -4.027   8.794  1.00  0.00    -0.031 C 
ENDROOT
BRANCH   1   3
ATOM      3  C   UNL     1      -3.879  -4.497   9.520  1.00  0.00     0.027 C 
BRANCH   3   4
ATOM      4  C   UNL     1      -2.888  -4.750   8.374  1.00  0.00     0.004 C 
BRANCH   4   5
ATOM      5  C   UNL     1      -1.627  -3.876   8.480  1.00  0.00     0.000 C 
BRANCH   5   6
ATOM      6  C   UNL     1      -1.919  -2.388   8.218  1.00  0.00     0.000 C 
BRANCH   6   7
ATOM      7  C   UNL     1      -1.468  -1.934   6.820  1.00  0.00     0.000 C 
BRANCH   7   8
ATOM      8  C   UNL     1      -2.644  -1.479   5.939  1.00  0.00     0.006 C 
BRANCH   8   9
ATOM      9  C   UNL     1      -3.985  -1.559   6.679  1.00  0.00     0.053 C 
BRANCH   9  10
ATOM     10  C   UNL     1      -5.015  -2.305   5.887  1.00  0.00     0.041 C 
ATOM     11  O   UNL     1      -4.860  -3.530   5.640  1.00  0.00    -0.550 OA
ATOM     12  O   UNL     1      -6.131  -1.640   5.397  1.00  0.00    -0.550 OA
ENDBRANCH   9  10
ENDBRANCH   8   9
ENDBRANCH   7   8
ENDBRANCH   6   7
ENDBRANCH   5   6
ENDBRANCH   4   5
ENDBRANCH   3   4
ENDBRANCH   1   3
BRANCH   2  13
ATOM     13  C   UNL     1      -7.592  -4.454   8.389  1.00  0.00     0.027 C 
BRANCH  13  14
ATOM     14  C   UNL     1      -8.254  -3.405   7.488  1.00  0.00     0.004 C 
BRANCH  14  15
ATOM     15  C   UNL     1      -9.565  -2.901   8.102  1.00  0.00     0.000 C 
BRANCH  15  16
ATOM     16  C   UNL     1      -9.687  -3.338   9.570  1.00  0.00     0.000 C 
BRANCH  16  17
ATOM     17  C   UNL     1      -9.355  -2.205  10.554  1.00  0.00    -0.000 C 
BRANCH  17  18
ATOM     18  C   UNL     1      -8.990  -0.891   9.841  1.00  0.00    -0.000 C 
BRANCH  18  19
ATOM     19  C   UNL     1      -7.495  -0.557   9.951  1.00  0.00    -0.003 C 
ATOM     20  C   UNL     1      -6.905  -0.050   8.635  1.00  0.00     0.004 C 
ENDBRANCH  18  19
ENDBRANCH  17  18
ENDBRANCH  16  17
ENDBRANCH  15  16
ENDBRANCH  14  15
ENDBRANCH  13  14
ENDBRANCH   2  13
TORSDOF 15
ENDMDL
MODEL 9
REMARK VINA RESULT:    -4.058      1.842      4.663
REMARK INTER + INTRA:         -10.110
REMARK INTER:                  -7.367
REMARK INTRA:                  -2.743
REMARK UNBOUND:                -2.494
REMARK SMILES CCCCCCCCC=CCCCCCCCC(=O)[O-]
REMARK SMILES IDX 10 1 9 2 11 3 12 4 13 5 14 6 15 7 16 8 17 9 18 10 19 11
REMARK SMILES IDX 20 12 8 13 7 14 6 15 5 16 4 17 3 18 2 19 1 20
REMARK H PARENT
REMARK Flexibility Score: inf
ROOT
ATOM      1  C   UNL     1      -7.465  -3.857   9.094  1.00  0.00    -0.031 C 
ATOM      2  C   UNL     1      -8.601  -3.734   8.391  1.00  0.00    -0.031 C 
ENDROOT
BRANCH   1   3
ATOM      3  C   UNL     1      -6.374  -4.801   8.666  1.00  0.00     0.027 C 
BRANCH   3   4
ATOM      4  C   UNL     1      -4.989  -4.228   9.002  1.00  0.00     0.004 C 
BRANCH   4   5
ATOM      5  C   UNL     1      -4.636  -2.999   8.150  1.00  0.00     0.000 C 
BRANCH   5   6
ATOM      6  C   UNL     1      -4.641  -3.307   6.642  1.00  0.00     0.000 C 
BRANCH   6   7
ATOM      7  C   UNL     1      -5.113  -2.113   5.796  1.00  0.00     0.000 C 
BRANCH   7   8
ATOM      8  C   UNL     1      -6.185  -2.507   4.765  1.00  0.00     0.006 C 
BRANCH   8   9
ATOM      9  C   UNL     1      -6.980  -3.744   5.203  1.00  0.00     0.053 C 
BRANCH   9  10
ATOM     10  C   UNL     1      -8.049  -4.097   4.213  1.00  0.00     0.041 C 
ATOM     11  O   UNL     1      -7.752  -4.307   3.008  1.00  0.00    -0.550 OA
ATOM     12  O   UNL     1      -9.375  -4.165   4.618  1.00  0.00    -0.550 OA
ENDBRANCH   9  10
ENDBRANCH   8   9
ENDBRANCH   7   8
ENDBRANCH   6   7
ENDBRANCH   5   6
ENDBRANCH   4   5
ENDBRANCH   3   4
ENDBRANCH   1   3
BRANCH   2  13
ATOM     13  C   UNL     1      -9.701  -2.806   8.829  1.00  0.00     0.027 C 
BRANCH  13  14
ATOM     14  C   UNL     1     -10.125  -3.094  10.274  1.00  0.00     0.004 C 
BRANCH  14  15
ATOM     15  C   UNL     1      -9.769  -1.922  11.196  1.00  0.00     0.000 C 
BRANCH  15  16
ATOM     16  C   UNL     1      -9.405  -0.672  10.379  1.00  0.00     0.000 C 
BRANCH  16  17
ATOM     17  C   UNL     1      -7.985  -0.165  10.675  1.00  0.00    -0.000 C 
BRANCH  17  18
ATOM     18  C   UNL     1      -7.396   0.656   9.514  1.00  0.00    -0.000 C 
BRANCH  18  19
ATOM     19  C   UNL     1      -7.034  -0.214   8.302  1.00  0.00    -0.003 C 
ATOM     20  C   UNL     1      -7.887   0.100   7.074  1.00  0.00     0.004 C 
ENDBRANCH  18  19
ENDBRANCH  17  18
ENDBRANCH  16  17
ENDBRANCH  15  16
ENDBRANCH  14  15
ENDBRANCH  13  14
ENDBRANCH   2  13
TORSDOF 15
ENDMDL
