MODEL 1
REMARK VINA RESULT:     0.131      0.000      0.000
REMARK INTER + INTRA:           2.122
REMARK INTER:                   0.239
REMARK INTRA:                   1.884
REMARK UNBOUND:                 1.884
REMARK SMILES CCCCCC=CCC=CCCCCCCCC(=O)[O-]
REMARK SMILES IDX 11 1 12 2 13 3 14 4 15 5 16 6 17 7 18 8 19 9 20 10 10 11
REMARK SMILES IDX 9 12 8 13 7 14 6 15 5 16 4 17 3 18 2 19 1 20
REMARK H PARENT
REMARK Flexibility Score: inf
ROOT
ATOM      1  C   UNL     1      11.473  12.886  26.802  1.00  0.00     0.027 C 
ENDROOT
BRANCH   1   2
ATOM      2  C   UNL     1      10.687  11.614  27.150  1.00  0.00     0.004 C 
BRANCH   2   3
ATOM      3  C   UNL     1      11.481  10.332  26.842  1.00  0.00     0.000 C 
BRANCH   3   4
ATOM      4  C   UNL     1      11.319   9.884  25.379  1.00  0.00     0.000 C 
BRANCH   4   5
ATOM      5  C   UNL     1       9.854   9.898  24.905  1.00  0.00     0.000 C 
BRANCH   5   6
ATOM      6  C   UNL     1       9.652  10.218  23.413  1.00  0.00     0.006 C 
BRANCH   6   7
ATOM      7  C   UNL     1       8.220   9.954  22.934  1.00  0.00     0.053 C 
BRANCH   7   8
ATOM      8  C   UNL     1       7.371  11.169  23.131  1.00  0.00     0.041 C 
ATOM      9  O   UNL     1       7.533  12.180  22.399  1.00  0.00    -0.550 OA
ATOM     10  O   UNL     1       6.363  11.165  24.088  1.00  0.00    -0.550 OA
ENDBRANCH   7   8
ENDBRANCH   6   7
ENDBRANCH   5   6
ENDBRANCH   4   5
ENDBRANCH   3   4
ENDBRANCH   2   3
ENDBRANCH   1   2
BRANCH   1  11
ATOM     11  C   UNL     1      12.672  13.040  27.697  1.00  0.00    -0.031 C 
ATOM     12  C   UNL     1      13.910  13.097  27.180  1.00  0.00    -0.027 C 
BRANCH  12  13
ATOM     13  C   UNL     1      15.124  13.242  28.053  1.00  0.00     0.054 C 
BRANCH  13  14
ATOM     14  C   UNL     1      15.072  12.314  29.241  1.00  0.00    -0.027 C 
ATOM     15  C   UNL     1      15.021  10.970  29.163  1.00  0.00    -0.031 C 
BRANCH  15  16
ATOM     16  C   UNL     1      14.972  10.186  27.876  1.00  0.00     0.027 C 
BRANCH  16  17
ATOM     17  C   UNL     1      14.979  11.126  26.661  1.00  0.00     0.004 C 
BRANCH  17  18
ATOM     18  C   UNL     1      14.991  10.367  25.321  1.00  0.00     0.000 C 
BRANCH  18  19
ATOM     19  C   UNL     1      15.089  11.263  24.073  1.00  0.00    -0.003 C 
ATOM     20  C   UNL     1      14.585  10.577  22.804  1.00  0.00     0.004 C 
ENDBRANCH  18  19
ENDBRANCH  17  18
ENDBRANCH  16  17
ENDBRANCH  15  16
ENDBRANCH  13  14
ENDBRANCH  12  13
ENDBRANCH   1  11
TORSDOF 14
ENDMDL
MODEL 2
REMARK VINA RESULT:     1.642     19.355     21.582
REMARK INTER + INTRA:           4.869
REMARK INTER:                   6.478
REMARK INTRA:                  -1.609
REMARK UNBOUND:                 1.884
REMARK SMILES CCCCCC=CCC=CCCCCCCCC(=O)[O-]
REMARK SMILES IDX 11 1 12 2 13 3 14 4 15 5 16 6 17 7 18 8 19 9 20 10 10 11
REMARK SMILES IDX 9 12 8 13 7 14 6 15 5 16 4 17 3 18 2 19 1 20
REMARK H PARENT
REMARK Flexibility Score: inf
ROOT
ATOM      1  C   UNL     1      -3.697  26.361  27.646  1.00  0.00     0.027 C 
ENDROOT
BRANCH   1   2
ATOM      2  C   UNL     1      -4.885  27.266  28.006  1.00  0.00     0.004 C 
BRANCH   2   3
ATOM      3  C   UNL     1      -4.512  28.758  27.984  1.00  0.00     0.000 C 
BRANCH   3   4
ATOM      4  C   UNL     1      -4.314  29.330  29.399  1.00  0.00     0.000 C 
BRANCH   4   5
ATOM      5  C   UNL     1      -2.887  29.853  29.643  1.00  0.00     0.000 C 
BRANCH   5   6
ATOM      6  C   UNL     1      -1.968  28.905  30.433  1.00  0.00     0.006 C 
BRANCH   6   7
ATOM      7  C   UNL     1      -2.726  27.742  31.083  1.00  0.00     0.053 C 
BRANCH   7   8
ATOM      8  C   UNL     1      -1.951  26.470  30.944  1.00  0.00     0.041 C 
ATOM      9  O   UNL     1      -0.694  26.497  30.880  1.00  0.00    -0.550 OA
ATOM     10  O   UNL     1      -2.615  25.249  30.938  1.00  0.00    -0.550 OA
ENDBRANCH   7   8
ENDBRANCH   6   7
ENDBRANCH   5   6
ENDBRANCH   4   5
ENDBRANCH   3   4
ENDBRANCH   2   3
ENDBRANCH   1   2
BRANCH   1  11
ATOM     11  C   UNL     1      -2.792  27.031  26.650  1.00  0.00    -0.031 C 
ATOM     12  C   UNL     1      -1.482  27.178  26.904  1.00  0.00    -0.027 C 
BRANCH  12  13
ATOM     13  C   UNL     1      -0.559  27.851  25.928  1.00  0.00     0.054 C 
BRANCH  13  14
ATOM     14  C   UNL     1       0.813  27.224  25.933  1.00  0.00    -0.027 C 
ATOM     15  C   UNL     1       1.934  27.829  25.496  1.00  0.00    -0.031 C 
BRANCH  15  16
ATOM     16  C   UNL     1       1.986  29.214  24.901  1.00  0.00     0.027 C 
BRANCH  16  17
ATOM     17  C   UNL     1       2.742  29.208  23.564  1.00  0.00     0.004 C 
BRANCH  17  18
ATOM     18  C   UNL     1       3.748  28.048  23.453  1.00  0.00     0.000 C 
BRANCH  18  19
ATOM     19  C   UNL     1       4.903  28.287  22.464  1.00  0.00    -0.003 C 
ATOM     20  C   UNL     1       4.561  27.872  21.033  1.00  0.00     0.004 C 
ENDBRANCH  18  19
ENDBRANCH  17  18
ENDBRANCH  16  17
ENDBRANCH  15  16
ENDBRANCH  13  14
ENDBRANCH  12  13
ENDBRANCH   1  11
TORSDOF 14
ENDMDL
MODEL 3
REMARK VINA RESULT:     1.996      1.834      3.291
REMARK INTER + INTRA:           5.513
REMARK INTER:                   5.939
REMARK INTRA:                  -0.426
REMARK UNBOUND:                 1.884
REMARK SMILES CCCCCC=CCC=CCCCCCCCC(=O)[O-]
REMARK SMILES IDX 11 1 12 2 13 3 14 4 15 5 16 6 17 7 18 8 19 9 20 10 10 11
REMARK SMILES IDX 9 12 8 13 7 14 6 15 5 16 4 17 3 18 2 19 1 20
REMARK H PARENT
REMARK Flexibility Score: inf
ROOT
ATOM      1  C   UNL     1      12.007   9.901  25.542  1.00  0.00     0.027 C 
ENDROOT
BRANCH   1   2
ATOM      2  C   UNL     1      11.874  11.283  24.887  1.00  0.00     0.004 C 
BRANCH   2   3
ATOM      3  C   UNL     1      10.647  11.377  23.963  1.00  0.00     0.000 C 
BRANCH   3   4
ATOM      4  C   UNL     1       9.904  10.035  23.844  1.00  0.00     0.000 C 
BRANCH   4   5
ATOM      5  C   UNL     1       8.775   9.878  24.879  1.00  0.00     0.000 C 
BRANCH   5   6
ATOM      6  C   UNL     1       7.418  10.474  24.464  1.00  0.00     0.006 C 
BRANCH   6   7
ATOM      7  C   UNL     1       7.428  11.051  23.044  1.00  0.00     0.053 C 
BRANCH   7   8
ATOM      8  C   UNL     1       7.530  12.542  23.086  1.00  0.00     0.041 C 
ATOM      9  O   UNL     1       8.561  13.119  22.649  1.00  0.00    -0.550 OA
ATOM     10  O   UNL     1       6.465  13.299  23.559  1.00  0.00    -0.550 OA
ENDBRANCH   7   8
ENDBRANCH   6   7
ENDBRANCH   5   6
ENDBRANCH   4   5
ENDBRANCH   3   4
ENDBRANCH   2   3
ENDBRANCH   1   2
BRANCH   1  11
ATOM     11  C   UNL     1      11.351   9.881  26.895  1.00  0.00    -0.031 C 
ATOM     12  C   UNL     1      12.089   9.903  28.016  1.00  0.00    -0.027 C 
BRANCH  12  13
ATOM     13  C   UNL     1      11.457   9.875  29.379  1.00  0.00     0.054 C 
BRANCH  13  14
ATOM     14  C   UNL     1      11.725  11.146  30.146  1.00  0.00    -0.027 C 
ATOM     15  C   UNL     1      12.816  11.371  30.901  1.00  0.00    -0.031 C 
BRANCH  15  16
ATOM     16  C   UNL     1      13.926  10.373  31.125  1.00  0.00     0.027 C 
BRANCH  16  17
ATOM     17  C   UNL     1      15.075  10.599  30.131  1.00  0.00     0.004 C 
BRANCH  17  18
ATOM     18  C   UNL     1      15.097  12.029  29.560  1.00  0.00     0.000 C 
BRANCH  18  19
ATOM     19  C   UNL     1      14.956  12.115  28.029  1.00  0.00    -0.003 C 
ATOM     20  C   UNL     1      14.778  13.547  27.525  1.00  0.00     0.004 C 
ENDBRANCH  18  19
ENDBRANCH  17  18
ENDBRANCH  16  17
ENDBRANCH  15  16
ENDBRANCH  13  14
ENDBRANCH  12  13
ENDBRANCH   1  11
TORSDOF 14
ENDMDL
MODEL 4
REMARK VINA RESULT:     2.190     19.243     21.802
REMARK INTER + INTRA:           5.867
REMARK INTER:                   6.895
REMARK INTRA:                  -1.028
REMARK UNBOUND:                 1.884
REMARK SMILES CCCCCC=CCC=CCCCCCCCC(=O)[O-]
REMARK SMILES IDX 11 1 12 2 13 3 14 4 15 5 16 6 17 7 18 8 19 9 20 10 10 11
REMARK SMILES IDX 9 12 8 13 7 14 6 15 5 16 4 17 3 18 2 19 1 20
REMARK H PARENT
REMARK Flexibility Score: inf
ROOT
ATOM      1  C   UNL     1      -2.539  27.114  26.034  1.00  0.00     0.027 C 
ENDROOT
BRANCH   1   2
ATOM      2  C   UNL     1      -1.202  27.329  26.759  1.00  0.00     0.004 C 
BRANCH   2   3
ATOM      3  C   UNL     1      -0.171  28.059  25.881  1.00  0.00     0.000 C 
BRANCH   3   4
ATOM      4  C   UNL     1       1.126  27.249  25.710  1.00  0.00     0.000 C 
BRANCH   4   5
ATOM      5  C   UNL     1       2.337  28.124  25.338  1.00  0.00     0.000 C 
BRANCH   5   6
ATOM      6  C   UNL     1       3.220  27.573  24.204  1.00  0.00     0.006 C 
BRANCH   6   7
ATOM      7  C   UNL     1       3.561  28.628  23.146  1.00  0.00     0.053 C 
BRANCH   7   8
ATOM      8  C   UNL     1       4.639  28.129  22.238  1.00  0.00     0.041 C 
ATOM      9  O   UNL     1       4.344  27.482  21.200  1.00  0.00    -0.550 OA
ATOM     10  O   UNL     1       5.969  28.426  22.510  1.00  0.00    -0.550 OA
ENDBRANCH   7   8
ENDBRANCH   6   7
ENDBRANCH   5   6
ENDBRANCH   4   5
ENDBRANCH   3   4
ENDBRANCH   2   3
ENDBRANCH   1   2
BRANCH   1  11
ATOM     11  C   UNL     1      -3.651  27.850  26.728  1.00  0.00    -0.031 C 
ATOM     12  C   UNL     1      -3.415  28.555  27.845  1.00  0.00    -0.027 C 
BRANCH  12  13
ATOM     13  C   UNL     1      -4.511  29.292  28.561  1.00  0.00     0.054 C 
BRANCH  13  14
ATOM     14  C   UNL     1      -4.092  29.706  29.950  1.00  0.00    -0.027 C 
ATOM     15  C   UNL     1      -4.043  28.882  31.014  1.00  0.00    -0.031 C 
BRANCH  15  16
ATOM     16  C   UNL     1      -4.433  27.425  30.990  1.00  0.00     0.027 C 
BRANCH  16  17
ATOM     17  C   UNL     1      -3.195  26.525  31.125  1.00  0.00     0.004 C 
BRANCH  17  18
ATOM     18  C   UNL     1      -1.898  27.226  30.682  1.00  0.00     0.000 C 
BRANCH  18  19
ATOM     19  C   UNL     1      -0.601  26.524  31.125  1.00  0.00    -0.003 C 
ATOM     20  C   UNL     1      -0.190  25.384  30.194  1.00  0.00     0.004 C 
ENDBRANCH  18  19
ENDBRANCH  17  18
ENDBRANCH  16  17
ENDBRANCH  15  16
ENDBRANCH  13  14
ENDBRANCH  12  13
ENDBRANCH   1  11
TORSDOF 14
ENDMDL
MODEL 5
REMARK VINA RESULT:     2.459      3.013      4.558
REMARK INTER + INTRA:           6.356
REMARK INTER:                   7.173
REMARK INTRA:                  -0.817
REMARK UNBOUND:                 1.884
REMARK SMILES CCCCCC=CCC=CCCCCCCCC(=O)[O-]
REMARK SMILES IDX 11 1 12 2 13 3 14 4 15 5 16 6 17 7 18 8 19 9 20 10 10 11
REMARK SMILES IDX 9 12 8 13 7 14 6 15 5 16 4 17 3 18 2 19 1 20
REMARK H PARENT
REMARK Flexibility Score: inf
ROOT
ATOM      1  C   UNL     1      11.749  10.205  25.271  1.00  0.00     0.027 C 
ENDROOT
BRANCH   1   2
ATOM      2  C   UNL     1      11.413  11.664  24.929  1.00  0.00     0.004 C 
BRANCH   2   3
ATOM      3  C   UNL     1      10.490  11.780  23.704  1.00  0.00     0.000 C 
BRANCH   3   4
ATOM      4  C   UNL     1      10.251  10.422  23.023  1.00  0.00     0.000 C 
BRANCH   4   5
ATOM      5  C   UNL     1      11.265  10.124  21.903  1.00  0.00     0.000 C 
BRANCH   5   6
ATOM      6  C   UNL     1      12.709   9.875  22.375  1.00  0.00     0.006 C 
BRANCH   6   7
ATOM      7  C   UNL     1      13.738  10.722  21.618  1.00  0.00     0.053 C 
BRANCH   7   8
ATOM      8  C   UNL     1      14.611  11.466  22.578  1.00  0.00     0.041 C 
ATOM      9  O   UNL     1      15.071  12.597  22.270  1.00  0.00    -0.550 OA
ATOM     10  O   UNL     1      14.872  10.936  23.836  1.00  0.00    -0.550 OA
ENDBRANCH   7   8
ENDBRANCH   6   7
ENDBRANCH   5   6
ENDBRANCH   4   5
ENDBRANCH   3   4
ENDBRANCH   2   3
ENDBRANCH   1   2
BRANCH   1  11
ATOM     11  C   UNL     1      11.345   9.875  26.681  1.00  0.00    -0.031 C 
ATOM     12  C   UNL     1      12.069  10.316  27.723  1.00  0.00    -0.027 C 
BRANCH  12  13
ATOM     13  C   UNL     1      11.691   9.994  29.140  1.00  0.00     0.054 C 
BRANCH  13  14
ATOM     14  C   UNL     1      11.848  11.189  30.047  1.00  0.00    -0.027 C 
ATOM     15  C   UNL     1      12.964  11.484  30.740  1.00  0.00    -0.031 C 
BRANCH  15  16
ATOM     16  C   UNL     1      14.219  10.647  30.744  1.00  0.00     0.027 C 
BRANCH  16  17
ATOM     17  C   UNL     1      14.984  10.800  29.421  1.00  0.00     0.004 C 
BRANCH  17  18
ATOM     18  C   UNL     1      15.112  12.267  28.972  1.00  0.00     0.000 C 
BRANCH  18  19
ATOM     19  C   UNL     1      14.862  12.508  27.472  1.00  0.00    -0.003 C 
ATOM     20  C   UNL     1      15.012  13.974  27.068  1.00  0.00     0.004 C 
ENDBRANCH  18  19
ENDBRANCH  17  18
ENDBRANCH  16  17
ENDBRANCH  15  16
ENDBRANCH  13  14
ENDBRANCH  12  13
ENDBRANCH   1  11
TORSDOF 14
ENDMDL
MODEL 6
REMARK VINA RESULT:     2.571      2.973      6.874
REMARK INTER + INTRA:           6.560
REMARK INTER:                   6.243
REMARK INTRA:                   0.317
REMARK UNBOUND:                 1.884
REMARK SMILES CCCCCC=CCC=CCCCCCCCC(=O)[O-]
REMARK SMILES IDX 11 1 12 2 13 3 14 4 15 5 16 6 17 7 18 8 19 9 20 10 10 11
REMARK SMILES IDX 9 12 8 13 7 14 6 15 5 16 4 17 3 18 2 19 1 20
REMARK H PARENT
REMARK Flexibility Score: inf
ROOT
ATOM      1  C   UNL     1      11.764  10.871  23.652  1.00  0.00     0.027 C 
ENDROOT
BRANCH   1   2
ATOM      2  C   UNL     1      12.718  10.202  22.652  1.00  0.00     0.004 C 
BRANCH   2   3
ATOM      3  C   UNL     1      14.165  10.705  22.797  1.00  0.00     0.000 C 
BRANCH   3   4
ATOM      4  C   UNL     1      14.971   9.875  23.811  1.00  0.00     0.000 C 
BRANCH   4   5
ATOM      5  C   UNL     1      14.486  10.060  25.260  1.00  0.00     0.000 C 
BRANCH   5   6
ATOM      6  C   UNL     1      13.650  11.327  25.515  1.00  0.00     0.006 C 
BRANCH   6   7
ATOM      7  C   UNL     1      13.572  11.702  26.999  1.00  0.00     0.053 C 
BRANCH   7   8
ATOM      8  C   UNL     1      13.432  13.182  27.158  1.00  0.00     0.041 C 
ATOM      9  O   UNL     1      12.375  13.671  27.636  1.00  0.00    -0.550 OA
ATOM     10  O   UNL     1      14.491  14.020  26.828  1.00  0.00    -0.550 OA
ENDBRANCH   7   8
ENDBRANCH   6   7
ENDBRANCH   5   6
ENDBRANCH   4   5
ENDBRANCH   3   4
ENDBRANCH   2   3
ENDBRANCH   1   2
BRANCH   1  11
ATOM     11  C   UNL     1      10.420  10.197  23.647  1.00  0.00    -0.031 C 
ATOM     12  C   UNL     1       9.326  10.853  23.227  1.00  0.00    -0.027 C 
BRANCH  12  13
ATOM     13  C   UNL     1       7.970  10.205  23.220  1.00  0.00     0.054 C 
BRANCH  13  14
ATOM     14  C   UNL     1       6.922  11.095  23.841  1.00  0.00    -0.027 C 
ATOM     15  C   UNL     1       6.446  10.959  25.093  1.00  0.00    -0.031 C 
BRANCH  15  16
ATOM     16  C   UNL     1       6.861   9.876  26.058  1.00  0.00     0.027 C 
BRANCH  16  17
ATOM     17  C   UNL     1       7.751  10.447  27.172  1.00  0.00     0.004 C 
BRANCH  17  18
ATOM     18  C   UNL     1       9.236  10.080  26.995  1.00  0.00     0.000 C 
BRANCH  18  19
ATOM     19  C   UNL     1      10.066  10.103  28.291  1.00  0.00    -0.003 C 
ATOM     20  C   UNL     1      11.558   9.881  28.050  1.00  0.00     0.004 C 
ENDBRANCH  18  19
ENDBRANCH  17  18
ENDBRANCH  16  17
ENDBRANCH  15  16
ENDBRANCH  13  14
ENDBRANCH  12  13
ENDBRANCH   1  11
TORSDOF 14
ENDMDL
MODEL 7
REMARK VINA RESULT:     2.573     19.241     21.795
REMARK INTER + INTRA:           6.562
REMARK INTER:                   7.906
REMARK INTRA:                  -1.345
REMARK UNBOUND:                 1.884
REMARK SMILES CCCCCC=CCC=CCCCCCCCC(=O)[O-]
REMARK SMILES IDX 11 1 12 2 13 3 14 4 15 5 16 6 17 7 18 8 19 9 20 10 10 11
REMARK SMILES IDX 9 12 8 13 7 14 6 15 5 16 4 17 3 18 2 19 1 20
REMARK H PARENT
REMARK Flexibility Score: inf
ROOT
ATOM      1  C   UNL     1      -1.491  27.137  26.578  1.00  0.00     0.027 C 
ENDROOT
BRANCH   1   2
ATOM      2  C   UNL     1      -0.224  27.793  26.011  1.00  0.00     0.004 C 
BRANCH   2   3
ATOM      3  C   UNL     1       1.038  26.954  26.274  1.00  0.00     0.000 C 
BRANCH   3   4
ATOM      4  C   UNL     1       2.168  27.273  25.280  1.00  0.00     0.000 C 
BRANCH   4   5
ATOM      5  C   UNL     1       2.083  28.702  24.712  1.00  0.00     0.000 C 
BRANCH   5   6
ATOM      6  C   UNL     1       2.944  28.962  23.462  1.00  0.00     0.006 C 
BRANCH   6   7
ATOM      7  C   UNL     1       4.112  27.980  23.326  1.00  0.00     0.053 C 
BRANCH   7   8
ATOM      8  C   UNL     1       4.883  28.253  22.074  1.00  0.00     0.041 C 
ATOM      9  O   UNL     1       4.311  28.196  20.954  1.00  0.00    -0.550 OA
ATOM     10  O   UNL     1       6.220  28.622  22.147  1.00  0.00    -0.550 OA
ENDBRANCH   7   8
ENDBRANCH   6   7
ENDBRANCH   5   6
ENDBRANCH   4   5
ENDBRANCH   3   4
ENDBRANCH   2   3
ENDBRANCH   1   2
BRANCH   1  11
ATOM     11  C   UNL     1      -1.543  27.270  28.075  1.00  0.00    -0.031 C 
ATOM     12  C   UNL     1      -1.546  26.181  28.860  1.00  0.00    -0.027 C 
BRANCH  12  13
ATOM     13  C   UNL     1      -1.606  26.286  30.357  1.00  0.00     0.054 C 
BRANCH  13  14
ATOM     14  C   UNL     1      -3.016  26.507  30.846  1.00  0.00    -0.027 C 
ATOM     15  C   UNL     1      -3.558  27.713  31.102  1.00  0.00    -0.031 C 
BRANCH  15  16
ATOM     16  C   UNL     1      -2.830  29.027  30.973  1.00  0.00     0.027 C 
BRANCH  16  17
ATOM     17  C   UNL     1      -3.209  29.738  29.665  1.00  0.00     0.004 C 
BRANCH  17  18
ATOM     18  C   UNL     1      -4.526  29.214  29.062  1.00  0.00     0.000 C 
BRANCH  18  19
ATOM     19  C   UNL     1      -4.506  29.023  27.535  1.00  0.00    -0.003 C 
ATOM     20  C   UNL     1      -4.807  27.587  27.108  1.00  0.00     0.004 C 
ENDBRANCH  18  19
ENDBRANCH  17  18
ENDBRANCH  16  17
ENDBRANCH  15  16
ENDBRANCH  13  14
ENDBRANCH  12  13
ENDBRANCH   1  11
TORSDOF 14
ENDMDL
MODEL 8
REMARK VINA RESULT:     2.611      3.238      6.237
REMARK INTER + INTRA:           6.633
REMARK INTER:                   4.994
REMARK INTRA:                   1.639
REMARK UNBOUND:                 1.884
REMARK SMILES CCCCCC=CCC=CCCCCCCCC(=O)[O-]
REMARK SMILES IDX 11 1 12 2 13 3 14 4 15 5 16 6 17 7 18 8 19 9 20 10 10 11
REMARK SMILES IDX 9 12 8 13 7 14 6 15 5 16 4 17 3 18 2 19 1 20
REMARK H PARENT
REMARK Flexibility Score: inf
ROOT
ATOM      1  C   UNL     1       8.936  10.477  28.848  1.00  0.00     0.027 C 
ENDROOT
BRANCH   1   2
ATOM      2  C   UNL     1      10.339   9.875  28.689  1.00  0.00     0.004 C 
BRANCH   2   3
ATOM      3  C   UNL     1      11.439  10.951  28.663  1.00  0.00     0.000 C 
BRANCH   3   4
ATOM      4  C   UNL     1      12.116  11.124  30.034  1.00  0.00     0.000 C 
BRANCH   4   5
ATOM      5  C   UNL     1      13.231  10.094  30.288  1.00  0.00     0.000 C 
BRANCH   5   6
ATOM      6  C   UNL     1      14.607  10.460  29.703  1.00  0.00     0.006 C 
BRANCH   6   7
ATOM      7  C   UNL     1      14.775  11.965  29.468  1.00  0.00     0.053 C 
BRANCH   7   8
ATOM      8  C   UNL     1      14.680  12.280  28.009  1.00  0.00     0.041 C 
ATOM      9  O   UNL     1      14.653  13.477  27.621  1.00  0.00    -0.550 OA
ATOM     10  O   UNL     1      14.676  11.252  27.075  1.00  0.00    -0.550 OA
ENDBRANCH   7   8
ENDBRANCH   6   7
ENDBRANCH   5   6
ENDBRANCH   4   5
ENDBRANCH   3   4
ENDBRANCH   2   3
ENDBRANCH   1   2
BRANCH   1  11
ATOM     11  C   UNL     1       8.154  10.368  27.568  1.00  0.00    -0.031 C 
ATOM     12  C   UNL     1       8.782  10.194  26.394  1.00  0.00    -0.027 C 
BRANCH  12  13
ATOM     13  C   UNL     1       8.024  10.091  25.101  1.00  0.00     0.054 C 
BRANCH  13  14
ATOM     14  C   UNL     1       8.948   9.875  23.928  1.00  0.00    -0.027 C 
ATOM     15  C   UNL     1      10.241  10.249  23.890  1.00  0.00    -0.031 C 
BRANCH  15  16
ATOM     16  C   UNL     1      10.957  10.974  25.002  1.00  0.00     0.027 C 
BRANCH  16  17
ATOM     17  C   UNL     1      11.851  10.011  25.797  1.00  0.00     0.004 C 
BRANCH  17  18
ATOM     18  C   UNL     1      13.338  10.122  25.413  1.00  0.00     0.000 C 
BRANCH  18  19
ATOM     19  C   UNL     1      13.600  10.408  23.923  1.00  0.00    -0.003 C 
ATOM     20  C   UNL     1      15.086  10.414  23.567  1.00  0.00     0.004 C 
ENDBRANCH  18  19
ENDBRANCH  17  18
ENDBRANCH  16  17
ENDBRANCH  15  16
ENDBRANCH  13  14
ENDBRANCH  12  13
ENDBRANCH   1  11
TORSDOF 14
ENDMDL
MODEL 9
REMARK VINA RESULT:     2.798     19.443     21.492
REMARK INTER + INTRA:           6.972
REMARK INTER:                   8.182
REMARK INTRA:                  -1.210
REMARK UNBOUND:                 1.884
REMARK SMILES CCCCCC=CCC=CCCCCCCCC(=O)[O-]
REMARK SMILES IDX 11 1 12 2 13 3 14 4 15 5 16 6 17 7 18 8 19 9 20 10 10 11
REMARK SMILES IDX 9 12 8 13 7 14 6 15 5 16 4 17 3 18 2 19 1 20
REMARK H PARENT
REMARK Flexibility Score: inf
ROOT
ATOM      1  C   UNL     1      -1.734  26.001  29.162  1.00  0.00     0.027 C 
ENDROOT
BRANCH   1   2
ATOM      2  C   UNL     1      -1.839  26.778  30.482  1.00  0.00     0.004 C 
BRANCH   2   3
ATOM      3  C   UNL     1      -3.231  26.654  31.125  1.00  0.00     0.000 C 
BRANCH   3   4
ATOM      4  C   UNL     1      -4.064  27.938  30.962  1.00  0.00     0.000 C 
BRANCH   4   5
ATOM      5  C   UNL     1      -3.227  29.143  30.498  1.00  0.00     0.000 C 
BRANCH   5   6
ATOM      6  C   UNL     1      -3.316  29.463  28.995  1.00  0.00     0.006 C 
BRANCH   6   7
ATOM      7  C   UNL     1      -4.655  29.048  28.375  1.00  0.00     0.053 C 
BRANCH   7   8
ATOM      8  C   UNL     1      -4.431  28.129  27.216  1.00  0.00     0.041 C 
ATOM      9  O   UNL     1      -4.469  26.882  27.380  1.00  0.00    -0.550 OA
ATOM     10  O   UNL     1      -4.234  28.651  25.943  1.00  0.00    -0.550 OA
ENDBRANCH   7   8
ENDBRANCH   6   7
ENDBRANCH   5   6
ENDBRANCH   4   5
ENDBRANCH   3   4
ENDBRANCH   2   3
ENDBRANCH   1   2
BRANCH   1  11
ATOM     11  C   UNL     1      -0.860  26.728  28.177  1.00  0.00    -0.031 C 
ATOM     12  C   UNL     1      -1.339  27.103  26.981  1.00  0.00    -0.027 C 
BRANCH  12  13
ATOM     13  C   UNL     1      -0.484  27.822  25.977  1.00  0.00     0.054 C 
BRANCH  13  14
ATOM     14  C   UNL     1       0.903  27.233  25.901  1.00  0.00    -0.027 C 
ATOM     15  C   UNL     1       1.985  27.880  25.427  1.00  0.00    -0.031 C 
BRANCH  15  16
ATOM     16  C   UNL     1       1.973  29.281  24.868  1.00  0.00     0.027 C 
BRANCH  16  17
ATOM     17  C   UNL     1       2.737  29.347  23.537  1.00  0.00     0.004 C 
BRANCH  17  18
ATOM     18  C   UNL     1       3.711  28.169  23.351  1.00  0.00     0.000 C 
BRANCH  18  19
ATOM     19  C   UNL     1       4.727  28.346  22.208  1.00  0.00    -0.003 C 
ATOM     20  C   UNL     1       4.423  27.466  20.996  1.00  0.00     0.004 C 
ENDBRANCH  18  19
ENDBRANCH  17  18
ENDBRANCH  16  17
ENDBRANCH  15  16
ENDBRANCH  13  14
ENDBRANCH  12  13
ENDBRANCH   1  11
TORSDOF 14
ENDMDL
