MODEL 1
REMARK VINA RESULT:    -5.335      0.000      0.000
REMARK INTER + INTRA:          -6.058
REMARK INTER:                  -5.803
REMARK INTRA:                  -0.255
REMARK UNBOUND:                -0.255
REMARK SMILES O=C([O-])c1ccccc1O
REMARK SMILES IDX 4 1 9 2 5 3 8 4 6 5 7 6 2 7 1 8 3 9 10 10
REMARK H PARENT 10 11
REMARK Flexibility Score: inf
ROOT
ATOM      1  C   UNL     1       5.953  15.776  -7.332  1.00  0.00     0.039 A 
ATOM      2  C   UNL     1       6.688  16.863  -6.800  1.00  0.00     0.124 A 
ATOM      3  C   UNL     1       4.593  15.644  -6.988  1.00  0.00     0.014 A 
ATOM      4  C   UNL     1       6.058  17.784  -5.949  1.00  0.00     0.047 A 
ATOM      5  C   UNL     1       3.979  16.568  -6.140  1.00  0.00     0.001 A 
ATOM      6  C   UNL     1       4.709  17.636  -5.620  1.00  0.00     0.004 A 
ENDROOT
BRANCH   1   7
ATOM      7  C   UNL     1       6.580  14.778  -8.238  1.00  0.00     0.075 C 
ATOM      8  O   UNL     1       6.378  13.547  -8.065  1.00  0.00    -0.545 OA
ATOM      9  O   UNL     1       7.399  15.176  -9.288  1.00  0.00    -0.545 OA
ENDBRANCH   1   7
BRANCH   2  10
ATOM     10  O   UNL     1       8.037  17.035  -7.112  1.00  0.00    -0.507 OA
ATOM     11  H   UNL     1       8.668  16.248  -7.197  1.00  0.00     0.293 HD
ENDBRANCH   2  10
TORSDOF 2
ENDMDL
MODEL 2
REMARK VINA RESULT:    -5.108      1.944      4.106
REMARK INTER + INTRA:          -5.811
REMARK INTER:                  -5.606
REMARK INTRA:                  -0.205
REMARK UNBOUND:                -0.255
REMARK SMILES O=C([O-])c1ccccc1O
REMARK SMILES IDX 4 1 9 2 5 3 8 4 6 5 7 6 2 7 1 8 3 9 10 10
REMARK H PARENT 10 11
REMARK Flexibility Score: inf
ROOT
ATOM      1  C   UNL     1       6.347  16.680  -7.109  1.00  0.00     0.039 A 
ATOM      2  C   UNL     1       5.803  15.406  -7.398  1.00  0.00     0.124 A 
ATOM      3  C   UNL     1       7.482  17.112  -7.826  1.00  0.00     0.014 A 
ATOM      4  C   UNL     1       6.393  14.600  -8.383  1.00  0.00     0.047 A 
ATOM      5  C   UNL     1       8.059  16.299  -8.804  1.00  0.00     0.001 A 
ATOM      6  C   UNL     1       7.516  15.045  -9.083  1.00  0.00     0.004 A 
ENDROOT
BRANCH   1   7
ATOM      7  C   UNL     1       5.753  17.566  -6.074  1.00  0.00     0.075 C 
ATOM      8  O   UNL     1       6.442  18.482  -5.550  1.00  0.00    -0.545 OA
ATOM      9  O   UNL     1       4.436  17.407  -5.662  1.00  0.00    -0.545 OA
ENDBRANCH   1   7
BRANCH   2  10
ATOM     10  O   UNL     1       4.681  14.936  -6.715  1.00  0.00    -0.507 OA
ATOM     11  H   UNL     1       3.961  14.397  -7.180  1.00  0.00     0.293 HD
ENDBRANCH   2  10
TORSDOF 2
ENDMDL
MODEL 3
REMARK VINA RESULT:    -5.098      1.933      3.572
REMARK INTER + INTRA:          -5.800
REMARK INTER:                  -5.584
REMARK INTRA:                  -0.216
REMARK UNBOUND:                -0.255
REMARK SMILES O=C([O-])c1ccccc1O
REMARK SMILES IDX 4 1 9 2 5 3 8 4 6 5 7 6 2 7 1 8 3 9 10 10
REMARK H PARENT 10 11
REMARK Flexibility Score: inf
ROOT
ATOM      1  C   UNL     1       5.997  16.740  -7.386  1.00  0.00     0.039 A 
ATOM      2  C   UNL     1       7.296  16.510  -7.898  1.00  0.00     0.124 A 
ATOM      3  C   UNL     1       4.902  16.098  -8.001  1.00  0.00     0.014 A 
ATOM      4  C   UNL     1       7.475  15.657  -8.997  1.00  0.00     0.047 A 
ATOM      5  C   UNL     1       5.095  15.251  -9.095  1.00  0.00     0.001 A 
ATOM      6  C   UNL     1       6.379  15.030  -9.593  1.00  0.00     0.004 A 
ENDROOT
BRANCH   1   7
ATOM      7  C   UNL     1       5.762  17.635  -6.223  1.00  0.00     0.075 C 
ATOM      8  O   UNL     1       6.541  18.598  -5.994  1.00  0.00    -0.545 OA
ATOM      9  O   UNL     1       4.687  17.431  -5.366  1.00  0.00    -0.545 OA
ENDBRANCH   1   7
BRANCH   2  10
ATOM     10  O   UNL     1       8.410  17.123  -7.322  1.00  0.00    -0.507 OA
ATOM     11  H   UNL     1       8.371  17.538  -6.399  1.00  0.00     0.293 HD
ENDBRANCH   2  10
TORSDOF 2
ENDMDL
MODEL 4
REMARK VINA RESULT:    -5.097      0.957      2.163
REMARK INTER + INTRA:          -5.798
REMARK INTER:                  -5.579
REMARK INTRA:                  -0.219
REMARK UNBOUND:                -0.255
REMARK SMILES O=C([O-])c1ccccc1O
REMARK SMILES IDX 4 1 9 2 5 3 8 4 6 5 7 6 2 7 1 8 3 9 10 10
REMARK H PARENT 10 11
REMARK Flexibility Score: inf
ROOT
ATOM      1  C   UNL     1       6.400  15.873  -7.361  1.00  0.00     0.039 A 
ATOM      2  C   UNL     1       5.065  15.450  -7.160  1.00  0.00     0.124 A 
ATOM      3  C   UNL     1       6.803  17.119  -6.839  1.00  0.00     0.014 A 
ATOM      4  C   UNL     1       4.171  16.267  -6.452  1.00  0.00     0.047 A 
ATOM      5  C   UNL     1       5.902  17.922  -6.137  1.00  0.00     0.001 A 
ATOM      6  C   UNL     1       4.589  17.498  -5.943  1.00  0.00     0.004 A 
ENDROOT
BRANCH   1   7
ATOM      7  C   UNL     1       7.381  15.038  -8.104  1.00  0.00     0.075 C 
ATOM      8  O   UNL     1       7.286  13.782  -8.090  1.00  0.00    -0.545 OA
ATOM      9  O   UNL     1       8.418  15.618  -8.824  1.00  0.00    -0.545 OA
ENDBRANCH   1   7
BRANCH   2  10
ATOM     10  O   UNL     1       4.621  14.224  -7.658  1.00  0.00    -0.507 OA
ATOM     11  H   UNL     1       3.635  13.999  -7.716  1.00  0.00     0.293 HD
ENDBRANCH   2  10
TORSDOF 2
ENDMDL
MODEL 5
REMARK VINA RESULT:    -5.040     12.963     14.245
REMARK INTER + INTRA:          -5.736
REMARK INTER:                  -5.506
REMARK INTRA:                  -0.230
REMARK UNBOUND:                -0.255
REMARK SMILES O=C([O-])c1ccccc1O
REMARK SMILES IDX 4 1 9 2 5 3 8 4 6 5 7 6 2 7 1 8 3 9 10 10
REMARK H PARENT 10 11
REMARK Flexibility Score: inf
ROOT
ATOM      1  C   UNL     1      18.019  19.727 -12.685  1.00  0.00     0.039 A 
ATOM      2  C   UNL     1      18.473  18.656 -11.880  1.00  0.00     0.124 A 
ATOM      3  C   UNL     1      18.782  20.101 -13.810  1.00  0.00     0.014 A 
ATOM      4  C   UNL     1      19.663  17.989 -12.208  1.00  0.00     0.047 A 
ATOM      5  C   UNL     1      19.964  19.428 -14.125  1.00  0.00     0.001 A 
ATOM      6  C   UNL     1      20.405  18.374 -13.326  1.00  0.00     0.004 A 
ENDROOT
BRANCH   1   7
ATOM      7  C   UNL     1      16.764  20.461 -12.375  1.00  0.00     0.075 C 
ATOM      8  O   UNL     1      15.779  19.854 -11.875  1.00  0.00    -0.545 OA
ATOM      9  O   UNL     1      16.646  21.822 -12.627  1.00  0.00    -0.545 OA
ENDBRANCH   1   7
BRANCH   2  10
ATOM     10  O   UNL     1      17.752  18.250 -10.757  1.00  0.00    -0.507 OA
ATOM     11  H   UNL     1      18.123  17.573 -10.101  1.00  0.00     0.293 HD
ENDBRANCH   2  10
TORSDOF 2
ENDMDL
MODEL 6
REMARK VINA RESULT:    -4.814     13.417     14.488
REMARK INTER + INTRA:          -5.491
REMARK INTER:                  -5.240
REMARK INTRA:                  -0.252
REMARK UNBOUND:                -0.255
REMARK SMILES O=C([O-])c1ccccc1O
REMARK SMILES IDX 4 1 9 2 5 3 8 4 6 5 7 6 2 7 1 8 3 9 10 10
REMARK H PARENT 10 11
REMARK Flexibility Score: inf
ROOT
ATOM      1  C   UNL     1      19.283  18.571 -12.594  1.00  0.00     0.039 A 
ATOM      2  C   UNL     1      18.145  18.938 -11.838  1.00  0.00     0.124 A 
ATOM      3  C   UNL     1      19.630  19.348 -13.718  1.00  0.00     0.014 A 
ATOM      4  C   UNL     1      17.386  20.058 -12.212  1.00  0.00     0.047 A 
ATOM      5  C   UNL     1      18.867  20.461 -14.079  1.00  0.00     0.001 A 
ATOM      6  C   UNL     1      17.747  20.815 -13.328  1.00  0.00     0.004 A 
ENDROOT
BRANCH   1   7
ATOM      7  C   UNL     1      20.115  17.394 -12.233  1.00  0.00     0.075 C 
ATOM      8  O   UNL     1      21.371  17.455 -12.307  1.00  0.00    -0.545 OA
ATOM      9  O   UNL     1      19.532  16.205 -11.809  1.00  0.00    -0.545 OA
ENDBRANCH   1   7
BRANCH   2  10
ATOM     10  O   UNL     1      17.762  18.199 -10.718  1.00  0.00    -0.507 OA
ATOM     11  H   UNL     1      18.327  18.173  -9.878  1.00  0.00     0.293 HD
ENDBRANCH   2  10
TORSDOF 2
ENDMDL
MODEL 7
REMARK VINA RESULT:    -4.710     11.569     12.710
REMARK INTER + INTRA:          -5.377
REMARK INTER:                  -5.167
REMARK INTRA:                  -0.210
REMARK UNBOUND:                -0.255
REMARK SMILES O=C([O-])c1ccccc1O
REMARK SMILES IDX 4 1 9 2 5 3 8 4 6 5 7 6 2 7 1 8 3 9 10 10
REMARK H PARENT 10 11
REMARK Flexibility Score: inf
ROOT
ATOM      1  C   UNL     1      15.594  22.228 -12.815  1.00  0.00     0.039 A 
ATOM      2  C   UNL     1      14.313  22.144 -12.218  1.00  0.00     0.124 A 
ATOM      3  C   UNL     1      15.874  23.314 -13.669  1.00  0.00     0.014 A 
ATOM      4  C   UNL     1      13.352  23.131 -12.482  1.00  0.00     0.047 A 
ATOM      5  C   UNL     1      14.907  24.290 -13.922  1.00  0.00     0.001 A 
ATOM      6  C   UNL     1      13.648  24.199 -13.331  1.00  0.00     0.004 A 
ENDROOT
BRANCH   1   7
ATOM      7  C   UNL     1      16.643  21.206 -12.562  1.00  0.00     0.075 C 
ATOM      8  O   UNL     1      17.591  21.052 -13.378  1.00  0.00    -0.545 OA
ATOM      9  O   UNL     1      16.602  20.399 -11.432  1.00  0.00    -0.545 OA
ENDBRANCH   1   7
BRANCH   2  10
ATOM     10  O   UNL     1      13.990  21.088 -11.366  1.00  0.00    -0.507 OA
ATOM     11  H   UNL     1      14.110  21.157 -10.363  1.00  0.00     0.293 HD
ENDBRANCH   2  10
TORSDOF 2
ENDMDL
MODEL 8
REMARK VINA RESULT:    -4.644     13.357     14.384
REMARK INTER + INTRA:          -5.306
REMARK INTER:                  -5.082
REMARK INTRA:                  -0.224
REMARK UNBOUND:                -0.255
REMARK SMILES O=C([O-])c1ccccc1O
REMARK SMILES IDX 4 1 9 2 5 3 8 4 6 5 7 6 2 7 1 8 3 9 10 10
REMARK H PARENT 10 11
REMARK Flexibility Score: inf
ROOT
ATOM      1  C   UNL     1      18.925  18.711 -12.035  1.00  0.00     0.039 A 
ATOM      2  C   UNL     1      19.515  19.312 -13.172  1.00  0.00     0.124 A 
ATOM      3  C   UNL     1      17.670  19.179 -11.595  1.00  0.00     0.014 A 
ATOM      4  C   UNL     1      18.851  20.352 -13.838  1.00  0.00     0.047 A 
ATOM      5  C   UNL     1      17.020  20.216 -12.268  1.00  0.00     0.001 A 
ATOM      6  C   UNL     1      17.608  20.802 -13.387  1.00  0.00     0.004 A 
ENDROOT
BRANCH   1   7
ATOM      7  C   UNL     1      19.593  17.606 -11.299  1.00  0.00     0.075 C 
ATOM      8  O   UNL     1      19.792  16.496 -11.862  1.00  0.00    -0.545 OA
ATOM      9  O   UNL     1      20.009  17.767  -9.983  1.00  0.00    -0.545 OA
ENDBRANCH   1   7
BRANCH   2  10
ATOM     10  O   UNL     1      20.756  18.882 -13.645  1.00  0.00    -0.507 OA
ATOM     11  H   UNL     1      21.122  17.965 -13.422  1.00  0.00     0.293 HD
ENDBRANCH   2  10
TORSDOF 2
ENDMDL
MODEL 9
REMARK VINA RESULT:    -4.470      1.963      3.733
REMARK INTER + INTRA:          -5.117
REMARK INTER:                  -4.894
REMARK INTRA:                  -0.223
REMARK UNBOUND:                -0.255
REMARK SMILES O=C([O-])c1ccccc1O
REMARK SMILES IDX 4 1 9 2 5 3 8 4 6 5 7 6 2 7 1 8 3 9 10 10
REMARK H PARENT 10 11
REMARK Flexibility Score: inf
ROOT
ATOM      1  C   UNL     1       6.271  15.800  -7.493  1.00  0.00     0.039 A 
ATOM      2  C   UNL     1       4.875  15.601  -7.369  1.00  0.00     0.124 A 
ATOM      3  C   UNL     1       7.018  14.897  -8.276  1.00  0.00     0.014 A 
ATOM      4  C   UNL     1       4.262  14.519  -8.019  1.00  0.00     0.047 A 
ATOM      5  C   UNL     1       6.394  13.825  -8.918  1.00  0.00     0.001 A 
ATOM      6  C   UNL     1       5.019  13.635  -8.790  1.00  0.00     0.004 A 
ENDROOT
BRANCH   1   7
ATOM      7  C   UNL     1       6.961  16.933  -6.823  1.00  0.00     0.075 C 
ATOM      8  O   UNL     1       8.031  17.397  -7.299  1.00  0.00    -0.545 OA
ATOM      9  O   UNL     1       6.448  17.502  -5.663  1.00  0.00    -0.545 OA
ENDBRANCH   1   7
BRANCH   2  10
ATOM     10  O   UNL     1       4.094  16.468  -6.605  1.00  0.00    -0.507 OA
ATOM     11  H   UNL     1       3.665  16.174  -5.736  1.00  0.00     0.293 HD
ENDBRANCH   2  10
TORSDOF 2
ENDMDL
