MODEL 1
REMARK VINA RESULT:    -5.294      0.000      0.000
REMARK INTER + INTRA:          -5.604
REMARK INTER:                  -5.604
REMARK INTRA:                   0.000
REMARK UNBOUND:                 0.000
REMARK SMILES O=c1ccc2cc(O)c(O)cc2o1
REMARK SMILES IDX 4 1 3 2 2 3 1 4 13 5 12 6 11 7 9 8 7 9 6 10 5 11 8 12 10 14
REMARK H PARENT 8 13 10 15
REMARK Flexibility Score: inf
ROOT
ATOM      1  C   UNL     1      26.733   9.766 -32.712  1.00  0.00     0.019 A 
ATOM      2  C   UNL     1      25.975  10.826 -32.215  1.00  0.00     0.094 A 
ATOM      3  C   UNL     1      26.511  12.117 -32.248  1.00  0.00     0.336 A 
ATOM      4  O   UNL     1      25.841  13.087 -31.804  1.00  0.00    -0.246 OA
ATOM      5  O   UNL     1      27.726  12.330 -32.745  1.00  0.00    -0.423 OA
ATOM      6  C   UNL     1      28.484  11.348 -33.229  1.00  0.00     0.142 A 
ATOM      7  C   UNL     1      29.754  11.631 -33.740  1.00  0.00     0.098 A 
ATOM      8  C   UNL     1      30.555  10.599 -34.250  1.00  0.00     0.161 A 
ATOM      9  C   UNL     1      30.084   9.279 -34.251  1.00  0.00     0.158 A 
ATOM     10  C   UNL     1      28.810   8.989 -33.740  1.00  0.00     0.062 A 
ATOM     11  C   UNL     1      28.008  10.018 -33.229  1.00  0.00     0.022 A 
ENDROOT
BRANCH   9  12
ATOM     12  O   UNL     1      30.887   8.260 -34.761  1.00  0.00    -0.504 OA
ATOM     13  H   UNL     1      31.888   8.374 -34.862  1.00  0.00     0.293 HD
ENDBRANCH   9  12
BRANCH   8  14
ATOM     14  O   UNL     1      31.823  10.879 -34.760  1.00  0.00    -0.504 OA
ATOM     15  H   UNL     1      32.565  10.189 -34.743  1.00  0.00     0.293 HD
ENDBRANCH   8  14
TORSDOF 2
ENDMDL
MODEL 2
REMARK VINA RESULT:    -5.270     11.964     12.548
REMARK INTER + INTRA:          -5.578
REMARK INTER:                  -5.578
REMARK INTRA:                   0.000
REMARK UNBOUND:                 0.000
REMARK SMILES O=c1ccc2cc(O)c(O)cc2o1
REMARK SMILES IDX 4 1 3 2 2 3 1 4 13 5 12 6 11 7 9 8 7 9 6 10 5 11 8 12 10 14
REMARK H PARENT 8 13 10 15
REMARK Flexibility Score: inf
ROOT
ATOM      1  C   UNL     1      32.507   6.512 -24.467  1.00  0.00     0.019 A 
ATOM      2  C   UNL     1      31.620   5.620 -25.070  1.00  0.00     0.094 A 
ATOM      3  C   UNL     1      30.472   5.230 -24.373  1.00  0.00     0.336 A 
ATOM      4  O   UNL     1      29.659   4.426 -24.901  1.00  0.00    -0.246 OA
ATOM      5  O   UNL     1      30.231   5.703 -23.153  1.00  0.00    -0.423 OA
ATOM      6  C   UNL     1      31.051   6.555 -22.540  1.00  0.00     0.142 A 
ATOM      7  C   UNL     1      30.745   7.019 -21.257  1.00  0.00     0.098 A 
ATOM      8  C   UNL     1      31.607   7.916 -20.608  1.00  0.00     0.161 A 
ATOM      9  C   UNL     1      32.777   8.352 -21.246  1.00  0.00     0.158 A 
ATOM     10  C   UNL     1      33.088   7.890 -22.533  1.00  0.00     0.062 A 
ATOM     11  C   UNL     1      32.229   6.993 -23.183  1.00  0.00     0.022 A 
ENDROOT
BRANCH   9  12
ATOM     12  O   UNL     1      33.626   9.244 -20.594  1.00  0.00    -0.504 OA
ATOM     13  H   UNL     1      33.396   9.626 -19.684  1.00  0.00     0.293 HD
ENDBRANCH   9  12
BRANCH   8  14
ATOM     14  O   UNL     1      31.305   8.380 -19.329  1.00  0.00    -0.504 OA
ATOM     15  H   UNL     1      30.413   8.182 -18.890  1.00  0.00     0.293 HD
ENDBRANCH   8  14
TORSDOF 2
ENDMDL
MODEL 3
REMARK VINA RESULT:    -5.270      0.985      2.244
REMARK INTER + INTRA:          -5.578
REMARK INTER:                  -5.578
REMARK INTRA:                   0.000
REMARK UNBOUND:                 0.000
REMARK SMILES O=c1ccc2cc(O)c(O)cc2o1
REMARK SMILES IDX 4 1 3 2 2 3 1 4 13 5 12 6 11 7 9 8 7 9 6 10 5 11 8 12 10 14
REMARK H PARENT 8 13 10 15
REMARK Flexibility Score: inf
ROOT
ATOM      1  C   UNL     1      28.564  12.988 -32.711  1.00  0.00     0.019 A 
ATOM      2  C   UNL     1      27.256  12.968 -32.226  1.00  0.00     0.094 A 
ATOM      3  C   UNL     1      26.510  11.790 -32.332  1.00  0.00     0.336 A 
ATOM      4  O   UNL     1      25.328  11.754 -31.900  1.00  0.00    -0.246 OA
ATOM      5  O   UNL     1      27.041  10.705 -32.889  1.00  0.00    -0.423 OA
ATOM      6  C   UNL     1      28.284  10.679 -33.365  1.00  0.00     0.142 A 
ATOM      7  C   UNL     1      28.789   9.508 -33.938  1.00  0.00     0.098 A 
ATOM      8  C   UNL     1      30.099   9.478 -34.441  1.00  0.00     0.161 A 
ATOM      9  C   UNL     1      30.906  10.622 -34.368  1.00  0.00     0.158 A 
ATOM     10  C   UNL     1      30.405  11.799 -33.793  1.00  0.00     0.062 A 
ATOM     11  C   UNL     1      29.097  11.832 -33.291  1.00  0.00     0.022 A 
ENDROOT
BRANCH   9  12
ATOM     12  O   UNL     1      32.206  10.582 -34.869  1.00  0.00    -0.504 OA
ATOM     13  H   UNL     1      32.921  11.221 -34.541  1.00  0.00     0.293 HD
ENDBRANCH   9  12
BRANCH   8  14
ATOM     14  O   UNL     1      30.605   8.312 -35.014  1.00  0.00    -0.504 OA
ATOM     15  H   UNL     1      31.489   7.916 -34.717  1.00  0.00     0.293 HD
ENDBRANCH   8  14
TORSDOF 2
ENDMDL
MODEL 4
REMARK VINA RESULT:    -5.220     12.401     13.129
REMARK INTER + INTRA:          -5.526
REMARK INTER:                  -5.526
REMARK INTRA:                   0.000
REMARK UNBOUND:                 0.000
REMARK SMILES O=c1ccc2cc(O)c(O)cc2o1
REMARK SMILES IDX 4 1 3 2 2 3 1 4 13 5 12 6 11 7 9 8 7 9 6 10 5 11 8 12 10 14
REMARK H PARENT 8 13 10 15
REMARK Flexibility Score: inf
ROOT
ATOM      1  C   UNL     1      33.526   6.526 -23.972  1.00  0.00     0.019 A 
ATOM      2  C   UNL     1      34.765   6.780 -23.382  1.00  0.00     0.094 A 
ATOM      3  C   UNL     1      34.831   6.968 -21.998  1.00  0.00     0.336 A 
ATOM      4  O   UNL     1      35.940   7.197 -21.448  1.00  0.00    -0.246 OA
ATOM      5  O   UNL     1      33.729   6.907 -21.256  1.00  0.00    -0.423 OA
ATOM      6  C   UNL     1      32.527   6.668 -21.777  1.00  0.00     0.142 A 
ATOM      7  C   UNL     1      31.403   6.614 -20.947  1.00  0.00     0.098 A 
ATOM      8  C   UNL     1      30.135   6.363 -21.493  1.00  0.00     0.161 A 
ATOM      9  C   UNL     1      29.991   6.164 -22.873  1.00  0.00     0.158 A 
ATOM     10  C   UNL     1      31.116   6.216 -23.710  1.00  0.00     0.062 A 
ATOM     11  C   UNL     1      32.383   6.467 -23.168  1.00  0.00     0.022 A 
ENDROOT
BRANCH   9  12
ATOM     12  O   UNL     1      28.728   5.914 -23.406  1.00  0.00    -0.504 OA
ATOM     13  H   UNL     1      27.945   5.656 -22.816  1.00  0.00     0.293 HD
ENDBRANCH   9  12
BRANCH   8  14
ATOM     14  O   UNL     1      29.013   6.309 -20.668  1.00  0.00    -0.504 OA
ATOM     15  H   UNL     1      28.074   6.322 -21.049  1.00  0.00     0.293 HD
ENDBRANCH   8  14
TORSDOF 2
ENDMDL
MODEL 5
REMARK VINA RESULT:    -5.199      1.243      5.014
REMARK INTER + INTRA:          -5.503
REMARK INTER:                  -5.503
REMARK INTRA:                   0.000
REMARK UNBOUND:                 0.000
REMARK SMILES O=c1ccc2cc(O)c(O)cc2o1
REMARK SMILES IDX 4 1 3 2 2 3 1 4 13 5 12 6 11 7 9 8 7 9 6 10 5 11 8 12 10 14
REMARK H PARENT 8 13 10 15
REMARK Flexibility Score: inf
ROOT
ATOM      1  C   UNL     1      30.045  11.674 -33.786  1.00  0.00     0.019 A 
ATOM      2  C   UNL     1      30.886  10.795 -34.468  1.00  0.00     0.094 A 
ATOM      3  C   UNL     1      30.482   9.468 -34.645  1.00  0.00     0.336 A 
ATOM      4  O   UNL     1      31.227   8.660 -35.259  1.00  0.00    -0.246 OA
ATOM      5  O   UNL     1      29.312   9.051 -34.168  1.00  0.00    -0.423 OA
ATOM      6  C   UNL     1      28.479   9.856 -33.511  1.00  0.00     0.142 A 
ATOM      7  C   UNL     1      27.261   9.362 -33.033  1.00  0.00     0.098 A 
ATOM      8  C   UNL     1      26.381  10.206 -32.340  1.00  0.00     0.161 A 
ATOM      9  C   UNL     1      26.720  11.549 -32.125  1.00  0.00     0.158 A 
ATOM     10  C   UNL     1      27.939  12.050 -32.603  1.00  0.00     0.062 A 
ATOM     11  C   UNL     1      28.821  11.209 -33.295  1.00  0.00     0.022 A 
ENDROOT
BRANCH   9  12
ATOM     12  O   UNL     1      25.839  12.381 -31.436  1.00  0.00    -0.504 OA
ATOM     13  H   UNL     1      25.663  13.333 -31.737  1.00  0.00     0.293 HD
ENDBRANCH   9  12
BRANCH   8  14
ATOM     14  O   UNL     1      25.166   9.716 -31.862  1.00  0.00    -0.504 OA
ATOM     15  H   UNL     1      24.946   8.728 -31.891  1.00  0.00     0.293 HD
ENDBRANCH   8  14
TORSDOF 2
ENDMDL
MODEL 6
REMARK VINA RESULT:    -5.111      2.146      3.035
REMARK INTER + INTRA:          -5.410
REMARK INTER:                  -5.410
REMARK INTRA:                   0.000
REMARK UNBOUND:                 0.000
REMARK SMILES O=c1ccc2cc(O)c(O)cc2o1
REMARK SMILES IDX 4 1 3 2 2 3 1 4 13 5 12 6 11 7 9 8 7 9 6 10 5 11 8 12 10 14
REMARK H PARENT 8 13 10 15
REMARK Flexibility Score: inf
ROOT
ATOM      1  C   UNL     1      26.328  10.700 -31.981  1.00  0.00     0.019 A 
ATOM      2  C   UNL     1      25.543   9.581 -32.260  1.00  0.00     0.094 A 
ATOM      3  C   UNL     1      26.031   8.611 -33.141  1.00  0.00     0.336 A 
ATOM      4  O   UNL     1      25.337   7.595 -33.405  1.00  0.00    -0.246 OA
ATOM      5  O   UNL     1      27.227   8.756 -33.707  1.00  0.00    -0.423 OA
ATOM      6  C   UNL     1      28.009   9.808 -33.469  1.00  0.00     0.142 A 
ATOM      7  C   UNL     1      29.257   9.905 -34.092  1.00  0.00     0.098 A 
ATOM      8  C   UNL     1      30.083  11.012 -33.844  1.00  0.00     0.161 A 
ATOM      9  C   UNL     1      29.660  12.023 -32.971  1.00  0.00     0.158 A 
ATOM     10  C   UNL     1      28.409  11.930 -32.343  1.00  0.00     0.062 A 
ATOM     11  C   UNL     1      27.581  10.826 -32.589  1.00  0.00     0.022 A 
ENDROOT
BRANCH   9  12
ATOM     12  O   UNL     1      30.488  13.118 -32.731  1.00  0.00    -0.504 OA
ATOM     13  H   UNL     1      30.156  13.933 -32.227  1.00  0.00     0.293 HD
ENDBRANCH   9  12
BRANCH   8  14
ATOM     14  O   UNL     1      31.328  11.112 -34.464  1.00  0.00    -0.504 OA
ATOM     15  H   UNL     1      31.732  12.011 -34.699  1.00  0.00     0.293 HD
ENDBRANCH   8  14
TORSDOF 2
ENDMDL
MODEL 7
REMARK VINA RESULT:    -5.053     11.831     12.163
REMARK INTER + INTRA:          -5.349
REMARK INTER:                  -5.349
REMARK INTRA:                   0.000
REMARK UNBOUND:                 0.000
REMARK SMILES O=c1ccc2cc(O)c(O)cc2o1
REMARK SMILES IDX 4 1 3 2 2 3 1 4 13 5 12 6 11 7 9 8 7 9 6 10 5 11 8 12 10 14
REMARK H PARENT 8 13 10 15
REMARK Flexibility Score: inf
ROOT
ATOM      1  C   UNL     1      30.876   7.554 -20.602  1.00  0.00     0.019 A 
ATOM      2  C   UNL     1      31.948   8.336 -20.171  1.00  0.00     0.094 A 
ATOM      3  C   UNL     1      33.016   8.564 -21.044  1.00  0.00     0.336 A 
ATOM      4  O   UNL     1      33.992   9.268 -20.673  1.00  0.00    -0.246 OA
ATOM      5  O   UNL     1      33.010   8.042 -22.268  1.00  0.00    -0.423 OA
ATOM      6  C   UNL     1      32.008   7.290 -22.720  1.00  0.00     0.142 A 
ATOM      7  C   UNL     1      32.055   6.768 -24.016  1.00  0.00     0.098 A 
ATOM      8  C   UNL     1      31.002   5.975 -24.496  1.00  0.00     0.161 A 
ATOM      9  C   UNL     1      29.897   5.704 -23.676  1.00  0.00     0.158 A 
ATOM     10  C   UNL     1      29.844   6.226 -22.375  1.00  0.00     0.062 A 
ATOM     11  C   UNL     1      30.895   7.018 -21.894  1.00  0.00     0.022 A 
ENDROOT
BRANCH   9  12
ATOM     12  O   UNL     1      28.855   4.916 -24.162  1.00  0.00    -0.504 OA
ATOM     13  H   UNL     1      28.362   4.262 -23.564  1.00  0.00     0.293 HD
ENDBRANCH   9  12
BRANCH   8  14
ATOM     14  O   UNL     1      31.047   5.453 -25.788  1.00  0.00    -0.504 OA
ATOM     15  H   UNL     1      31.520   5.940 -26.540  1.00  0.00     0.293 HD
ENDBRANCH   8  14
TORSDOF 2
ENDMDL
MODEL 8
REMARK VINA RESULT:    -5.011     12.177     12.981
REMARK INTER + INTRA:          -5.304
REMARK INTER:                  -5.304
REMARK INTRA:                   0.000
REMARK UNBOUND:                 0.000
REMARK SMILES O=c1ccc2cc(O)c(O)cc2o1
REMARK SMILES IDX 4 1 3 2 2 3 1 4 13 5 12 6 11 7 9 8 7 9 6 10 5 11 8 12 10 14
REMARK H PARENT 8 13 10 15
REMARK Flexibility Score: inf
ROOT
ATOM      1  C   UNL     1      33.714   7.240 -21.148  1.00  0.00     0.019 A 
ATOM      2  C   UNL     1      34.833   7.314 -21.978  1.00  0.00     0.094 A 
ATOM      3  C   UNL     1      34.685   7.042 -23.342  1.00  0.00     0.336 A 
ATOM      4  O   UNL     1      35.684   7.105 -24.107  1.00  0.00    -0.246 OA
ATOM      5  O   UNL     1      33.495   6.717 -23.839  1.00  0.00    -0.423 OA
ATOM      6  C   UNL     1      32.402   6.634 -23.083  1.00  0.00     0.142 A 
ATOM      7  C   UNL     1      31.177   6.288 -23.662  1.00  0.00     0.098 A 
ATOM      8  C   UNL     1      30.023   6.199 -22.869  1.00  0.00     0.161 A 
ATOM      9  C   UNL     1      30.094   6.458 -21.493  1.00  0.00     0.158 A 
ATOM     10  C   UNL     1      31.320   6.807 -20.908  1.00  0.00     0.062 A 
ATOM     11  C   UNL     1      32.475   6.896 -21.697  1.00  0.00     0.022 A 
ENDROOT
BRANCH   9  12
ATOM     12  O   UNL     1      28.943   6.369 -20.713  1.00  0.00    -0.504 OA
ATOM     13  H   UNL     1      28.130   6.946 -20.899  1.00  0.00     0.293 HD
ENDBRANCH   9  12
BRANCH   8  14
ATOM     14  O   UNL     1      28.800   5.854 -23.443  1.00  0.00    -0.504 OA
ATOM     15  H   UNL     1      28.193   6.551 -23.857  1.00  0.00     0.293 HD
ENDBRANCH   8  14
TORSDOF 2
ENDMDL
MODEL 9
REMARK VINA RESULT:    -4.810      1.467      4.662
REMARK INTER + INTRA:          -5.091
REMARK INTER:                  -5.091
REMARK INTRA:                   0.000
REMARK UNBOUND:                 0.000
REMARK SMILES O=c1ccc2cc(O)c(O)cc2o1
REMARK SMILES IDX 4 1 3 2 2 3 1 4 13 5 12 6 11 7 9 8 7 9 6 10 5 11 8 12 10 14
REMARK H PARENT 8 13 10 15
REMARK Flexibility Score: inf
ROOT
ATOM      1  C   UNL     1      28.425   9.017 -33.398  1.00  0.00     0.019 A 
ATOM      2  C   UNL     1      29.638   9.600 -33.767  1.00  0.00     0.094 A 
ATOM      3  C   UNL     1      29.768  10.991 -33.711  1.00  0.00     0.336 A 
ATOM      4  O   UNL     1      30.855  11.534 -34.039  1.00  0.00    -0.246 OA
ATOM      5  O   UNL     1      28.748  11.747 -33.313  1.00  0.00    -0.423 OA
ATOM      6  C   UNL     1      27.573  11.233 -32.953  1.00  0.00     0.142 A 
ATOM      7  C   UNL     1      26.537  12.078 -32.542  1.00  0.00     0.098 A 
ATOM      8  C   UNL     1      25.298  11.540 -32.162  1.00  0.00     0.161 A 
ATOM      9  C   UNL     1      25.095  10.153 -32.193  1.00  0.00     0.158 A 
ATOM     10  C   UNL     1      26.131   9.302 -32.604  1.00  0.00     0.062 A 
ATOM     11  C   UNL     1      27.370   9.836 -32.984  1.00  0.00     0.022 A 
ENDROOT
BRANCH   9  12
ATOM     12  O   UNL     1      23.861   9.628 -31.813  1.00  0.00    -0.504 OA
ATOM     13  H   UNL     1      23.693   9.298 -30.870  1.00  0.00     0.293 HD
ENDBRANCH   9  12
BRANCH   8  14
ATOM     14  O   UNL     1      24.263  12.380 -31.753  1.00  0.00    -0.504 OA
ATOM     15  H   UNL     1      23.761  12.963 -32.412  1.00  0.00     0.293 HD
ENDBRANCH   8  14
TORSDOF 2
ENDMDL
