MODEL 1
REMARK VINA RESULT:    -5.339      0.000      0.000
REMARK INTER + INTRA:         -10.830
REMARK INTER:                  -9.708
REMARK INTRA:                  -1.121
REMARK UNBOUND:                -1.121
REMARK SMILES CCCCCCCCCCCCCCCC(=O)[O-]
REMARK SMILES IDX 9 1 10 2 11 3 12 4 13 5 14 6 15 7 16 8 17 9 18 10 8 11 7 12
REMARK SMILES IDX 6 13 5 14 4 15 3 16 2 17 1 18
REMARK H PARENT
REMARK Flexibility Score: inf
ROOT
ATOM      1  C   UNL     1       6.290  57.266  21.871  1.00  0.00     0.000 C 
ENDROOT
BRANCH   1   2
ATOM      2  C   UNL     1       4.893  57.392  22.511  1.00  0.00     0.000 C 
BRANCH   2   3
ATOM      3  C   UNL     1       3.963  58.430  21.854  1.00  0.00     0.000 C 
BRANCH   3   4
ATOM      4  C   UNL     1       2.484  58.008  21.881  1.00  0.00     0.000 C 
BRANCH   4   5
ATOM      5  C   UNL     1       1.573  58.968  21.095  1.00  0.00     0.000 C 
BRANCH   5   6
ATOM      6  C   UNL     1       1.982  59.210  19.627  1.00  0.00     0.006 C 
BRANCH   6   7
ATOM      7  C   UNL     1       0.805  59.315  18.644  1.00  0.00     0.053 C 
BRANCH   7   8
ATOM      8  C   UNL     1       1.107  58.651  17.336  1.00  0.00     0.041 C 
ATOM      9  O   UNL     1       2.112  59.005  16.664  1.00  0.00    -0.550 OA
ATOM     10  O   UNL     1       0.262  57.665  16.843  1.00  0.00    -0.550 OA
ENDBRANCH   7   8
ENDBRANCH   6   7
ENDBRANCH   5   6
ENDBRANCH   4   5
ENDBRANCH   3   4
ENDBRANCH   2   3
ENDBRANCH   1   2
BRANCH   1  11
ATOM     11  C   UNL     1       7.285  56.370  22.635  1.00  0.00     0.000 C 
BRANCH  11  12
ATOM     12  C   UNL     1       7.843  55.182  21.829  1.00  0.00    -0.000 C 
BRANCH  12  13
ATOM     13  C   UNL     1       7.106  53.864  22.125  1.00  0.00    -0.000 C 
BRANCH  13  14
ATOM     14  C   UNL     1       6.640  53.766  23.588  1.00  0.00    -0.000 C 
BRANCH  14  15
ATOM     15  C   UNL     1       7.724  53.193  24.516  1.00  0.00    -0.000 C 
BRANCH  15  16
ATOM     16  C   UNL     1       8.148  54.184  25.612  1.00  0.00    -0.000 C 
BRANCH  16  17
ATOM     17  C   UNL     1       9.546  54.774  25.370  1.00  0.00    -0.003 C 
ATOM     18  C   UNL     1      10.307  53.966  24.323  1.00  0.00     0.004 C 
ENDBRANCH  16  17
ENDBRANCH  15  16
ENDBRANCH  14  15
ENDBRANCH  13  14
ENDBRANCH  12  13
ENDBRANCH  11  12
ENDBRANCH   1  11
TORSDOF 14
ENDMDL
MODEL 2
REMARK VINA RESULT:    -5.036      1.589      2.533
REMARK INTER + INTRA:         -10.279
REMARK INTER:                  -9.295
REMARK INTRA:                  -0.984
REMARK UNBOUND:                -1.121
REMARK SMILES CCCCCCCCCCCCCCCC(=O)[O-]
REMARK SMILES IDX 9 1 10 2 11 3 12 4 13 5 14 6 15 7 16 8 17 9 18 10 8 11 7 12
REMARK SMILES IDX 6 13 5 14 4 15 3 16 2 17 1 18
REMARK H PARENT
REMARK Flexibility Score: inf
ROOT
ATOM      1  C   UNL     1       6.834  55.871  21.094  1.00  0.00     0.000 C 
ENDROOT
BRANCH   1   2
ATOM      2  C   UNL     1       6.532  57.081  22.001  1.00  0.00     0.000 C 
BRANCH   2   3
ATOM      3  C   UNL     1       5.129  57.090  22.636  1.00  0.00     0.000 C 
BRANCH   3   4
ATOM      4  C   UNL     1       4.192  58.132  22.002  1.00  0.00     0.000 C 
BRANCH   4   5
ATOM      5  C   UNL     1       3.537  59.060  23.040  1.00  0.00     0.000 C 
BRANCH   5   6
ATOM      6  C   UNL     1       2.563  60.108  22.465  1.00  0.00     0.006 C 
BRANCH   6   7
ATOM      7  C   UNL     1       2.804  60.464  20.989  1.00  0.00     0.053 C 
BRANCH   7   8
ATOM      8  C   UNL     1       1.643  60.082  20.123  1.00  0.00     0.041 C 
ATOM      9  O   UNL     1       0.539  59.774  20.645  1.00  0.00    -0.550 OA
ATOM     10  O   UNL     1       1.789  60.036  18.743  1.00  0.00    -0.550 OA
ENDBRANCH   7   8
ENDBRANCH   6   7
ENDBRANCH   5   6
ENDBRANCH   4   5
ENDBRANCH   3   4
ENDBRANCH   2   3
ENDBRANCH   1   2
BRANCH   1  11
ATOM     11  C   UNL     1       7.757  54.801  21.711  1.00  0.00     0.000 C 
BRANCH  11  12
ATOM     12  C   UNL     1       7.039  53.727  22.550  1.00  0.00    -0.000 C 
BRANCH  12  13
ATOM     13  C   UNL     1       6.750  54.190  23.988  1.00  0.00    -0.000 C 
BRANCH  13  14
ATOM     14  C   UNL     1       7.836  53.744  24.980  1.00  0.00    -0.000 C 
BRANCH  14  15
ATOM     15  C   UNL     1       9.010  54.736  25.056  1.00  0.00    -0.000 C 
BRANCH  15  16
ATOM     16  C   UNL     1      10.374  54.054  24.857  1.00  0.00    -0.000 C 
BRANCH  16  17
ATOM     17  C   UNL     1      10.618  53.631  23.401  1.00  0.00    -0.003 C 
ATOM     18  C   UNL     1      10.364  52.138  23.214  1.00  0.00     0.004 C 
ENDBRANCH  16  17
ENDBRANCH  15  16
ENDBRANCH  14  15
ENDBRANCH  13  14
ENDBRANCH  12  13
ENDBRANCH  11  12
ENDBRANCH   1  11
TORSDOF 14
ENDMDL
MODEL 3
REMARK VINA RESULT:    -5.036      1.315      2.030
REMARK INTER + INTRA:         -10.279
REMARK INTER:                  -9.575
REMARK INTRA:                  -0.704
REMARK UNBOUND:                -1.121
REMARK SMILES CCCCCCCCCCCCCCCC(=O)[O-]
REMARK SMILES IDX 9 1 10 2 11 3 12 4 13 5 14 6 15 7 16 8 17 9 18 10 8 11 7 12
REMARK SMILES IDX 6 13 5 14 4 15 3 16 2 17 1 18
REMARK H PARENT
REMARK Flexibility Score: inf
ROOT
ATOM      1  C   UNL     1       4.229  58.297  21.958  1.00  0.00     0.000 C 
ENDROOT
BRANCH   1   2
ATOM      2  C   UNL     1       3.002  58.833  22.724  1.00  0.00     0.000 C 
BRANCH   2   3
ATOM      3  C   UNL     1       2.786  60.354  22.631  1.00  0.00     0.000 C 
BRANCH   3   4
ATOM      4  C   UNL     1       2.652  60.852  21.181  1.00  0.00     0.000 C 
BRANCH   4   5
ATOM      5  C   UNL     1       1.188  61.018  20.737  1.00  0.00     0.000 C 
BRANCH   5   6
ATOM      6  C   UNL     1       0.870  60.512  19.315  1.00  0.00     0.006 C 
BRANCH   6   7
ATOM      7  C   UNL     1       1.701  59.300  18.866  1.00  0.00     0.053 C 
BRANCH   7   8
ATOM      8  C   UNL     1       1.546  59.026  17.401  1.00  0.00     0.041 C 
ATOM      9  O   UNL     1       2.263  59.637  16.565  1.00  0.00    -0.550 OA
ATOM     10  O   UNL     1       0.590  58.121  16.958  1.00  0.00    -0.550 OA
ENDBRANCH   7   8
ENDBRANCH   6   7
ENDBRANCH   5   6
ENDBRANCH   4   5
ENDBRANCH   3   4
ENDBRANCH   2   3
ENDBRANCH   1   2
BRANCH   1  11
ATOM     11  C   UNL     1       4.958  57.115  22.628  1.00  0.00     0.000 C 
BRANCH  11  12
ATOM     12  C   UNL     1       6.439  56.958  22.237  1.00  0.00    -0.000 C 
BRANCH  12  13
ATOM     13  C   UNL     1       6.768  55.550  21.710  1.00  0.00    -0.000 C 
BRANCH  13  14
ATOM     14  C   UNL     1       8.280  55.323  21.542  1.00  0.00    -0.000 C 
BRANCH  14  15
ATOM     15  C   UNL     1       8.831  54.271  22.521  1.00  0.00    -0.000 C 
BRANCH  15  16
ATOM     16  C   UNL     1       9.152  54.862  23.904  1.00  0.00    -0.000 C 
BRANCH  16  17
ATOM     17  C   UNL     1      10.259  54.088  24.637  1.00  0.00    -0.003 C 
ATOM     18  C   UNL     1      10.551  54.709  25.999  1.00  0.00     0.004 C 
ENDBRANCH  16  17
ENDBRANCH  15  16
ENDBRANCH  14  15
ENDBRANCH  13  14
ENDBRANCH  12  13
ENDBRANCH  11  12
ENDBRANCH   1  11
TORSDOF 14
ENDMDL
MODEL 4
REMARK VINA RESULT:    -4.967      3.141      3.763
REMARK INTER + INTRA:         -10.154
REMARK INTER:                  -9.008
REMARK INTRA:                  -1.146
REMARK UNBOUND:                -1.121
REMARK SMILES CCCCCCCCCCCCCCCC(=O)[O-]
REMARK SMILES IDX 9 1 10 2 11 3 12 4 13 5 14 6 15 7 16 8 17 9 18 10 8 11 7 12
REMARK SMILES IDX 6 13 5 14 4 15 3 16 2 17 1 18
REMARK H PARENT
REMARK Flexibility Score: inf
ROOT
ATOM      1  C   UNL     1       6.212  57.251  21.550  1.00  0.00     0.000 C 
ENDROOT
BRANCH   1   2
ATOM      2  C   UNL     1       5.071  57.382  22.580  1.00  0.00     0.000 C 
BRANCH   2   3
ATOM      3  C   UNL     1       3.826  58.140  22.086  1.00  0.00     0.000 C 
BRANCH   3   4
ATOM      4  C   UNL     1       3.367  59.235  23.063  1.00  0.00     0.000 C 
BRANCH   4   5
ATOM      5  C   UNL     1       2.610  60.381  22.366  1.00  0.00     0.000 C 
BRANCH   5   6
ATOM      6  C   UNL     1       1.080  60.376  22.563  1.00  0.00     0.006 C 
BRANCH   6   7
ATOM      7  C   UNL     1       0.622  60.533  24.022  1.00  0.00     0.053 C 
BRANCH   7   8
ATOM      8  C   UNL     1       0.069  59.257  24.577  1.00  0.00     0.041 C 
ATOM      9  O   UNL     1      -0.301  59.198  25.779  1.00  0.00    -0.550 OA
ATOM     10  O   UNL     1      -0.007  58.124  23.777  1.00  0.00    -0.550 OA
ENDBRANCH   7   8
ENDBRANCH   6   7
ENDBRANCH   5   6
ENDBRANCH   4   5
ENDBRANCH   3   4
ENDBRANCH   2   3
ENDBRANCH   1   2
BRANCH   1  11
ATOM     11  C   UNL     1       7.266  56.172  21.869  1.00  0.00     0.000 C 
BRANCH  11  12
ATOM     12  C   UNL     1       7.122  54.864  21.070  1.00  0.00    -0.000 C 
BRANCH  12  13
ATOM     13  C   UNL     1       6.795  53.655  21.963  1.00  0.00    -0.000 C 
BRANCH  13  14
ATOM     14  C   UNL     1       6.746  54.022  23.456  1.00  0.00    -0.000 C 
BRANCH  14  15
ATOM     15  C   UNL     1       7.889  53.376  24.259  1.00  0.00    -0.000 C 
BRANCH  15  16
ATOM     16  C   UNL     1       9.118  54.292  24.377  1.00  0.00    -0.000 C 
BRANCH  16  17
ATOM     17  C   UNL     1      10.237  53.913  23.396  1.00  0.00    -0.003 C 
ATOM     18  C   UNL     1      10.190  52.425  23.059  1.00  0.00     0.004 C 
ENDBRANCH  16  17
ENDBRANCH  15  16
ENDBRANCH  14  15
ENDBRANCH  13  14
ENDBRANCH  12  13
ENDBRANCH  11  12
ENDBRANCH   1  11
TORSDOF 14
ENDMDL
MODEL 5
REMARK VINA RESULT:    -4.940      4.711      8.813
REMARK INTER + INTRA:         -10.104
REMARK INTER:                  -8.867
REMARK INTRA:                  -1.237
REMARK UNBOUND:                -1.121
REMARK SMILES CCCCCCCCCCCCCCCC(=O)[O-]
REMARK SMILES IDX 9 1 10 2 11 3 12 4 13 5 14 6 15 7 16 8 17 9 18 10 8 11 7 12
REMARK SMILES IDX 6 13 5 14 4 15 3 16 2 17 1 18
REMARK H PARENT
REMARK Flexibility Score: inf
ROOT
ATOM      1  C   UNL     1       7.830  56.412  21.105  1.00  0.00     0.000 C 
ENDROOT
BRANCH   1   2
ATOM      2  C   UNL     1       8.307  55.590  22.319  1.00  0.00     0.000 C 
BRANCH   2   3
ATOM      3  C   UNL     1       8.293  54.063  22.123  1.00  0.00     0.000 C 
BRANCH   3   4
ATOM      4  C   UNL     1       7.325  53.346  23.079  1.00  0.00     0.000 C 
BRANCH   4   5
ATOM      5  C   UNL     1       7.084  54.126  24.384  1.00  0.00     0.000 C 
BRANCH   5   6
ATOM      6  C   UNL     1       7.977  53.714  25.573  1.00  0.00     0.006 C 
BRANCH   6   7
ATOM      7  C   UNL     1       8.922  54.817  26.075  1.00  0.00     0.053 C 
BRANCH   7   8
ATOM      8  C   UNL     1      10.358  54.494  25.795  1.00  0.00     0.041 C 
ATOM      9  O   UNL     1      11.242  54.739  26.658  1.00  0.00    -0.550 OA
ATOM     10  O   UNL     1      10.725  53.953  24.569  1.00  0.00    -0.550 OA
ENDBRANCH   7   8
ENDBRANCH   6   7
ENDBRANCH   5   6
ENDBRANCH   4   5
ENDBRANCH   3   4
ENDBRANCH   2   3
ENDBRANCH   1   2
BRANCH   1  11
ATOM     11  C   UNL     1       6.475  57.125  21.284  1.00  0.00     0.000 C 
BRANCH  11  12
ATOM     12  C   UNL     1       5.758  56.837  22.616  1.00  0.00    -0.000 C 
BRANCH  12  13
ATOM     13  C   UNL     1       4.392  57.536  22.720  1.00  0.00    -0.000 C 
BRANCH  13  14
ATOM     14  C   UNL     1       4.171  58.564  21.598  1.00  0.00    -0.000 C 
BRANCH  14  15
ATOM     15  C   UNL     1       2.802  59.260  21.697  1.00  0.00    -0.000 C 
BRANCH  15  16
ATOM     16  C   UNL     1       2.738  60.276  22.850  1.00  0.00    -0.000 C 
BRANCH  16  17
ATOM     17  C   UNL     1       1.315  60.463  23.397  1.00  0.00    -0.003 C 
ATOM     18  C   UNL     1       0.925  59.310  24.316  1.00  0.00     0.004 C 
ENDBRANCH  16  17
ENDBRANCH  15  16
ENDBRANCH  14  15
ENDBRANCH  13  14
ENDBRANCH  12  13
ENDBRANCH  11  12
ENDBRANCH   1  11
TORSDOF 14
ENDMDL
MODEL 6
REMARK VINA RESULT:    -4.920      7.673     11.573
REMARK INTER + INTRA:         -10.068
REMARK INTER:                  -8.556
REMARK INTRA:                  -1.512
REMARK UNBOUND:                -1.121
REMARK SMILES CCCCCCCCCCCCCCCC(=O)[O-]
REMARK SMILES IDX 9 1 10 2 11 3 12 4 13 5 14 6 15 7 16 8 17 9 18 10 8 11 7 12
REMARK SMILES IDX 6 13 5 14 4 15 3 16 2 17 1 18
REMARK H PARENT
REMARK Flexibility Score: inf
ROOT
ATOM      1  C   UNL     1      10.195  52.348  22.735  1.00  0.00     0.000 C 
ENDROOT
BRANCH   1   2
ATOM      2  C   UNL     1       9.925  51.295  23.829  1.00  0.00     0.000 C 
BRANCH   2   3
ATOM      3  C   UNL     1      10.660  49.955  23.645  1.00  0.00     0.000 C 
BRANCH   3   4
ATOM      4  C   UNL     1      10.283  48.914  24.713  1.00  0.00     0.000 C 
BRANCH   4   5
ATOM      5  C   UNL     1      10.434  47.465  24.217  1.00  0.00     0.000 C 
BRANCH   5   6
ATOM      6  C   UNL     1      10.805  46.433  25.301  1.00  0.00     0.006 C 
BRANCH   6   7
ATOM      7  C   UNL     1      11.311  47.042  26.618  1.00  0.00     0.053 C 
BRANCH   7   8
ATOM      8  C   UNL     1      12.807  47.062  26.688  1.00  0.00     0.041 C 
ATOM      9  O   UNL     1      13.478  46.139  26.154  1.00  0.00    -0.550 OA
ATOM     10  O   UNL     1      13.460  48.081  27.369  1.00  0.00    -0.550 OA
ENDBRANCH   7   8
ENDBRANCH   6   7
ENDBRANCH   5   6
ENDBRANCH   4   5
ENDBRANCH   3   4
ENDBRANCH   2   3
ENDBRANCH   1   2
BRANCH   1  11
ATOM     11  C   UNL     1      10.597  53.744  23.251  1.00  0.00     0.000 C 
BRANCH  11  12
ATOM     12  C   UNL     1      10.343  53.982  24.751  1.00  0.00    -0.000 C 
BRANCH  12  13
ATOM     13  C   UNL     1       9.187  54.965  25.010  1.00  0.00    -0.000 C 
BRANCH  13  14
ATOM     14  C   UNL     1       7.911  54.257  25.495  1.00  0.00    -0.000 C 
BRANCH  14  15
ATOM     15  C   UNL     1       7.120  53.612  24.344  1.00  0.00    -0.000 C 
BRANCH  15  16
ATOM     16  C   UNL     1       6.575  54.648  23.347  1.00  0.00    -0.000 C 
BRANCH  16  17
ATOM     17  C   UNL     1       7.144  54.466  21.932  1.00  0.00    -0.003 C 
ATOM     18  C   UNL     1       7.946  55.690  21.502  1.00  0.00     0.004 C 
ENDBRANCH  16  17
ENDBRANCH  15  16
ENDBRANCH  14  15
ENDBRANCH  13  14
ENDBRANCH  12  13
ENDBRANCH  11  12
ENDBRANCH   1  11
TORSDOF 14
ENDMDL
MODEL 7
REMARK VINA RESULT:    -4.894      1.064      1.712
REMARK INTER + INTRA:         -10.021
REMARK INTER:                  -9.291
REMARK INTRA:                  -0.730
REMARK UNBOUND:                -1.121
REMARK SMILES CCCCCCCCCCCCCCCC(=O)[O-]
REMARK SMILES IDX 9 1 10 2 11 3 12 4 13 5 14 6 15 7 16 8 17 9 18 10 8 11 7 12
REMARK SMILES IDX 6 13 5 14 4 15 3 16 2 17 1 18
REMARK H PARENT
REMARK Flexibility Score: inf
ROOT
ATOM      1  C   UNL     1       5.764  56.557  22.133  1.00  0.00     0.000 C 
ENDROOT
BRANCH   1   2
ATOM      2  C   UNL     1       4.961  57.776  22.630  1.00  0.00     0.000 C 
BRANCH   2   3
ATOM      3  C   UNL     1       3.646  58.045  21.876  1.00  0.00     0.000 C 
BRANCH   3   4
ATOM      4  C   UNL     1       3.163  59.499  22.016  1.00  0.00     0.000 C 
BRANCH   4   5
ATOM      5  C   UNL     1       1.996  59.837  21.071  1.00  0.00     0.000 C 
BRANCH   5   6
ATOM      6  C   UNL     1       1.914  58.978  19.793  1.00  0.00     0.006 C 
BRANCH   6   7
ATOM      7  C   UNL     1       1.001  59.548  18.696  1.00  0.00     0.053 C 
BRANCH   7   8
ATOM      8  C   UNL     1       1.184  58.838  17.389  1.00  0.00     0.041 C 
ATOM      9  O   UNL     1       0.363  57.953  17.031  1.00  0.00    -0.550 OA
ATOM     10  O   UNL     1       2.277  59.131  16.584  1.00  0.00    -0.550 OA
ENDBRANCH   7   8
ENDBRANCH   6   7
ENDBRANCH   5   6
ENDBRANCH   4   5
ENDBRANCH   3   4
ENDBRANCH   2   3
ENDBRANCH   1   2
BRANCH   1  11
ATOM     11  C   UNL     1       5.460  55.230  22.857  1.00  0.00     0.000 C 
BRANCH  11  12
ATOM     12  C   UNL     1       6.284  54.021  22.376  1.00  0.00    -0.000 C 
BRANCH  12  13
ATOM     13  C   UNL     1       7.129  53.393  23.497  1.00  0.00    -0.000 C 
BRANCH  13  14
ATOM     14  C   UNL     1       7.604  54.432  24.528  1.00  0.00    -0.000 C 
BRANCH  14  15
ATOM     15  C   UNL     1       8.948  55.073  24.142  1.00  0.00    -0.000 C 
BRANCH  15  16
ATOM     16  C   UNL     1      10.144  54.143  24.407  1.00  0.00    -0.000 C 
BRANCH  16  17
ATOM     17  C   UNL     1      10.613  53.407  23.143  1.00  0.00    -0.003 C 
ATOM     18  C   UNL     1      10.352  51.908  23.253  1.00  0.00     0.004 C 
ENDBRANCH  16  17
ENDBRANCH  15  16
ENDBRANCH  14  15
ENDBRANCH  13  14
ENDBRANCH  12  13
ENDBRANCH  11  12
ENDBRANCH   1  11
TORSDOF 14
ENDMDL
MODEL 8
REMARK VINA RESULT:    -4.892      4.434      9.081
REMARK INTER + INTRA:         -10.016
REMARK INTER:                  -9.053
REMARK INTRA:                  -0.963
REMARK UNBOUND:                -1.121
REMARK SMILES CCCCCCCCCCCCCCCC(=O)[O-]
REMARK SMILES IDX 9 1 10 2 11 3 12 4 13 5 14 6 15 7 16 8 17 9 18 10 8 11 7 12
REMARK SMILES IDX 6 13 5 14 4 15 3 16 2 17 1 18
REMARK H PARENT
REMARK Flexibility Score: inf
ROOT
ATOM      1  C   UNL     1       6.492  57.087  22.500  1.00  0.00     0.000 C 
ENDROOT
BRANCH   1   2
ATOM      2  C   UNL     1       7.439  56.622  21.375  1.00  0.00     0.000 C 
BRANCH   2   3
ATOM      3  C   UNL     1       7.223  55.175  20.895  1.00  0.00     0.000 C 
BRANCH   3   4
ATOM      4  C   UNL     1       8.079  54.156  21.667  1.00  0.00     0.000 C 
BRANCH   4   5
ATOM      5  C   UNL     1       7.322  53.501  22.836  1.00  0.00     0.000 C 
BRANCH   5   6
ATOM      6  C   UNL     1       7.648  54.067  24.233  1.00  0.00     0.006 C 
BRANCH   6   7
ATOM      7  C   UNL     1       8.973  54.842  24.315  1.00  0.00     0.053 C 
BRANCH   7   8
ATOM      8  C   UNL     1      10.116  53.958  24.708  1.00  0.00     0.041 C 
ATOM      9  O   UNL     1      10.946  54.344  25.573  1.00  0.00    -0.550 OA
ATOM     10  O   UNL     1      10.284  52.722  24.097  1.00  0.00    -0.550 OA
ENDBRANCH   7   8
ENDBRANCH   6   7
ENDBRANCH   5   6
ENDBRANCH   4   5
ENDBRANCH   3   4
ENDBRANCH   2   3
ENDBRANCH   1   2
BRANCH   1  11
ATOM     11  C   UNL     1       4.988  56.946  22.195  1.00  0.00     0.000 C 
BRANCH  11  12
ATOM     12  C   UNL     1       4.196  58.267  22.197  1.00  0.00    -0.000 C 
BRANCH  12  13
ATOM     13  C   UNL     1       2.729  58.081  21.775  1.00  0.00    -0.000 C 
BRANCH  13  14
ATOM     14  C   UNL     1       1.962  59.413  21.710  1.00  0.00    -0.000 C 
BRANCH  14  15
ATOM     15  C   UNL     1       2.011  60.054  20.312  1.00  0.00    -0.000 C 
BRANCH  15  16
ATOM     16  C   UNL     1       1.687  59.052  19.191  1.00  0.00    -0.000 C 
BRANCH  16  17
ATOM     17  C   UNL     1       1.299  59.742  17.874  1.00  0.00    -0.003 C 
ATOM     18  C   UNL     1       2.135  59.214  16.712  1.00  0.00     0.004 C 
ENDBRANCH  16  17
ENDBRANCH  15  16
ENDBRANCH  14  15
ENDBRANCH  13  14
ENDBRANCH  12  13
ENDBRANCH  11  12
ENDBRANCH   1  11
TORSDOF 14
ENDMDL
MODEL 9
REMARK VINA RESULT:    -4.817      6.824     10.187
REMARK INTER + INTRA:          -9.881
REMARK INTER:                  -8.332
REMARK INTRA:                  -1.549
REMARK UNBOUND:                -1.121
REMARK SMILES CCCCCCCCCCCCCCCC(=O)[O-]
REMARK SMILES IDX 9 1 10 2 11 3 12 4 13 5 14 6 15 7 16 8 17 9 18 10 8 11 7 12
REMARK SMILES IDX 6 13 5 14 4 15 3 16 2 17 1 18
REMARK H PARENT
REMARK Flexibility Score: inf
ROOT
ATOM      1  C   UNL     1      10.987  54.089  24.743  1.00  0.00     0.000 C 
ENDROOT
BRANCH   1   2
ATOM      2  C   UNL     1      10.359  54.039  23.335  1.00  0.00     0.000 C 
BRANCH   2   3
ATOM      3  C   UNL     1      10.262  52.635  22.712  1.00  0.00     0.000 C 
BRANCH   3   4
ATOM      4  C   UNL     1       9.833  51.559  23.725  1.00  0.00     0.000 C 
BRANCH   4   5
ATOM      5  C   UNL     1      10.584  50.228  23.540  1.00  0.00     0.000 C 
BRANCH   5   6
ATOM      6  C   UNL     1      10.257  49.138  24.580  1.00  0.00     0.006 C 
BRANCH   6   7
ATOM      7  C   UNL     1      10.920  47.777  24.311  1.00  0.00     0.053 C 
BRANCH   7   8
ATOM      8  C   UNL     1      10.104  46.640  24.845  1.00  0.00     0.041 C 
ATOM      9  O   UNL     1      10.286  45.472  24.411  1.00  0.00    -0.550 OA
ATOM     10  O   UNL     1       9.120  46.875  25.797  1.00  0.00    -0.550 OA
ENDBRANCH   7   8
ENDBRANCH   6   7
ENDBRANCH   5   6
ENDBRANCH   4   5
ENDBRANCH   3   4
ENDBRANCH   2   3
ENDBRANCH   1   2
BRANCH   1  11
ATOM     11  C   UNL     1      10.115  54.750  25.829  1.00  0.00     0.000 C 
BRANCH  11  12
ATOM     12  C   UNL     1       8.698  55.146  25.375  1.00  0.00    -0.000 C 
BRANCH  12  13
ATOM     13  C   UNL     1       7.659  54.043  25.640  1.00  0.00    -0.000 C 
BRANCH  13  14
ATOM     14  C   UNL     1       6.934  53.597  24.359  1.00  0.00    -0.000 C 
BRANCH  14  15
ATOM     15  C   UNL     1       6.793  54.736  23.334  1.00  0.00    -0.000 C 
BRANCH  15  16
ATOM     16  C   UNL     1       5.813  54.392  22.200  1.00  0.00    -0.000 C 
BRANCH  16  17
ATOM     17  C   UNL     1       6.494  53.670  21.027  1.00  0.00    -0.003 C 
ATOM     18  C   UNL     1       7.670  54.481  20.493  1.00  0.00     0.004 C 
ENDBRANCH  16  17
ENDBRANCH  15  16
ENDBRANCH  14  15
ENDBRANCH  13  14
ENDBRANCH  12  13
ENDBRANCH  11  12
ENDBRANCH   1  11
TORSDOF 14
ENDMDL
