MODEL 1
REMARK VINA RESULT:    -2.514      0.000      0.000
REMARK INTER + INTRA:          -2.972
REMARK INTER:                  -2.955
REMARK INTRA:                  -0.018
REMARK UNBOUND:                -0.018
REMARK SMILES CCCCC(=O)[O-]
REMARK SMILES IDX 4 1 5 2 6 3 7 4 3 5 2 6 1 7
REMARK H PARENT
REMARK Flexibility Score: inf
ROOT
ATOM      1  C   UNL     1     -28.231   8.646  -4.416  1.00  0.00     0.053 C 
ENDROOT
BRANCH   1   2
ATOM      2  C   UNL     1     -28.372   7.962  -3.090  1.00  0.00     0.041 C 
ATOM      3  O   UNL     1     -27.459   8.057  -2.228  1.00  0.00    -0.550 OA
ATOM      4  O   UNL     1     -29.525   7.246  -2.795  1.00  0.00    -0.550 OA
ENDBRANCH   1   2
BRANCH   1   5
ATOM      5  C   UNL     1     -27.073   8.064  -5.236  1.00  0.00     0.006 C 
BRANCH   5   6
ATOM      6  C   UNL     1     -26.764   8.905  -6.483  1.00  0.00    -0.003 C 
ATOM      7  C   UNL     1     -25.447   8.477  -7.124  1.00  0.00     0.004 C 
ENDBRANCH   5   6
ENDBRANCH   1   5
TORSDOF 3
ENDMDL
MODEL 2
REMARK VINA RESULT:    -2.162      1.100      1.577
REMARK INTER + INTRA:          -2.558
REMARK INTER:                  -2.532
REMARK INTRA:                  -0.026
REMARK UNBOUND:                -0.018
REMARK SMILES CCCCC(=O)[O-]
REMARK SMILES IDX 4 1 5 2 6 3 7 4 3 5 2 6 1 7
REMARK H PARENT
REMARK Flexibility Score: inf
ROOT
ATOM      1  C   UNL     1     -27.467   8.203  -2.724  1.00  0.00     0.053 C 
ENDROOT
BRANCH   1   2
ATOM      2  C   UNL     1     -28.480   7.683  -1.750  1.00  0.00     0.041 C 
ATOM      3  O   UNL     1     -28.276   7.780  -0.511  1.00  0.00    -0.550 OA
ATOM      4  O   UNL     1     -29.664   7.121  -2.209  1.00  0.00    -0.550 OA
ENDBRANCH   1   2
BRANCH   1   5
ATOM      5  C   UNL     1     -28.023   8.247  -4.154  1.00  0.00     0.006 C 
BRANCH   5   6
ATOM      6  C   UNL     1     -26.955   7.905  -5.202  1.00  0.00    -0.003 C 
ATOM      7  C   UNL     1     -26.889   8.974  -6.289  1.00  0.00     0.004 C 
ENDBRANCH   5   6
ENDBRANCH   1   5
TORSDOF 3
ENDMDL
MODEL 3
REMARK VINA RESULT:    -2.145      2.896      4.323
REMARK INTER + INTRA:          -2.539
REMARK INTER:                  -2.518
REMARK INTRA:                  -0.021
REMARK UNBOUND:                -0.018
REMARK SMILES CCCCC(=O)[O-]
REMARK SMILES IDX 4 1 5 2 6 3 7 4 3 5 2 6 1 7
REMARK H PARENT
REMARK Flexibility Score: inf
ROOT
ATOM      1  C   UNL     1     -26.720   7.867  -5.343  1.00  0.00     0.053 C 
ENDROOT
BRANCH   1   2
ATOM      2  C   UNL     1     -26.131   8.613  -6.501  1.00  0.00     0.041 C 
ATOM      3  O   UNL     1     -26.757   9.573  -7.021  1.00  0.00    -0.550 OA
ATOM      4  O   UNL     1     -24.875   8.269  -6.985  1.00  0.00    -0.550 OA
ENDBRANCH   1   2
BRANCH   1   5
ATOM      5  C   UNL     1     -27.903   8.622  -4.722  1.00  0.00     0.006 C 
BRANCH   5   6
ATOM      6  C   UNL     1     -28.536   7.851  -3.555  1.00  0.00    -0.003 C 
ATOM      7  C   UNL     1     -27.876   8.219  -2.229  1.00  0.00     0.004 C 
ENDBRANCH   5   6
ENDBRANCH   1   5
TORSDOF 3
ENDMDL
MODEL 4
REMARK VINA RESULT:    -1.831      3.837      4.935
REMARK INTER + INTRA:          -2.170
REMARK INTER:                  -2.119
REMARK INTRA:                  -0.051
REMARK UNBOUND:                -0.018
REMARK SMILES CCCCC(=O)[O-]
REMARK SMILES IDX 4 1 5 2 6 3 7 4 3 5 2 6 1 7
REMARK H PARENT
REMARK Flexibility Score: inf
ROOT
ATOM      1  C   UNL     1     -30.693   6.261  -0.700  1.00  0.00     0.053 C 
ENDROOT
BRANCH   1   2
ATOM      2  C   UNL     1     -31.226   7.140   0.390  1.00  0.00     0.041 C 
ATOM      3  O   UNL     1     -30.669   7.157   1.519  1.00  0.00    -0.550 OA
ATOM      4  O   UNL     1     -32.317   7.965   0.149  1.00  0.00    -0.550 OA
ENDBRANCH   1   2
BRANCH   1   5
ATOM      5  C   UNL     1     -29.926   7.066  -1.757  1.00  0.00     0.006 C 
BRANCH   5   6
ATOM      6  C   UNL     1     -28.588   7.597  -1.225  1.00  0.00    -0.003 C 
ATOM      7  C   UNL     1     -27.709   8.114  -2.360  1.00  0.00     0.004 C 
ENDBRANCH   5   6
ENDBRANCH   1   5
TORSDOF 3
ENDMDL
MODEL 5
REMARK VINA RESULT:    -1.821      3.670      5.670
REMARK INTER + INTRA:          -2.158
REMARK INTER:                  -2.111
REMARK INTRA:                  -0.047
REMARK UNBOUND:                -0.018
REMARK SMILES CCCCC(=O)[O-]
REMARK SMILES IDX 4 1 5 2 6 3 7 4 3 5 2 6 1 7
REMARK H PARENT
REMARK Flexibility Score: inf
ROOT
ATOM      1  C   UNL     1     -29.838   7.117  -2.073  1.00  0.00     0.053 C 
ENDROOT
BRANCH   1   2
ATOM      2  C   UNL     1     -28.501   7.708  -1.746  1.00  0.00     0.041 C 
ATOM      3  O   UNL     1     -27.762   8.152  -2.663  1.00  0.00    -0.550 OA
ATOM      4  O   UNL     1     -28.083   7.796  -0.424  1.00  0.00    -0.550 OA
ENDBRANCH   1   2
BRANCH   1   5
ATOM      5  C   UNL     1     -30.414   6.323  -0.894  1.00  0.00     0.006 C 
BRANCH   5   6
ATOM      6  C   UNL     1     -31.375   7.164  -0.041  1.00  0.00    -0.003 C 
ATOM      7  C   UNL     1     -30.978   7.128   1.432  1.00  0.00     0.004 C 
ENDBRANCH   5   6
ENDBRANCH   1   5
TORSDOF 3
ENDMDL
MODEL 6
REMARK VINA RESULT:    -1.820      3.904      5.135
REMARK INTER + INTRA:          -2.156
REMARK INTER:                  -2.091
REMARK INTRA:                  -0.065
REMARK UNBOUND:                -0.018
REMARK SMILES CCCCC(=O)[O-]
REMARK SMILES IDX 4 1 5 2 6 3 7 4 3 5 2 6 1 7
REMARK H PARENT
REMARK Flexibility Score: inf
ROOT
ATOM      1  C   UNL     1     -30.788   6.276  -0.602  1.00  0.00     0.053 C 
ENDROOT
BRANCH   1   2
ATOM      2  C   UNL     1     -31.259   7.169   0.505  1.00  0.00     0.041 C 
ATOM      3  O   UNL     1     -32.262   7.911   0.337  1.00  0.00    -0.550 OA
ATOM      4  O   UNL     1     -30.609   7.160   1.732  1.00  0.00    -0.550 OA
ENDBRANCH   1   2
BRANCH   1   5
ATOM      5  C   UNL     1     -30.024   7.057  -1.678  1.00  0.00     0.006 C 
BRANCH   5   6
ATOM      6  C   UNL     1     -28.664   7.561  -1.175  1.00  0.00    -0.003 C 
ATOM      7  C   UNL     1     -27.802   8.065  -2.329  1.00  0.00     0.004 C 
ENDBRANCH   5   6
ENDBRANCH   1   5
TORSDOF 3
ENDMDL
MODEL 7
REMARK VINA RESULT:    -1.801      3.727      5.820
REMARK INTER + INTRA:          -2.134
REMARK INTER:                  -2.092
REMARK INTRA:                  -0.042
REMARK UNBOUND:                -0.018
REMARK SMILES CCCCC(=O)[O-]
REMARK SMILES IDX 4 1 5 2 6 3 7 4 3 5 2 6 1 7
REMARK H PARENT
REMARK Flexibility Score: inf
ROOT
ATOM      1  C   UNL     1     -29.746   7.153  -1.154  1.00  0.00     0.053 C 
ENDROOT
BRANCH   1   2
ATOM      2  C   UNL     1     -28.463   7.775  -1.614  1.00  0.00     0.041 C 
ATOM      3  O   UNL     1     -27.568   8.071  -0.779  1.00  0.00    -0.550 OA
ATOM      4  O   UNL     1     -28.242   7.999  -2.966  1.00  0.00    -0.550 OA
ENDBRANCH   1   2
BRANCH   1   5
ATOM      5  C   UNL     1     -29.858   7.143   0.376  1.00  0.00     0.006 C 
BRANCH   5   6
ATOM      6  C   UNL     1     -31.314   7.028   0.850  1.00  0.00    -0.003 C 
ATOM      7  C   UNL     1     -32.240   7.893   0.000  1.00  0.00     0.004 C 
ENDBRANCH   5   6
ENDBRANCH   1   5
TORSDOF 3
ENDMDL
