MODEL 1
REMARK VINA RESULT:    -5.628      0.000      0.000
REMARK INTER + INTRA:          -6.443
REMARK INTER:                  -6.286
REMARK INTRA:                  -0.157
REMARK UNBOUND:                -0.157
REMARK SMILES COc1cc2ccc(=O)oc2cc1OC
REMARK SMILES IDX 3 1 13 2 12 3 11 4 5 5 4 6 6 7 7 8 8 9 9 10 10 11 2 12 1 13
REMARK SMILES IDX 14 14 15 15
REMARK H PARENT
REMARK Flexibility Score: inf
ROOT
ATOM      1  C   UNL     1     -35.631  -4.619 -12.633  1.00  0.00     0.161 A 
ATOM      2  C   UNL     1     -36.764  -4.454 -11.819  1.00  0.00     0.164 A 
ATOM      3  C   UNL     1     -36.667  -3.708 -10.627  1.00  0.00     0.098 A 
ATOM      4  C   UNL     1     -35.452  -3.133 -10.250  1.00  0.00     0.142 A 
ATOM      5  C   UNL     1     -34.313  -3.299 -11.065  1.00  0.00     0.022 A 
ATOM      6  C   UNL     1     -34.405  -4.039 -12.250  1.00  0.00     0.062 A 
ATOM      7  C   UNL     1     -33.111  -2.711 -10.660  1.00  0.00     0.019 A 
ATOM      8  C   UNL     1     -33.071  -1.983  -9.470  1.00  0.00     0.094 A 
ATOM      9  C   UNL     1     -34.240  -1.861  -8.711  1.00  0.00     0.336 A 
ATOM     10  O   UNL     1     -34.226  -1.210  -7.635  1.00  0.00    -0.246 OA
ATOM     11  O   UNL     1     -35.371  -2.432  -9.121  1.00  0.00    -0.423 OA
ENDROOT
BRANCH   1  12
ATOM     12  O   UNL     1     -35.763  -5.367 -13.813  1.00  0.00    -0.493 OA
ATOM     13  C   UNL     1     -35.786  -4.813 -15.124  1.00  0.00     0.278 C 
ENDBRANCH   1  12
BRANCH   2  14
ATOM     14  O   UNL     1     -37.969  -5.046 -12.229  1.00  0.00    -0.493 OA
ATOM     15  C   UNL     1     -38.994  -4.372 -12.954  1.00  0.00     0.278 C 
ENDBRANCH   2  14
TORSDOF 2
ENDMDL
MODEL 2
REMARK VINA RESULT:    -5.523      1.479      2.775
REMARK INTER + INTRA:          -6.325
REMARK INTER:                  -6.213
REMARK INTRA:                  -0.112
REMARK UNBOUND:                -0.157
REMARK SMILES COc1cc2ccc(=O)oc2cc1OC
REMARK SMILES IDX 3 1 13 2 12 3 11 4 5 5 4 6 6 7 7 8 8 9 9 10 10 11 2 12 1 13
REMARK SMILES IDX 14 14 15 15
REMARK H PARENT
REMARK Flexibility Score: inf
ROOT
ATOM      1  C   UNL     1     -35.690  -4.280 -11.968  1.00  0.00     0.161 A 
ATOM      2  C   UNL     1     -34.430  -3.675 -12.104  1.00  0.00     0.164 A 
ATOM      3  C   UNL     1     -33.920  -2.878 -11.059  1.00  0.00     0.098 A 
ATOM      4  C   UNL     1     -34.660  -2.685  -9.891  1.00  0.00     0.142 A 
ATOM      5  C   UNL     1     -35.926  -3.290  -9.754  1.00  0.00     0.022 A 
ATOM      6  C   UNL     1     -36.436  -4.084 -10.788  1.00  0.00     0.062 A 
ATOM      7  C   UNL     1     -36.643  -3.078  -8.573  1.00  0.00     0.019 A 
ATOM      8  C   UNL     1     -36.090  -2.279  -7.571  1.00  0.00     0.094 A 
ATOM      9  C   UNL     1     -34.829  -1.710  -7.776  1.00  0.00     0.336 A 
ATOM     10  O   UNL     1     -34.314  -0.985  -6.886  1.00  0.00    -0.246 OA
ATOM     11  O   UNL     1     -34.169  -1.929  -8.911  1.00  0.00    -0.423 OA
ENDROOT
BRANCH   1  12
ATOM     12  O   UNL     1     -36.167  -5.069 -13.027  1.00  0.00    -0.493 OA
ATOM     13  C   UNL     1     -37.254  -4.713 -13.875  1.00  0.00     0.278 C 
ENDBRANCH   1  12
BRANCH   2  14
ATOM     14  O   UNL     1     -33.713  -3.892 -13.292  1.00  0.00    -0.493 OA
ATOM     15  C   UNL     1     -33.858  -3.111 -14.475  1.00  0.00     0.278 C 
ENDBRANCH   2  14
TORSDOF 2
ENDMDL
MODEL 3
REMARK VINA RESULT:    -5.461      2.128      5.831
REMARK INTER + INTRA:          -6.256
REMARK INTER:                  -6.149
REMARK INTRA:                  -0.107
REMARK UNBOUND:                -0.157
REMARK SMILES COc1cc2ccc(=O)oc2cc1OC
REMARK SMILES IDX 3 1 13 2 12 3 11 4 5 5 4 6 6 7 7 8 8 9 9 10 10 11 2 12 1 13
REMARK SMILES IDX 14 14 15 15
REMARK H PARENT
REMARK Flexibility Score: inf
ROOT
ATOM      1  C   UNL     1     -35.296  -2.009  -8.180  1.00  0.00     0.161 A 
ATOM      2  C   UNL     1     -34.571  -2.391  -9.321  1.00  0.00     0.164 A 
ATOM      3  C   UNL     1     -35.158  -3.256 -10.267  1.00  0.00     0.098 A 
ATOM      4  C   UNL     1     -36.456  -3.734 -10.076  1.00  0.00     0.142 A 
ATOM      5  C   UNL     1     -37.185  -3.352  -8.931  1.00  0.00     0.022 A 
ATOM      6  C   UNL     1     -36.606  -2.493  -7.989  1.00  0.00     0.062 A 
ATOM      7  C   UNL     1     -38.482  -3.848  -8.770  1.00  0.00     0.019 A 
ATOM      8  C   UNL     1     -39.015  -4.701  -9.737  1.00  0.00     0.094 A 
ATOM      9  C   UNL     1     -38.234  -5.038 -10.847  1.00  0.00     0.336 A 
ATOM     10  O   UNL     1     -38.694  -5.806 -11.731  1.00  0.00    -0.246 OA
ATOM     11  O   UNL     1     -37.001  -4.551 -10.975  1.00  0.00    -0.423 OA
ENDROOT
BRANCH   1  12
ATOM     12  O   UNL     1     -34.681  -1.146  -7.259  1.00  0.00    -0.493 OA
ATOM     13  C   UNL     1     -34.008  -1.571  -6.078  1.00  0.00     0.278 C 
ENDBRANCH   1  12
BRANCH   2  14
ATOM     14  O   UNL     1     -33.268  -1.891  -9.479  1.00  0.00    -0.493 OA
ATOM     15  C   UNL     1     -32.467  -2.082 -10.641  1.00  0.00     0.278 C 
ENDBRANCH   2  14
TORSDOF 2
ENDMDL
MODEL 4
REMARK VINA RESULT:    -5.296      1.731      5.153
REMARK INTER + INTRA:          -6.072
REMARK INTER:                  -5.942
REMARK INTRA:                  -0.130
REMARK UNBOUND:                -0.157
REMARK SMILES COc1cc2ccc(=O)oc2cc1OC
REMARK SMILES IDX 3 1 13 2 12 3 11 4 5 5 4 6 6 7 7 8 8 9 9 10 10 11 2 12 1 13
REMARK SMILES IDX 14 14 15 15
REMARK H PARENT
REMARK Flexibility Score: inf
ROOT
ATOM      1  C   UNL     1     -34.908  -2.005  -8.367  1.00  0.00     0.161 A 
ATOM      2  C   UNL     1     -36.083  -2.775  -8.341  1.00  0.00     0.164 A 
ATOM      3  C   UNL     1     -36.417  -3.579  -9.450  1.00  0.00     0.098 A 
ATOM      4  C   UNL     1     -35.589  -3.614 -10.573  1.00  0.00     0.142 A 
ATOM      5  C   UNL     1     -34.410  -2.841 -10.601  1.00  0.00     0.022 A 
ATOM      6  C   UNL     1     -34.073  -2.042  -9.502  1.00  0.00     0.062 A 
ATOM      7  C   UNL     1     -33.602  -2.898 -11.741  1.00  0.00     0.019 A 
ATOM      8  C   UNL     1     -33.981  -3.711 -12.809  1.00  0.00     0.094 A 
ATOM      9  C   UNL     1     -35.165  -4.450 -12.712  1.00  0.00     0.336 A 
ATOM     10  O   UNL     1     -35.526  -5.188 -13.665  1.00  0.00    -0.246 OA
ATOM     11  O   UNL     1     -35.915  -4.376 -11.615  1.00  0.00    -0.423 OA
ENDROOT
BRANCH   1  12
ATOM     12  O   UNL     1     -34.604  -1.216  -7.246  1.00  0.00    -0.493 OA
ATOM     13  C   UNL     1     -33.804  -1.644  -6.149  1.00  0.00     0.278 C 
ENDBRANCH   1  12
BRANCH   2  14
ATOM     14  O   UNL     1     -36.891  -2.715  -7.195  1.00  0.00    -0.493 OA
ATOM     15  C   UNL     1     -36.894  -3.691  -6.157  1.00  0.00     0.278 C 
ENDBRANCH   2  14
TORSDOF 2
ENDMDL
MODEL 5
REMARK VINA RESULT:    -5.045      1.965      5.425
REMARK INTER + INTRA:          -5.792
REMARK INTER:                  -5.695
REMARK INTRA:                  -0.097
REMARK UNBOUND:                -0.157
REMARK SMILES COc1cc2ccc(=O)oc2cc1OC
REMARK SMILES IDX 3 1 13 2 12 3 11 4 5 5 4 6 6 7 7 8 8 9 9 10 10 11 2 12 1 13
REMARK SMILES IDX 14 14 15 15
REMARK H PARENT
REMARK Flexibility Score: inf
ROOT
ATOM      1  C   UNL     1     -36.185  -2.830  -8.346  1.00  0.00     0.161 A 
ATOM      2  C   UNL     1     -35.072  -1.983  -8.478  1.00  0.00     0.164 A 
ATOM      3  C   UNL     1     -34.320  -1.995  -9.670  1.00  0.00     0.098 A 
ATOM      4  C   UNL     1     -34.674  -2.845 -10.720  1.00  0.00     0.142 A 
ATOM      5  C   UNL     1     -35.790  -3.696 -10.589  1.00  0.00     0.022 A 
ATOM      6  C   UNL     1     -36.540  -3.687  -9.407  1.00  0.00     0.062 A 
ATOM      7  C   UNL     1     -36.118  -4.535 -11.658  1.00  0.00     0.019 A 
ATOM      8  C   UNL     1     -35.339  -4.507 -12.815  1.00  0.00     0.094 A 
ATOM      9  C   UNL     1     -34.245  -3.636 -12.875  1.00  0.00     0.336 A 
ATOM     10  O   UNL     1     -33.528  -3.596 -13.908  1.00  0.00    -0.246 OA
ATOM     11  O   UNL     1     -33.955  -2.849 -11.841  1.00  0.00    -0.423 OA
ENDROOT
BRANCH   1  12
ATOM     12  O   UNL     1     -36.912  -2.791  -7.146  1.00  0.00    -0.493 OA
ATOM     13  C   UNL     1     -36.880  -3.806  -6.148  1.00  0.00     0.278 C 
ENDBRANCH   1  12
BRANCH   2  14
ATOM     14  O   UNL     1     -34.746  -1.142  -7.401  1.00  0.00    -0.493 OA
ATOM     15  C   UNL     1     -33.942  -1.528  -6.290  1.00  0.00     0.278 C 
ENDBRANCH   2  14
TORSDOF 2
ENDMDL
MODEL 6
REMARK VINA RESULT:    -4.845      3.066      4.550
REMARK INTER + INTRA:          -5.568
REMARK INTER:                  -5.407
REMARK INTRA:                  -0.161
REMARK UNBOUND:                -0.157
REMARK SMILES COc1cc2ccc(=O)oc2cc1OC
REMARK SMILES IDX 3 1 13 2 12 3 11 4 5 5 4 6 6 7 7 8 8 9 9 10 10 11 2 12 1 13
REMARK SMILES IDX 14 14 15 15
REMARK H PARENT
REMARK Flexibility Score: inf
ROOT
ATOM      1  C   UNL     1     -37.936  -3.110 -10.807  1.00  0.00     0.161 A 
ATOM      2  C   UNL     1     -37.026  -2.282 -10.129  1.00  0.00     0.164 A 
ATOM      3  C   UNL     1     -36.734  -2.527  -8.772  1.00  0.00     0.098 A 
ATOM      4  C   UNL     1     -37.344  -3.587  -8.098  1.00  0.00     0.142 A 
ATOM      5  C   UNL     1     -38.258  -4.418  -8.777  1.00  0.00     0.022 A 
ATOM      6  C   UNL     1     -38.551  -4.180 -10.125  1.00  0.00     0.062 A 
ATOM      7  C   UNL     1     -38.852  -5.471  -8.074  1.00  0.00     0.019 A 
ATOM      8  C   UNL     1     -38.527  -5.667  -6.732  1.00  0.00     0.094 A 
ATOM      9  C   UNL     1     -37.611  -4.803  -6.122  1.00  0.00     0.336 A 
ATOM     10  O   UNL     1     -37.305  -4.962  -4.912  1.00  0.00    -0.246 OA
ATOM     11  O   UNL     1     -37.062  -3.809  -6.816  1.00  0.00    -0.423 OA
ENDROOT
BRANCH   1  12
ATOM     12  O   UNL     1     -38.204  -2.839 -12.159  1.00  0.00    -0.493 OA
ATOM     13  C   UNL     1     -37.649  -3.559 -13.254  1.00  0.00     0.278 C 
ENDBRANCH   1  12
BRANCH   2  14
ATOM     14  O   UNL     1     -36.432  -1.226 -10.839  1.00  0.00    -0.493 OA
ATOM     15  C   UNL     1     -35.144  -1.285 -11.445  1.00  0.00     0.278 C 
ENDBRANCH   2  14
TORSDOF 2
ENDMDL
MODEL 7
REMARK VINA RESULT:    -4.793      2.314      3.274
REMARK INTER + INTRA:          -5.510
REMARK INTER:                  -5.394
REMARK INTRA:                  -0.116
REMARK UNBOUND:                -0.157
REMARK SMILES COc1cc2ccc(=O)oc2cc1OC
REMARK SMILES IDX 3 1 13 2 12 3 11 4 5 5 4 6 6 7 7 8 8 9 9 10 10 11 2 12 1 13
REMARK SMILES IDX 14 14 15 15
REMARK H PARENT
REMARK Flexibility Score: inf
ROOT
ATOM      1  C   UNL     1     -37.624  -4.581 -10.687  1.00  0.00     0.161 A 
ATOM      2  C   UNL     1     -37.884  -4.173 -12.006  1.00  0.00     0.164 A 
ATOM      3  C   UNL     1     -36.960  -3.346 -12.677  1.00  0.00     0.098 A 
ATOM      4  C   UNL     1     -35.791  -2.929 -12.039  1.00  0.00     0.142 A 
ATOM      5  C   UNL     1     -35.530  -3.336 -10.715  1.00  0.00     0.022 A 
ATOM      6  C   UNL     1     -36.443  -4.159 -10.044  1.00  0.00     0.062 A 
ATOM      7  C   UNL     1     -34.350  -2.902 -10.103  1.00  0.00     0.019 A 
ATOM      8  C   UNL     1     -33.472  -2.083 -10.814  1.00  0.00     0.094 A 
ATOM      9  C   UNL     1     -33.796  -1.718 -12.124  1.00  0.00     0.336 A 
ATOM     10  O   UNL     1     -33.018  -0.980 -12.783  1.00  0.00    -0.246 OA
ATOM     11  O   UNL     1     -34.926  -2.146 -12.682  1.00  0.00    -0.423 OA
ENDROOT
BRANCH   1  12
ATOM     12  O   UNL     1     -38.564  -5.406 -10.049  1.00  0.00    -0.493 OA
ATOM     13  C   UNL     1     -38.733  -5.499  -8.638  1.00  0.00     0.278 C 
ENDBRANCH   1  12
BRANCH   2  14
ATOM     14  O   UNL     1     -39.069  -4.612 -12.617  1.00  0.00    -0.493 OA
ATOM     15  C   UNL     1     -39.123  -5.386 -13.812  1.00  0.00     0.278 C 
ENDBRANCH   2  14
TORSDOF 2
ENDMDL
MODEL 8
REMARK VINA RESULT:    -4.788     13.554     14.457
REMARK INTER + INTRA:          -5.504
REMARK INTER:                  -5.388
REMARK INTRA:                  -0.116
REMARK UNBOUND:                -0.157
REMARK SMILES COc1cc2ccc(=O)oc2cc1OC
REMARK SMILES IDX 3 1 13 2 12 3 11 4 5 5 4 6 6 7 7 8 8 9 9 10 10 11 2 12 1 13
REMARK SMILES IDX 14 14 15 15
REMARK H PARENT
REMARK Flexibility Score: inf
ROOT
ATOM      1  C   UNL     1     -22.224  -6.790  -6.725  1.00  0.00     0.161 A 
ATOM      2  C   UNL     1     -23.010  -5.772  -6.160  1.00  0.00     0.164 A 
ATOM      3  C   UNL     1     -23.036  -4.495  -6.756  1.00  0.00     0.098 A 
ATOM      4  C   UNL     1     -22.285  -4.236  -7.904  1.00  0.00     0.142 A 
ATOM      5  C   UNL     1     -21.495  -5.256  -8.472  1.00  0.00     0.022 A 
ATOM      6  C   UNL     1     -21.466  -6.527  -7.884  1.00  0.00     0.062 A 
ATOM      7  C   UNL     1     -20.754  -4.965  -9.622  1.00  0.00     0.019 A 
ATOM      8  C   UNL     1     -20.817  -3.684 -10.170  1.00  0.00     0.094 A 
ATOM      9  C   UNL     1     -21.622  -2.721  -9.553  1.00  0.00     0.336 A 
ATOM     10  O   UNL     1     -21.692  -1.559 -10.031  1.00  0.00    -0.246 OA
ATOM     11  O   UNL     1     -22.316  -3.026  -8.459  1.00  0.00    -0.423 OA
ENDROOT
BRANCH   1  12
ATOM     12  O   UNL     1     -22.221  -8.050  -6.106  1.00  0.00    -0.493 OA
ATOM     13  C   UNL     1     -21.420  -9.153  -6.518  1.00  0.00     0.278 C 
ENDBRANCH   1  12
BRANCH   2  14
ATOM     14  O   UNL     1     -23.752  -6.069  -5.005  1.00  0.00    -0.493 OA
ATOM     15  C   UNL     1     -23.370  -5.700  -3.684  1.00  0.00     0.278 C 
ENDBRANCH   2  14
TORSDOF 2
ENDMDL
MODEL 9
REMARK VINA RESULT:    -4.729     13.806     14.625
REMARK INTER + INTRA:          -5.439
REMARK INTER:                  -5.309
REMARK INTRA:                  -0.130
REMARK UNBOUND:                -0.157
REMARK SMILES COc1cc2ccc(=O)oc2cc1OC
REMARK SMILES IDX 3 1 13 2 12 3 11 4 5 5 4 6 6 7 7 8 8 9 9 10 10 11 2 12 1 13
REMARK SMILES IDX 14 14 15 15
REMARK H PARENT
REMARK Flexibility Score: inf
ROOT
ATOM      1  C   UNL     1     -22.186  -6.307  -6.200  1.00  0.00     0.161 A 
ATOM      2  C   UNL     1     -22.482  -4.999  -5.781  1.00  0.00     0.164 A 
ATOM      3  C   UNL     1     -22.469  -3.945  -6.717  1.00  0.00     0.098 A 
ATOM      4  C   UNL     1     -22.162  -4.193  -8.057  1.00  0.00     0.142 A 
ATOM      5  C   UNL     1     -21.863  -5.504  -8.478  1.00  0.00     0.022 A 
ATOM      6  C   UNL     1     -21.876  -6.555  -7.552  1.00  0.00     0.062 A 
ATOM      7  C   UNL     1     -21.560  -5.720  -9.825  1.00  0.00     0.019 A 
ATOM      8  C   UNL     1     -21.561  -4.640 -10.709  1.00  0.00     0.094 A 
ATOM      9  C   UNL     1     -21.866  -3.365 -10.220  1.00  0.00     0.336 A 
ATOM     10  O   UNL     1     -21.872  -2.377 -11.000  1.00  0.00    -0.246 OA
ATOM     11  O   UNL     1     -22.151  -3.189  -8.932  1.00  0.00    -0.423 OA
ENDROOT
BRANCH   1  12
ATOM     12  O   UNL     1     -22.209  -7.333  -5.242  1.00  0.00    -0.493 OA
ATOM     13  C   UNL     1     -22.998  -8.514  -5.340  1.00  0.00     0.278 C 
ENDBRANCH   1  12
BRANCH   2  14
ATOM     14  O   UNL     1     -22.787  -4.787  -4.427  1.00  0.00    -0.493 OA
ATOM     15  C   UNL     1     -21.876  -4.257  -3.469  1.00  0.00     0.278 C 
ENDBRANCH   2  14
TORSDOF 2
ENDMDL
