MODEL 1
REMARK VINA RESULT:    -4.329      0.000      0.000
REMARK INTER + INTRA:          -9.712
REMARK INTER:                  -7.872
REMARK INTRA:                  -1.840
REMARK UNBOUND:                -1.840
REMARK SMILES CCCCCCCCCCCCCCCC(=O)[O-]
REMARK SMILES IDX 9 1 10 2 11 3 12 4 13 5 14 6 15 7 16 8 17 9 18 10 8 11 7 12
REMARK SMILES IDX 6 13 5 14 4 15 3 16 2 17 1 18
REMARK H PARENT
REMARK Flexibility Score: inf
ROOT
ATOM      1  C   UNL     1     112.713 120.864 124.324  1.00  0.00     0.000 C 
ENDROOT
BRANCH   1   2
ATOM      2  C   UNL     1     114.219 120.563 124.342  1.00  0.00     0.000 C 
BRANCH   2   3
ATOM      3  C   UNL     1     115.031 121.809 123.959  1.00  0.00     0.000 C 
BRANCH   3   4
ATOM      4  C   UNL     1     114.278 123.119 124.244  1.00  0.00     0.000 C 
BRANCH   4   5
ATOM      5  C   UNL     1     115.224 124.323 124.391  1.00  0.00     0.000 C 
BRANCH   5   6
ATOM      6  C   UNL     1     114.477 125.654 124.596  1.00  0.00     0.006 C 
BRANCH   6   7
ATOM      7  C   UNL     1     114.606 126.233 126.015  1.00  0.00     0.053 C 
BRANCH   7   8
ATOM      8  C   UNL     1     115.720 127.229 126.131  1.00  0.00     0.041 C 
ATOM      9  O   UNL     1     116.129 127.591 127.265  1.00  0.00    -0.550 OA
ATOM     10  O   UNL     1     116.330 127.731 124.989  1.00  0.00    -0.550 OA
ENDBRANCH   7   8
ENDBRANCH   6   7
ENDBRANCH   5   6
ENDBRANCH   4   5
ENDBRANCH   3   4
ENDBRANCH   2   3
ENDBRANCH   1   2
BRANCH   1  11
ATOM     11  C   UNL     1     111.882 119.726 123.703  1.00  0.00     0.000 C 
BRANCH  11  12
ATOM     12  C   UNL     1     112.053 119.548 122.180  1.00  0.00    -0.000 C 
BRANCH  12  13
ATOM     13  C   UNL     1     111.261 120.542 121.312  1.00  0.00    -0.000 C 
BRANCH  13  14
ATOM     14  C   UNL     1     112.147 121.294 120.308  1.00  0.00    -0.000 C 
BRANCH  14  15
ATOM     15  C   UNL     1     112.814 122.510 120.970  1.00  0.00    -0.000 C 
BRANCH  15  16
ATOM     16  C   UNL     1     114.268 122.708 120.515  1.00  0.00    -0.000 C 
BRANCH  16  17
ATOM     17  C   UNL     1     114.699 124.182 120.537  1.00  0.00    -0.003 C 
ATOM     18  C   UNL     1     116.208 124.311 120.724  1.00  0.00     0.004 C 
ENDBRANCH  16  17
ENDBRANCH  15  16
ENDBRANCH  14  15
ENDBRANCH  13  14
ENDBRANCH  12  13
ENDBRANCH  11  12
ENDBRANCH   1  11
TORSDOF 14
ENDMDL
MODEL 2
REMARK VINA RESULT:    -4.327      1.560      4.113
REMARK INTER + INTRA:          -9.708
REMARK INTER:                  -8.705
REMARK INTRA:                  -1.004
REMARK UNBOUND:                -1.840
REMARK SMILES CCCCCCCCCCCCCCCC(=O)[O-]
REMARK SMILES IDX 9 1 10 2 11 3 12 4 13 5 14 6 15 7 16 8 17 9 18 10 8 11 7 12
REMARK SMILES IDX 6 13 5 14 4 15 3 16 2 17 1 18
REMARK H PARENT
REMARK Flexibility Score: inf
ROOT
ATOM      1  C   UNL     1     113.599 121.509 121.379  1.00  0.00     0.000 C 
ENDROOT
BRANCH   1   2
ATOM      2  C   UNL     1     113.890 122.838 122.093  1.00  0.00     0.000 C 
BRANCH   2   3
ATOM      3  C   UNL     1     114.212 122.604 123.577  1.00  0.00     0.000 C 
BRANCH   3   4
ATOM      4  C   UNL     1     114.531 123.908 124.327  1.00  0.00     0.000 C 
BRANCH   4   5
ATOM      5  C   UNL     1     114.404 125.151 123.431  1.00  0.00     0.000 C 
BRANCH   5   6
ATOM      6  C   UNL     1     114.207 126.451 124.230  1.00  0.00     0.006 C 
BRANCH   6   7
ATOM      7  C   UNL     1     114.502 126.312 125.734  1.00  0.00     0.053 C 
BRANCH   7   8
ATOM      8  C   UNL     1     115.736 127.055 126.150  1.00  0.00     0.041 C 
ATOM      9  O   UNL     1     116.428 127.663 125.291  1.00  0.00    -0.550 OA
ATOM     10  O   UNL     1     116.104 127.105 127.488  1.00  0.00    -0.550 OA
ENDBRANCH   7   8
ENDBRANCH   6   7
ENDBRANCH   5   6
ENDBRANCH   4   5
ENDBRANCH   3   4
ENDBRANCH   2   3
ENDBRANCH   1   2
BRANCH   1  11
ATOM     11  C   UNL     1     112.167 121.429 120.822  1.00  0.00     0.000 C 
BRANCH  11  12
ATOM     12  C   UNL     1     111.300 120.295 121.406  1.00  0.00    -0.000 C 
BRANCH  12  13
ATOM     13  C   UNL     1     112.000 119.409 122.452  1.00  0.00    -0.000 C 
BRANCH  13  14
ATOM     14  C   UNL     1     111.537 119.700 123.887  1.00  0.00    -0.000 C 
BRANCH  14  15
ATOM     15  C   UNL     1     111.902 118.540 124.826  1.00  0.00    -0.000 C 
BRANCH  15  16
ATOM     16  C   UNL     1     112.477 119.022 126.167  1.00  0.00    -0.000 C 
BRANCH  16  17
ATOM     17  C   UNL     1     113.975 118.714 126.313  1.00  0.00    -0.003 C 
ATOM     18  C   UNL     1     114.230 117.762 127.478  1.00  0.00     0.004 C 
ENDBRANCH  16  17
ENDBRANCH  15  16
ENDBRANCH  14  15
ENDBRANCH  13  14
ENDBRANCH  12  13
ENDBRANCH  11  12
ENDBRANCH   1  11
TORSDOF 14
ENDMDL
MODEL 3
REMARK VINA RESULT:    -4.315      1.196      1.990
REMARK INTER + INTRA:          -9.686
REMARK INTER:                  -7.405
REMARK INTRA:                  -2.281
REMARK UNBOUND:                -1.840
REMARK SMILES CCCCCCCCCCCCCCCC(=O)[O-]
REMARK SMILES IDX 9 1 10 2 11 3 12 4 13 5 14 6 15 7 16 8 17 9 18 10 8 11 7 12
REMARK SMILES IDX 6 13 5 14 4 15 3 16 2 17 1 18
REMARK H PARENT
REMARK Flexibility Score: inf
ROOT
ATOM      1  C   UNL     1     111.720 119.037 124.007  1.00  0.00     0.000 C 
ENDROOT
BRANCH   1   2
ATOM      2  C   UNL     1     112.167 120.274 124.800  1.00  0.00     0.000 C 
BRANCH   2   3
ATOM      3  C   UNL     1     113.652 120.175 125.179  1.00  0.00     0.000 C 
BRANCH   3   4
ATOM      4  C   UNL     1     114.538 121.131 124.363  1.00  0.00     0.000 C 
BRANCH   4   5
ATOM      5  C   UNL     1     113.947 122.548 124.269  1.00  0.00     0.000 C 
BRANCH   5   6
ATOM      6  C   UNL     1     115.020 123.651 124.296  1.00  0.00     0.006 C 
BRANCH   6   7
ATOM      7  C   UNL     1     114.601 124.949 123.585  1.00  0.00     0.053 C 
BRANCH   7   8
ATOM      8  C   UNL     1     114.722 126.154 124.469  1.00  0.00     0.041 C 
ATOM      9  O   UNL     1     113.853 126.382 125.351  1.00  0.00    -0.550 OA
ATOM     10  O   UNL     1     115.811 127.007 124.342  1.00  0.00    -0.550 OA
ENDBRANCH   7   8
ENDBRANCH   6   7
ENDBRANCH   5   6
ENDBRANCH   4   5
ENDBRANCH   3   4
ENDBRANCH   2   3
ENDBRANCH   1   2
BRANCH   1  11
ATOM     11  C   UNL     1     111.971 119.172 122.494  1.00  0.00     0.000 C 
BRANCH  11  12
ATOM     12  C   UNL     1     111.759 120.588 121.920  1.00  0.00    -0.000 C 
BRANCH  12  13
ATOM     13  C   UNL     1     112.877 121.091 120.990  1.00  0.00    -0.000 C 
BRANCH  13  14
ATOM     14  C   UNL     1     112.840 122.612 120.781  1.00  0.00    -0.000 C 
BRANCH  14  15
ATOM     15  C   UNL     1     114.222 123.141 120.364  1.00  0.00    -0.000 C 
BRANCH  15  16
ATOM     16  C   UNL     1     115.370 122.240 120.842  1.00  0.00    -0.000 C 
BRANCH  16  17
ATOM     17  C   UNL     1     116.704 122.992 120.957  1.00  0.00    -0.003 C 
ATOM     18  C   UNL     1     116.711 124.239 120.077  1.00  0.00     0.004 C 
ENDBRANCH  16  17
ENDBRANCH  15  16
ENDBRANCH  14  15
ENDBRANCH  13  14
ENDBRANCH  12  13
ENDBRANCH  11  12
ENDBRANCH   1  11
TORSDOF 14
ENDMDL
MODEL 4
REMARK VINA RESULT:    -4.290      1.520      2.600
REMARK INTER + INTRA:          -9.640
REMARK INTER:                  -7.321
REMARK INTRA:                  -2.320
REMARK UNBOUND:                -1.840
REMARK SMILES CCCCCCCCCCCCCCCC(=O)[O-]
REMARK SMILES IDX 9 1 10 2 11 3 12 4 13 5 14 6 15 7 16 8 17 9 18 10 8 11 7 12
REMARK SMILES IDX 6 13 5 14 4 15 3 16 2 17 1 18
REMARK H PARENT
REMARK Flexibility Score: inf
ROOT
ATOM      1  C   UNL     1     113.729 121.418 123.132  1.00  0.00     0.000 C 
ENDROOT
BRANCH   1   2
ATOM      2  C   UNL     1     114.967 120.743 123.741  1.00  0.00     0.000 C 
BRANCH   2   3
ATOM      3  C   UNL     1     115.842 121.766 124.480  1.00  0.00     0.000 C 
BRANCH   3   4
ATOM      4  C   UNL     1     116.208 122.977 123.604  1.00  0.00     0.000 C 
BRANCH   4   5
ATOM      5  C   UNL     1     116.065 124.312 124.354  1.00  0.00     0.000 C 
BRANCH   5   6
ATOM      6  C   UNL     1     114.605 124.651 124.705  1.00  0.00     0.006 C 
BRANCH   6   7
ATOM      7  C   UNL     1     114.325 126.159 124.827  1.00  0.00     0.053 C 
BRANCH   7   8
ATOM      8  C   UNL     1     114.303 126.627 126.251  1.00  0.00     0.041 C 
ATOM      9  O   UNL     1     113.217 126.976 126.786  1.00  0.00    -0.550 OA
ATOM     10  O   UNL     1     115.474 126.646 126.999  1.00  0.00    -0.550 OA
ENDBRANCH   7   8
ENDBRANCH   6   7
ENDBRANCH   5   6
ENDBRANCH   4   5
ENDBRANCH   3   4
ENDBRANCH   2   3
ENDBRANCH   1   2
BRANCH   1  11
ATOM     11  C   UNL     1     113.596 121.171 121.619  1.00  0.00     0.000 C 
BRANCH  11  12
ATOM     12  C   UNL     1     113.297 122.427 120.774  1.00  0.00    -0.000 C 
BRANCH  12  13
ATOM     13  C   UNL     1     113.477 123.767 121.510  1.00  0.00    -0.000 C 
BRANCH  13  14
ATOM     14  C   UNL     1     114.476 124.702 120.811  1.00  0.00    -0.000 C 
BRANCH  14  15
ATOM     15  C   UNL     1     115.466 123.900 119.953  1.00  0.00    -0.000 C 
BRANCH  15  16
ATOM     16  C   UNL     1     116.922 124.350 120.151  1.00  0.00    -0.000 C 
BRANCH  16  17
ATOM     17  C   UNL     1     117.865 123.179 120.467  1.00  0.00    -0.003 C 
ATOM     18  C   UNL     1     117.220 121.842 120.113  1.00  0.00     0.004 C 
ENDBRANCH  16  17
ENDBRANCH  15  16
ENDBRANCH  14  15
ENDBRANCH  13  14
ENDBRANCH  12  13
ENDBRANCH  11  12
ENDBRANCH   1  11
TORSDOF 14
ENDMDL
MODEL 5
REMARK VINA RESULT:    -4.287      3.823      5.672
REMARK INTER + INTRA:          -9.635
REMARK INTER:                  -8.161
REMARK INTRA:                  -1.475
REMARK UNBOUND:                -1.840
REMARK SMILES CCCCCCCCCCCCCCCC(=O)[O-]
REMARK SMILES IDX 9 1 10 2 11 3 12 4 13 5 14 6 15 7 16 8 17 9 18 10 8 11 7 12
REMARK SMILES IDX 6 13 5 14 4 15 3 16 2 17 1 18
REMARK H PARENT
REMARK Flexibility Score: inf
ROOT
ATOM      1  C   UNL     1     114.460 120.866 122.398  1.00  0.00     0.000 C 
ENDROOT
BRANCH   1   2
ATOM      2  C   UNL     1     113.290 119.871 122.427  1.00  0.00     0.000 C 
BRANCH   2   3
ATOM      3  C   UNL     1     112.395 120.113 123.652  1.00  0.00     0.000 C 
BRANCH   3   4
ATOM      4  C   UNL     1     111.687 118.835 124.131  1.00  0.00     0.000 C 
BRANCH   4   5
ATOM      5  C   UNL     1     112.075 118.448 125.568  1.00  0.00     0.000 C 
BRANCH   5   6
ATOM      6  C   UNL     1     113.350 119.159 126.058  1.00  0.00     0.006 C 
BRANCH   6   7
ATOM      7  C   UNL     1     113.569 119.073 127.578  1.00  0.00     0.053 C 
BRANCH   7   8
ATOM      8  C   UNL     1     114.831 118.349 127.939  1.00  0.00     0.041 C 
ATOM      9  O   UNL     1     115.165 117.310 127.311  1.00  0.00    -0.550 OA
ATOM     10  O   UNL     1     115.656 118.838 128.944  1.00  0.00    -0.550 OA
ENDBRANCH   7   8
ENDBRANCH   6   7
ENDBRANCH   5   6
ENDBRANCH   4   5
ENDBRANCH   3   4
ENDBRANCH   2   3
ENDBRANCH   1   2
BRANCH   1  11
ATOM     11  C   UNL     1     114.242 122.074 123.327  1.00  0.00     0.000 C 
BRANCH  11  12
ATOM     12  C   UNL     1     114.279 123.450 122.630  1.00  0.00    -0.000 C 
BRANCH  12  13
ATOM     13  C   UNL     1     113.594 123.504 121.253  1.00  0.00    -0.000 C 
BRANCH  13  14
ATOM     14  C   UNL     1     114.595 123.557 120.090  1.00  0.00    -0.000 C 
BRANCH  14  15
ATOM     15  C   UNL     1     115.793 124.454 120.440  1.00  0.00    -0.000 C 
BRANCH  15  16
ATOM     16  C   UNL     1     117.140 123.813 120.075  1.00  0.00    -0.000 C 
BRANCH  16  17
ATOM     17  C   UNL     1     117.368 122.469 120.784  1.00  0.00    -0.003 C 
ATOM     18  C   UNL     1     117.613 121.350 119.776  1.00  0.00     0.004 C 
ENDBRANCH  16  17
ENDBRANCH  15  16
ENDBRANCH  14  15
ENDBRANCH  13  14
ENDBRANCH  12  13
ENDBRANCH  11  12
ENDBRANCH   1  11
TORSDOF 14
ENDMDL
MODEL 6
REMARK VINA RESULT:    -4.279      3.621      5.992
REMARK INTER + INTRA:          -9.621
REMARK INTER:                  -7.754
REMARK INTRA:                  -1.868
REMARK UNBOUND:                -1.840
REMARK SMILES CCCCCCCCCCCCCCCC(=O)[O-]
REMARK SMILES IDX 9 1 10 2 11 3 12 4 13 5 14 6 15 7 16 8 17 9 18 10 8 11 7 12
REMARK SMILES IDX 6 13 5 14 4 15 3 16 2 17 1 18
REMARK H PARENT
REMARK Flexibility Score: inf
ROOT
ATOM      1  C   UNL     1     114.840 123.322 124.067  1.00  0.00     0.000 C 
ENDROOT
BRANCH   1   2
ATOM      2  C   UNL     1     113.865 122.141 124.185  1.00  0.00     0.000 C 
BRANCH   2   3
ATOM      3  C   UNL     1     113.615 121.497 122.813  1.00  0.00     0.000 C 
BRANCH   3   4
ATOM      4  C   UNL     1     113.175 120.027 122.920  1.00  0.00     0.000 C 
BRANCH   4   5
ATOM      5  C   UNL     1     111.892 119.855 123.751  1.00  0.00     0.000 C 
BRANCH   5   6
ATOM      6  C   UNL     1     111.977 118.690 124.753  1.00  0.00     0.006 C 
BRANCH   6   7
ATOM      7  C   UNL     1     112.456 119.105 126.156  1.00  0.00     0.053 C 
BRANCH   7   8
ATOM      8  C   UNL     1     113.842 118.621 126.458  1.00  0.00     0.041 C 
ATOM      9  O   UNL     1     114.837 119.174 125.921  1.00  0.00    -0.550 OA
ATOM     10  O   UNL     1     114.038 117.580 127.358  1.00  0.00    -0.550 OA
ENDBRANCH   7   8
ENDBRANCH   6   7
ENDBRANCH   5   6
ENDBRANCH   4   5
ENDBRANCH   3   4
ENDBRANCH   2   3
ENDBRANCH   1   2
BRANCH   1  11
ATOM     11  C   UNL     1     116.315 122.884 124.079  1.00  0.00     0.000 C 
BRANCH  11  12
ATOM     12  C   UNL     1     117.295 123.867 123.407  1.00  0.00    -0.000 C 
BRANCH  12  13
ATOM     13  C   UNL     1     116.641 124.927 122.502  1.00  0.00    -0.000 C 
BRANCH  13  14
ATOM     14  C   UNL     1     117.229 124.946 121.084  1.00  0.00    -0.000 C 
BRANCH  14  15
ATOM     15  C   UNL     1     116.213 124.411 120.063  1.00  0.00    -0.000 C 
BRANCH  15  16
ATOM     16  C   UNL     1     115.840 122.942 120.312  1.00  0.00    -0.000 C 
BRANCH  16  17
ATOM     17  C   UNL     1     117.053 122.002 120.238  1.00  0.00    -0.003 C 
ATOM     18  C   UNL     1     116.743 120.652 120.877  1.00  0.00     0.004 C 
ENDBRANCH  16  17
ENDBRANCH  15  16
ENDBRANCH  14  15
ENDBRANCH  13  14
ENDBRANCH  12  13
ENDBRANCH  11  12
ENDBRANCH   1  11
TORSDOF 14
ENDMDL
MODEL 7
REMARK VINA RESULT:    -4.245      3.309      5.891
REMARK INTER + INTRA:          -9.560
REMARK INTER:                  -6.989
REMARK INTRA:                  -2.571
REMARK UNBOUND:                -1.840
REMARK SMILES CCCCCCCCCCCCCCCC(=O)[O-]
REMARK SMILES IDX 9 1 10 2 11 3 12 4 13 5 14 6 15 7 16 8 17 9 18 10 8 11 7 12
REMARK SMILES IDX 6 13 5 14 4 15 3 16 2 17 1 18
REMARK H PARENT
REMARK Flexibility Score: inf
ROOT
ATOM      1  C   UNL     1     114.500 122.687 120.329  1.00  0.00     0.000 C 
ENDROOT
BRANCH   1   2
ATOM      2  C   UNL     1     113.242 122.632 121.209  1.00  0.00     0.000 C 
BRANCH   2   3
ATOM      3  C   UNL     1     113.128 121.273 121.918  1.00  0.00     0.000 C 
BRANCH   3   4
ATOM      4  C   UNL     1     114.470 120.525 121.985  1.00  0.00     0.000 C 
BRANCH   4   5
ATOM      5  C   UNL     1     114.890 120.197 123.428  1.00  0.00     0.000 C 
BRANCH   5   6
ATOM      6  C   UNL     1     113.791 120.509 124.460  1.00  0.00     0.006 C 
BRANCH   6   7
ATOM      7  C   UNL     1     113.243 119.268 125.185  1.00  0.00     0.053 C 
BRANCH   7   8
ATOM      8  C   UNL     1     113.820 119.102 126.559  1.00  0.00     0.041 C 
ATOM      9  O   UNL     1     115.068 119.049 126.719  1.00  0.00    -0.550 OA
ATOM     10  O   UNL     1     112.983 119.040 127.666  1.00  0.00    -0.550 OA
ENDBRANCH   7   8
ENDBRANCH   6   7
ENDBRANCH   5   6
ENDBRANCH   4   5
ENDBRANCH   3   4
ENDBRANCH   2   3
ENDBRANCH   1   2
BRANCH   1  11
ATOM     11  C   UNL     1     115.034 124.118 120.137  1.00  0.00     0.000 C 
BRANCH  11  12
ATOM     12  C   UNL     1     116.527 124.310 120.471  1.00  0.00    -0.000 C 
BRANCH  12  13
ATOM     13  C   UNL     1     117.286 123.022 120.836  1.00  0.00    -0.000 C 
BRANCH  13  14
ATOM     14  C   UNL     1     117.530 122.881 122.346  1.00  0.00    -0.000 C 
BRANCH  14  15
ATOM     15  C   UNL     1     116.891 124.048 123.115  1.00  0.00    -0.000 C 
BRANCH  15  16
ATOM     16  C   UNL     1     116.020 123.577 124.289  1.00  0.00    -0.000 C 
BRANCH  16  17
ATOM     17  C   UNL     1     114.590 124.135 124.226  1.00  0.00    -0.003 C 
ATOM     18  C   UNL     1     114.554 125.477 123.501  1.00  0.00     0.004 C 
ENDBRANCH  16  17
ENDBRANCH  15  16
ENDBRANCH  14  15
ENDBRANCH  13  14
ENDBRANCH  12  13
ENDBRANCH  11  12
ENDBRANCH   1  11
TORSDOF 14
ENDMDL
MODEL 8
REMARK VINA RESULT:    -4.238      3.729      5.755
REMARK INTER + INTRA:          -9.547
REMARK INTER:                  -7.509
REMARK INTRA:                  -2.038
REMARK UNBOUND:                -1.840
REMARK SMILES CCCCCCCCCCCCCCCC(=O)[O-]
REMARK SMILES IDX 9 1 10 2 11 3 12 4 13 5 14 6 15 7 16 8 17 9 18 10 8 11 7 12
REMARK SMILES IDX 6 13 5 14 4 15 3 16 2 17 1 18
REMARK H PARENT
REMARK Flexibility Score: inf
ROOT
ATOM      1  C   UNL     1     114.405 120.387 121.881  1.00  0.00     0.000 C 
ENDROOT
BRANCH   1   2
ATOM      2  C   UNL     1     113.028 120.990 122.195  1.00  0.00     0.000 C 
BRANCH   2   3
ATOM      3  C   UNL     1     111.913 119.957 121.975  1.00  0.00     0.000 C 
BRANCH   3   4
ATOM      4  C   UNL     1     111.656 119.088 123.218  1.00  0.00     0.000 C 
BRANCH   4   5
ATOM      5  C   UNL     1     112.059 119.792 124.524  1.00  0.00     0.000 C 
BRANCH   5   6
ATOM      6  C   UNL     1     112.573 118.817 125.599  1.00  0.00     0.006 C 
BRANCH   6   7
ATOM      7  C   UNL     1     114.067 118.981 125.929  1.00  0.00     0.053 C 
BRANCH   7   8
ATOM      8  C   UNL     1     114.462 118.260 127.182  1.00  0.00     0.041 C 
ATOM      9  O   UNL     1     115.526 117.587 127.217  1.00  0.00    -0.550 OA
ATOM     10  O   UNL     1     113.675 118.359 128.323  1.00  0.00    -0.550 OA
ENDBRANCH   7   8
ENDBRANCH   6   7
ENDBRANCH   5   6
ENDBRANCH   4   5
ENDBRANCH   3   4
ENDBRANCH   2   3
ENDBRANCH   1   2
BRANCH   1  11
ATOM     11  C   UNL     1     115.461 120.715 122.951  1.00  0.00     0.000 C 
BRANCH  11  12
ATOM     12  C   UNL     1     115.155 121.957 123.813  1.00  0.00    -0.000 C 
BRANCH  12  13
ATOM     13  C   UNL     1     116.217 123.070 123.758  1.00  0.00    -0.000 C 
BRANCH  13  14
ATOM     14  C   UNL     1     115.626 124.441 123.398  1.00  0.00    -0.000 C 
BRANCH  14  15
ATOM     15  C   UNL     1     114.273 124.285 122.687  1.00  0.00    -0.000 C 
BRANCH  15  16
ATOM     16  C   UNL     1     114.318 124.736 121.220  1.00  0.00    -0.000 C 
BRANCH  16  17
ATOM     17  C   UNL     1     114.861 123.647 120.282  1.00  0.00    -0.003 C 
ATOM     18  C   UNL     1     116.265 123.991 119.792  1.00  0.00     0.004 C 
ENDBRANCH  16  17
ENDBRANCH  15  16
ENDBRANCH  14  15
ENDBRANCH  13  14
ENDBRANCH  12  13
ENDBRANCH  11  12
ENDBRANCH   1  11
TORSDOF 14
ENDMDL
MODEL 9
REMARK VINA RESULT:    -4.225      1.801      4.142
REMARK INTER + INTRA:          -9.523
REMARK INTER:                  -7.282
REMARK INTRA:                  -2.241
REMARK UNBOUND:                -1.840
REMARK SMILES CCCCCCCCCCCCCCCC(=O)[O-]
REMARK SMILES IDX 9 1 10 2 11 3 12 4 13 5 14 6 15 7 16 8 17 9 18 10 8 11 7 12
REMARK SMILES IDX 6 13 5 14 4 15 3 16 2 17 1 18
REMARK H PARENT
REMARK Flexibility Score: inf
ROOT
ATOM      1  C   UNL     1     117.238 123.384 120.481  1.00  0.00     0.000 C 
ENDROOT
BRANCH   1   2
ATOM      2  C   UNL     1     116.130 124.329 119.993  1.00  0.00     0.000 C 
BRANCH   2   3
ATOM      3  C   UNL     1     114.748 123.833 120.443  1.00  0.00     0.000 C 
BRANCH   3   4
ATOM      4  C   UNL     1     114.184 124.639 121.624  1.00  0.00     0.000 C 
BRANCH   4   5
ATOM      5  C   UNL     1     114.319 123.897 122.964  1.00  0.00     0.000 C 
BRANCH   5   6
ATOM      6  C   UNL     1     115.620 124.240 123.713  1.00  0.00     0.006 C 
BRANCH   6   7
ATOM      7  C   UNL     1     115.896 125.750 123.827  1.00  0.00     0.053 C 
BRANCH   7   8
ATOM      8  C   UNL     1     114.953 126.438 124.766  1.00  0.00     0.041 C 
ATOM      9  O   UNL     1     114.043 127.183 124.315  1.00  0.00    -0.550 OA
ATOM     10  O   UNL     1     115.055 126.233 126.136  1.00  0.00    -0.550 OA
ENDBRANCH   7   8
ENDBRANCH   6   7
ENDBRANCH   5   6
ENDBRANCH   4   5
ENDBRANCH   3   4
ENDBRANCH   2   3
ENDBRANCH   1   2
BRANCH   1  11
ATOM     11  C   UNL     1     116.852 121.899 120.367  1.00  0.00     0.000 C 
BRANCH  11  12
ATOM     12  C   UNL     1     117.186 121.039 121.603  1.00  0.00    -0.000 C 
BRANCH  12  13
ATOM     13  C   UNL     1     115.974 120.620 122.456  1.00  0.00    -0.000 C 
BRANCH  13  14
ATOM     14  C   UNL     1     114.828 120.037 121.617  1.00  0.00    -0.000 C 
BRANCH  14  15
ATOM     15  C   UNL     1     113.491 120.701 121.981  1.00  0.00    -0.000 C 
BRANCH  15  16
ATOM     16  C   UNL     1     112.363 120.336 121.003  1.00  0.00    -0.000 C 
BRANCH  16  17
ATOM     17  C   UNL     1     111.572 121.564 120.528  1.00  0.00    -0.003 C 
ATOM     18  C   UNL     1     111.281 121.486 119.032  1.00  0.00     0.004 C 
ENDBRANCH  16  17
ENDBRANCH  15  16
ENDBRANCH  14  15
ENDBRANCH  13  14
ENDBRANCH  12  13
ENDBRANCH  11  12
ENDBRANCH   1  11
TORSDOF 14
ENDMDL
