MODEL 1
REMARK VINA RESULT:    -7.680      0.000      0.000
REMARK INTER + INTRA:          -9.325
REMARK INTER:                  -9.251
REMARK INTRA:                  -0.075
REMARK UNBOUND:                -0.075
REMARK SMILES O=c1c(O)c(-c2ccc(O)c(O)c2)oc2cc(O)cc(O)c12
REMARK SMILES IDX 5 1 3 2 2 3 1 4 22 5 20 6 19 7 17 8 16 9 15 10 14 11 6 12
REMARK SMILES IDX 7 13 8 14 9 15 13 16 11 17 10 18 12 20 4 22 21 24 18 26
REMARK H PARENT 10 19 12 21 4 23 21 25 18 27
REMARK Flexibility Score: inf
ROOT
ATOM      1  C   UNL     1      47.845  44.040  77.932  1.00  0.00     0.180 A 
ATOM      2  C   UNL     1      47.613  43.402  76.701  1.00  0.00     0.208 A 
ATOM      3  C   UNL     1      48.612  43.442  75.714  1.00  0.00     0.238 A 
ATOM      4  O   UNL     1      48.420  42.823  74.635  1.00  0.00    -0.285 OA
ATOM      5  C   UNL     1      49.821  44.132  75.965  1.00  0.00     0.111 A 
ATOM      6  C   UNL     1      50.885  44.270  75.023  1.00  0.00     0.134 A 
ATOM      7  C   UNL     1      52.089  44.862  75.423  1.00  0.00     0.093 A 
ATOM      8  C   UNL     1      52.246  45.377  76.709  1.00  0.00     0.123 A 
ATOM      9  C   UNL     1      51.192  45.301  77.619  1.00  0.00     0.094 A 
ATOM     10  C   UNL     1      49.991  44.684  77.262  1.00  0.00     0.146 A 
ATOM     11  O   UNL     1      49.016  44.622  78.161  1.00  0.00    -0.452 OA
ENDROOT
BRANCH   1  12
ATOM     12  C   UNL     1      46.831  44.062  79.011  1.00  0.00     0.025 A 
ATOM     13  C   UNL     1      45.526  44.533  78.780  1.00  0.00     0.016 A 
ATOM     14  C   UNL     1      44.593  44.568  79.819  1.00  0.00     0.051 A 
ATOM     15  C   UNL     1      44.953  44.147  81.106  1.00  0.00     0.157 A 
ATOM     16  C   UNL     1      47.192  43.661  80.308  1.00  0.00     0.062 A 
ATOM     17  C   UNL     1      46.256  43.695  81.351  1.00  0.00     0.158 A 
BRANCH  15  18
ATOM     18  O   UNL     1      44.025  44.179  82.145  1.00  0.00    -0.504 OA
ATOM     19  H   UNL     1      44.262  43.862  83.077  1.00  0.00     0.293 HD
ENDBRANCH  15  18
BRANCH  17  20
ATOM     20  O   UNL     1      46.614  43.283  82.634  1.00  0.00    -0.504 OA
ATOM     21  H   UNL     1      47.582  43.253  82.930  1.00  0.00     0.293 HD
ENDBRANCH  17  20
ENDBRANCH   1  12
BRANCH   2  22
ATOM     22  O   UNL     1      46.419  42.708  76.483  1.00  0.00    -0.502 OA
ATOM     23  H   UNL     1      45.518  43.073  76.770  1.00  0.00     0.293 HD
ENDBRANCH   2  22
BRANCH   6  24
ATOM     24  O   UNL     1      50.800  43.872  73.685  1.00  0.00    -0.507 OA
ATOM     25  H   UNL     1      51.358  43.145  73.265  1.00  0.00     0.293 HD
ENDBRANCH   6  24
BRANCH   8  26
ATOM     26  O   UNL     1      53.453  45.973  77.068  1.00  0.00    -0.508 OA
ATOM     27  H   UNL     1      53.617  46.964  76.931  1.00  0.00     0.293 HD
ENDBRANCH   8  26
TORSDOF 6
ENDMDL
MODEL 2
REMARK VINA RESULT:    -6.979     16.280     18.530
REMARK INTER + INTRA:          -8.482
REMARK INTER:                  -8.588
REMARK INTRA:                   0.107
REMARK UNBOUND:                -0.075
REMARK SMILES O=c1c(O)c(-c2ccc(O)c(O)c2)oc2cc(O)cc(O)c12
REMARK SMILES IDX 5 1 3 2 2 3 1 4 22 5 20 6 19 7 17 8 16 9 15 10 14 11 6 12
REMARK SMILES IDX 7 13 8 14 9 15 13 16 11 17 10 18 12 20 4 22 21 24 18 26
REMARK H PARENT 10 19 12 21 4 23 21 25 18 27
REMARK Flexibility Score: inf
ROOT
ATOM      1  C   UNL     1      45.007  31.218  65.099  1.00  0.00     0.180 A 
ATOM      2  C   UNL     1      45.593  30.057  65.632  1.00  0.00     0.208 A 
ATOM      3  C   UNL     1      46.916  30.116  66.101  1.00  0.00     0.238 A 
ATOM      4  O   UNL     1      47.417  29.087  66.627  1.00  0.00    -0.285 OA
ATOM      5  C   UNL     1      47.640  31.329  66.015  1.00  0.00     0.111 A 
ATOM      6  C   UNL     1      48.998  31.492  66.423  1.00  0.00     0.134 A 
ATOM      7  C   UNL     1      49.573  32.768  66.414  1.00  0.00     0.093 A 
ATOM      8  C   UNL     1      48.862  33.876  65.953  1.00  0.00     0.123 A 
ATOM      9  C   UNL     1      47.553  33.717  65.497  1.00  0.00     0.094 A 
ATOM     10  C   UNL     1      46.940  32.463  65.527  1.00  0.00     0.146 A 
ATOM     11  O   UNL     1      45.689  32.357  65.094  1.00  0.00    -0.452 OA
ENDROOT
BRANCH   1  12
ATOM     12  C   UNL     1      43.626  31.228  64.563  1.00  0.00     0.025 A 
ATOM     13  C   UNL     1      43.317  31.868  63.350  1.00  0.00     0.016 A 
ATOM     14  C   UNL     1      42.002  31.886  62.875  1.00  0.00     0.051 A 
ATOM     15  C   UNL     1      40.978  31.278  63.612  1.00  0.00     0.157 A 
ATOM     16  C   UNL     1      42.591  30.639  65.308  1.00  0.00     0.062 A 
ATOM     17  C   UNL     1      41.272  30.656  64.832  1.00  0.00     0.158 A 
BRANCH  15  18
ATOM     18  O   UNL     1      39.666  31.293  63.142  1.00  0.00    -0.504 OA
ATOM     19  H   UNL     1      39.348  31.990  62.480  1.00  0.00     0.293 HD
ENDBRANCH  15  18
BRANCH  17  20
ATOM     20  O   UNL     1      40.249  30.058  65.567  1.00  0.00    -0.504 OA
ATOM     21  H   UNL     1      39.363  29.814  65.142  1.00  0.00     0.293 HD
ENDBRANCH  17  20
ENDBRANCH   1  12
BRANCH   2  22
ATOM     22  O   UNL     1      44.852  28.876  65.726  1.00  0.00    -0.502 OA
ATOM     23  H   UNL     1      45.142  28.015  65.276  1.00  0.00     0.293 HD
ENDBRANCH   2  22
BRANCH   6  24
ATOM     24  O   UNL     1      49.827  30.436  66.814  1.00  0.00    -0.507 OA
ATOM     25  H   UNL     1      49.504  29.519  67.079  1.00  0.00     0.293 HD
ENDBRANCH   6  24
BRANCH   8  26
ATOM     26  O   UNL     1      49.471  35.128  65.944  1.00  0.00    -0.508 OA
ATOM     27  H   UNL     1      49.397  35.748  65.146  1.00  0.00     0.293 HD
ENDBRANCH   8  26
TORSDOF 6
ENDMDL
MODEL 3
REMARK VINA RESULT:    -6.897     16.244     18.444
REMARK INTER + INTRA:          -8.383
REMARK INTER:                  -8.062
REMARK INTRA:                  -0.321
REMARK UNBOUND:                -0.075
REMARK SMILES O=c1c(O)c(-c2ccc(O)c(O)c2)oc2cc(O)cc(O)c12
REMARK SMILES IDX 5 1 3 2 2 3 1 4 22 5 20 6 19 7 17 8 16 9 15 10 14 11 6 12
REMARK SMILES IDX 7 13 8 14 9 15 13 16 11 17 10 18 12 20 4 22 21 24 18 26
REMARK H PARENT 10 19 12 21 4 23 21 25 18 27
REMARK Flexibility Score: inf
ROOT
ATOM      1  C   UNL     1      45.732  31.356  64.767  1.00  0.00     0.180 A 
ATOM      2  C   UNL     1      46.530  30.663  63.840  1.00  0.00     0.208 A 
ATOM      3  C   UNL     1      47.868  31.054  63.667  1.00  0.00     0.238 A 
ATOM      4  O   UNL     1      48.592  30.396  62.876  1.00  0.00    -0.285 OA
ATOM      5  C   UNL     1      48.385  32.143  64.409  1.00  0.00     0.111 A 
ATOM      6  C   UNL     1      49.713  32.650  64.285  1.00  0.00     0.134 A 
ATOM      7  C   UNL     1      50.157  33.646  65.163  1.00  0.00     0.093 A 
ATOM      8  C   UNL     1      49.303  34.198  66.117  1.00  0.00     0.123 A 
ATOM      9  C   UNL     1      47.985  33.752  66.208  1.00  0.00     0.094 A 
ATOM     10  C   UNL     1      47.523  32.734  65.370  1.00  0.00     0.146 A 
ATOM     11  O   UNL     1      46.264  32.330  65.496  1.00  0.00    -0.452 OA
ENDROOT
BRANCH   1  12
ATOM     12  C   UNL     1      44.307  31.018  64.987  1.00  0.00     0.025 A 
ATOM     13  C   UNL     1      43.923  30.030  65.910  1.00  0.00     0.016 A 
ATOM     14  C   UNL     1      42.573  29.710  66.084  1.00  0.00     0.051 A 
ATOM     15  C   UNL     1      41.591  30.363  65.328  1.00  0.00     0.157 A 
ATOM     16  C   UNL     1      43.318  31.654  64.217  1.00  0.00     0.062 A 
ATOM     17  C   UNL     1      41.965  31.334  64.390  1.00  0.00     0.158 A 
BRANCH  15  18
ATOM     18  O   UNL     1      40.244  30.048  65.498  1.00  0.00    -0.504 OA
ATOM     19  H   UNL     1      39.953  29.212  65.991  1.00  0.00     0.293 HD
ENDBRANCH  15  18
BRANCH  17  20
ATOM     20  O   UNL     1      40.985  31.977  63.634  1.00  0.00    -0.504 OA
ATOM     21  H   UNL     1      41.217  32.727  62.994  1.00  0.00     0.293 HD
ENDBRANCH  17  20
ENDBRANCH   1  12
BRANCH   2  22
ATOM     22  O   UNL     1      46.005  29.578  63.134  1.00  0.00    -0.502 OA
ATOM     23  H   UNL     1      45.368  29.694  62.353  1.00  0.00     0.293 HD
ENDBRANCH   2  22
BRANCH   6  24
ATOM     24  O   UNL     1      50.619  32.232  63.305  1.00  0.00    -0.507 OA
ATOM     25  H   UNL     1      50.997  32.824  62.582  1.00  0.00     0.293 HD
ENDBRANCH   6  24
BRANCH   8  26
ATOM     26  O   UNL     1      49.774  35.199  66.963  1.00  0.00    -0.508 OA
ATOM     27  H   UNL     1      50.213  34.981  67.850  1.00  0.00     0.293 HD
ENDBRANCH   8  26
TORSDOF 6
ENDMDL
MODEL 4
REMARK VINA RESULT:    -6.852     15.720     18.876
REMARK INTER + INTRA:          -8.329
REMARK INTER:                  -8.025
REMARK INTRA:                  -0.303
REMARK UNBOUND:                -0.075
REMARK SMILES O=c1c(O)c(-c2ccc(O)c(O)c2)oc2cc(O)cc(O)c12
REMARK SMILES IDX 5 1 3 2 2 3 1 4 22 5 20 6 19 7 17 8 16 9 15 10 14 11 6 12
REMARK SMILES IDX 7 13 8 14 9 15 13 16 11 17 10 18 12 20 4 22 21 24 18 26
REMARK H PARENT 10 19 12 21 4 23 21 25 18 27
REMARK Flexibility Score: inf
ROOT
ATOM      1  C   UNL     1      47.240  32.041  65.115  1.00  0.00     0.180 A 
ATOM      2  C   UNL     1      47.291  30.936  65.983  1.00  0.00     0.208 A 
ATOM      3  C   UNL     1      46.119  30.198  66.215  1.00  0.00     0.238 A 
ATOM      4  O   UNL     1      46.183  29.178  66.950  1.00  0.00    -0.285 OA
ATOM      5  C   UNL     1      44.909  30.584  65.591  1.00  0.00     0.111 A 
ATOM      6  C   UNL     1      43.654  29.933  65.786  1.00  0.00     0.134 A 
ATOM      7  C   UNL     1      42.549  30.318  65.016  1.00  0.00     0.093 A 
ATOM      8  C   UNL     1      42.637  31.372  64.107  1.00  0.00     0.123 A 
ATOM      9  C   UNL     1      43.844  32.053  63.951  1.00  0.00     0.094 A 
ATOM     10  C   UNL     1      44.973  31.669  64.678  1.00  0.00     0.146 A 
ATOM     11  O   UNL     1      46.105  32.338  64.493  1.00  0.00    -0.452 OA
ENDROOT
BRANCH   1  12
ATOM     12  C   UNL     1      48.428  32.882  64.840  1.00  0.00     0.025 A 
ATOM     13  C   UNL     1      49.394  32.498  63.893  1.00  0.00     0.016 A 
ATOM     14  C   UNL     1      50.519  33.295  63.667  1.00  0.00     0.051 A 
ATOM     15  C   UNL     1      50.702  34.479  64.394  1.00  0.00     0.157 A 
ATOM     16  C   UNL     1      48.628  34.060  65.580  1.00  0.00     0.062 A 
ATOM     17  C   UNL     1      49.756  34.860  65.353  1.00  0.00     0.158 A 
BRANCH  15  18
ATOM     18  O   UNL     1      51.823  35.278  64.171  1.00  0.00    -0.504 OA
ATOM     19  H   UNL     1      52.250  35.811  64.918  1.00  0.00     0.293 HD
ENDBRANCH  15  18
BRANCH  17  20
ATOM     20  O   UNL     1      49.945  36.035  66.080  1.00  0.00    -0.504 OA
ATOM     21  H   UNL     1      49.515  36.172  66.987  1.00  0.00     0.293 HD
ENDBRANCH  17  20
ENDBRANCH   1  12
BRANCH   2  22
ATOM     22  O   UNL     1      48.502  30.561  66.571  1.00  0.00    -0.502 OA
ATOM     23  H   UNL     1      49.390  30.964  66.294  1.00  0.00     0.293 HD
ENDBRANCH   2  22
BRANCH   6  24
ATOM     24  O   UNL     1      43.434  28.930  66.735  1.00  0.00    -0.507 OA
ATOM     25  H   UNL     1      42.774  28.175  66.631  1.00  0.00     0.293 HD
ENDBRANCH   6  24
BRANCH   8  26
ATOM     26  O   UNL     1      41.514  31.738  63.369  1.00  0.00    -0.508 OA
ATOM     27  H   UNL     1      41.595  32.243  62.494  1.00  0.00     0.293 HD
ENDBRANCH   8  26
TORSDOF 6
ENDMDL
MODEL 5
REMARK VINA RESULT:    -6.779     16.649     18.952
REMARK INTER + INTRA:          -8.241
REMARK INTER:                  -7.944
REMARK INTRA:                  -0.297
REMARK UNBOUND:                -0.075
REMARK SMILES O=c1c(O)c(-c2ccc(O)c(O)c2)oc2cc(O)cc(O)c12
REMARK SMILES IDX 5 1 3 2 2 3 1 4 22 5 20 6 19 7 17 8 16 9 15 10 14 11 6 12
REMARK SMILES IDX 7 13 8 14 9 15 13 16 11 17 10 18 12 20 4 22 21 24 18 26
REMARK H PARENT 10 19 12 21 4 23 21 25 18 27
REMARK Flexibility Score: inf
ROOT
ATOM      1  C   UNL     1      45.226  30.976  64.946  1.00  0.00     0.180 A 
ATOM      2  C   UNL     1      45.507  32.350  64.843  1.00  0.00     0.208 A 
ATOM      3  C   UNL     1      46.752  32.825  65.286  1.00  0.00     0.238 A 
ATOM      4  O   UNL     1      47.019  34.047  65.141  1.00  0.00    -0.285 OA
ATOM      5  C   UNL     1      47.692  31.925  65.842  1.00  0.00     0.111 A 
ATOM      6  C   UNL     1      48.967  32.303  66.360  1.00  0.00     0.134 A 
ATOM      7  C   UNL     1      49.869  31.312  66.766  1.00  0.00     0.093 A 
ATOM      8  C   UNL     1      49.520  29.963  66.734  1.00  0.00     0.123 A 
ATOM      9  C   UNL     1      48.254  29.586  66.286  1.00  0.00     0.094 A 
ATOM     10  C   UNL     1      47.345  30.549  65.840  1.00  0.00     0.146 A 
ATOM     11  O   UNL     1      46.154  30.148  65.411  1.00  0.00    -0.452 OA
ENDROOT
BRANCH   1  12
ATOM     12  C   UNL     1      43.928  30.404  64.523  1.00  0.00     0.025 A 
ATOM     13  C   UNL     1      43.769  29.800  63.263  1.00  0.00     0.016 A 
ATOM     14  C   UNL     1      42.528  29.288  62.875  1.00  0.00     0.051 A 
ATOM     15  C   UNL     1      41.425  29.386  63.734  1.00  0.00     0.157 A 
ATOM     16  C   UNL     1      42.813  30.517  65.371  1.00  0.00     0.062 A 
ATOM     17  C   UNL     1      41.568  30.004  64.982  1.00  0.00     0.158 A 
BRANCH  15  18
ATOM     18  O   UNL     1      40.186  28.876  63.351  1.00  0.00    -0.504 OA
ATOM     19  H   UNL     1      39.797  29.060  62.434  1.00  0.00     0.293 HD
ENDBRANCH  15  18
BRANCH  17  20
ATOM     20  O   UNL     1      40.466  30.106  65.832  1.00  0.00    -0.504 OA
ATOM     21  H   UNL     1      40.148  31.001  66.181  1.00  0.00     0.293 HD
ENDBRANCH  17  20
ENDBRANCH   1  12
BRANCH   2  22
ATOM     22  O   UNL     1      44.572  33.217  64.271  1.00  0.00    -0.502 OA
ATOM     23  H   UNL     1      44.843  33.998  63.685  1.00  0.00     0.293 HD
ENDBRANCH   2  22
BRANCH   6  24
ATOM     24  O   UNL     1      49.383  33.629  66.521  1.00  0.00    -0.507 OA
ATOM     25  H   UNL     1      49.701  34.030  67.389  1.00  0.00     0.293 HD
ENDBRANCH   6  24
BRANCH   8  26
ATOM     26  O   UNL     1      50.436  29.005  67.160  1.00  0.00    -0.508 OA
ATOM     27  H   UNL     1      50.709  28.928  68.133  1.00  0.00     0.293 HD
ENDBRANCH   8  26
TORSDOF 6
ENDMDL
MODEL 6
REMARK VINA RESULT:    -6.746     19.122     21.668
REMARK INTER + INTRA:          -8.201
REMARK INTER:                  -7.876
REMARK INTRA:                  -0.325
REMARK UNBOUND:                -0.075
REMARK SMILES O=c1c(O)c(-c2ccc(O)c(O)c2)oc2cc(O)cc(O)c12
REMARK SMILES IDX 5 1 3 2 2 3 1 4 22 5 20 6 19 7 17 8 16 9 15 10 14 11 6 12
REMARK SMILES IDX 7 13 8 14 9 15 13 16 11 17 10 18 12 20 4 22 21 24 18 26
REMARK H PARENT 10 19 12 21 4 23 21 25 18 27
REMARK Flexibility Score: inf
ROOT
ATOM      1  C   UNL     1      39.083  31.887  64.800  1.00  0.00     0.180 A 
ATOM      2  C   UNL     1      38.613  32.962  65.576  1.00  0.00     0.208 A 
ATOM      3  C   UNL     1      37.231  33.210  65.629  1.00  0.00     0.238 A 
ATOM      4  O   UNL     1      36.812  34.138  66.368  1.00  0.00    -0.285 OA
ATOM      5  C   UNL     1      36.341  32.392  64.893  1.00  0.00     0.111 A 
ATOM      6  C   UNL     1      34.926  32.577  64.842  1.00  0.00     0.134 A 
ATOM      7  C   UNL     1      34.129  31.630  64.188  1.00  0.00     0.093 A 
ATOM      8  C   UNL     1      34.698  30.541  63.529  1.00  0.00     0.123 A 
ATOM      9  C   UNL     1      36.084  30.383  63.522  1.00  0.00     0.094 A 
ATOM     10  C   UNL     1      36.904  31.291  64.197  1.00  0.00     0.146 A 
ATOM     11  O   UNL     1      38.217  31.098  64.175  1.00  0.00    -0.452 OA
ENDROOT
BRANCH   1  12
ATOM     12  C   UNL     1      40.526  31.579  64.675  1.00  0.00     0.025 A 
ATOM     13  C   UNL     1      41.341  32.249  63.746  1.00  0.00     0.016 A 
ATOM     14  C   UNL     1      42.695  31.924  63.629  1.00  0.00     0.051 A 
ATOM     15  C   UNL     1      43.250  30.916  64.427  1.00  0.00     0.157 A 
ATOM     16  C   UNL     1      41.084  30.554  65.459  1.00  0.00     0.062 A 
ATOM     17  C   UNL     1      42.443  30.228  65.342  1.00  0.00     0.158 A 
BRANCH  15  18
ATOM     18  O   UNL     1      44.601  30.590  64.314  1.00  0.00    -0.504 OA
ATOM     19  H   UNL     1      45.147  30.866  63.507  1.00  0.00     0.293 HD
ENDBRANCH  15  18
BRANCH  17  20
ATOM     20  O   UNL     1      42.996  29.221  66.131  1.00  0.00    -0.504 OA
ATOM     21  H   UNL     1      42.753  28.247  65.995  1.00  0.00     0.293 HD
ENDBRANCH  17  20
ENDBRANCH   1  12
BRANCH   2  22
ATOM     22  O   UNL     1      39.509  33.742  66.311  1.00  0.00    -0.502 OA
ATOM     23  H   UNL     1      39.825  33.480  67.237  1.00  0.00     0.293 HD
ENDBRANCH   2  22
BRANCH   6  24
ATOM     24  O   UNL     1      34.263  33.680  65.389  1.00  0.00    -0.507 OA
ATOM     25  H   UNL     1      34.410  34.035  66.321  1.00  0.00     0.293 HD
ENDBRANCH   6  24
BRANCH   8  26
ATOM     26  O   UNL     1      33.876  29.627  62.875  1.00  0.00    -0.508 OA
ATOM     27  H   UNL     1      33.632  28.737  63.295  1.00  0.00     0.293 HD
ENDBRANCH   8  26
TORSDOF 6
ENDMDL
MODEL 7
REMARK VINA RESULT:    -6.541      3.341      8.003
REMARK INTER + INTRA:          -7.953
REMARK INTER:                  -7.649
REMARK INTRA:                  -0.305
REMARK UNBOUND:                -0.075
REMARK SMILES O=c1c(O)c(-c2ccc(O)c(O)c2)oc2cc(O)cc(O)c12
REMARK SMILES IDX 5 1 3 2 2 3 1 4 22 5 20 6 19 7 17 8 16 9 15 10 14 11 6 12
REMARK SMILES IDX 7 13 8 14 9 15 13 16 11 17 10 18 12 20 4 22 21 24 18 26
REMARK H PARENT 10 19 12 21 4 23 21 25 18 27
REMARK Flexibility Score: inf
ROOT
ATOM      1  C   UNL     1      49.300  44.113  74.008  1.00  0.00     0.180 A 
ATOM      2  C   UNL     1      49.032  44.633  75.287  1.00  0.00     0.208 A 
ATOM      3  C   UNL     1      48.267  43.871  76.185  1.00  0.00     0.238 A 
ATOM      4  O   UNL     1      48.078  44.318  77.346  1.00  0.00    -0.285 OA
ATOM      5  C   UNL     1      47.765  42.609  75.788  1.00  0.00     0.111 A 
ATOM      6  C   UNL     1      46.946  41.770  76.602  1.00  0.00     0.134 A 
ATOM      7  C   UNL     1      46.615  40.485  76.157  1.00  0.00     0.093 A 
ATOM      8  C   UNL     1      47.019  40.032  74.901  1.00  0.00     0.123 A 
ATOM      9  C   UNL     1      47.770  40.865  74.073  1.00  0.00     0.094 A 
ATOM     10  C   UNL     1      48.147  42.140  74.504  1.00  0.00     0.146 A 
ATOM     11  O   UNL     1      48.871  42.897  73.689  1.00  0.00    -0.452 OA
ENDROOT
BRANCH   1  12
ATOM     12  C   UNL     1      50.078  44.867  72.998  1.00  0.00     0.025 A 
ATOM     13  C   UNL     1      51.484  44.871  73.011  1.00  0.00     0.016 A 
ATOM     14  C   UNL     1      52.197  45.609  72.062  1.00  0.00     0.051 A 
ATOM     15  C   UNL     1      51.516  46.364  71.099  1.00  0.00     0.157 A 
ATOM     16  C   UNL     1      49.401  45.643  72.042  1.00  0.00     0.062 A 
ATOM     17  C   UNL     1      50.116  46.384  71.091  1.00  0.00     0.158 A 
BRANCH  15  18
ATOM     18  O   UNL     1      52.224  47.102  70.151  1.00  0.00    -0.504 OA
ATOM     19  H   UNL     1      52.770  46.649  69.427  1.00  0.00     0.293 HD
ENDBRANCH  15  18
BRANCH  17  20
ATOM     20  O   UNL     1      49.441  47.143  70.135  1.00  0.00    -0.504 OA
ATOM     21  H   UNL     1      48.822  47.899  70.400  1.00  0.00     0.293 HD
ENDBRANCH  17  20
ENDBRANCH   1  12
BRANCH   2  22
ATOM     22  O   UNL     1      49.556  45.872  75.665  1.00  0.00    -0.502 OA
ATOM     23  H   UNL     1      49.259  46.741  75.236  1.00  0.00     0.293 HD
ENDBRANCH   2  22
BRANCH   6  24
ATOM     24  O   UNL     1      46.412  42.160  77.835  1.00  0.00    -0.507 OA
ATOM     25  H   UNL     1      45.474  41.959  78.144  1.00  0.00     0.293 HD
ENDBRANCH   6  24
BRANCH   8  26
ATOM     26  O   UNL     1      46.659  38.753  74.484  1.00  0.00    -0.508 OA
ATOM     27  H   UNL     1      46.378  38.566  73.528  1.00  0.00     0.293 HD
ENDBRANCH   8  26
TORSDOF 6
ENDMDL
MODEL 8
REMARK VINA RESULT:    -6.286     14.661     17.083
REMARK INTER + INTRA:          -7.647
REMARK INTER:                  -7.328
REMARK INTRA:                  -0.319
REMARK UNBOUND:                -0.075
REMARK SMILES O=c1c(O)c(-c2ccc(O)c(O)c2)oc2cc(O)cc(O)c12
REMARK SMILES IDX 5 1 3 2 2 3 1 4 22 5 20 6 19 7 17 8 16 9 15 10 14 11 6 12
REMARK SMILES IDX 7 13 8 14 9 15 13 16 11 17 10 18 12 20 4 22 21 24 18 26
REMARK H PARENT 10 19 12 21 4 23 21 25 18 27
REMARK Flexibility Score: inf
ROOT
ATOM      1  C   UNL     1      50.636  34.969  64.985  1.00  0.00     0.180 A 
ATOM      2  C   UNL     1      50.781  34.073  63.912  1.00  0.00     0.208 A 
ATOM      3  C   UNL     1      49.967  32.929  63.866  1.00  0.00     0.238 A 
ATOM      4  O   UNL     1      50.063  32.159  62.875  1.00  0.00    -0.285 OA
ATOM      5  C   UNL     1      49.034  32.687  64.902  1.00  0.00     0.111 A 
ATOM      6  C   UNL     1      48.187  31.540  64.978  1.00  0.00     0.134 A 
ATOM      7  C   UNL     1      47.210  31.468  65.978  1.00  0.00     0.093 A 
ATOM      8  C   UNL     1      47.089  32.469  66.941  1.00  0.00     0.123 A 
ATOM      9  C   UNL     1      47.951  33.566  66.911  1.00  0.00     0.094 A 
ATOM     10  C   UNL     1      48.913  33.684  65.905  1.00  0.00     0.146 A 
ATOM     11  O   UNL     1      49.706  34.749  65.906  1.00  0.00    -0.452 OA
ENDROOT
BRANCH   1  12
ATOM     12  C   UNL     1      51.474  36.184  65.115  1.00  0.00     0.025 A 
ATOM     13  C   UNL     1      52.641  36.188  65.900  1.00  0.00     0.016 A 
ATOM     14  C   UNL     1      53.403  37.352  66.027  1.00  0.00     0.051 A 
ATOM     15  C   UNL     1      53.002  38.531  65.386  1.00  0.00     0.157 A 
ATOM     16  C   UNL     1      51.066  37.375  64.491  1.00  0.00     0.062 A 
ATOM     17  C   UNL     1      51.830  38.543  64.619  1.00  0.00     0.158 A 
BRANCH  15  18
ATOM     18  O   UNL     1      53.760  39.695  65.510  1.00  0.00    -0.504 OA
ATOM     19  H   UNL     1      54.660  39.694  65.975  1.00  0.00     0.293 HD
ENDBRANCH  15  18
BRANCH  17  20
ATOM     20  O   UNL     1      51.430  39.720  63.987  1.00  0.00    -0.504 OA
ATOM     21  H   UNL     1      51.880  40.046  63.141  1.00  0.00     0.293 HD
ENDBRANCH  17  20
ENDBRANCH   1  12
BRANCH   2  22
ATOM     22  O   UNL     1      51.694  34.343  62.889  1.00  0.00    -0.502 OA
ATOM     23  H   UNL     1      51.422  34.383  61.914  1.00  0.00     0.293 HD
ENDBRANCH   2  22
BRANCH   6  24
ATOM     24  O   UNL     1      48.285  30.440  64.120  1.00  0.00    -0.507 OA
ATOM     25  H   UNL     1      48.636  29.533  64.386  1.00  0.00     0.293 HD
ENDBRANCH   6  24
BRANCH   8  26
ATOM     26  O   UNL     1      46.116  32.357  67.930  1.00  0.00    -0.508 OA
ATOM     27  H   UNL     1      45.874  33.140  68.528  1.00  0.00     0.293 HD
ENDBRANCH   8  26
TORSDOF 6
ENDMDL
MODEL 9
REMARK VINA RESULT:    -6.100      2.811      4.875
REMARK INTER + INTRA:          -7.422
REMARK INTER:                  -7.198
REMARK INTRA:                  -0.225
REMARK UNBOUND:                -0.075
REMARK SMILES O=c1c(O)c(-c2ccc(O)c(O)c2)oc2cc(O)cc(O)c12
REMARK SMILES IDX 5 1 3 2 2 3 1 4 22 5 20 6 19 7 17 8 16 9 15 10 14 11 6 12
REMARK SMILES IDX 7 13 8 14 9 15 13 16 11 17 10 18 12 20 4 22 21 24 18 26
REMARK H PARENT 10 19 12 21 4 23 21 25 18 27
REMARK Flexibility Score: inf
ROOT
ATOM      1  C   UNL     1      49.696  44.314  74.836  1.00  0.00     0.180 A 
ATOM      2  C   UNL     1      51.079  44.062  74.851  1.00  0.00     0.208 A 
ATOM      3  C   UNL     1      51.847  44.410  73.728  1.00  0.00     0.238 A 
ATOM      4  O   UNL     1      53.092  44.232  73.769  1.00  0.00    -0.285 OA
ATOM      5  C   UNL     1      51.220  44.989  72.599  1.00  0.00     0.111 A 
ATOM      6  C   UNL     1      51.894  45.343  71.391  1.00  0.00     0.134 A 
ATOM      7  C   UNL     1      51.199  46.030  70.389  1.00  0.00     0.093 A 
ATOM      8  C   UNL     1      49.841  46.317  70.521  1.00  0.00     0.123 A 
ATOM      9  C   UNL     1      49.158  45.922  71.672  1.00  0.00     0.094 A 
ATOM     10  C   UNL     1      49.833  45.268  72.705  1.00  0.00     0.146 A 
ATOM     11  O   UNL     1      49.149  44.919  73.788  1.00  0.00    -0.452 OA
ENDROOT
BRANCH   1  12
ATOM     12  C   UNL     1      48.818  43.953  75.972  1.00  0.00     0.025 A 
ATOM     13  C   UNL     1      48.873  44.651  77.191  1.00  0.00     0.016 A 
ATOM     14  C   UNL     1      48.051  44.277  78.258  1.00  0.00     0.051 A 
ATOM     15  C   UNL     1      47.175  43.193  78.127  1.00  0.00     0.157 A 
ATOM     16  C   UNL     1      47.951  42.853  75.854  1.00  0.00     0.062 A 
ATOM     17  C   UNL     1      47.127  42.478  76.924  1.00  0.00     0.158 A 
BRANCH  15  18
ATOM     18  O   UNL     1      46.353  42.817  79.189  1.00  0.00    -0.504 OA
ATOM     19  H   UNL     1      46.020  43.493  79.866  1.00  0.00     0.293 HD
ENDBRANCH  15  18
BRANCH  17  20
ATOM     20  O   UNL     1      46.258  41.394  76.798  1.00  0.00    -0.504 OA
ATOM     21  H   UNL     1      45.353  41.385  77.252  1.00  0.00     0.293 HD
ENDBRANCH  17  20
ENDBRANCH   1  12
BRANCH   2  22
ATOM     22  O   UNL     1      51.680  43.509  75.985  1.00  0.00    -0.502 OA
ATOM     23  H   UNL     1      51.516  43.870  76.918  1.00  0.00     0.293 HD
ENDBRANCH   2  22
BRANCH   6  24
ATOM     24  O   UNL     1      53.227  45.022  71.119  1.00  0.00    -0.507 OA
ATOM     25  H   UNL     1      53.577  44.738  70.217  1.00  0.00     0.293 HD
ENDBRANCH   6  24
BRANCH   8  26
ATOM     26  O   UNL     1      49.177  46.987  69.496  1.00  0.00    -0.508 OA
ATOM     27  H   UNL     1      48.658  47.841  69.669  1.00  0.00     0.293 HD
ENDBRANCH   8  26
TORSDOF 6
ENDMDL
