MODEL 1
REMARK VINA RESULT:    -5.374      0.000      0.000
REMARK INTER + INTRA:          -7.808
REMARK INTER:                  -7.573
REMARK INTRA:                  -0.235
REMARK UNBOUND:                -0.235
REMARK SMILES CC1=CCC(=C(C)C)C(=O)CC(C)=CCC1
REMARK SMILES IDX 12 1 14 2 13 3 15 4 16 5 2 6 1 7 3 8 11 10 9 11 10 12 5 13
REMARK SMILES IDX 6 14 7 15 8 16 4 17
REMARK H PARENT
REMARK Flexibility Score: 60.00
ROOT
ATOM      1  C   UNL     1      -1.443  -0.027  28.166  1.00  0.00    -0.070 C 
ATOM      2  C   UNL     1      -2.280   1.008  28.417  1.00  0.00    -0.027 C 
ATOM      3  C   UNL     1       0.038   0.270  28.173  1.00  0.00     0.039 C 
ENDROOT
BRANCH   2   4
ATOM      4  C   UNL     1      -3.783   0.942  28.504  1.00  0.00     0.032 C 
BRANCH   4   5
ATOM      5  C   UNL     1      -4.356   0.830  29.937  1.00  0.00     0.034 C 
BRANCH   5   6
ATOM      6  C   UNL     1      -4.703  -0.580  30.397  1.00  0.00    -0.077 C 
ATOM      7  C   UNL     1      -6.093  -1.088  30.099  1.00  0.00     0.039 C 
ATOM      8  C   UNL     1      -3.881  -1.399  31.107  1.00  0.00    -0.023 CG0
ATOM      9  G   UNL     1      -2.403  -1.250  31.439  1.00  0.00     0.000 G0
ENDBRANCH   5   6
ENDBRANCH   4   5
ENDBRANCH   2   4
BRANCH   1  10
ATOM     10  C   UNL     1      -1.879  -1.468  27.929  1.00  0.00     0.111 C 
BRANCH  10  11
ATOM     11  C   UNL     1      -1.905  -2.375  29.138  1.00  0.00     0.163 C 
ATOM     12  O   UNL     1      -2.354  -3.539  28.955  1.00  0.00    -0.294 OA
BRANCH  11  13
ATOM     13  C   UNL     1      -1.420  -1.964  30.506  1.00  0.00    -0.002 C 
ATOM     14  C   UNL     1      -0.125  -2.167  30.909  1.00  0.00    -0.069 C 
ATOM     15  C   UNL     1       0.865  -2.954  30.080  1.00  0.00     0.039 C 
ATOM     16  C   UNL     1       0.378  -1.639  32.237  1.00  0.00     0.039 C 
BRANCH  13  17
ATOM     17  C   UNL     1      -2.394  -1.250  31.429  1.00  0.00     0.066 CG0
ATOM     18  G   UNL     1      -3.875  -1.403  31.113  1.00  0.00     0.000 G0
ENDBRANCH  13  17
ENDBRANCH  11  13
ENDBRANCH  10  11
ENDBRANCH   1  10
TORSDOF 0
ENDMDL
MODEL 2
REMARK VINA RESULT:    -5.358     11.812     14.009
REMARK INTER + INTRA:          -7.786
REMARK INTER:                  -7.552
REMARK INTRA:                  -0.234
REMARK UNBOUND:                -0.235
REMARK SMILES CC1=CCC(=C(C)C)C(=O)CC(C)=CCC1
REMARK SMILES IDX 12 1 14 2 13 3 15 4 16 5 2 6 1 7 3 8 11 10 9 11 10 12 5 13
REMARK SMILES IDX 6 14 7 15 8 16 4 17
REMARK H PARENT
REMARK Flexibility Score: 60.00
ROOT
ATOM      1  C   UNL     1       1.086   0.400  19.193  1.00  0.00    -0.070 C 
ATOM      2  C   UNL     1       1.982   1.394  18.987  1.00  0.00    -0.027 C 
ATOM      3  C   UNL     1      -0.375   0.779  19.181  1.00  0.00     0.039 C 
ENDROOT
BRANCH   2   4
ATOM      4  C   UNL     1       3.481   1.247  18.912  1.00  0.00     0.032 C 
BRANCH   4   5
ATOM      5  C   UNL     1       4.078   1.293  17.486  1.00  0.00     0.034 C 
BRANCH   5   6
ATOM      6  C   UNL     1       4.349  -0.060  16.843  1.00  0.00    -0.077 C 
ATOM      7  C   UNL     1       5.745  -0.622  16.962  1.00  0.00     0.039 C 
ATOM      8  C   UNL     1       3.450  -0.780  16.118  1.00  0.00    -0.023 CG0
ATOM      9  G   UNL     1       1.954  -0.569  15.932  1.00  0.00     0.000 G0
ENDBRANCH   5   6
ENDBRANCH   4   5
ENDBRANCH   2   4
BRANCH   1  10
ATOM     10  C   UNL     1       1.440  -1.071  19.384  1.00  0.00     0.111 C 
BRANCH  10  11
ATOM     11  C   UNL     1       1.534  -1.912  18.133  1.00  0.00     0.163 C 
ATOM     12  O   UNL     1       2.050  -3.056  18.264  1.00  0.00    -0.294 OA
BRANCH  11  13
ATOM     13  C   UNL     1       1.040  -1.463  16.779  1.00  0.00    -0.002 C 
ATOM     14  C   UNL     1      -0.213  -1.778  16.322  1.00  0.00    -0.069 C 
ATOM     15  C   UNL     1      -1.130  -2.724  17.065  1.00  0.00     0.039 C 
ATOM     16  C   UNL     1      -0.738  -1.217  15.016  1.00  0.00     0.039 C 
BRANCH  13  17
ATOM     17  C   UNL     1       1.952  -0.585  15.938  1.00  0.00     0.066 CG0
ATOM     18  G   UNL     1       3.450  -0.775  16.125  1.00  0.00     0.000 G0
ENDBRANCH  13  17
ENDBRANCH  11  13
ENDBRANCH  10  11
ENDBRANCH   1  10
TORSDOF 0
ENDMDL
MODEL 3
REMARK VINA RESULT:    -5.006     11.174     12.939
REMARK INTER + INTRA:          -7.290
REMARK INTER:                  -6.892
REMARK INTRA:                  -0.398
REMARK UNBOUND:                -0.235
REMARK SMILES CC1=CCC(=C(C)C)C(=O)CC(C)=CCC1
REMARK SMILES IDX 12 1 14 2 13 3 15 4 16 5 2 6 1 7 3 8 11 10 9 11 10 12 5 13
REMARK SMILES IDX 6 14 7 15 8 16 4 17
REMARK H PARENT
REMARK Flexibility Score: 60.00
ROOT
ATOM      1  C   UNL     1       3.312   0.240  17.982  1.00  0.00    -0.070 C 
ATOM      2  C   UNL     1       2.542   1.281  18.375  1.00  0.00    -0.027 C 
ATOM      3  C   UNL     1       4.513   0.559  17.125  1.00  0.00     0.039 C 
ENDROOT
BRANCH   2   4
ATOM      4  C   UNL     1       1.326   1.211  19.263  1.00  0.00     0.032 C 
BRANCH   4   5
ATOM      5  C   UNL     1       0.093   0.514  18.640  1.00  0.00     0.034 C 
BRANCH   5   6
ATOM      6  C   UNL     1      -0.470  -0.657  19.433  1.00  0.00    -0.077 C 
ATOM      7  C   UNL     1      -1.039  -0.365  20.800  1.00  0.00     0.039 C 
ATOM      8  C   UNL     1      -0.451  -1.958  19.032  1.00  0.00    -0.023 CG0
ATOM      9  G   UNL     1      -0.087  -2.559  17.682  1.00  0.00     0.000 G0
ENDBRANCH   5   6
ENDBRANCH   4   5
ENDBRANCH   2   4
BRANCH   1  10
ATOM     10  C   UNL     1       3.086  -1.215  18.379  1.00  0.00     0.111 C 
BRANCH  10  11
ATOM     11  C   UNL     1       2.435  -2.105  17.346  1.00  0.00     0.163 C 
ATOM     12  O   UNL     1       3.150  -3.033  16.877  1.00  0.00    -0.294 OA
BRANCH  11  13
ATOM     13  C   UNL     1       1.010  -1.944  16.876  1.00  0.00    -0.002 C 
ATOM     14  C   UNL     1       0.697  -1.279  15.719  1.00  0.00    -0.069 C 
ATOM     15  C   UNL     1       1.733  -0.527  14.914  1.00  0.00     0.039 C 
ATOM     16  C   UNL     1      -0.724  -1.233  15.198  1.00  0.00     0.039 C 
BRANCH  13  17
ATOM     17  C   UNL     1      -0.092  -2.598  17.692  1.00  0.00     0.066 CG0
ATOM     18  G   UNL     1      -0.439  -1.946  19.024  1.00  0.00     0.000 G0
ENDBRANCH  13  17
ENDBRANCH  11  13
ENDBRANCH  10  11
ENDBRANCH   1  10
TORSDOF 0
ENDMDL
MODEL 4
REMARK VINA RESULT:    -4.950      1.753      3.708
REMARK INTER + INTRA:          -7.211
REMARK INTER:                  -6.984
REMARK INTRA:                  -0.227
REMARK UNBOUND:                -0.235
REMARK SMILES CC1=CCC(=C(C)C)C(=O)CC(C)=CCC1
REMARK SMILES IDX 12 1 14 2 13 3 15 4 16 5 2 6 1 7 3 8 11 10 9 11 10 12 5 13
REMARK SMILES IDX 6 14 7 15 8 16 4 17
REMARK H PARENT
REMARK Flexibility Score: 60.00
ROOT
ATOM      1  C   UNL     1      -3.655  -0.422  29.215  1.00  0.00    -0.070 C 
ATOM      2  C   UNL     1      -3.035   0.731  28.869  1.00  0.00    -0.027 C 
ATOM      3  C   UNL     1      -4.886  -0.308  30.081  1.00  0.00     0.039 C 
ENDROOT
BRANCH   2   4
ATOM      4  C   UNL     1      -1.823   0.865  27.982  1.00  0.00     0.032 C 
BRANCH   4   5
ATOM      5  C   UNL     1      -0.524   0.238  28.541  1.00  0.00     0.034 C 
BRANCH   5   6
ATOM      6  C   UNL     1       0.092  -0.865  27.691  1.00  0.00    -0.077 C 
ATOM      7  C   UNL     1       0.484  -0.518  26.276  1.00  0.00     0.039 C 
ATOM      8  C   UNL     1       0.265  -2.156  28.085  1.00  0.00    -0.023 CG0
ATOM      9  G   UNL     1       0.110  -2.787  29.462  1.00  0.00     0.000 G0
ENDBRANCH   5   6
ENDBRANCH   4   5
ENDBRANCH   2   4
BRANCH   1  10
ATOM     10  C   UNL     1      -3.233  -1.814  28.756  1.00  0.00     0.111 C 
BRANCH  10  11
ATOM     11  C   UNL     1      -2.489  -2.661  29.762  1.00  0.00     0.163 C 
ATOM     12  O   UNL     1      -3.081  -3.700  30.166  1.00  0.00    -0.294 OA
BRANCH  11  13
ATOM     13  C   UNL     1      -1.109  -2.335  30.278  1.00  0.00    -0.002 C 
ATOM     14  C   UNL     1      -0.914  -1.694  31.474  1.00  0.00    -0.069 C 
ATOM     15  C   UNL     1      -2.058  -1.128  32.284  1.00  0.00     0.039 C 
ATOM     16  C   UNL     1       0.477  -1.484  32.036  1.00  0.00     0.039 C 
BRANCH  13  17
ATOM     17  C   UNL     1       0.088  -2.794  29.463  1.00  0.00     0.066 CG0
ATOM     18  G   UNL     1       0.280  -2.144  28.100  1.00  0.00     0.000 G0
ENDBRANCH  13  17
ENDBRANCH  11  13
ENDBRANCH  10  11
ENDBRANCH   1  10
TORSDOF 0
ENDMDL
MODEL 5
REMARK VINA RESULT:    -4.907      1.594      2.203
REMARK INTER + INTRA:          -7.150
REMARK INTER:                  -6.861
REMARK INTRA:                  -0.289
REMARK UNBOUND:                -0.235
REMARK SMILES CC1=CCC(=C(C)C)C(=O)CC(C)=CCC1
REMARK SMILES IDX 12 1 14 2 13 3 15 4 16 5 2 6 1 7 3 8 11 10 9 11 10 12 5 13
REMARK SMILES IDX 6 14 7 15 8 16 4 17
REMARK H PARENT
REMARK Flexibility Score: 60.00
ROOT
ATOM      1  C   UNL     1      -0.913  -0.571  28.253  1.00  0.00    -0.070 C 
ATOM      2  C   UNL     1      -1.964   0.143  27.786  1.00  0.00    -0.027 C 
ATOM      3  C   UNL     1      -0.218  -1.488  27.275  1.00  0.00     0.039 C 
ENDROOT
BRANCH   2   4
ATOM      4  C   UNL     1      -2.778   1.148  28.561  1.00  0.00     0.032 C 
BRANCH   4   5
ATOM      5  C   UNL     1      -4.104   0.609  29.149  1.00  0.00     0.034 C 
BRANCH   5   6
ATOM      6  C   UNL     1      -4.083   0.297  30.639  1.00  0.00    -0.077 C 
ATOM      7  C   UNL     1      -4.495   1.395  31.589  1.00  0.00     0.039 C 
ATOM      8  C   UNL     1      -3.667  -0.876  31.190  1.00  0.00    -0.023 CG0
ATOM      9  G   UNL     1      -3.331  -2.203  30.523  1.00  0.00     0.000 G0
ENDBRANCH   5   6
ENDBRANCH   4   5
ENDBRANCH   2   4
BRANCH   1  10
ATOM     10  C   UNL     1      -0.351  -0.480  29.668  1.00  0.00     0.111 C 
BRANCH  10  11
ATOM     11  C   UNL     1      -0.838  -1.514  30.656  1.00  0.00     0.163 C 
ATOM     12  O   UNL     1      -0.337  -1.462  31.812  1.00  0.00    -0.294 OA
BRANCH  11  13
ATOM     13  C   UNL     1      -1.873  -2.564  30.332  1.00  0.00    -0.002 C 
ATOM     14  C   UNL     1      -1.525  -3.827  29.927  1.00  0.00    -0.069 C 
ATOM     15  C   UNL     1      -0.095  -4.212  29.624  1.00  0.00     0.039 C 
ATOM     16  C   UNL     1      -2.571  -4.904  29.725  1.00  0.00     0.039 C 
BRANCH  13  17
ATOM     17  C   UNL     1      -3.338  -2.210  30.526  1.00  0.00     0.066 CG0
ATOM     18  G   UNL     1      -3.640  -0.875  31.191  1.00  0.00     0.000 G0
ENDBRANCH  13  17
ENDBRANCH  11  13
ENDBRANCH  10  11
ENDBRANCH   1  10
TORSDOF 0
ENDMDL
MODEL 6
REMARK VINA RESULT:    -4.884     11.752     13.744
REMARK INTER + INTRA:          -7.117
REMARK INTER:                  -6.885
REMARK INTRA:                  -0.233
REMARK UNBOUND:                -0.235
REMARK SMILES CC1=CCC(=C(C)C)C(=O)CC(C)=CCC1
REMARK SMILES IDX 12 1 14 2 13 3 15 4 16 5 2 6 1 7 3 8 11 10 9 11 10 12 5 13
REMARK SMILES IDX 6 14 7 15 8 16 4 17
REMARK H PARENT
REMARK Flexibility Score: 60.00
ROOT
ATOM      1  C   UNL     1       0.134  -0.385  18.813  1.00  0.00    -0.070 C 
ATOM      2  C   UNL     1       1.049   0.361  19.475  1.00  0.00    -0.027 C 
ATOM      3  C   UNL     1      -0.690  -1.348  19.632  1.00  0.00     0.039 C 
ENDROOT
BRANCH   2   4
ATOM      4  C   UNL     1       1.949   1.413  18.878  1.00  0.00     0.032 C 
BRANCH   4   5
ATOM      5  C   UNL     1       3.369   0.930  18.501  1.00  0.00     0.034 C 
BRANCH   5   6
ATOM      6  C   UNL     1       3.584   0.606  17.029  1.00  0.00    -0.077 C 
ATOM      7  C   UNL     1       4.081   1.716  16.135  1.00  0.00     0.039 C 
ATOM      8  C   UNL     1       3.310  -0.590  16.439  1.00  0.00    -0.023 CG0
ATOM      9  G   UNL     1       2.941  -1.927  17.067  1.00  0.00     0.000 G0
ENDBRANCH   5   6
ENDBRANCH   4   5
ENDBRANCH   2   4
BRANCH   1  10
ATOM     10  C   UNL     1      -0.158  -0.289  17.319  1.00  0.00     0.111 C 
BRANCH  10  11
ATOM     11  C   UNL     1       0.480  -1.336  16.436  1.00  0.00     0.163 C 
ATOM     12  O   UNL     1       0.144  -1.324  15.221  1.00  0.00    -0.294 OA
BRANCH  11  13
ATOM     13  C   UNL     1       1.480  -2.353  16.928  1.00  0.00    -0.002 C 
ATOM     14  C   UNL     1       1.122  -3.647  17.208  1.00  0.00    -0.069 C 
ATOM     15  C   UNL     1      -0.318  -4.107  17.196  1.00  0.00     0.039 C 
ATOM     16  C   UNL     1       2.159  -4.686  17.582  1.00  0.00     0.039 C 
BRANCH  13  17
ATOM     17  C   UNL     1       2.934  -1.929  17.054  1.00  0.00     0.066 CG0
ATOM     18  G   UNL     1       3.312  -0.588  16.440  1.00  0.00     0.000 G0
ENDBRANCH  13  17
ENDBRANCH  11  13
ENDBRANCH  10  11
ENDBRANCH   1  10
TORSDOF 0
ENDMDL
MODEL 7
REMARK VINA RESULT:    -4.835      9.968     11.733
REMARK INTER + INTRA:          -7.048
REMARK INTER:                  -6.914
REMARK INTRA:                  -0.134
REMARK UNBOUND:                -0.235
REMARK SMILES CC1=CCC(=C(C)C)C(=O)CC(C)=CCC1
REMARK SMILES IDX 12 1 14 2 13 3 15 4 16 5 2 6 1 7 3 8 11 10 9 11 10 12 5 13
REMARK SMILES IDX 6 14 7 15 8 16 4 17
REMARK H PARENT
REMARK Flexibility Score: 60.00
ROOT
ATOM      1  C   UNL     1       1.960   0.838  18.444  1.00  0.00    -0.070 C 
ATOM      2  C   UNL     1       0.982   1.328  19.241  1.00  0.00    -0.027 C 
ATOM      3  C   UNL     1       3.370   1.300  18.723  1.00  0.00     0.039 C 
ENDROOT
BRANCH   2   4
ATOM      4  C   UNL     1      -0.483   0.978  19.180  1.00  0.00     0.032 C 
BRANCH   4   5
ATOM      5  C   UNL     1      -1.002   0.109  20.349  1.00  0.00     0.034 C 
BRANCH   5   6
ATOM      6  C   UNL     1       0.057  -0.696  21.091  1.00  0.00    -0.077 C 
ATOM      7  C   UNL     1       0.617  -0.107  22.363  1.00  0.00     0.039 C 
ATOM      8  C   UNL     1       0.582  -1.878  20.670  1.00  0.00    -0.023 CG0
ATOM      9  G   UNL     1       0.147  -2.791  19.532  1.00  0.00     0.000 G0
ENDBRANCH   5   6
ENDBRANCH   4   5
ENDBRANCH   2   4
BRANCH   1  10
ATOM     10  C   UNL     1       1.751  -0.179  17.326  1.00  0.00     0.111 C 
BRANCH  10  11
ATOM     11  C   UNL     1       1.628  -1.626  17.742  1.00  0.00     0.163 C 
ATOM     12  O   UNL     1       2.699  -2.290  17.783  1.00  0.00    -0.294 OA
BRANCH  11  13
ATOM     13  C   UNL     1       0.321  -2.285  18.112  1.00  0.00    -0.002 C 
ATOM     14  C   UNL     1      -0.680  -2.477  17.195  1.00  0.00    -0.069 C 
ATOM     15  C   UNL     1      -0.615  -1.907  15.796  1.00  0.00     0.039 C 
ATOM     16  C   UNL     1      -1.934  -3.250  17.550  1.00  0.00     0.039 C 
BRANCH  13  17
ATOM     17  C   UNL     1       0.153  -2.798  19.532  1.00  0.00     0.066 CG0
ATOM     18  G   UNL     1       0.593  -1.869  20.654  1.00  0.00     0.000 G0
ENDBRANCH  13  17
ENDBRANCH  11  13
ENDBRANCH  10  11
ENDBRANCH   1  10
TORSDOF 0
ENDMDL
MODEL 8
REMARK VINA RESULT:    -4.776      2.288      4.123
REMARK INTER + INTRA:          -6.966
REMARK INTER:                  -6.886
REMARK INTRA:                  -0.079
REMARK UNBOUND:                -0.235
REMARK SMILES CC1=CCC(=C(C)C)C(=O)CC(C)=CCC1
REMARK SMILES IDX 12 1 14 2 13 3 15 4 16 5 2 6 1 7 3 8 11 10 9 11 10 12 5 13
REMARK SMILES IDX 6 14 7 15 8 16 4 17
REMARK H PARENT
REMARK Flexibility Score: 60.00
ROOT
ATOM      1  C   UNL     1      -2.197   0.264  28.891  1.00  0.00    -0.070 C 
ATOM      2  C   UNL     1      -1.245   0.863  28.137  1.00  0.00    -0.027 C 
ATOM      3  C   UNL     1      -3.618   0.740  28.709  1.00  0.00     0.039 C 
ENDROOT
BRANCH   2   4
ATOM      4  C   UNL     1       0.224   0.526  28.116  1.00  0.00     0.032 C 
BRANCH   4   5
ATOM      5  C   UNL     1       0.734  -0.122  26.807  1.00  0.00     0.034 C 
BRANCH   5   6
ATOM      6  C   UNL     1      -0.292  -0.943  26.037  1.00  0.00    -0.077 C 
ATOM      7  C   UNL     1      -0.945  -0.298  24.839  1.00  0.00     0.039 C 
ATOM      8  C   UNL     1      -0.712  -2.193  26.376  1.00  0.00    -0.023 CG0
ATOM      9  G   UNL     1      -0.164  -3.158  27.418  1.00  0.00     0.000 G0
ENDBRANCH   5   6
ENDBRANCH   4   5
ENDBRANCH   2   4
BRANCH   1  10
ATOM     10  C   UNL     1      -1.948  -0.881  29.867  1.00  0.00     0.111 C 
BRANCH  10  11
ATOM     11  C   UNL     1      -1.762  -2.255  29.265  1.00  0.00     0.163 C 
ATOM     12  O   UNL     1      -2.811  -2.928  29.074  1.00  0.00    -0.294 OA
BRANCH  11  13
ATOM     13  C   UNL     1      -0.420  -2.830  28.884  1.00  0.00    -0.002 C 
ATOM     14  C   UNL     1       0.549  -3.094  29.818  1.00  0.00    -0.069 C 
ATOM     15  C   UNL     1       0.406  -2.687  31.267  1.00  0.00     0.039 C 
ATOM     16  C   UNL     1       1.842  -3.785  29.436  1.00  0.00     0.039 C 
BRANCH  13  17
ATOM     17  C   UNL     1      -0.175  -3.176  27.425  1.00  0.00     0.066 CG0
ATOM     18  G   UNL     1      -0.713  -2.199  26.389  1.00  0.00     0.000 G0
ENDBRANCH  13  17
ENDBRANCH  11  13
ENDBRANCH  10  11
ENDBRANCH   1  10
TORSDOF 0
ENDMDL
MODEL 9
REMARK VINA RESULT:    -4.563     11.649     13.502
REMARK INTER + INTRA:          -6.665
REMARK INTER:                  -6.373
REMARK INTRA:                  -0.292
REMARK UNBOUND:                -0.235
REMARK SMILES CC1=CCC(=C(C)C)C(=O)CC(C)=CCC1
REMARK SMILES IDX 12 1 14 2 13 3 15 4 16 5 2 6 1 7 3 8 11 10 9 11 10 12 5 13
REMARK SMILES IDX 6 14 7 15 8 16 4 17
REMARK H PARENT
REMARK Flexibility Score: 60.00
ROOT
ATOM      1  C   UNL     1       1.146  -0.020  18.884  1.00  0.00    -0.070 C 
ATOM      2  C   UNL     1       0.914  -0.934  19.856  1.00  0.00    -0.027 C 
ATOM      3  C   UNL     1       2.037   1.147  19.237  1.00  0.00     0.039 C 
ENDROOT
BRANCH   2   4
ATOM      4  C   UNL     1       0.098  -2.195  19.723  1.00  0.00     0.032 C 
BRANCH   4   5
ATOM      5  C   UNL     1       0.916  -3.489  19.500  1.00  0.00     0.034 C 
BRANCH   5   6
ATOM      6  C   UNL     1       1.041  -3.946  18.053  1.00  0.00    -0.077 C 
ATOM      7  C   UNL     1      -0.003  -4.903  17.531  1.00  0.00     0.039 C 
ATOM      8  C   UNL     1       2.052  -3.608  17.207  1.00  0.00    -0.023 CG0
ATOM      9  G   UNL     1       3.159  -2.576  17.371  1.00  0.00     0.000 G0
ENDBRANCH   5   6
ENDBRANCH   4   5
ENDBRANCH   2   4
BRANCH   1  10
ATOM     10  C   UNL     1       0.618  -0.108  17.456  1.00  0.00     0.111 C 
BRANCH  10  11
ATOM     11  C   UNL     1       1.518  -0.775  16.442  1.00  0.00     0.163 C 
ATOM     12  O   UNL     1       1.026  -0.963  15.296  1.00  0.00    -0.294 OA
BRANCH  11  13
ATOM     13  C   UNL     1       2.936  -1.201  16.729  1.00  0.00    -0.002 C 
ATOM     14  C   UNL     1       4.005  -0.376  16.489  1.00  0.00    -0.069 C 
ATOM     15  C   UNL     1       3.859   0.950  15.777  1.00  0.00     0.039 C 
ATOM     16  C   UNL     1       5.410  -0.770  16.897  1.00  0.00     0.039 C 
BRANCH  13  17
ATOM     17  C   UNL     1       3.162  -2.565  17.360  1.00  0.00     0.066 CG0
ATOM     18  G   UNL     1       2.041  -3.584  17.212  1.00  0.00     0.000 G0
ENDBRANCH  13  17
ENDBRANCH  11  13
ENDBRANCH  10  11
ENDBRANCH   1  10
TORSDOF 0
ENDMDL
