MODEL 1
REMARK VINA RESULT:    -3.496      0.000      0.000
REMARK INTER + INTRA:          -4.283
REMARK INTER:                  -4.109
REMARK INTRA:                  -0.174
REMARK UNBOUND:                -0.174
REMARK SMILES O=C([O-])CCC(=O)[O-]
REMARK SMILES IDX 4 1 2 2 1 3 3 4 5 5 6 6 7 7 8 8
REMARK H PARENT
REMARK Flexibility Score: inf
ROOT
ATOM      1  C   UNL     1     -22.984 -29.261  40.611  1.00  0.00     0.059 C 
ENDROOT
BRANCH   1   2
ATOM      2  C   UNL     1     -22.486 -28.246  39.631  1.00  0.00     0.042 C 
ATOM      3  O   UNL     1     -22.017 -27.150  40.037  1.00  0.00    -0.550 OA
ATOM      4  O   UNL     1     -22.583 -28.490  38.266  1.00  0.00    -0.550 OA
ENDBRANCH   1   2
BRANCH   1   5
ATOM      5  C   UNL     1     -24.211 -28.730  41.353  1.00  0.00     0.059 C 
BRANCH   5   6
ATOM      6  C   UNL     1     -25.400 -28.703  40.446  1.00  0.00     0.042 C 
ATOM      7  O   UNL     1     -26.125 -27.676  40.380  1.00  0.00    -0.550 OA
ATOM      8  O   UNL     1     -25.737 -29.832  39.708  1.00  0.00    -0.550 OA
ENDBRANCH   5   6
ENDBRANCH   1   5
TORSDOF 3
ENDMDL
MODEL 2
REMARK VINA RESULT:    -3.482      0.112      3.318
REMARK INTER + INTRA:          -4.266
REMARK INTER:                  -4.110
REMARK INTRA:                  -0.156
REMARK UNBOUND:                -0.174
REMARK SMILES O=C([O-])CCC(=O)[O-]
REMARK SMILES IDX 4 1 2 2 1 3 3 4 5 5 6 6 7 7 8 8
REMARK H PARENT
REMARK Flexibility Score: inf
ROOT
ATOM      1  C   UNL     1     -24.216 -28.649  41.266  1.00  0.00     0.059 C 
ENDROOT
BRANCH   1   2
ATOM      2  C   UNL     1     -25.432 -28.627  40.394  1.00  0.00     0.042 C 
ATOM      3  O   UNL     1     -26.180 -27.615  40.376  1.00  0.00    -0.550 OA
ATOM      4  O   UNL     1     -25.765 -29.745  39.638  1.00  0.00    -0.550 OA
ENDBRANCH   1   2
BRANCH   1   5
ATOM      5  C   UNL     1     -23.030 -29.257  40.516  1.00  0.00     0.059 C 
BRANCH   5   6
ATOM      6  C   UNL     1     -22.428 -28.251  39.587  1.00  0.00     0.042 C 
ATOM      7  O   UNL     1     -21.861 -27.224  40.045  1.00  0.00    -0.550 OA
ATOM      8  O   UNL     1     -22.537 -28.421  38.212  1.00  0.00    -0.550 OA
ENDBRANCH   5   6
ENDBRANCH   1   5
TORSDOF 3
ENDMDL
MODEL 3
REMARK VINA RESULT:    -3.389      1.620      3.231
REMARK INTER + INTRA:          -4.157
REMARK INTER:                  -4.035
REMARK INTRA:                  -0.123
REMARK UNBOUND:                -0.174
REMARK SMILES O=C([O-])CCC(=O)[O-]
REMARK SMILES IDX 4 1 2 2 1 3 3 4 5 5 6 6 7 7 8 8
REMARK H PARENT
REMARK Flexibility Score: inf
ROOT
ATOM      1  C   UNL     1     -25.638 -29.293  40.032  1.00  0.00     0.059 C 
ENDROOT
BRANCH   1   2
ATOM      2  C   UNL     1     -25.371 -30.201  38.874  1.00  0.00     0.042 C 
ATOM      3  O   UNL     1     -24.890 -29.740  37.805  1.00  0.00    -0.550 OA
ATOM      4  O   UNL     1     -25.697 -31.550  38.958  1.00  0.00    -0.550 OA
ENDBRANCH   1   2
BRANCH   1   5
ATOM      5  C   UNL     1     -24.441 -29.274  40.984  1.00  0.00     0.059 C 
BRANCH   5   6
ATOM      6  C   UNL     1     -23.572 -28.089  40.707  1.00  0.00     0.042 C 
ATOM      7  O   UNL     1     -23.918 -26.943  41.097  1.00  0.00    -0.550 OA
ATOM      8  O   UNL     1     -22.401 -28.242  39.975  1.00  0.00    -0.550 OA
ENDBRANCH   5   6
ENDBRANCH   1   5
TORSDOF 3
ENDMDL
MODEL 4
REMARK VINA RESULT:    -3.375      1.620      2.145
REMARK INTER + INTRA:          -4.141
REMARK INTER:                  -4.017
REMARK INTRA:                  -0.124
REMARK UNBOUND:                -0.174
REMARK SMILES O=C([O-])CCC(=O)[O-]
REMARK SMILES IDX 4 1 2 2 1 3 3 4 5 5 6 6 7 7 8 8
REMARK H PARENT
REMARK Flexibility Score: inf
ROOT
ATOM      1  C   UNL     1     -24.428 -29.225  40.956  1.00  0.00     0.059 C 
ENDROOT
BRANCH   1   2
ATOM      2  C   UNL     1     -23.566 -28.035  40.671  1.00  0.00     0.042 C 
ATOM      3  O   UNL     1     -23.903 -26.895  41.085  1.00  0.00    -0.550 OA
ATOM      4  O   UNL     1     -22.415 -28.177  39.905  1.00  0.00    -0.550 OA
ENDBRANCH   1   2
BRANCH   1   5
ATOM      5  C   UNL     1     -25.621 -29.262  40.001  1.00  0.00     0.059 C 
BRANCH   5   6
ATOM      6  C   UNL     1     -25.341 -30.175  38.850  1.00  0.00     0.042 C 
ATOM      7  O   UNL     1     -24.880 -29.715  37.773  1.00  0.00    -0.550 OA
ATOM      8  O   UNL     1     -25.637 -31.529  38.949  1.00  0.00    -0.550 OA
ENDBRANCH   5   6
ENDBRANCH   1   5
TORSDOF 3
ENDMDL
MODEL 5
REMARK VINA RESULT:    -3.345      1.305      1.932
REMARK INTER + INTRA:          -4.106
REMARK INTER:                  -4.025
REMARK INTRA:                  -0.081
REMARK UNBOUND:                -0.174
REMARK SMILES O=C([O-])CCC(=O)[O-]
REMARK SMILES IDX 4 1 2 2 1 3 3 4 5 5 6 6 7 7 8 8
REMARK H PARENT
REMARK Flexibility Score: inf
ROOT
ATOM      1  C   UNL     1     -22.643 -28.520  39.157  1.00  0.00     0.059 C 
ENDROOT
BRANCH   1   2
ATOM      2  C   UNL     1     -21.664 -27.397  39.021  1.00  0.00     0.042 C 
ATOM      3  O   UNL     1     -21.380 -26.680  40.015  1.00  0.00    -0.550 OA
ATOM      4  O   UNL     1     -21.100 -27.112  37.783  1.00  0.00    -0.550 OA
ENDBRANCH   1   2
BRANCH   1   5
ATOM      5  C   UNL     1     -22.756 -28.956  40.618  1.00  0.00     0.059 C 
BRANCH   5   6
ATOM      6  C   UNL     1     -24.176 -28.873  41.081  1.00  0.00     0.042 C 
ATOM      7  O   UNL     1     -25.015 -29.736  40.711  1.00  0.00    -0.550 OA
ATOM      8  O   UNL     1     -24.586 -27.814  41.882  1.00  0.00    -0.550 OA
ENDBRANCH   5   6
ENDBRANCH   1   5
TORSDOF 3
ENDMDL
MODEL 6
REMARK VINA RESULT:    -3.308      1.563      2.545
REMARK INTER + INTRA:          -4.062
REMARK INTER:                  -3.931
REMARK INTRA:                  -0.131
REMARK UNBOUND:                -0.174
REMARK SMILES O=C([O-])CCC(=O)[O-]
REMARK SMILES IDX 4 1 2 2 1 3 3 4 5 5 6 6 7 7 8 8
REMARK H PARENT
REMARK Flexibility Score: inf
ROOT
ATOM      1  C   UNL     1     -23.550 -28.931  39.795  1.00  0.00     0.059 C 
ENDROOT
BRANCH   1   2
ATOM      2  C   UNL     1     -24.572 -29.520  38.875  1.00  0.00     0.042 C 
ATOM      3  O   UNL     1     -25.411 -30.351  39.311  1.00  0.00    -0.550 OA
ATOM      4  O   UNL     1     -24.568 -29.188  37.526  1.00  0.00    -0.550 OA
ENDBRANCH   1   2
BRANCH   1   5
ATOM      5  C   UNL     1     -24.129 -28.760  41.200  1.00  0.00     0.059 C 
BRANCH   5   6
ATOM      6  C   UNL     1     -24.890 -27.476  41.299  1.00  0.00     0.042 C 
ATOM      7  O   UNL     1     -24.283 -26.393  41.507  1.00  0.00    -0.550 OA
ATOM      8  O   UNL     1     -26.277 -27.481  41.210  1.00  0.00    -0.550 OA
ENDBRANCH   5   6
ENDBRANCH   1   5
TORSDOF 3
ENDMDL
MODEL 7
REMARK VINA RESULT:    -3.301      1.604      2.886
REMARK INTER + INTRA:          -4.053
REMARK INTER:                  -3.924
REMARK INTRA:                  -0.129
REMARK UNBOUND:                -0.174
REMARK SMILES O=C([O-])CCC(=O)[O-]
REMARK SMILES IDX 4 1 2 2 1 3 3 4 5 5 6 6 7 7 8 8
REMARK H PARENT
REMARK Flexibility Score: inf
ROOT
ATOM      1  C   UNL     1     -24.415 -28.885  41.110  1.00  0.00     0.059 C 
ENDROOT
BRANCH   1   2
ATOM      2  C   UNL     1     -24.973 -27.497  41.154  1.00  0.00     0.042 C 
ATOM      3  O   UNL     1     -26.199 -27.300  40.948  1.00  0.00    -0.550 OA
ATOM      4  O   UNL     1     -24.129 -26.415  41.374  1.00  0.00    -0.550 OA
ENDBRANCH   1   2
BRANCH   1   5
ATOM      5  C   UNL     1     -23.749 -29.151  39.759  1.00  0.00     0.059 C 
BRANCH   5   6
ATOM      6  C   UNL     1     -24.764 -29.598  38.755  1.00  0.00     0.042 C 
ATOM      7  O   UNL     1     -24.631 -29.293  37.541  1.00  0.00    -0.550 OA
ATOM      8  O   UNL     1     -25.884 -30.310  39.167  1.00  0.00    -0.550 OA
ENDBRANCH   5   6
ENDBRANCH   1   5
TORSDOF 3
ENDMDL
MODEL 8
REMARK VINA RESULT:    -3.271      1.825      4.134
REMARK INTER + INTRA:          -4.018
REMARK INTER:                  -3.978
REMARK INTRA:                  -0.040
REMARK UNBOUND:                -0.174
REMARK SMILES O=C([O-])CCC(=O)[O-]
REMARK SMILES IDX 4 1 2 2 1 3 3 4 5 5 6 6 7 7 8 8
REMARK H PARENT
REMARK Flexibility Score: inf
ROOT
ATOM      1  C   UNL     1     -22.695 -28.549  39.341  1.00  0.00     0.059 C 
ENDROOT
BRANCH   1   2
ATOM      2  C   UNL     1     -23.502 -29.315  40.342  1.00  0.00     0.042 C 
ATOM      3  O   UNL     1     -23.129 -29.375  41.543  1.00  0.00    -0.550 OA
ATOM      4  O   UNL     1     -24.641 -30.002  39.938  1.00  0.00    -0.550 OA
ENDBRANCH   1   2
BRANCH   1   5
ATOM      5  C   UNL     1     -22.020 -27.349  40.004  1.00  0.00     0.059 C 
BRANCH   5   6
ATOM      6  C   UNL     1     -21.036 -26.720  39.069  1.00  0.00     0.042 C 
ATOM      7  O   UNL     1     -21.045 -27.016  37.846  1.00  0.00    -0.550 OA
ATOM      8  O   UNL     1     -20.075 -25.843  39.559  1.00  0.00    -0.550 OA
ENDBRANCH   5   6
ENDBRANCH   1   5
TORSDOF 3
ENDMDL
MODEL 9
REMARK VINA RESULT:    -3.226      2.081      3.133
REMARK INTER + INTRA:          -3.965
REMARK INTER:                  -3.931
REMARK INTRA:                  -0.034
REMARK UNBOUND:                -0.174
REMARK SMILES O=C([O-])CCC(=O)[O-]
REMARK SMILES IDX 4 1 2 2 1 3 3 4 5 5 6 6 7 7 8 8
REMARK H PARENT
REMARK Flexibility Score: inf
ROOT
ATOM      1  C   UNL     1     -24.687 -27.738  41.470  1.00  0.00     0.059 C 
ENDROOT
BRANCH   1   2
ATOM      2  C   UNL     1     -24.120 -29.030  40.970  1.00  0.00     0.042 C 
ATOM      3  O   UNL     1     -24.884 -29.988  40.684  1.00  0.00    -0.550 OA
ATOM      4  O   UNL     1     -22.744 -29.191  40.864  1.00  0.00    -0.550 OA
ENDBRANCH   1   2
BRANCH   1   5
ATOM      5  C   UNL     1     -26.067 -27.488  40.860  1.00  0.00     0.059 C 
BRANCH   5   6
ATOM      6  C   UNL     1     -26.720 -26.311  41.511  1.00  0.00     0.042 C 
ATOM      7  O   UNL     1     -26.196 -25.169  41.430  1.00  0.00    -0.550 OA
ATOM      8  O   UNL     1     -27.884 -26.483  42.250  1.00  0.00    -0.550 OA
ENDBRANCH   5   6
ENDBRANCH   1   5
TORSDOF 3
ENDMDL
