MODEL 1
REMARK VINA RESULT:    -3.094      0.000      0.000
REMARK INTER + INTRA:          -5.922
REMARK INTER:                  -4.903
REMARK INTRA:                  -1.019
REMARK UNBOUND:                -1.019
REMARK SMILES CCCCCCCCCCCC=O
REMARK SMILES IDX 7 1 6 2 5 3 4 4 3 5 2 6 1 7 8 8 9 9 10 10 11 11 12 12 13 13
REMARK H PARENT
REMARK Flexibility Score: inf
ROOT
ATOM      1  C   UNL     1     163.040 173.617 168.163  1.00  0.00     0.000 C 
ENDROOT
BRANCH   1   2
ATOM      2  C   UNL     1     163.135 174.137 166.717  1.00  0.00     0.000 C 
BRANCH   2   3
ATOM      3  C   UNL     1     162.044 175.169 166.389  1.00  0.00    -0.000 C 
BRANCH   3   4
ATOM      4  C   UNL     1     161.398 175.770 167.651  1.00  0.00    -0.000 C 
BRANCH   4   5
ATOM      5  C   UNL     1     159.867 175.851 167.548  1.00  0.00    -0.000 C 
BRANCH   5   6
ATOM      6  C   UNL     1     159.229 174.504 167.176  1.00  0.00    -0.003 C 
ATOM      7  C   UNL     1     157.709 174.566 167.294  1.00  0.00     0.004 C 
ENDBRANCH   5   6
ENDBRANCH   4   5
ENDBRANCH   3   4
ENDBRANCH   2   3
ENDBRANCH   1   2
BRANCH   1   8
ATOM      8  C   UNL     1     163.253 172.097 168.258  1.00  0.00     0.000 C 
BRANCH   8   9
ATOM      9  C   UNL     1     162.412 171.448 169.369  1.00  0.00     0.000 C 
BRANCH   9  10
ATOM     10  C   UNL     1     161.231 172.346 169.755  1.00  0.00     0.008 C 
BRANCH  10  11
ATOM     11  C   UNL     1     160.081 171.518 170.341  1.00  0.00     0.072 C 
BRANCH  11  12
ATOM     12  C   UNL     1     158.800 171.788 169.610  1.00  0.00     0.224 C 
ATOM     13  O   UNL     1     158.584 171.268 168.527  1.00  0.00    -0.303 OA
ENDBRANCH  11  12
ENDBRANCH  10  11
ENDBRANCH   9  10
ENDBRANCH   8   9
ENDBRANCH   1   8
TORSDOF 10
ENDMDL
MODEL 2
REMARK VINA RESULT:    -3.014      2.729      4.983
REMARK INTER + INTRA:          -5.795
REMARK INTER:                  -4.749
REMARK INTRA:                  -1.047
REMARK UNBOUND:                -1.019
REMARK SMILES CCCCCCCCCCCC=O
REMARK SMILES IDX 7 1 6 2 5 3 4 4 3 5 2 6 1 7 8 8 9 9 10 10 11 11 12 12 13 13
REMARK H PARENT
REMARK Flexibility Score: inf
ROOT
ATOM      1  C   UNL     1     163.244 173.548 169.346  1.00  0.00     0.000 C 
ENDROOT
BRANCH   1   2
ATOM      2  C   UNL     1     162.999 172.140 168.776  1.00  0.00     0.000 C 
BRANCH   2   3
ATOM      3  C   UNL     1     162.494 171.153 169.841  1.00  0.00    -0.000 C 
BRANCH   3   4
ATOM      4  C   UNL     1     161.311 171.711 170.653  1.00  0.00    -0.000 C 
BRANCH   4   5
ATOM      5  C   UNL     1     159.965 171.100 170.230  1.00  0.00    -0.000 C 
BRANCH   5   6
ATOM      6  C   UNL     1     159.368 171.788 168.994  1.00  0.00    -0.003 C 
ATOM      7  C   UNL     1     158.757 173.138 169.360  1.00  0.00     0.004 C 
ENDBRANCH   5   6
ENDBRANCH   4   5
ENDBRANCH   3   4
ENDBRANCH   2   3
ENDBRANCH   1   2
BRANCH   1   8
ATOM      8  C   UNL     1     162.246 174.585 168.805  1.00  0.00     0.000 C 
BRANCH   8   9
ATOM      9  C   UNL     1     161.845 174.319 167.346  1.00  0.00     0.000 C 
BRANCH   9  10
ATOM     10  C   UNL     1     161.913 175.606 166.516  1.00  0.00     0.008 C 
BRANCH  10  11
ATOM     11  C   UNL     1     162.800 175.417 165.280  1.00  0.00     0.072 C 
BRANCH  11  12
ATOM     12  C   UNL     1     164.084 174.732 165.641  1.00  0.00     0.224 C 
ATOM     13  O   UNL     1     165.154 175.193 165.278  1.00  0.00    -0.303 OA
ENDBRANCH  11  12
ENDBRANCH  10  11
ENDBRANCH   9  10
ENDBRANCH   8   9
ENDBRANCH   1   8
TORSDOF 10
ENDMDL
MODEL 3
REMARK VINA RESULT:    -3.005     15.868     18.229
REMARK INTER + INTRA:          -5.781
REMARK INTER:                  -4.691
REMARK INTRA:                  -1.091
REMARK UNBOUND:                -1.019
REMARK SMILES CCCCCCCCCCCC=O
REMARK SMILES IDX 7 1 6 2 5 3 4 4 3 5 2 6 1 7 8 8 9 9 10 10 11 11 12 12 13 13
REMARK H PARENT
REMARK Flexibility Score: inf
ROOT
ATOM      1  C   UNL     1     169.063 156.283 166.623  1.00  0.00     0.000 C 
ENDROOT
BRANCH   1   2
ATOM      2  C   UNL     1     167.976 157.309 166.987  1.00  0.00     0.000 C 
BRANCH   2   3
ATOM      3  C   UNL     1     168.161 157.890 168.398  1.00  0.00    -0.000 C 
BRANCH   3   4
ATOM      4  C   UNL     1     168.077 159.427 168.422  1.00  0.00    -0.000 C 
BRANCH   4   5
ATOM      5  C   UNL     1     168.198 160.002 169.843  1.00  0.00    -0.000 C 
BRANCH   5   6
ATOM      6  C   UNL     1     168.190 158.910 170.923  1.00  0.00    -0.003 C 
ATOM      7  C   UNL     1     169.499 158.907 171.709  1.00  0.00     0.004 C 
ENDBRANCH   5   6
ENDBRANCH   4   5
ENDBRANCH   3   4
ENDBRANCH   2   3
ENDBRANCH   1   2
BRANCH   1   8
ATOM      8  C   UNL     1     170.165 156.188 167.692  1.00  0.00     0.000 C 
BRANCH   8   9
ATOM      9  C   UNL     1     171.578 156.166 167.087  1.00  0.00     0.000 C 
BRANCH   9  10
ATOM     10  C   UNL     1     172.392 157.377 167.557  1.00  0.00     0.008 C 
BRANCH  10  11
ATOM     11  C   UNL     1     171.884 157.890 168.909  1.00  0.00     0.072 C 
BRANCH  11  12
ATOM     12  C   UNL     1     171.807 159.387 168.921  1.00  0.00     0.224 C 
ATOM     13  O   UNL     1     172.754 160.058 168.544  1.00  0.00    -0.303 OA
ENDBRANCH  11  12
ENDBRANCH  10  11
ENDBRANCH   9  10
ENDBRANCH   8   9
ENDBRANCH   1   8
TORSDOF 10
ENDMDL
MODEL 4
REMARK VINA RESULT:    -2.997      1.513      4.549
REMARK INTER + INTRA:          -5.769
REMARK INTER:                  -4.970
REMARK INTRA:                  -0.798
REMARK UNBOUND:                -1.019
REMARK SMILES CCCCCCCCCCCC=O
REMARK SMILES IDX 7 1 6 2 5 3 4 4 3 5 2 6 1 7 8 8 9 9 10 10 11 11 12 12 13 13
REMARK H PARENT
REMARK Flexibility Score: inf
ROOT
ATOM      1  C   UNL     1     162.262 174.324 167.961  1.00  0.00     0.000 C 
ENDROOT
BRANCH   1   2
ATOM      2  C   UNL     1     163.313 173.463 167.238  1.00  0.00     0.000 C 
BRANCH   2   3
ATOM      3  C   UNL     1     163.419 172.047 167.826  1.00  0.00    -0.000 C 
BRANCH   3   4
ATOM      4  C   UNL     1     162.475 171.828 169.022  1.00  0.00    -0.000 C 
BRANCH   4   5
ATOM      5  C   UNL     1     163.220 171.373 170.287  1.00  0.00    -0.000 C 
BRANCH   5   6
ATOM      6  C   UNL     1     164.463 172.227 170.578  1.00  0.00    -0.003 C 
ATOM      7  C   UNL     1     165.355 171.560 171.622  1.00  0.00     0.004 C 
ENDBRANCH   5   6
ENDBRANCH   4   5
ENDBRANCH   3   4
ENDBRANCH   2   3
ENDBRANCH   1   2
BRANCH   1   8
ATOM      8  C   UNL     1     161.601 175.354 167.030  1.00  0.00     0.000 C 
BRANCH   8   9
ATOM      9  C   UNL     1     160.133 175.019 166.721  1.00  0.00     0.000 C 
BRANCH   9  10
ATOM     10  C   UNL     1     159.372 174.664 168.004  1.00  0.00     0.008 C 
BRANCH  10  11
ATOM     11  C   UNL     1     158.468 173.445 167.786  1.00  0.00     0.072 C 
BRANCH  11  12
ATOM     12  C   UNL     1     158.851 172.322 168.704  1.00  0.00     0.224 C 
ATOM     13  O   UNL     1     158.435 171.193 168.507  1.00  0.00    -0.303 OA
ENDBRANCH  11  12
ENDBRANCH  10  11
ENDBRANCH   9  10
ENDBRANCH   8   9
ENDBRANCH   1   8
TORSDOF 10
ENDMDL
MODEL 5
REMARK VINA RESULT:    -2.979     15.786     18.058
REMARK INTER + INTRA:          -5.739
REMARK INTER:                  -4.566
REMARK INTRA:                  -1.173
REMARK UNBOUND:                -1.019
REMARK SMILES CCCCCCCCCCCC=O
REMARK SMILES IDX 7 1 6 2 5 3 4 4 3 5 2 6 1 7 8 8 9 9 10 10 11 11 12 12 13 13
REMARK H PARENT
REMARK Flexibility Score: inf
ROOT
ATOM      1  C   UNL     1     168.073 157.470 167.392  1.00  0.00     0.000 C 
ENDROOT
BRANCH   1   2
ATOM      2  C   UNL     1     169.292 156.794 168.043  1.00  0.00     0.000 C 
BRANCH   2   3
ATOM      3  C   UNL     1     170.251 156.185 167.007  1.00  0.00    -0.000 C 
BRANCH   3   4
ATOM      4  C   UNL     1     171.711 156.625 167.221  1.00  0.00    -0.000 C 
BRANCH   4   5
ATOM      5  C   UNL     1     171.930 157.301 168.584  1.00  0.00    -0.000 C 
BRANCH   5   6
ATOM      6  C   UNL     1     172.493 158.724 168.452  1.00  0.00    -0.003 C 
ATOM      7  C   UNL     1     172.368 159.488 169.768  1.00  0.00     0.004 C 
ENDBRANCH   5   6
ENDBRANCH   4   5
ENDBRANCH   3   4
ENDBRANCH   2   3
ENDBRANCH   1   2
BRANCH   1   8
ATOM      8  C   UNL     1     167.899 158.931 167.841  1.00  0.00     0.000 C 
BRANCH   8   9
ATOM      9  C   UNL     1     168.843 159.314 168.992  1.00  0.00     0.000 C 
BRANCH   9  10
ATOM     10  C   UNL     1     168.066 159.966 170.142  1.00  0.00     0.008 C 
BRANCH  10  11
ATOM     11  C   UNL     1     166.889 159.086 170.579  1.00  0.00     0.072 C 
BRANCH  11  12
ATOM     12  C   UNL     1     167.369 157.897 171.357  1.00  0.00     0.224 C 
ATOM     13  O   UNL     1     167.236 156.770 170.909  1.00  0.00    -0.303 OA
ENDBRANCH  11  12
ENDBRANCH  10  11
ENDBRANCH   9  10
ENDBRANCH   8   9
ENDBRANCH   1   8
TORSDOF 10
ENDMDL
MODEL 6
REMARK VINA RESULT:    -2.971      2.527      3.819
REMARK INTER + INTRA:          -5.727
REMARK INTER:                  -4.423
REMARK INTRA:                  -1.304
REMARK UNBOUND:                -1.019
REMARK SMILES CCCCCCCCCCCC=O
REMARK SMILES IDX 7 1 6 2 5 3 4 4 3 5 2 6 1 7 8 8 9 9 10 10 11 11 12 12 13 13
REMARK H PARENT
REMARK Flexibility Score: inf
ROOT
ATOM      1  C   UNL     1     162.356 174.654 166.760  1.00  0.00     0.000 C 
ENDROOT
BRANCH   1   2
ATOM      2  C   UNL     1     161.140 174.957 167.653  1.00  0.00     0.000 C 
BRANCH   2   3
ATOM      3  C   UNL     1     159.806 174.796 166.906  1.00  0.00    -0.000 C 
BRANCH   3   4
ATOM      4  C   UNL     1     158.745 174.055 167.741  1.00  0.00    -0.000 C 
BRANCH   4   5
ATOM      5  C   UNL     1     159.346 173.355 168.971  1.00  0.00    -0.000 C 
BRANCH   5   6
ATOM      6  C   UNL     1     159.296 171.824 168.860  1.00  0.00    -0.003 C 
ATOM      7  C   UNL     1     159.855 171.165 170.118  1.00  0.00     0.004 C 
ENDBRANCH   5   6
ENDBRANCH   4   5
ENDBRANCH   3   4
ENDBRANCH   2   3
ENDBRANCH   1   2
BRANCH   1   8
ATOM      8  C   UNL     1     163.394 173.759 167.459  1.00  0.00     0.000 C 
BRANCH   8   9
ATOM      9  C   UNL     1     162.824 172.389 167.856  1.00  0.00     0.000 C 
BRANCH   9  10
ATOM     10  C   UNL     1     163.393 171.929 169.203  1.00  0.00     0.008 C 
BRANCH  10  11
ATOM     11  C   UNL     1     163.348 173.063 170.234  1.00  0.00     0.072 C 
BRANCH  11  12
ATOM     12  C   UNL     1     164.636 173.145 170.997  1.00  0.00     0.224 C 
ATOM     13  O   UNL     1     165.379 174.102 170.855  1.00  0.00    -0.303 OA
ENDBRANCH  11  12
ENDBRANCH  10  11
ENDBRANCH   9  10
ENDBRANCH   8   9
ENDBRANCH   1   8
TORSDOF 10
ENDMDL
MODEL 7
REMARK VINA RESULT:    -2.953      2.177      4.169
REMARK INTER + INTRA:          -5.698
REMARK INTER:                  -4.403
REMARK INTRA:                  -1.295
REMARK UNBOUND:                -1.019
REMARK SMILES CCCCCCCCCCCC=O
REMARK SMILES IDX 7 1 6 2 5 3 4 4 3 5 2 6 1 7 8 8 9 9 10 10 11 11 12 12 13 13
REMARK H PARENT
REMARK Flexibility Score: inf
ROOT
ATOM      1  C   UNL     1     160.114 170.919 170.671  1.00  0.00     0.000 C 
ENDROOT
BRANCH   1   2
ATOM      2  C   UNL     1     158.932 171.644 170.003  1.00  0.00     0.000 C 
BRANCH   2   3
ATOM      3  C   UNL     1     159.141 171.845 168.494  1.00  0.00    -0.000 C 
BRANCH   3   4
ATOM      4  C   UNL     1     158.442 173.110 167.962  1.00  0.00    -0.000 C 
BRANCH   4   5
ATOM      5  C   UNL     1     158.808 174.368 168.765  1.00  0.00    -0.000 C 
BRANCH   5   6
ATOM      6  C   UNL     1     160.249 174.832 168.510  1.00  0.00    -0.003 C 
ATOM      7  C   UNL     1     160.904 175.323 169.798  1.00  0.00     0.004 C 
ENDBRANCH   5   6
ENDBRANCH   4   5
ENDBRANCH   3   4
ENDBRANCH   2   3
ENDBRANCH   1   2
BRANCH   1   8
ATOM      8  C   UNL     1     161.368 171.805 170.772  1.00  0.00     0.000 C 
BRANCH   8   9
ATOM      9  C   UNL     1     162.554 171.248 169.969  1.00  0.00     0.000 C 
BRANCH   9  10
ATOM     10  C   UNL     1     163.360 172.383 169.328  1.00  0.00     0.008 C 
BRANCH  10  11
ATOM     11  C   UNL     1     163.192 172.383 167.804  1.00  0.00     0.072 C 
BRANCH  11  12
ATOM     12  C   UNL     1     163.392 173.759 167.242  1.00  0.00     0.224 C 
ATOM     13  O   UNL     1     164.027 173.922 166.214  1.00  0.00    -0.303 OA
ENDBRANCH  11  12
ENDBRANCH  10  11
ENDBRANCH   9  10
ENDBRANCH   8   9
ENDBRANCH   1   8
TORSDOF 10
ENDMDL
MODEL 8
REMARK VINA RESULT:    -2.926      1.961      4.134
REMARK INTER + INTRA:          -5.655
REMARK INTER:                  -4.147
REMARK INTRA:                  -1.508
REMARK UNBOUND:                -1.019
REMARK SMILES CCCCCCCCCCCC=O
REMARK SMILES IDX 7 1 6 2 5 3 4 4 3 5 2 6 1 7 8 8 9 9 10 10 11 11 12 12 13 13
REMARK H PARENT
REMARK Flexibility Score: inf
ROOT
ATOM      1  C   UNL     1     162.866 170.889 170.089  1.00  0.00     0.000 C 
ENDROOT
BRANCH   1   2
ATOM      2  C   UNL     1     161.940 171.221 171.272  1.00  0.00     0.000 C 
BRANCH   2   3
ATOM      3  C   UNL     1     160.497 170.741 171.045  1.00  0.00    -0.000 C 
BRANCH   3   4
ATOM      4  C   UNL     1     159.599 171.831 170.433  1.00  0.00    -0.000 C 
BRANCH   4   5
ATOM      5  C   UNL     1     159.505 171.726 168.902  1.00  0.00    -0.000 C 
BRANCH   5   6
ATOM      6  C   UNL     1     158.696 172.874 168.281  1.00  0.00    -0.003 C 
ATOM      7  C   UNL     1     158.730 174.114 169.172  1.00  0.00     0.004 C 
ENDBRANCH   5   6
ENDBRANCH   4   5
ENDBRANCH   3   4
ENDBRANCH   2   3
ENDBRANCH   1   2
BRANCH   1   8
ATOM      8  C   UNL     1     163.387 172.148 169.377  1.00  0.00     0.000 C 
BRANCH   8   9
ATOM      9  C   UNL     1     163.060 173.441 170.140  1.00  0.00     0.000 C 
BRANCH   9  10
ATOM     10  C   UNL     1     162.427 174.481 169.209  1.00  0.00     0.008 C 
BRANCH  10  11
ATOM     11  C   UNL     1     162.313 173.941 167.779  1.00  0.00     0.072 C 
BRANCH  11  12
ATOM     12  C   UNL     1     161.931 175.031 166.822  1.00  0.00     0.224 C 
ATOM     13  O   UNL     1     160.824 175.044 166.310  1.00  0.00    -0.303 OA
ENDBRANCH  11  12
ENDBRANCH  10  11
ENDBRANCH   9  10
ENDBRANCH   8   9
ENDBRANCH   1   8
TORSDOF 10
ENDMDL
MODEL 9
REMARK VINA RESULT:    -2.878     16.269     17.977
REMARK INTER + INTRA:          -5.579
REMARK INTER:                  -4.392
REMARK INTRA:                  -1.187
REMARK UNBOUND:                -1.019
REMARK SMILES CCCCCCCCCCCC=O
REMARK SMILES IDX 7 1 6 2 5 3 4 4 3 5 2 6 1 7 8 8 9 9 10 10 11 11 12 12 13 13
REMARK H PARENT
REMARK Flexibility Score: inf
ROOT
ATOM      1  C   UNL     1     170.379 156.847 168.245  1.00  0.00     0.000 C 
ENDROOT
BRANCH   1   2
ATOM      2  C   UNL     1     171.728 156.921 167.509  1.00  0.00     0.000 C 
BRANCH   2   3
ATOM      3  C   UNL     1     172.762 157.776 168.259  1.00  0.00    -0.000 C 
BRANCH   3   4
ATOM      4  C   UNL     1     172.211 159.156 168.662  1.00  0.00    -0.000 C 
BRANCH   4   5
ATOM      5  C   UNL     1     172.428 159.465 170.152  1.00  0.00    -0.000 C 
BRANCH   5   6
ATOM      6  C   UNL     1     171.157 159.254 170.989  1.00  0.00    -0.003 C 
ATOM      7  C   UNL     1     170.482 160.586 171.306  1.00  0.00     0.004 C 
ENDBRANCH   5   6
ENDBRANCH   4   5
ENDBRANCH   3   4
ENDBRANCH   2   3
ENDBRANCH   1   2
BRANCH   1   8
ATOM      8  C   UNL     1     169.191 156.671 167.283  1.00  0.00     0.000 C 
BRANCH   8   9
ATOM      9  C   UNL     1     168.020 157.611 167.609  1.00  0.00     0.000 C 
BRANCH   9  10
ATOM     10  C   UNL     1     168.492 158.801 168.453  1.00  0.00     0.008 C 
BRANCH  10  11
ATOM     11  C   UNL     1     167.601 158.987 169.687  1.00  0.00     0.072 C 
BRANCH  11  12
ATOM     12  C   UNL     1     167.385 157.682 170.394  1.00  0.00     0.224 C 
ATOM     13  O   UNL     1     166.267 157.348 170.748  1.00  0.00    -0.303 OA
ENDBRANCH  11  12
ENDBRANCH  10  11
ENDBRANCH   9  10
ENDBRANCH   8   9
ENDBRANCH   1   8
TORSDOF 10
ENDMDL
