MODEL 1
REMARK VINA RESULT:    -5.393      0.000      0.000
REMARK INTER + INTRA:          -6.127
REMARK INTER:                  -6.024
REMARK INTRA:                  -0.102
REMARK UNBOUND:                -0.102
REMARK SMILES CCc1ccc(O)cc1O
REMARK SMILES IDX 3 1 9 2 8 3 6 4 5 5 4 6 2 7 1 8 10 9 7 11
REMARK H PARENT 10 10 7 12
REMARK Flexibility Score: inf
ROOT
ATOM      1  C   UNL     1      -5.648   8.714 -15.578  1.00  0.00    -0.006 A 
ATOM      2  C   UNL     1      -5.015   9.503 -14.596  1.00  0.00     0.122 A 
ATOM      3  C   UNL     1      -5.536   9.547 -13.294  1.00  0.00     0.092 A 
ATOM      4  C   UNL     1      -6.685   8.823 -12.966  1.00  0.00     0.119 A 
ATOM      5  C   UNL     1      -7.323   8.050 -13.943  1.00  0.00     0.047 A 
ATOM      6  C   UNL     1      -6.810   7.999 -15.242  1.00  0.00     0.011 A 
ENDROOT
BRANCH   1   7
ATOM      7  C   UNL     1      -5.127   8.670 -16.992  1.00  0.00     0.036 C 
ATOM      8  C   UNL     1      -6.096   9.361 -17.946  1.00  0.00     0.009 C 
ENDBRANCH   1   7
BRANCH   2   9
ATOM      9  O   UNL     1      -3.875  10.240 -14.915  1.00  0.00    -0.508 OA
ATOM     10  H   UNL     1      -3.512  10.274 -15.861  1.00  0.00     0.293 HD
ENDBRANCH   2   9
BRANCH   4  11
ATOM     11  O   UNL     1      -7.187   8.881 -11.667  1.00  0.00    -0.508 OA
ATOM     12  H   UNL     1      -7.647   8.085 -11.241  1.00  0.00     0.293 HD
ENDBRANCH   4  11
TORSDOF 3
ENDMDL
MODEL 2
REMARK VINA RESULT:    -5.104      2.206      3.679
REMARK INTER + INTRA:          -5.803
REMARK INTER:                  -5.717
REMARK INTRA:                  -0.086
REMARK UNBOUND:                -0.102
REMARK SMILES CCc1ccc(O)cc1O
REMARK SMILES IDX 3 1 9 2 8 3 6 4 5 5 4 6 2 7 1 8 10 9 7 11
REMARK H PARENT 10 10 7 12
REMARK Flexibility Score: inf
ROOT
ATOM      1  C   UNL     1      -7.017   9.864 -14.547  1.00  0.00    -0.006 A 
ATOM      2  C   UNL     1      -6.140  10.707 -15.259  1.00  0.00     0.122 A 
ATOM      3  C   UNL     1      -5.185  10.151 -16.123  1.00  0.00     0.092 A 
ATOM      4  C   UNL     1      -5.090   8.766 -16.276  1.00  0.00     0.119 A 
ATOM      5  C   UNL     1      -5.952   7.926 -15.559  1.00  0.00     0.047 A 
ATOM      6  C   UNL     1      -6.906   8.472 -14.697  1.00  0.00     0.011 A 
ENDROOT
BRANCH   1   7
ATOM      7  C   UNL     1      -8.033  10.434 -13.589  1.00  0.00     0.036 C 
ATOM      8  C   UNL     1      -9.325   9.623 -13.625  1.00  0.00     0.009 C 
ENDBRANCH   1   7
BRANCH   2   9
ATOM      9  O   UNL     1      -6.216  12.091 -15.104  1.00  0.00    -0.508 OA
ATOM     10  H   UNL     1      -6.454  12.514 -14.214  1.00  0.00     0.293 HD
ENDBRANCH   2   9
BRANCH   4  11
ATOM     11  O   UNL     1      -4.136   8.232 -17.139  1.00  0.00    -0.508 OA
ATOM     12  H   UNL     1      -3.227   8.666 -17.259  1.00  0.00     0.293 HD
ENDBRANCH   4  11
TORSDOF 3
ENDMDL
MODEL 3
REMARK VINA RESULT:    -5.041      1.781      2.536
REMARK INTER + INTRA:          -5.733
REMARK INTER:                  -5.638
REMARK INTRA:                  -0.095
REMARK UNBOUND:                -0.102
REMARK SMILES CCc1ccc(O)cc1O
REMARK SMILES IDX 3 1 9 2 8 3 6 4 5 5 4 6 2 7 1 8 10 9 7 11
REMARK H PARENT 10 10 7 12
REMARK Flexibility Score: inf
ROOT
ATOM      1  C   UNL     1      -5.653   9.175 -16.222  1.00  0.00    -0.006 A 
ATOM      2  C   UNL     1      -6.498   8.765 -15.170  1.00  0.00     0.122 A 
ATOM      3  C   UNL     1      -6.026   8.782 -13.849  1.00  0.00     0.092 A 
ATOM      4  C   UNL     1      -4.720   9.192 -13.569  1.00  0.00     0.119 A 
ATOM      5  C   UNL     1      -3.875   9.586 -14.614  1.00  0.00     0.047 A 
ATOM      6  C   UNL     1      -4.337   9.573 -15.932  1.00  0.00     0.011 A 
ENDROOT
BRANCH   1   7
ATOM      7  C   UNL     1      -6.124   9.138 -17.654  1.00  0.00     0.036 C 
ATOM      8  C   UNL     1      -6.137  10.540 -18.255  1.00  0.00     0.009 C 
ENDBRANCH   1   7
BRANCH   2   9
ATOM      9  O   UNL     1      -7.799   8.342 -15.440  1.00  0.00    -0.508 OA
ATOM     10  H   UNL     1      -7.985   7.464 -15.912  1.00  0.00     0.293 HD
ENDBRANCH   2   9
BRANCH   4  11
ATOM     11  O   UNL     1      -4.270   9.202 -12.250  1.00  0.00    -0.508 OA
ATOM     12  H   UNL     1      -4.613   9.879 -11.578  1.00  0.00     0.293 HD
ENDBRANCH   4  11
TORSDOF 3
ENDMDL
MODEL 4
REMARK VINA RESULT:    -5.030      1.385      1.658
REMARK INTER + INTRA:          -5.721
REMARK INTER:                  -5.635
REMARK INTRA:                  -0.085
REMARK UNBOUND:                -0.102
REMARK SMILES CCc1ccc(O)cc1O
REMARK SMILES IDX 3 1 9 2 8 3 6 4 5 5 4 6 2 7 1 8 10 9 7 11
REMARK H PARENT 10 10 7 12
REMARK Flexibility Score: inf
ROOT
ATOM      1  C   UNL     1      -5.122   9.087 -14.603  1.00  0.00    -0.006 A 
ATOM      2  C   UNL     1      -5.276   9.381 -13.233  1.00  0.00     0.122 A 
ATOM      3  C   UNL     1      -6.418   8.938 -12.548  1.00  0.00     0.092 A 
ATOM      4  C   UNL     1      -7.409   8.217 -13.218  1.00  0.00     0.119 A 
ATOM      5  C   UNL     1      -7.265   7.936 -14.582  1.00  0.00     0.047 A 
ATOM      6  C   UNL     1      -6.131   8.373 -15.271  1.00  0.00     0.011 A 
ENDROOT
BRANCH   1   7
ATOM      7  C   UNL     1      -3.919   9.577 -15.371  1.00  0.00     0.036 C 
ATOM      8  C   UNL     1      -3.937   9.045 -16.800  1.00  0.00     0.009 C 
ENDBRANCH   1   7
BRANCH   2   9
ATOM      9  O   UNL     1      -4.299  10.112 -12.557  1.00  0.00    -0.508 OA
ATOM     10  H   UNL     1      -4.226  10.094 -11.547  1.00  0.00     0.293 HD
ENDBRANCH   2   9
BRANCH   4  11
ATOM     11  O   UNL     1      -8.536   7.786 -12.520  1.00  0.00    -0.508 OA
ATOM     12  H   UNL     1      -9.472   7.952 -12.870  1.00  0.00     0.293 HD
ENDBRANCH   4  11
TORSDOF 3
ENDMDL
MODEL 5
REMARK VINA RESULT:    -4.968      1.143      3.327
REMARK INTER + INTRA:          -5.651
REMARK INTER:                  -5.568
REMARK INTRA:                  -0.084
REMARK UNBOUND:                -0.102
REMARK SMILES CCc1ccc(O)cc1O
REMARK SMILES IDX 3 1 9 2 8 3 6 4 5 5 4 6 2 7 1 8 10 9 7 11
REMARK H PARENT 10 10 7 12
REMARK Flexibility Score: inf
ROOT
ATOM      1  C   UNL     1      -6.945   8.051 -14.403  1.00  0.00    -0.006 A 
ATOM      2  C   UNL     1      -6.715   8.756 -13.205  1.00  0.00     0.122 A 
ATOM      3  C   UNL     1      -5.692   9.713 -13.142  1.00  0.00     0.092 A 
ATOM      4  C   UNL     1      -4.889   9.965 -14.258  1.00  0.00     0.119 A 
ATOM      5  C   UNL     1      -5.106   9.256 -15.446  1.00  0.00     0.047 A 
ATOM      6  C   UNL     1      -6.124   8.301 -15.516  1.00  0.00     0.011 A 
ENDROOT
BRANCH   1   7
ATOM      7  C   UNL     1      -8.019   6.995 -14.489  1.00  0.00     0.036 C 
ATOM      8  C   UNL     1      -9.362   7.619 -14.855  1.00  0.00     0.009 C 
ENDBRANCH   1   7
BRANCH   2   9
ATOM      9  O   UNL     1      -7.502   8.503 -12.080  1.00  0.00    -0.508 OA
ATOM     10  H   UNL     1      -8.251   7.821 -12.099  1.00  0.00     0.293 HD
ENDBRANCH   2   9
BRANCH   4  11
ATOM     11  O   UNL     1      -3.878  10.920 -14.177  1.00  0.00    -0.508 OA
ATOM     12  H   UNL     1      -2.923  10.663 -13.952  1.00  0.00     0.293 HD
ENDBRANCH   4  11
TORSDOF 3
ENDMDL
MODEL 6
REMARK VINA RESULT:    -4.964      2.081      2.666
REMARK INTER + INTRA:          -5.647
REMARK INTER:                  -5.548
REMARK INTRA:                  -0.099
REMARK UNBOUND:                -0.102
REMARK SMILES CCc1ccc(O)cc1O
REMARK SMILES IDX 3 1 9 2 8 3 6 4 5 5 4 6 2 7 1 8 10 9 7 11
REMARK H PARENT 10 10 7 12
REMARK Flexibility Score: inf
ROOT
ATOM      1  C   UNL     1      -6.071   9.207 -14.342  1.00  0.00    -0.006 A 
ATOM      2  C   UNL     1      -7.004  10.170 -13.908  1.00  0.00     0.122 A 
ATOM      3  C   UNL     1      -8.378   9.903 -14.002  1.00  0.00     0.092 A 
ATOM      4  C   UNL     1      -8.829   8.692 -14.534  1.00  0.00     0.119 A 
ATOM      5  C   UNL     1      -7.903   7.740 -14.978  1.00  0.00     0.047 A 
ATOM      6  C   UNL     1      -6.533   7.998 -14.887  1.00  0.00     0.011 A 
ENDROOT
BRANCH   1   7
ATOM      7  C   UNL     1      -4.589   9.480 -14.280  1.00  0.00     0.036 C 
ATOM      8  C   UNL     1      -3.979   9.476 -15.678  1.00  0.00     0.009 C 
ENDBRANCH   1   7
BRANCH   2   9
ATOM      9  O   UNL     1      -6.566  11.388 -13.388  1.00  0.00    -0.508 OA
ATOM     10  H   UNL     1      -6.499  12.219 -13.964  1.00  0.00     0.293 HD
ENDBRANCH   2   9
BRANCH   4  11
ATOM     11  O   UNL     1     -10.197   8.445 -14.619  1.00  0.00    -0.508 OA
ATOM     12  H   UNL     1     -10.746   8.767 -15.408  1.00  0.00     0.293 HD
ENDBRANCH   4  11
TORSDOF 3
ENDMDL
MODEL 7
REMARK VINA RESULT:    -4.872      2.004      3.173
REMARK INTER + INTRA:          -5.544
REMARK INTER:                  -5.458
REMARK INTRA:                  -0.086
REMARK UNBOUND:                -0.102
REMARK SMILES CCc1ccc(O)cc1O
REMARK SMILES IDX 3 1 9 2 8 3 6 4 5 5 4 6 2 7 1 8 10 9 7 11
REMARK H PARENT 10 10 7 12
REMARK Flexibility Score: inf
ROOT
ATOM      1  C   UNL     1      -6.394   8.592 -14.563  1.00  0.00    -0.006 A 
ATOM      2  C   UNL     1      -5.719   9.316 -15.567  1.00  0.00     0.122 A 
ATOM      3  C   UNL     1      -4.881  10.384 -15.214  1.00  0.00     0.092 A 
ATOM      4  C   UNL     1      -4.719  10.744 -13.874  1.00  0.00     0.119 A 
ATOM      5  C   UNL     1      -5.400  10.036 -12.876  1.00  0.00     0.047 A 
ATOM      6  C   UNL     1      -6.235   8.970 -13.218  1.00  0.00     0.011 A 
ENDROOT
BRANCH   1   7
ATOM      7  C   UNL     1      -7.325   7.459 -14.915  1.00  0.00     0.036 C 
ATOM      8  C   UNL     1      -8.292   7.177 -13.770  1.00  0.00     0.009 C 
ENDBRANCH   1   7
BRANCH   2   9
ATOM      9  O   UNL     1      -5.884   8.974 -16.909  1.00  0.00    -0.508 OA
ATOM     10  H   UNL     1      -6.804   8.853 -17.318  1.00  0.00     0.293 HD
ENDBRANCH   2   9
BRANCH   4  11
ATOM     11  O   UNL     1      -3.882  11.808 -13.544  1.00  0.00    -0.508 OA
ATOM     12  H   UNL     1      -3.536  12.448 -14.249  1.00  0.00     0.293 HD
ENDBRANCH   4  11
TORSDOF 3
ENDMDL
MODEL 8
REMARK VINA RESULT:    -4.768      1.738      2.332
REMARK INTER + INTRA:          -5.428
REMARK INTER:                  -5.324
REMARK INTRA:                  -0.104
REMARK UNBOUND:                -0.102
REMARK SMILES CCc1ccc(O)cc1O
REMARK SMILES IDX 3 1 9 2 8 3 6 4 5 5 4 6 2 7 1 8 10 9 7 11
REMARK H PARENT 10 10 7 12
REMARK Flexibility Score: inf
ROOT
ATOM      1  C   UNL     1      -5.819   8.969 -15.025  1.00  0.00    -0.006 A 
ATOM      2  C   UNL     1      -6.895   8.353 -14.355  1.00  0.00     0.122 A 
ATOM      3  C   UNL     1      -7.386   8.907 -13.164  1.00  0.00     0.092 A 
ATOM      4  C   UNL     1      -6.808  10.061 -12.630  1.00  0.00     0.119 A 
ATOM      5  C   UNL     1      -5.730  10.667 -13.286  1.00  0.00     0.047 A 
ATOM      6  C   UNL     1      -5.235  10.122 -14.473  1.00  0.00     0.011 A 
ENDROOT
BRANCH   1   7
ATOM      7  C   UNL     1      -5.252   8.378 -16.291  1.00  0.00     0.036 C 
ATOM      8  C   UNL     1      -5.796   9.103 -17.518  1.00  0.00     0.009 C 
ENDBRANCH   1   7
BRANCH   2   9
ATOM      9  O   UNL     1      -7.471   7.192 -14.873  1.00  0.00    -0.508 OA
ATOM     10  H   UNL     1      -7.244   6.854 -15.801  1.00  0.00     0.293 HD
ENDBRANCH   2   9
BRANCH   4  11
ATOM     11  O   UNL     1      -7.310  10.597 -11.445  1.00  0.00    -0.508 OA
ATOM     12  H   UNL     1      -7.078  11.538 -11.149  1.00  0.00     0.293 HD
ENDBRANCH   4  11
TORSDOF 3
ENDMDL
