MODEL 1
REMARK VINA RESULT:    -4.095      0.000      0.000
REMARK INTER + INTRA:          -4.751
REMARK INTER:                  -4.454
REMARK INTRA:                  -0.297
REMARK UNBOUND:                -0.297
REMARK SMILES CC(=O)c1cc(C)ccc1O
REMARK SMILES IDX 7 1 6 2 5 3 4 4 10 5 9 6 8 7 2 8 3 9 1 10 11 11
REMARK H PARENT 11 12
REMARK Flexibility Score: inf
ROOT
ATOM      1  C   UNL     1       0.399 -12.051   8.322  1.00  0.00     0.044 C 
ATOM      2  C   UNL     1       0.704 -13.478   8.671  1.00  0.00    -0.050 A 
ATOM      3  C   UNL     1       1.951 -13.821   9.214  1.00  0.00     0.019 A 
ATOM      4  C   UNL     1       2.269 -15.162   9.512  1.00  0.00     0.059 A 
ATOM      5  C   UNL     1       1.308 -16.163   9.240  1.00  0.00     0.126 A 
ATOM      6  C   UNL     1       0.073 -15.817   8.677  1.00  0.00     0.047 A 
ATOM      7  C   UNL     1      -0.226 -14.486   8.388  1.00  0.00     0.007 A 
ENDROOT
BRANCH   4   8
ATOM      8  C   UNL     1       3.599 -15.506  10.093  1.00  0.00     0.163 C 
ATOM      9  O   UNL     1       3.673 -16.036  11.235  1.00  0.00    -0.294 OA
ATOM     10  C   UNL     1       4.875 -15.271   9.339  1.00  0.00     0.093 C 
ENDBRANCH   4   8
BRANCH   5  11
ATOM     11  O   UNL     1       1.571 -17.502   9.536  1.00  0.00    -0.507 OA
ATOM     12  H   UNL     1       1.862 -17.797  10.461  1.00  0.00     0.293 HD
ENDBRANCH   5  11
TORSDOF 2
ENDMDL
MODEL 2
REMARK VINA RESULT:    -3.971      2.335      3.753
REMARK INTER + INTRA:          -4.616
REMARK INTER:                  -4.313
REMARK INTRA:                  -0.303
REMARK UNBOUND:                -0.297
REMARK SMILES CC(=O)c1cc(C)ccc1O
REMARK SMILES IDX 7 1 6 2 5 3 4 4 10 5 9 6 8 7 2 8 3 9 1 10 11 11
REMARK H PARENT 11 12
REMARK Flexibility Score: inf
ROOT
ATOM      1  C   UNL     1       1.570 -13.517  13.527  1.00  0.00     0.044 C 
ATOM      2  C   UNL     1       1.611 -14.499  12.393  1.00  0.00    -0.050 A 
ATOM      3  C   UNL     1       1.007 -14.185  11.166  1.00  0.00     0.019 A 
ATOM      4  C   UNL     1       1.001 -15.111  10.103  1.00  0.00     0.059 A 
ATOM      5  C   UNL     1       1.609 -16.373  10.299  1.00  0.00     0.126 A 
ATOM      6  C   UNL     1       2.191 -16.688  11.534  1.00  0.00     0.047 A 
ATOM      7  C   UNL     1       2.188 -15.761  12.576  1.00  0.00     0.007 A 
ENDROOT
BRANCH   4   8
ATOM      8  C   UNL     1       0.357 -14.758   8.804  1.00  0.00     0.163 C 
ATOM      9  O   UNL     1      -0.404 -15.582   8.231  1.00  0.00    -0.294 OA
ATOM     10  C   UNL     1       0.561 -13.418   8.161  1.00  0.00     0.093 C 
ENDBRANCH   4   8
BRANCH   5  11
ATOM     11  O   UNL     1       1.645 -17.314   9.269  1.00  0.00    -0.507 OA
ATOM     12  H   UNL     1       2.442 -17.395   8.647  1.00  0.00     0.293 HD
ENDBRANCH   5  11
TORSDOF 2
ENDMDL
MODEL 3
REMARK VINA RESULT:    -3.737      1.893      3.044
REMARK INTER + INTRA:          -4.361
REMARK INTER:                  -4.054
REMARK INTRA:                  -0.308
REMARK UNBOUND:                -0.297
REMARK SMILES CC(=O)c1cc(C)ccc1O
REMARK SMILES IDX 7 1 6 2 5 3 4 4 10 5 9 6 8 7 2 8 3 9 1 10 11 11
REMARK H PARENT 11 12
REMARK Flexibility Score: inf
ROOT
ATOM      1  C   UNL     1      -0.476 -16.039   8.421  1.00  0.00     0.044 C 
ATOM      2  C   UNL     1       0.566 -15.334   9.240  1.00  0.00    -0.050 A 
ATOM      3  C   UNL     1       1.342 -16.051  10.162  1.00  0.00     0.019 A 
ATOM      4  C   UNL     1       2.299 -15.399  10.968  1.00  0.00     0.059 A 
ATOM      5  C   UNL     1       2.455 -14.000  10.836  1.00  0.00     0.126 A 
ATOM      6  C   UNL     1       1.661 -13.287   9.928  1.00  0.00     0.047 A 
ATOM      7  C   UNL     1       0.719 -13.947   9.140  1.00  0.00     0.007 A 
ENDROOT
BRANCH   4   8
ATOM      8  C   UNL     1       3.117 -16.179  11.940  1.00  0.00     0.163 C 
ATOM      9  O   UNL     1       4.371 -16.047  11.962  1.00  0.00    -0.294 OA
ATOM     10  C   UNL     1       2.487 -17.108  12.936  1.00  0.00     0.093 C 
ENDBRANCH   4   8
BRANCH   5  11
ATOM     11  O   UNL     1       3.402 -13.314  11.598  1.00  0.00    -0.507 OA
ATOM     12  H   UNL     1       3.133 -12.707  12.364  1.00  0.00     0.293 HD
ENDBRANCH   5  11
TORSDOF 2
ENDMDL
MODEL 4
REMARK VINA RESULT:    -3.723      2.119      2.401
REMARK INTER + INTRA:          -4.346
REMARK INTER:                  -4.209
REMARK INTRA:                  -0.137
REMARK UNBOUND:                -0.297
REMARK SMILES CC(=O)c1cc(C)ccc1O
REMARK SMILES IDX 7 1 6 2 5 3 4 4 10 5 9 6 8 7 2 8 3 9 1 10 11 11
REMARK H PARENT 11 12
REMARK Flexibility Score: inf
ROOT
ATOM      1  C   UNL     1       0.445 -12.060  11.218  1.00  0.00     0.044 C 
ATOM      2  C   UNL     1       0.751 -13.477  10.830  1.00  0.00    -0.050 A 
ATOM      3  C   UNL     1       1.490 -14.301  11.692  1.00  0.00     0.019 A 
ATOM      4  C   UNL     1       1.820 -15.623  11.327  1.00  0.00     0.059 A 
ATOM      5  C   UNL     1       1.399 -16.103  10.065  1.00  0.00     0.126 A 
ATOM      6  C   UNL     1       0.680 -15.267   9.200  1.00  0.00     0.047 A 
ATOM      7  C   UNL     1       0.363 -13.963   9.576  1.00  0.00     0.007 A 
ENDROOT
BRANCH   4   8
ATOM      8  C   UNL     1       2.604 -16.485  12.259  1.00  0.00     0.163 C 
ATOM      9  O   UNL     1       3.863 -16.468  12.228  1.00  0.00    -0.294 OA
ATOM     10  C   UNL     1       1.933 -17.362  13.274  1.00  0.00     0.093 C 
ENDBRANCH   4   8
BRANCH   5  11
ATOM     11  O   UNL     1       1.686 -17.410   9.669  1.00  0.00    -0.507 OA
ATOM     12  H   UNL     1       2.179 -18.056  10.275  1.00  0.00     0.293 HD
ENDBRANCH   5  11
TORSDOF 2
ENDMDL
MODEL 5
REMARK VINA RESULT:    -3.610      2.129      3.587
REMARK INTER + INTRA:          -4.223
REMARK INTER:                  -3.917
REMARK INTRA:                  -0.306
REMARK UNBOUND:                -0.297
REMARK SMILES CC(=O)c1cc(C)ccc1O
REMARK SMILES IDX 7 1 6 2 5 3 4 4 10 5 9 6 8 7 2 8 3 9 1 10 11 11
REMARK H PARENT 11 12
REMARK Flexibility Score: inf
ROOT
ATOM      1  C   UNL     1      -0.503 -15.997   8.170  1.00  0.00     0.044 C 
ATOM      2  C   UNL     1       0.494 -15.625   9.228  1.00  0.00    -0.050 A 
ATOM      3  C   UNL     1       0.536 -14.315   9.728  1.00  0.00     0.019 A 
ATOM      4  C   UNL     1       1.491 -13.937  10.694  1.00  0.00     0.059 A 
ATOM      5  C   UNL     1       2.420 -14.905  11.144  1.00  0.00     0.126 A 
ATOM      6  C   UNL     1       2.387 -16.205  10.624  1.00  0.00     0.047 A 
ATOM      7  C   UNL     1       1.436 -16.562   9.668  1.00  0.00     0.007 A 
ENDROOT
BRANCH   4   8
ATOM      8  C   UNL     1       1.517 -12.541  11.217  1.00  0.00     0.163 C 
ATOM      9  O   UNL     1       2.588 -11.875  11.192  1.00  0.00    -0.294 OA
ATOM     10  C   UNL     1       0.283 -11.875  11.751  1.00  0.00     0.093 C 
ENDBRANCH   4   8
BRANCH   5  11
ATOM     11  O   UNL     1       3.372 -14.582  12.112  1.00  0.00    -0.507 OA
ATOM     12  H   UNL     1       4.280 -15.033  12.139  1.00  0.00     0.293 HD
ENDBRANCH   5  11
TORSDOF 2
ENDMDL
MODEL 6
REMARK VINA RESULT:    -3.600      2.379      3.590
REMARK INTER + INTRA:          -4.213
REMARK INTER:                  -3.904
REMARK INTRA:                  -0.308
REMARK UNBOUND:                -0.297
REMARK SMILES CC(=O)c1cc(C)ccc1O
REMARK SMILES IDX 7 1 6 2 5 3 4 4 10 5 9 6 8 7 2 8 3 9 1 10 11 11
REMARK H PARENT 11 12
REMARK Flexibility Score: inf
ROOT
ATOM      1  C   UNL     1       1.510 -12.682  12.814  1.00  0.00     0.044 C 
ATOM      2  C   UNL     1       1.092 -12.944  11.397  1.00  0.00    -0.050 A 
ATOM      3  C   UNL     1       1.006 -14.260  10.918  1.00  0.00     0.019 A 
ATOM      4  C   UNL     1       0.653 -14.524   9.579  1.00  0.00     0.059 A 
ATOM      5  C   UNL     1       0.397 -13.431   8.717  1.00  0.00     0.126 A 
ATOM      6  C   UNL     1       0.507 -12.119   9.196  1.00  0.00     0.047 A 
ATOM      7  C   UNL     1       0.857 -11.876  10.524  1.00  0.00     0.007 A 
ENDROOT
BRANCH   4   8
ATOM      8  C   UNL     1       0.563 -15.930   9.089  1.00  0.00     0.163 C 
ATOM      9  O   UNL     1      -0.477 -16.329   8.498  1.00  0.00    -0.294 OA
ATOM     10  C   UNL     1       1.700 -16.895   9.249  1.00  0.00     0.093 C 
ENDBRANCH   4   8
BRANCH   5  11
ATOM     11  O   UNL     1       0.026 -13.643   7.389  1.00  0.00    -0.507 OA
ATOM     12  H   UNL     1       0.698 -13.937   6.688  1.00  0.00     0.293 HD
ENDBRANCH   5  11
TORSDOF 2
ENDMDL
MODEL 7
REMARK VINA RESULT:    -3.565      6.522      7.361
REMARK INTER + INTRA:          -4.174
REMARK INTER:                  -3.867
REMARK INTRA:                  -0.308
REMARK UNBOUND:                -0.297
REMARK SMILES CC(=O)c1cc(C)ccc1O
REMARK SMILES IDX 7 1 6 2 5 3 4 4 10 5 9 6 8 7 2 8 3 9 1 10 11 11
REMARK H PARENT 11 12
REMARK Flexibility Score: inf
ROOT
ATOM      1  C   UNL     1       1.819 -16.668  12.985  1.00  0.00     0.044 C 
ATOM      2  C   UNL     1       1.703 -17.757  14.011  1.00  0.00    -0.050 A 
ATOM      3  C   UNL     1       2.662 -18.779  14.067  1.00  0.00     0.019 A 
ATOM      4  C   UNL     1       2.548 -19.831  14.998  1.00  0.00     0.059 A 
ATOM      5  C   UNL     1       1.437 -19.845  15.874  1.00  0.00     0.126 A 
ATOM      6  C   UNL     1       0.471 -18.833  15.798  1.00  0.00     0.047 A 
ATOM      7  C   UNL     1       0.598 -17.799  14.870  1.00  0.00     0.007 A 
ENDROOT
BRANCH   4   8
ATOM      8  C   UNL     1       3.580 -20.907  15.045  1.00  0.00     0.163 C 
ATOM      9  O   UNL     1       4.155 -21.186  16.132  1.00  0.00    -0.294 OA
ATOM     10  C   UNL     1       3.942 -21.707  13.829  1.00  0.00     0.093 C 
ENDBRANCH   4   8
BRANCH   5  11
ATOM     11  O   UNL     1       1.292 -20.856  16.825  1.00  0.00    -0.507 OA
ATOM     12  H   UNL     1       1.883 -20.903  17.647  1.00  0.00     0.293 HD
ENDBRANCH   5  11
TORSDOF 2
ENDMDL
MODEL 8
REMARK VINA RESULT:    -3.511      1.748      2.951
REMARK INTER + INTRA:          -4.115
REMARK INTER:                  -3.826
REMARK INTRA:                  -0.289
REMARK UNBOUND:                -0.297
REMARK SMILES CC(=O)c1cc(C)ccc1O
REMARK SMILES IDX 7 1 6 2 5 3 4 4 10 5 9 6 8 7 2 8 3 9 1 10 11 11
REMARK H PARENT 11 12
REMARK Flexibility Score: inf
ROOT
ATOM      1  C   UNL     1       0.239 -11.876   7.070  1.00  0.00     0.044 C 
ATOM      2  C   UNL     1       1.459 -12.557   7.619  1.00  0.00    -0.050 A 
ATOM      3  C   UNL     1       1.337 -13.495   8.655  1.00  0.00     0.019 A 
ATOM      4  C   UNL     1       2.475 -14.116   9.210  1.00  0.00     0.059 A 
ATOM      5  C   UNL     1       3.750 -13.765   8.709  1.00  0.00     0.126 A 
ATOM      6  C   UNL     1       3.866 -12.810   7.690  1.00  0.00     0.047 A 
ATOM      7  C   UNL     1       2.731 -12.206   7.152  1.00  0.00     0.007 A 
ENDROOT
BRANCH   4   8
ATOM      8  C   UNL     1       2.324 -15.114  10.308  1.00  0.00     0.163 C 
ATOM      9  O   UNL     1       2.815 -14.883  11.445  1.00  0.00    -0.294 OA
ATOM     10  C   UNL     1       1.566 -16.394  10.112  1.00  0.00     0.093 C 
ENDBRANCH   4   8
BRANCH   5  11
ATOM     11  O   UNL     1       4.904 -14.367   9.214  1.00  0.00    -0.507 OA
ATOM     12  H   UNL     1       5.769 -13.850   9.328  1.00  0.00     0.293 HD
ENDBRANCH   5  11
TORSDOF 2
ENDMDL
MODEL 9
REMARK VINA RESULT:    -3.468      1.962      3.849
REMARK INTER + INTRA:          -4.069
REMARK INTER:                  -3.799
REMARK INTRA:                  -0.270
REMARK UNBOUND:                -0.297
REMARK SMILES CC(=O)c1cc(C)ccc1O
REMARK SMILES IDX 7 1 6 2 5 3 4 4 10 5 9 6 8 7 2 8 3 9 1 10 11 11
REMARK H PARENT 11 12
REMARK Flexibility Score: inf
ROOT
ATOM      1  C   UNL     1       5.015 -14.943  10.061  1.00  0.00     0.044 C 
ATOM      2  C   UNL     1       3.569 -15.121   9.700  1.00  0.00    -0.050 A 
ATOM      3  C   UNL     1       2.802 -14.018   9.295  1.00  0.00     0.019 A 
ATOM      4  C   UNL     1       1.433 -14.159   8.989  1.00  0.00     0.059 A 
ATOM      5  C   UNL     1       0.840 -15.437   9.110  1.00  0.00     0.126 A 
ATOM      6  C   UNL     1       1.606 -16.530   9.536  1.00  0.00     0.047 A 
ATOM      7  C   UNL     1       2.959 -16.373   9.835  1.00  0.00     0.007 A 
ENDROOT
BRANCH   4   8
ATOM      8  C   UNL     1       0.635 -12.975   8.556  1.00  0.00     0.163 C 
ATOM      9  O   UNL     1       0.223 -12.890   7.368  1.00  0.00    -0.294 OA
ATOM     10  C   UNL     1       0.270 -11.878   9.512  1.00  0.00     0.093 C 
ENDBRANCH   4   8
BRANCH   5  11
ATOM     11  O   UNL     1      -0.508 -15.629   8.800  1.00  0.00    -0.507 OA
ATOM     12  H   UNL     1      -0.811 -15.866   7.862  1.00  0.00     0.293 HD
ENDBRANCH   5  11
TORSDOF 2
ENDMDL
