MODEL 1
REMARK VINA RESULT:    -4.724      0.000      0.000
REMARK INTER + INTRA:          -9.182
REMARK INTER:                  -8.314
REMARK INTRA:                  -0.868
REMARK UNBOUND:                -0.868
REMARK SMILES CCCCCCCCCCCCCCC(=O)[O-]
REMARK SMILES IDX 9 1 10 2 11 3 12 4 13 5 14 6 15 7 16 8 17 9 8 10 7 11 6 12
REMARK SMILES IDX 5 13 4 14 3 15 2 16 1 17
REMARK H PARENT
REMARK Flexibility Score: inf
ROOT
ATOM      1  C   UNL     1     113.494 102.246 112.467  1.00  0.00     0.000 C 
ENDROOT
BRANCH   1   2
ATOM      2  C   UNL     1     114.083 102.754 111.141  1.00  0.00     0.000 C 
BRANCH   2   3
ATOM      3  C   UNL     1     115.046 103.936 111.336  1.00  0.00     0.000 C 
BRANCH   3   4
ATOM      4  C   UNL     1     114.859 104.632 112.697  1.00  0.00     0.000 C 
BRANCH   4   5
ATOM      5  C   UNL     1     116.166 104.718 113.499  1.00  0.00     0.006 C 
BRANCH   5   6
ATOM      6  C   UNL     1     117.412 104.564 112.616  1.00  0.00     0.053 C 
BRANCH   6   7
ATOM      7  C   UNL     1     118.611 105.137 113.302  1.00  0.00     0.041 C 
ATOM      8  O   UNL     1     118.977 104.688 114.420  1.00  0.00    -0.550 OA
ATOM      9  O   UNL     1     119.358 106.131 112.682  1.00  0.00    -0.550 OA
ENDBRANCH   6   7
ENDBRANCH   5   6
ENDBRANCH   4   5
ENDBRANCH   3   4
ENDBRANCH   2   3
ENDBRANCH   1   2
BRANCH   1  10
ATOM     10  C   UNL     1     111.968 102.383 112.477  1.00  0.00     0.000 C 
BRANCH  10  11
ATOM     11  C   UNL     1     111.356 101.833 111.180  1.00  0.00    -0.000 C 
BRANCH  11  12
ATOM     12  C   UNL     1     110.487 102.883 110.455  1.00  0.00    -0.000 C 
BRANCH  12  13
ATOM     13  C   UNL     1     109.988 104.012 111.373  1.00  0.00    -0.000 C 
BRANCH  13  14
ATOM     14  C   UNL     1     108.859 104.839 110.739  1.00  0.00    -0.000 C 
BRANCH  14  15
ATOM     15  C   UNL     1     109.135 106.354 110.767  1.00  0.00    -0.000 C 
BRANCH  15  16
ATOM     16  C   UNL     1     108.119 107.187 111.572  1.00  0.00    -0.003 C 
ATOM     17  C   UNL     1     107.634 106.482 112.838  1.00  0.00     0.004 C 
ENDBRANCH  15  16
ENDBRANCH  14  15
ENDBRANCH  13  14
ENDBRANCH  12  13
ENDBRANCH  11  12
ENDBRANCH  10  11
ENDBRANCH   1  10
TORSDOF 13
ENDMDL
MODEL 2
REMARK VINA RESULT:    -4.682      0.624      1.023
REMARK INTER + INTRA:          -9.108
REMARK INTER:                  -8.347
REMARK INTRA:                  -0.760
REMARK UNBOUND:                -0.868
REMARK SMILES CCCCCCCCCCCCCCC(=O)[O-]
REMARK SMILES IDX 9 1 10 2 11 3 12 4 13 5 14 6 15 7 16 8 17 9 8 10 7 11 6 12
REMARK SMILES IDX 5 13 4 14 3 15 2 16 1 17
REMARK H PARENT
REMARK Flexibility Score: inf
ROOT
ATOM      1  C   UNL     1     113.017 102.186 112.008  1.00  0.00     0.000 C 
ENDROOT
BRANCH   1   2
ATOM      2  C   UNL     1     114.156 102.736 111.135  1.00  0.00     0.000 C 
BRANCH   2   3
ATOM      3  C   UNL     1     114.553 104.171 111.516  1.00  0.00     0.000 C 
BRANCH   3   4
ATOM      4  C   UNL     1     114.533 104.404 113.037  1.00  0.00     0.000 C 
BRANCH   4   5
ATOM      5  C   UNL     1     115.920 104.756 113.598  1.00  0.00     0.006 C 
BRANCH   5   6
ATOM      6  C   UNL     1     117.043 104.535 112.577  1.00  0.00     0.053 C 
BRANCH   6   7
ATOM      7  C   UNL     1     118.350 105.012 113.126  1.00  0.00     0.041 C 
ATOM      8  O   UNL     1     118.885 104.415 114.097  1.00  0.00    -0.550 OA
ATOM      9  O   UNL     1     119.003 106.085 112.533  1.00  0.00    -0.550 OA
ENDBRANCH   6   7
ENDBRANCH   5   6
ENDBRANCH   4   5
ENDBRANCH   3   4
ENDBRANCH   2   3
ENDBRANCH   1   2
BRANCH   1  10
ATOM     10  C   UNL     1     111.739 101.993 111.185  1.00  0.00     0.000 C 
BRANCH  10  11
ATOM     11  C   UNL     1     110.617 102.916 111.684  1.00  0.00    -0.000 C 
BRANCH  11  12
ATOM     12  C   UNL     1     110.156 103.912 110.598  1.00  0.00    -0.000 C 
BRANCH  12  13
ATOM     13  C   UNL     1     108.889 104.698 110.978  1.00  0.00    -0.000 C 
BRANCH  13  14
ATOM     14  C   UNL     1     109.035 106.210 110.745  1.00  0.00    -0.000 C 
BRANCH  14  15
ATOM     15  C   UNL     1     108.011 107.042 111.538  1.00  0.00    -0.000 C 
BRANCH  15  16
ATOM     16  C   UNL     1     107.632 106.468 112.917  1.00  0.00    -0.003 C 
ATOM     17  C   UNL     1     106.189 106.774 113.317  1.00  0.00     0.004 C 
ENDBRANCH  15  16
ENDBRANCH  14  15
ENDBRANCH  13  14
ENDBRANCH  12  13
ENDBRANCH  11  12
ENDBRANCH  10  11
ENDBRANCH   1  10
TORSDOF 13
ENDMDL
MODEL 3
REMARK VINA RESULT:    -4.539      4.073      7.923
REMARK INTER + INTRA:          -8.856
REMARK INTER:                  -8.005
REMARK INTRA:                  -0.851
REMARK UNBOUND:                -0.868
REMARK SMILES CCCCCCCCCCCCCCC(=O)[O-]
REMARK SMILES IDX 9 1 10 2 11 3 12 4 13 5 14 6 15 7 16 8 17 9 8 10 7 11 6 12
REMARK SMILES IDX 5 13 4 14 3 15 2 16 1 17
REMARK H PARENT
REMARK Flexibility Score: inf
ROOT
ATOM      1  C   UNL     1     112.174 102.402 112.396  1.00  0.00     0.000 C 
ENDROOT
BRANCH   1   2
ATOM      2  C   UNL     1     111.289 101.639 111.397  1.00  0.00     0.000 C 
BRANCH   2   3
ATOM      3  C   UNL     1     110.407 102.574 110.555  1.00  0.00     0.000 C 
BRANCH   3   4
ATOM      4  C   UNL     1     110.312 103.990 111.149  1.00  0.00     0.000 C 
BRANCH   4   5
ATOM      5  C   UNL     1     109.020 104.715 110.740  1.00  0.00     0.006 C 
BRANCH   5   6
ATOM      6  C   UNL     1     109.159 106.243 110.788  1.00  0.00     0.053 C 
BRANCH   6   7
ATOM      7  C   UNL     1     108.096 106.837 111.655  1.00  0.00     0.041 C 
ATOM      8  O   UNL     1     107.355 107.753 111.212  1.00  0.00    -0.550 OA
ATOM      9  O   UNL     1     107.888 106.343 112.938  1.00  0.00    -0.550 OA
ENDBRANCH   6   7
ENDBRANCH   5   6
ENDBRANCH   4   5
ENDBRANCH   3   4
ENDBRANCH   2   3
ENDBRANCH   1   2
BRANCH   1  10
ATOM     10  C   UNL     1     113.658 102.124 112.138  1.00  0.00     0.000 C 
BRANCH  10  11
ATOM     11  C   UNL     1     114.239 103.122 111.125  1.00  0.00    -0.000 C 
BRANCH  11  12
ATOM     12  C   UNL     1     115.428 103.917 111.708  1.00  0.00    -0.000 C 
BRANCH  12  13
ATOM     13  C   UNL     1     115.113 104.603 113.049  1.00  0.00    -0.000 C 
BRANCH  13  14
ATOM     14  C   UNL     1     116.338 105.300 113.661  1.00  0.00    -0.000 C 
BRANCH  14  15
ATOM     15  C   UNL     1     117.631 104.477 113.519  1.00  0.00    -0.000 C 
BRANCH  15  16
ATOM     16  C   UNL     1     118.930 105.304 113.486  1.00  0.00    -0.003 C 
ATOM     17  C   UNL     1     119.082 106.132 112.211  1.00  0.00     0.004 C 
ENDBRANCH  15  16
ENDBRANCH  14  15
ENDBRANCH  13  14
ENDBRANCH  12  13
ENDBRANCH  11  12
ENDBRANCH  10  11
ENDBRANCH   1  10
TORSDOF 13
ENDMDL
MODEL 4
REMARK VINA RESULT:    -3.852      4.889      8.469
REMARK INTER + INTRA:          -7.647
REMARK INTER:                  -6.997
REMARK INTRA:                  -0.650
REMARK UNBOUND:                -0.868
REMARK SMILES CCCCCCCCCCCCCCC(=O)[O-]
REMARK SMILES IDX 9 1 10 2 11 3 12 4 13 5 14 6 15 7 16 8 17 9 8 10 7 11 6 12
REMARK SMILES IDX 5 13 4 14 3 15 2 16 1 17
REMARK H PARENT
REMARK Flexibility Score: inf
ROOT
ATOM      1  C   UNL     1     110.350 102.932 110.478  1.00  0.00     0.000 C 
ENDROOT
BRANCH   1   2
ATOM      2  C   UNL     1     109.801 104.057 111.370  1.00  0.00     0.000 C 
BRANCH   2   3
ATOM      3  C   UNL     1     108.832 104.986 110.620  1.00  0.00     0.000 C 
BRANCH   3   4
ATOM      4  C   UNL     1     108.610 106.321 111.352  1.00  0.00     0.000 C 
BRANCH   4   5
ATOM      5  C   UNL     1     107.804 106.155 112.650  1.00  0.00     0.006 C 
BRANCH   5   6
ATOM      6  C   UNL     1     106.557 107.048 112.689  1.00  0.00     0.053 C 
BRANCH   6   7
ATOM      7  C   UNL     1     105.574 106.528 113.689  1.00  0.00     0.041 C 
ATOM      8  O   UNL     1     105.193 107.257 114.643  1.00  0.00    -0.550 OA
ATOM      9  O   UNL     1     105.037 105.255 113.539  1.00  0.00    -0.550 OA
ENDBRANCH   6   7
ENDBRANCH   5   6
ENDBRANCH   4   5
ENDBRANCH   3   4
ENDBRANCH   2   3
ENDBRANCH   1   2
BRANCH   1  10
ATOM     10  C   UNL     1     111.218 101.964 111.290  1.00  0.00     0.000 C 
BRANCH  10  11
ATOM     11  C   UNL     1     112.089 102.722 112.304  1.00  0.00    -0.000 C 
BRANCH  11  12
ATOM     12  C   UNL     1     113.583 102.353 112.176  1.00  0.00    -0.000 C 
BRANCH  12  13
ATOM     13  C   UNL     1     114.318 103.129 111.069  1.00  0.00    -0.000 C 
BRANCH  13  14
ATOM     14  C   UNL     1     115.633 103.758 111.556  1.00  0.00    -0.000 C 
BRANCH  14  15
ATOM     15  C   UNL     1     115.472 104.545 112.870  1.00  0.00    -0.000 C 
BRANCH  15  16
ATOM     16  C   UNL     1     116.791 104.929 113.566  1.00  0.00    -0.003 C 
ATOM     17  C   UNL     1     118.030 104.524 112.768  1.00  0.00     0.004 C 
ENDBRANCH  15  16
ENDBRANCH  14  15
ENDBRANCH  13  14
ENDBRANCH  12  13
ENDBRANCH  11  12
ENDBRANCH  10  11
ENDBRANCH   1  10
TORSDOF 13
ENDMDL
MODEL 5
REMARK VINA RESULT:    -3.817      1.476      2.744
REMARK INTER + INTRA:          -7.585
REMARK INTER:                  -7.136
REMARK INTRA:                  -0.450
REMARK UNBOUND:                -0.868
REMARK SMILES CCCCCCCCCCCCCCC(=O)[O-]
REMARK SMILES IDX 9 1 10 2 11 3 12 4 13 5 14 6 15 7 16 8 17 9 8 10 7 11 6 12
REMARK SMILES IDX 5 13 4 14 3 15 2 16 1 17
REMARK H PARENT
REMARK Flexibility Score: inf
ROOT
ATOM      1  C   UNL     1     111.196 102.759 111.114  1.00  0.00     0.000 C 
ENDROOT
BRANCH   1   2
ATOM      2  C   UNL     1     112.202 102.278 112.172  1.00  0.00     0.000 C 
BRANCH   2   3
ATOM      3  C   UNL     1     113.661 102.442 111.718  1.00  0.00     0.000 C 
BRANCH   3   4
ATOM      4  C   UNL     1     114.222 103.842 112.026  1.00  0.00     0.000 C 
BRANCH   4   5
ATOM      5  C   UNL     1     115.758 103.863 112.077  1.00  0.00     0.006 C 
BRANCH   5   6
ATOM      6  C   UNL     1     116.298 104.626 113.293  1.00  0.00     0.053 C 
BRANCH   6   7
ATOM      7  C   UNL     1     117.784 104.765 113.205  1.00  0.00     0.041 C 
ATOM      8  O   UNL     1     118.304 105.441 112.279  1.00  0.00    -0.550 OA
ATOM      9  O   UNL     1     118.595 104.189 114.176  1.00  0.00    -0.550 OA
ENDBRANCH   6   7
ENDBRANCH   5   6
ENDBRANCH   4   5
ENDBRANCH   3   4
ENDBRANCH   2   3
ENDBRANCH   1   2
BRANCH   1  10
ATOM     10  C   UNL     1     110.347 103.916 111.651  1.00  0.00     0.000 C 
BRANCH  10  11
ATOM     11  C   UNL     1     109.188 104.239 110.695  1.00  0.00    -0.000 C 
BRANCH  11  12
ATOM     12  C   UNL     1     108.728 105.708 110.816  1.00  0.00    -0.000 C 
BRANCH  12  13
ATOM     13  C   UNL     1     108.520 106.173 112.268  1.00  0.00    -0.000 C 
BRANCH  13  14
ATOM     14  C   UNL     1     107.179 106.894 112.476  1.00  0.00    -0.000 C 
BRANCH  14  15
ATOM     15  C   UNL     1     106.195 106.093 113.348  1.00  0.00    -0.000 C 
BRANCH  15  16
ATOM     16  C   UNL     1     104.955 106.876 113.819  1.00  0.00    -0.003 C 
ATOM     17  C   UNL     1     103.648 106.113 113.608  1.00  0.00     0.004 C 
ENDBRANCH  15  16
ENDBRANCH  14  15
ENDBRANCH  13  14
ENDBRANCH  12  13
ENDBRANCH  11  12
ENDBRANCH  10  11
ENDBRANCH   1  10
TORSDOF 13
ENDMDL
MODEL 6
REMARK VINA RESULT:    -3.721      4.710      8.429
REMARK INTER + INTRA:          -7.417
REMARK INTER:                  -6.862
REMARK INTRA:                  -0.555
REMARK UNBOUND:                -0.868
REMARK SMILES CCCCCCCCCCCCCCC(=O)[O-]
REMARK SMILES IDX 9 1 10 2 11 3 12 4 13 5 14 6 15 7 16 8 17 9 8 10 7 11 6 12
REMARK SMILES IDX 5 13 4 14 3 15 2 16 1 17
REMARK H PARENT
REMARK Flexibility Score: inf
ROOT
ATOM      1  C   UNL     1     110.434 102.704 111.500  1.00  0.00     0.000 C 
ENDROOT
BRANCH   1   2
ATOM      2  C   UNL     1     110.150 103.961 110.662  1.00  0.00     0.000 C 
BRANCH   2   3
ATOM      3  C   UNL     1     108.869 104.688 111.101  1.00  0.00     0.000 C 
BRANCH   3   4
ATOM      4  C   UNL     1     108.890 106.186 110.749  1.00  0.00     0.000 C 
BRANCH   4   5
ATOM      5  C   UNL     1     107.832 106.988 111.522  1.00  0.00     0.006 C 
BRANCH   5   6
ATOM      6  C   UNL     1     107.668 106.507 112.970  1.00  0.00     0.053 C 
BRANCH   6   7
ATOM      7  C   UNL     1     106.220 106.330 113.300  1.00  0.00     0.041 C 
ATOM      8  O   UNL     1     105.714 105.177 113.335  1.00  0.00    -0.550 OA
ATOM      9  O   UNL     1     105.440 107.435 113.621  1.00  0.00    -0.550 OA
ENDBRANCH   6   7
ENDBRANCH   5   6
ENDBRANCH   4   5
ENDBRANCH   3   4
ENDBRANCH   2   3
ENDBRANCH   1   2
BRANCH   1  10
ATOM     10  C   UNL     1     111.787 102.090 111.126  1.00  0.00     0.000 C 
BRANCH  10  11
ATOM     11  C   UNL     1     112.789 102.217 112.284  1.00  0.00    -0.000 C 
BRANCH  11  12
ATOM     12  C   UNL     1     114.176 102.696 111.803  1.00  0.00    -0.000 C 
BRANCH  12  13
ATOM     13  C   UNL     1     114.390 104.213 111.946  1.00  0.00    -0.000 C 
BRANCH  13  14
ATOM     14  C   UNL     1     115.434 104.568 113.016  1.00  0.00    -0.000 C 
BRANCH  14  15
ATOM     15  C   UNL     1     116.877 104.543 112.480  1.00  0.00    -0.000 C 
BRANCH  15  16
ATOM     16  C   UNL     1     117.970 104.801 113.534  1.00  0.00    -0.003 C 
ATOM     17  C   UNL     1     119.088 105.712 113.028  1.00  0.00     0.004 C 
ENDBRANCH  15  16
ENDBRANCH  14  15
ENDBRANCH  13  14
ENDBRANCH  12  13
ENDBRANCH  11  12
ENDBRANCH  10  11
ENDBRANCH   1  10
TORSDOF 13
ENDMDL
MODEL 7
REMARK VINA RESULT:    -3.151      5.200      8.929
REMARK INTER + INTRA:          -6.415
REMARK INTER:                  -5.944
REMARK INTRA:                  -0.471
REMARK UNBOUND:                -0.868
REMARK SMILES CCCCCCCCCCCCCCC(=O)[O-]
REMARK SMILES IDX 9 1 10 2 11 3 12 4 13 5 14 6 15 7 16 8 17 9 8 10 7 11 6 12
REMARK SMILES IDX 5 13 4 14 3 15 2 16 1 17
REMARK H PARENT
REMARK Flexibility Score: inf
ROOT
ATOM      1  C   UNL     1     108.850 104.880 110.676  1.00  0.00     0.000 C 
ENDROOT
BRANCH   1   2
ATOM      2  C   UNL     1     108.548 106.311 111.148  1.00  0.00     0.000 C 
BRANCH   2   3
ATOM      3  C   UNL     1     108.065 106.364 112.606  1.00  0.00     0.000 C 
BRANCH   3   4
ATOM      4  C   UNL     1     106.698 107.055 112.750  1.00  0.00     0.000 C 
BRANCH   4   5
ATOM      5  C   UNL     1     105.793 106.362 113.782  1.00  0.00     0.006 C 
BRANCH   5   6
ATOM      6  C   UNL     1     104.669 107.275 114.289  1.00  0.00     0.053 C 
BRANCH   6   7
ATOM      7  C   UNL     1     104.868 107.592 115.737  1.00  0.00     0.041 C 
ATOM      8  O   UNL     1     104.421 106.817 116.623  1.00  0.00    -0.550 OA
ATOM      9  O   UNL     1     105.593 108.718 116.110  1.00  0.00    -0.550 OA
ENDBRANCH   6   7
ENDBRANCH   5   6
ENDBRANCH   4   5
ENDBRANCH   3   4
ENDBRANCH   2   3
ENDBRANCH   1   2
BRANCH   1  10
ATOM     10  C   UNL     1     109.898 104.216 111.576  1.00  0.00     0.000 C 
BRANCH  10  11
ATOM     11  C   UNL     1     110.653 103.110 110.821  1.00  0.00    -0.000 C 
BRANCH  11  12
ATOM     12  C   UNL     1     111.516 102.246 111.766  1.00  0.00    -0.000 C 
BRANCH  12  13
ATOM     13  C   UNL     1     113.019 102.285 111.437  1.00  0.00    -0.000 C 
BRANCH  13  14
ATOM     14  C   UNL     1     113.780 103.339 112.258  1.00  0.00    -0.000 C 
BRANCH  14  15
ATOM     15  C   UNL     1     115.104 103.771 111.601  1.00  0.00    -0.000 C 
BRANCH  15  16
ATOM     16  C   UNL     1     116.185 104.268 112.578  1.00  0.00    -0.003 C 
ATOM     17  C   UNL     1     115.652 105.267 113.604  1.00  0.00     0.004 C 
ENDBRANCH  15  16
ENDBRANCH  14  15
ENDBRANCH  13  14
ENDBRANCH  12  13
ENDBRANCH  11  12
ENDBRANCH  10  11
ENDBRANCH   1  10
TORSDOF 13
ENDMDL
MODEL 8
REMARK VINA RESULT:    -2.439      2.795      5.179
REMARK INTER + INTRA:          -5.161
REMARK INTER:                  -4.502
REMARK INTRA:                  -0.659
REMARK UNBOUND:                -0.868
REMARK SMILES CCCCCCCCCCCCCCC(=O)[O-]
REMARK SMILES IDX 9 1 10 2 11 3 12 4 13 5 14 6 15 7 16 8 17 9 8 10 7 11 6 12
REMARK SMILES IDX 5 13 4 14 3 15 2 16 1 17
REMARK H PARENT
REMARK Flexibility Score: inf
ROOT
ATOM      1  C   UNL     1     109.646 105.295 110.846  1.00  0.00     0.000 C 
ENDROOT
BRANCH   1   2
ATOM      2  C   UNL     1     109.658 103.759 110.790  1.00  0.00     0.000 C 
BRANCH   2   3
ATOM      3  C   UNL     1     110.763 103.144 111.663  1.00  0.00     0.000 C 
BRANCH   3   4
ATOM      4  C   UNL     1     111.603 102.101 110.905  1.00  0.00     0.000 C 
BRANCH   4   5
ATOM      5  C   UNL     1     112.929 101.784 111.613  1.00  0.00     0.006 C 
BRANCH   5   6
ATOM      6  C   UNL     1     113.405 102.930 112.516  1.00  0.00     0.053 C 
BRANCH   6   7
ATOM      7  C   UNL     1     114.299 103.857 111.755  1.00  0.00     0.041 C 
ATOM      8  O   UNL     1     113.938 105.041 111.526  1.00  0.00    -0.550 OA
ATOM      9  O   UNL     1     115.556 103.427 111.344  1.00  0.00    -0.550 OA
ENDBRANCH   6   7
ENDBRANCH   5   6
ENDBRANCH   4   5
ENDBRANCH   3   4
ENDBRANCH   2   3
ENDBRANCH   1   2
BRANCH   1  10
ATOM     10  C   UNL     1     108.222 105.839 110.688  1.00  0.00     0.000 C 
BRANCH  10  11
ATOM     11  C   UNL     1     107.953 106.978 111.684  1.00  0.00    -0.000 C 
BRANCH  11  12
ATOM     12  C   UNL     1     107.609 106.448 113.093  1.00  0.00    -0.000 C 
BRANCH  12  13
ATOM     13  C   UNL     1     106.113 106.147 113.292  1.00  0.00    -0.000 C 
BRANCH  13  14
ATOM     14  C   UNL     1     105.351 107.319 113.931  1.00  0.00    -0.000 C 
BRANCH  14  15
ATOM     15  C   UNL     1     104.415 106.876 115.071  1.00  0.00    -0.000 C 
BRANCH  15  16
ATOM     16  C   UNL     1     104.865 107.292 116.484  1.00  0.00    -0.003 C 
ATOM     17  C   UNL     1     105.295 108.756 116.570  1.00  0.00     0.004 C 
ENDBRANCH  15  16
ENDBRANCH  14  15
ENDBRANCH  13  14
ENDBRANCH  12  13
ENDBRANCH  11  12
ENDBRANCH  10  11
ENDBRANCH   1  10
TORSDOF 13
ENDMDL
MODEL 9
REMARK VINA RESULT:    -1.776      3.957      8.398
REMARK INTER + INTRA:          -3.995
REMARK INTER:                  -3.068
REMARK INTRA:                  -0.927
REMARK UNBOUND:                -0.868
REMARK SMILES CCCCCCCCCCCCCCC(=O)[O-]
REMARK SMILES IDX 9 1 10 2 11 3 12 4 13 5 14 6 15 7 16 8 17 9 8 10 7 11 6 12
REMARK SMILES IDX 5 13 4 14 3 15 2 16 1 17
REMARK H PARENT
REMARK Flexibility Score: inf
ROOT
ATOM      1  C   UNL     1     114.409 103.844 112.989  1.00  0.00     0.000 C 
ENDROOT
BRANCH   1   2
ATOM      2  C   UNL     1     113.374 102.708 113.003  1.00  0.00     0.000 C 
BRANCH   2   3
ATOM      3  C   UNL     1     113.145 102.100 111.611  1.00  0.00     0.000 C 
BRANCH   3   4
ATOM      4  C   UNL     1     111.652 101.923 111.281  1.00  0.00     0.000 C 
BRANCH   4   5
ATOM      5  C   UNL     1     111.010 103.214 110.748  1.00  0.00     0.006 C 
BRANCH   5   6
ATOM      6  C   UNL     1     109.733 103.595 111.507  1.00  0.00     0.053 C 
BRANCH   6   7
ATOM      7  C   UNL     1     109.001 104.682 110.786  1.00  0.00     0.041 C 
ATOM      8  O   UNL     1     108.862 105.815 111.318  1.00  0.00    -0.550 OA
ATOM      9  O   UNL     1     108.518 104.460 109.501  1.00  0.00    -0.550 OA
ENDBRANCH   6   7
ENDBRANCH   5   6
ENDBRANCH   4   5
ENDBRANCH   3   4
ENDBRANCH   2   3
ENDBRANCH   1   2
BRANCH   1  10
ATOM     10  C   UNL     1     115.346 103.717 111.783  1.00  0.00     0.000 C 
BRANCH  10  11
ATOM     11  C   UNL     1     116.783 104.115 112.156  1.00  0.00    -0.000 C 
BRANCH  11  12
ATOM     12  C   UNL     1     116.821 105.322 113.118  1.00  0.00    -0.000 C 
BRANCH  12  13
ATOM     13  C   UNL     1     118.061 106.215 112.940  1.00  0.00    -0.000 C 
BRANCH  13  14
ATOM     14  C   UNL     1     119.378 105.433 113.050  1.00  0.00    -0.000 C 
BRANCH  14  15
ATOM     15  C   UNL     1     120.054 105.585 114.425  1.00  0.00    -0.000 C 
BRANCH  15  16
ATOM     16  C   UNL     1     119.565 104.602 115.505  1.00  0.00    -0.003 C 
ATOM     17  C   UNL     1     119.129 103.253 114.934  1.00  0.00     0.004 C 
ENDBRANCH  15  16
ENDBRANCH  14  15
ENDBRANCH  13  14
ENDBRANCH  12  13
ENDBRANCH  11  12
ENDBRANCH  10  11
ENDBRANCH   1  10
TORSDOF 13
ENDMDL
