MODEL 1
REMARK VINA RESULT:    -3.107      0.000      0.000
REMARK INTER + INTRA:          -5.991
REMARK INTER:                  -4.742
REMARK INTRA:                  -1.249
REMARK UNBOUND:                -1.249
REMARK SMILES CCCCCCCCCCC(=O)[O-]
REMARK SMILES IDX 7 1 8 2 9 3 10 4 11 5 12 6 13 7 6 8 5 9 4 10 3 11 2 12 1 13
REMARK H PARENT
REMARK Flexibility Score: inf
ROOT
ATOM      1  C   UNL     1      -9.677   4.451  33.965  1.00  0.00     0.000 C 
ENDROOT
BRANCH   1   2
ATOM      2  C   UNL     1     -10.569   4.238  32.735  1.00  0.00     0.000 C 
BRANCH   2   3
ATOM      3  C   UNL     1     -11.795   5.161  32.778  1.00  0.00     0.006 C 
BRANCH   3   4
ATOM      4  C   UNL     1     -13.012   4.541  32.078  1.00  0.00     0.053 C 
BRANCH   4   5
ATOM      5  C   UNL     1     -13.124   4.992  30.654  1.00  0.00     0.041 C 
ATOM      6  O   UNL     1     -12.856   6.183  30.344  1.00  0.00    -0.550 OA
ATOM      7  O   UNL     1     -13.492   4.090  29.664  1.00  0.00    -0.550 OA
ENDBRANCH   4   5
ENDBRANCH   3   4
ENDBRANCH   2   3
ENDBRANCH   1   2
BRANCH   1   8
ATOM      8  C   UNL     1     -10.215   5.585  34.846  1.00  0.00     0.000 C 
BRANCH   8   9
ATOM      9  C   UNL     1     -10.198   5.185  36.329  1.00  0.00    -0.000 C 
BRANCH   9  10
ATOM     10  C   UNL     1     -10.501   3.694  36.542  1.00  0.00    -0.000 C 
BRANCH  10  11
ATOM     11  C   UNL     1     -11.953   3.442  36.984  1.00  0.00    -0.000 C 
BRANCH  11  12
ATOM     12  C   UNL     1     -12.904   3.244  35.795  1.00  0.00    -0.003 C 
ATOM     13  C   UNL     1     -12.591   1.983  34.991  1.00  0.00     0.004 C 
ENDBRANCH  11  12
ENDBRANCH  10  11
ENDBRANCH   9  10
ENDBRANCH   8   9
ENDBRANCH   1   8
TORSDOF 9
ENDMDL
MODEL 2
REMARK VINA RESULT:    -3.047     10.660     11.846
REMARK INTER + INTRA:          -5.899
REMARK INTER:                  -5.468
REMARK INTRA:                  -0.431
REMARK UNBOUND:                -1.249
REMARK SMILES CCCCCCCCCCC(=O)[O-]
REMARK SMILES IDX 7 1 8 2 9 3 10 4 11 5 12 6 13 7 6 8 5 9 4 10 3 11 2 12 1 13
REMARK H PARENT
REMARK Flexibility Score: inf
ROOT
ATOM      1  C   UNL     1      -4.376  -2.113  33.411  1.00  0.00     0.000 C 
ENDROOT
BRANCH   1   2
ATOM      2  C   UNL     1      -4.045  -3.566  33.047  1.00  0.00     0.000 C 
BRANCH   2   3
ATOM      3  C   UNL     1      -2.528  -3.777  32.950  1.00  0.00     0.006 C 
BRANCH   3   4
ATOM      4  C   UNL     1      -2.138  -5.256  33.076  1.00  0.00     0.053 C 
BRANCH   4   5
ATOM      5  C   UNL     1      -1.953  -5.900  31.736  1.00  0.00     0.041 C 
ATOM      6  O   UNL     1      -1.419  -5.257  30.794  1.00  0.00    -0.550 OA
ATOM      7  O   UNL     1      -2.340  -7.219  31.538  1.00  0.00    -0.550 OA
ENDBRANCH   4   5
ENDBRANCH   3   4
ENDBRANCH   2   3
ENDBRANCH   1   2
BRANCH   1   8
ATOM      8  C   UNL     1      -3.098  -1.295  33.630  1.00  0.00     0.000 C 
BRANCH   8   9
ATOM      9  C   UNL     1      -3.416   0.054  34.292  1.00  0.00    -0.000 C 
BRANCH   9  10
ATOM     10  C   UNL     1      -2.604   0.288  35.576  1.00  0.00    -0.000 C 
BRANCH  10  11
ATOM     11  C   UNL     1      -3.396   1.060  36.645  1.00  0.00    -0.000 C 
BRANCH  11  12
ATOM     12  C   UNL     1      -3.530   0.276  37.959  1.00  0.00    -0.003 C 
ATOM     13  C   UNL     1      -4.897  -0.388  38.114  1.00  0.00     0.004 C 
ENDBRANCH  11  12
ENDBRANCH  10  11
ENDBRANCH   9  10
ENDBRANCH   8   9
ENDBRANCH   1   8
TORSDOF 9
ENDMDL
MODEL 3
REMARK VINA RESULT:    -3.007      3.462      6.636
REMARK INTER + INTRA:          -5.839
REMARK INTER:                  -4.764
REMARK INTRA:                  -1.075
REMARK UNBOUND:                -1.249
REMARK SMILES CCCCCCCCCCC(=O)[O-]
REMARK SMILES IDX 7 1 8 2 9 3 10 4 11 5 12 6 13 7 6 8 5 9 4 10 3 11 2 12 1 13
REMARK H PARENT
REMARK Flexibility Score: inf
ROOT
ATOM      1  C   UNL     1     -11.439   4.036  28.882  1.00  0.00     0.000 C 
ENDROOT
BRANCH   1   2
ATOM      2  C   UNL     1     -12.854   4.623  28.962  1.00  0.00     0.000 C 
BRANCH   2   3
ATOM      3  C   UNL     1     -13.289   4.813  30.422  1.00  0.00     0.006 C 
BRANCH   3   4
ATOM      4  C   UNL     1     -12.197   5.478  31.271  1.00  0.00     0.053 C 
BRANCH   4   5
ATOM      5  C   UNL     1     -12.240   5.014  32.695  1.00  0.00     0.041 C 
ATOM      6  O   UNL     1     -11.348   5.378  33.506  1.00  0.00    -0.550 OA
ATOM      7  O   UNL     1     -13.283   4.209  33.134  1.00  0.00    -0.550 OA
ENDBRANCH   4   5
ENDBRANCH   3   4
ENDBRANCH   2   3
ENDBRANCH   1   2
BRANCH   1   8
ATOM      8  C   UNL     1     -10.565   4.836  27.909  1.00  0.00     0.000 C 
BRANCH   8   9
ATOM      9  C   UNL     1      -9.645   5.805  28.667  1.00  0.00    -0.000 C 
BRANCH   9  10
ATOM     10  C   UNL     1      -9.815   7.261  28.208  1.00  0.00    -0.000 C 
BRANCH  10  11
ATOM     11  C   UNL     1     -11.113   7.900  28.733  1.00  0.00    -0.000 C 
BRANCH  11  12
ATOM     12  C   UNL     1     -12.209   7.973  27.659  1.00  0.00    -0.003 C 
ATOM     13  C   UNL     1     -11.644   8.125  26.248  1.00  0.00     0.004 C 
ENDBRANCH  11  12
ENDBRANCH  10  11
ENDBRANCH   9  10
ENDBRANCH   8   9
ENDBRANCH   1   8
TORSDOF 9
ENDMDL
MODEL 4
REMARK VINA RESULT:    -2.952     14.957     16.204
REMARK INTER + INTRA:          -5.754
REMARK INTER:                  -5.404
REMARK INTRA:                  -0.350
REMARK UNBOUND:                -1.249
REMARK SMILES CCCCCCCCCCC(=O)[O-]
REMARK SMILES IDX 7 1 8 2 9 3 10 4 11 5 12 6 13 7 6 8 5 9 4 10 3 11 2 12 1 13
REMARK H PARENT
REMARK Flexibility Score: inf
ROOT
ATOM      1  C   UNL     1      -3.371  -7.138  30.010  1.00  0.00     0.000 C 
ENDROOT
BRANCH   1   2
ATOM      2  C   UNL     1      -2.235  -7.356  31.017  1.00  0.00     0.000 C 
BRANCH   2   3
ATOM      3  C   UNL     1      -1.272  -6.161  31.028  1.00  0.00     0.006 C 
BRANCH   3   4
ATOM      4  C   UNL     1      -1.987  -4.842  31.348  1.00  0.00     0.053 C 
BRANCH   4   5
ATOM      5  C   UNL     1      -2.285  -4.711  32.810  1.00  0.00     0.041 C 
ATOM      6  O   UNL     1      -1.619  -5.367  33.653  1.00  0.00    -0.550 OA
ATOM      7  O   UNL     1      -3.277  -3.840  33.243  1.00  0.00    -0.550 OA
ENDBRANCH   4   5
ENDBRANCH   3   4
ENDBRANCH   2   3
ENDBRANCH   1   2
BRANCH   1   8
ATOM      8  C   UNL     1      -4.448  -8.220  30.151  1.00  0.00     0.000 C 
BRANCH   8   9
ATOM      9  C   UNL     1      -4.093  -9.461  29.318  1.00  0.00    -0.000 C 
BRANCH   9  10
ATOM     10  C   UNL     1      -4.993  -9.619  28.082  1.00  0.00    -0.000 C 
BRANCH  10  11
ATOM     11  C   UNL     1      -4.198  -9.607  26.765  1.00  0.00    -0.000 C 
BRANCH  11  12
ATOM     12  C   UNL     1      -3.354 -10.876  26.575  1.00  0.00    -0.003 C 
ATOM     13  C   UNL     1      -2.775 -10.995  25.166  1.00  0.00     0.004 C 
ENDBRANCH  11  12
ENDBRANCH  10  11
ENDBRANCH   9  10
ENDBRANCH   8   9
ENDBRANCH   1   8
TORSDOF 9
ENDMDL
MODEL 5
REMARK VINA RESULT:    -2.883     13.352     14.333
REMARK INTER + INTRA:          -5.649
REMARK INTER:                  -4.600
REMARK INTRA:                  -1.049
REMARK UNBOUND:                -1.249
REMARK SMILES CCCCCCCCCCC(=O)[O-]
REMARK SMILES IDX 7 1 8 2 9 3 10 4 11 5 12 6 13 7 6 8 5 9 4 10 3 11 2 12 1 13
REMARK H PARENT
REMARK Flexibility Score: inf
ROOT
ATOM      1  C   UNL     1      -1.294  -6.471  30.754  1.00  0.00     0.000 C 
ENDROOT
BRANCH   1   2
ATOM      2  C   UNL     1      -2.376  -7.470  31.180  1.00  0.00     0.000 C 
BRANCH   2   3
ATOM      3  C   UNL     1      -3.422  -7.656  30.071  1.00  0.00     0.006 C 
BRANCH   3   4
ATOM      4  C   UNL     1      -4.484  -8.699  30.442  1.00  0.00     0.053 C 
BRANCH   4   5
ATOM      5  C   UNL     1      -4.914  -9.504  29.254  1.00  0.00     0.041 C 
ATOM      6  O   UNL     1      -6.085  -9.964  29.191  1.00  0.00    -0.550 OA
ATOM      7  O   UNL     1      -4.033  -9.718  28.203  1.00  0.00    -0.550 OA
ENDBRANCH   4   5
ENDBRANCH   3   4
ENDBRANCH   2   3
ENDBRANCH   1   2
BRANCH   1   8
ATOM      8  C   UNL     1      -1.640  -5.052  31.220  1.00  0.00     0.000 C 
BRANCH   8   9
ATOM      9  C   UNL     1      -1.923  -5.023  32.730  1.00  0.00    -0.000 C 
BRANCH   9  10
ATOM     10  C   UNL     1      -3.044  -4.041  33.102  1.00  0.00    -0.000 C 
BRANCH  10  11
ATOM     11  C   UNL     1      -4.113  -3.918  32.002  1.00  0.00    -0.000 C 
BRANCH  11  12
ATOM     12  C   UNL     1      -5.278  -4.899  32.199  1.00  0.00    -0.003 C 
ATOM     13  C   UNL     1      -6.024  -5.200  30.900  1.00  0.00     0.004 C 
ENDBRANCH  11  12
ENDBRANCH  10  11
ENDBRANCH   9  10
ENDBRANCH   8   9
ENDBRANCH   1   8
TORSDOF 9
ENDMDL
MODEL 6
REMARK VINA RESULT:    -2.840      1.609      2.886
REMARK INTER + INTRA:          -5.584
REMARK INTER:                  -5.130
REMARK INTRA:                  -0.454
REMARK UNBOUND:                -1.249
REMARK SMILES CCCCCCCCCCC(=O)[O-]
REMARK SMILES IDX 7 1 8 2 9 3 10 4 11 5 12 6 13 7 6 8 5 9 4 10 3 11 2 12 1 13
REMARK H PARENT
REMARK Flexibility Score: inf
ROOT
ATOM      1  C   UNL     1     -11.895   4.064  33.934  1.00  0.00     0.000 C 
ENDROOT
BRANCH   1   2
ATOM      2  C   UNL     1     -13.034   4.373  32.956  1.00  0.00     0.000 C 
BRANCH   2   3
ATOM      3  C   UNL     1     -12.554   5.293  31.824  1.00  0.00     0.006 C 
BRANCH   3   4
ATOM      4  C   UNL     1     -13.172   4.920  30.470  1.00  0.00     0.053 C 
BRANCH   4   5
ATOM      5  C   UNL     1     -12.707   5.831  29.376  1.00  0.00     0.041 C 
ATOM      6  O   UNL     1     -12.143   6.921  29.657  1.00  0.00    -0.550 OA
ATOM      7  O   UNL     1     -12.865   5.460  28.047  1.00  0.00    -0.550 OA
ENDBRANCH   4   5
ENDBRANCH   3   4
ENDBRANCH   2   3
ENDBRANCH   1   2
BRANCH   1   8
ATOM      8  C   UNL     1     -10.780   5.112  33.831  1.00  0.00     0.000 C 
BRANCH   8   9
ATOM      9  C   UNL     1     -10.272   5.514  35.224  1.00  0.00    -0.000 C 
BRANCH   9  10
ATOM     10  C   UNL     1     -10.655   4.495  36.308  1.00  0.00    -0.000 C 
BRANCH  10  11
ATOM     11  C   UNL     1      -9.458   4.083  37.183  1.00  0.00    -0.000 C 
BRANCH  11  12
ATOM     12  C   UNL     1      -8.541   5.267  37.522  1.00  0.00    -0.003 C 
ATOM     13  C   UNL     1      -7.695   5.021  38.770  1.00  0.00     0.004 C 
ENDBRANCH  11  12
ENDBRANCH  10  11
ENDBRANCH   9  10
ENDBRANCH   8   9
ENDBRANCH   1   8
TORSDOF 9
ENDMDL
MODEL 7
REMARK VINA RESULT:    -2.818      1.883      2.477
REMARK INTER + INTRA:          -5.550
REMARK INTER:                  -4.693
REMARK INTRA:                  -0.858
REMARK UNBOUND:                -1.249
REMARK SMILES CCCCCCCCCCC(=O)[O-]
REMARK SMILES IDX 7 1 8 2 9 3 10 4 11 5 12 6 13 7 6 8 5 9 4 10 3 11 2 12 1 13
REMARK H PARENT
REMARK Flexibility Score: inf
ROOT
ATOM      1  C   UNL     1     -10.797   4.454  33.788  1.00  0.00     0.000 C 
ENDROOT
BRANCH   1   2
ATOM      2  C   UNL     1     -11.834   5.060  32.834  1.00  0.00     0.000 C 
BRANCH   2   3
ATOM      3  C   UNL     1     -13.190   4.353  32.974  1.00  0.00     0.006 C 
BRANCH   3   4
ATOM      4  C   UNL     1     -13.038   2.878  33.369  1.00  0.00     0.053 C 
BRANCH   4   5
ATOM      5  C   UNL     1     -13.831   1.977  32.473  1.00  0.00     0.041 C 
ATOM      6  O   UNL     1     -14.326   0.911  32.925  1.00  0.00    -0.550 OA
ATOM      7  O   UNL     1     -14.051   2.330  31.148  1.00  0.00    -0.550 OA
ENDBRANCH   4   5
ENDBRANCH   3   4
ENDBRANCH   2   3
ENDBRANCH   1   2
BRANCH   1   8
ATOM      8  C   UNL     1     -10.254   5.512  34.756  1.00  0.00     0.000 C 
BRANCH   8   9
ATOM      9  C   UNL     1     -10.191   4.964  36.190  1.00  0.00    -0.000 C 
BRANCH   9  10
ATOM     10  C   UNL     1     -10.970   3.650  36.355  1.00  0.00    -0.000 C 
BRANCH  10  11
ATOM     11  C   UNL     1     -11.202   3.280  37.830  1.00  0.00    -0.000 C 
BRANCH  11  12
ATOM     12  C   UNL     1     -12.606   2.709  38.080  1.00  0.00    -0.003 C 
ATOM     13  C   UNL     1     -13.627   3.179  37.045  1.00  0.00     0.004 C 
ENDBRANCH  11  12
ENDBRANCH  10  11
ENDBRANCH   9  10
ENDBRANCH   8   9
ENDBRANCH   1   8
TORSDOF 9
ENDMDL
MODEL 8
REMARK VINA RESULT:    -2.804      0.940      2.800
REMARK INTER + INTRA:          -5.528
REMARK INTER:                  -4.211
REMARK INTRA:                  -1.317
REMARK UNBOUND:                -1.249
REMARK SMILES CCCCCCCCCCC(=O)[O-]
REMARK SMILES IDX 7 1 8 2 9 3 10 4 11 5 12 6 13 7 6 8 5 9 4 10 3 11 2 12 1 13
REMARK H PARENT
REMARK Flexibility Score: inf
ROOT
ATOM      1  C   UNL     1     -12.862   2.181  34.736  1.00  0.00     0.000 C 
ENDROOT
BRANCH   1   2
ATOM      2  C   UNL     1     -12.518   2.757  33.357  1.00  0.00     0.000 C 
BRANCH   2   3
ATOM      3  C   UNL     1     -13.221   4.103  33.131  1.00  0.00     0.006 C 
BRANCH   3   4
ATOM      4  C   UNL     1     -12.328   5.109  32.393  1.00  0.00     0.053 C 
BRANCH   4   5
ATOM      5  C   UNL     1     -12.769   5.311  30.976  1.00  0.00     0.041 C 
ATOM      6  O   UNL     1     -13.342   4.378  30.353  1.00  0.00    -0.550 OA
ATOM      7  O   UNL     1     -12.579   6.538  30.355  1.00  0.00    -0.550 OA
ENDBRANCH   4   5
ENDBRANCH   3   4
ENDBRANCH   2   3
ENDBRANCH   1   2
BRANCH   1   8
ATOM      8  C   UNL     1     -12.734   3.251  35.828  1.00  0.00     0.000 C 
BRANCH   8   9
ATOM      9  C   UNL     1     -11.306   3.292  36.392  1.00  0.00    -0.000 C 
BRANCH   9  10
ATOM     10  C   UNL     1     -10.704   4.705  36.374  1.00  0.00    -0.000 C 
BRANCH  10  11
ATOM     11  C   UNL     1      -9.844   4.967  35.126  1.00  0.00    -0.000 C 
BRANCH  11  12
ATOM     12  C   UNL     1      -9.095   3.712  34.653  1.00  0.00    -0.003 C 
ATOM     13  C   UNL     1      -8.956   3.645  33.133  1.00  0.00     0.004 C 
ENDBRANCH  11  12
ENDBRANCH  10  11
ENDBRANCH   9  10
ENDBRANCH   8   9
ENDBRANCH   1   8
TORSDOF 9
ENDMDL
MODEL 9
REMARK VINA RESULT:    -2.776     13.137     14.231
REMARK INTER + INTRA:          -5.486
REMARK INTER:                  -4.254
REMARK INTRA:                  -1.232
REMARK UNBOUND:                -1.249
REMARK SMILES CCCCCCCCCCC(=O)[O-]
REMARK SMILES IDX 7 1 8 2 9 3 10 4 11 5 12 6 13 7 6 8 5 9 4 10 3 11 2 12 1 13
REMARK H PARENT
REMARK Flexibility Score: inf
ROOT
ATOM      1  C   UNL     1      -4.831  -4.425  30.713  1.00  0.00     0.000 C 
ENDROOT
BRANCH   1   2
ATOM      2  C   UNL     1      -5.001  -5.790  30.035  1.00  0.00     0.000 C 
BRANCH   2   3
ATOM      3  C   UNL     1      -5.129  -6.910  31.077  1.00  0.00     0.006 C 
BRANCH   3   4
ATOM      4  C   UNL     1      -5.474  -8.261  30.437  1.00  0.00     0.053 C 
BRANCH   4   5
ATOM      5  C   UNL     1      -4.248  -9.078  30.166  1.00  0.00     0.041 C 
ATOM      6  O   UNL     1      -3.527  -9.474  31.121  1.00  0.00    -0.550 OA
ATOM      7  O   UNL     1      -3.919  -9.431  28.864  1.00  0.00    -0.550 OA
ENDBRANCH   4   5
ENDBRANCH   3   4
ENDBRANCH   2   3
ENDBRANCH   1   2
BRANCH   1   8
ATOM      8  C   UNL     1      -4.942  -4.549  32.238  1.00  0.00     0.000 C 
BRANCH   8   9
ATOM      9  C   UNL     1      -3.711  -3.944  32.929  1.00  0.00    -0.000 C 
BRANCH   9  10
ATOM     10  C   UNL     1      -2.414  -4.184  32.142  1.00  0.00    -0.000 C 
BRANCH  10  11
ATOM     11  C   UNL     1      -1.653  -5.433  32.620  1.00  0.00    -0.000 C 
BRANCH  11  12
ATOM     12  C   UNL     1      -1.449  -6.462  31.499  1.00  0.00    -0.003 C 
ATOM     13  C   UNL     1      -1.350  -5.820  30.117  1.00  0.00     0.004 C 
ENDBRANCH  11  12
ENDBRANCH  10  11
ENDBRANCH   9  10
ENDBRANCH   8   9
ENDBRANCH   1   8
TORSDOF 9
ENDMDL
