MODEL 1
REMARK VINA RESULT:    -4.590      0.000      0.000
REMARK INTER + INTRA:          -7.682
REMARK INTER:                  -7.273
REMARK INTRA:                  -0.408
REMARK UNBOUND:                -0.408
REMARK SMILES CCCCCCCCCCCC(=O)[O-]
REMARK SMILES IDX 7 1 8 2 9 3 10 4 11 5 12 6 13 7 14 8 6 9 5 10 4 11 3 12 2 13
REMARK SMILES IDX 1 14
REMARK H PARENT
REMARK Flexibility Score: inf
ROOT
ATOM      1  C   UNL     1      -4.837  -4.283   1.397  1.00  0.00     0.000 C 
ENDROOT
BRANCH   1   2
ATOM      2  C   UNL     1      -6.107  -5.055   0.995  1.00  0.00     0.000 C 
BRANCH   2   3
ATOM      3  C   UNL     1      -7.114  -4.191   0.215  1.00  0.00     0.000 C 
BRANCH   3   4
ATOM      4  C   UNL     1      -8.529  -4.792   0.216  1.00  0.00     0.006 C 
BRANCH   4   5
ATOM      5  C   UNL     1      -9.479  -4.066  -0.745  1.00  0.00     0.053 C 
BRANCH   5   6
ATOM      6  C   UNL     1     -10.903  -4.341  -0.377  1.00  0.00     0.041 C 
ATOM      7  O   UNL     1     -11.223  -4.522   0.827  1.00  0.00    -0.550 OA
ATOM      8  O   UNL     1     -11.871  -4.447  -1.368  1.00  0.00    -0.550 OA
ENDBRANCH   5   6
ENDBRANCH   4   5
ENDBRANCH   3   4
ENDBRANCH   2   3
ENDBRANCH   1   2
BRANCH   1   9
ATOM      9  C   UNL     1      -5.003  -2.757   1.523  1.00  0.00     0.000 C 
BRANCH   9  10
ATOM     10  C   UNL     1      -3.676  -2.030   1.802  1.00  0.00    -0.000 C 
BRANCH  10  11
ATOM     11  C   UNL     1      -2.442  -2.858   1.396  1.00  0.00    -0.000 C 
BRANCH  11  12
ATOM     12  C   UNL     1      -1.487  -2.171   0.398  1.00  0.00    -0.000 C 
BRANCH  12  13
ATOM     13  C   UNL     1       0.011  -2.402   0.666  1.00  0.00    -0.003 C 
ATOM     14  C   UNL     1       0.306  -3.788   1.240  1.00  0.00     0.004 C 
ENDBRANCH  12  13
ENDBRANCH  11  12
ENDBRANCH  10  11
ENDBRANCH   9  10
ENDBRANCH   1   9
TORSDOF 10
ENDMDL
MODEL 2
REMARK VINA RESULT:    -4.463      1.054      1.492
REMARK INTER + INTRA:          -7.481
REMARK INTER:                  -7.030
REMARK INTRA:                  -0.451
REMARK UNBOUND:                -0.408
REMARK SMILES CCCCCCCCCCCC(=O)[O-]
REMARK SMILES IDX 7 1 8 2 9 3 10 4 11 5 12 6 13 7 14 8 6 9 5 10 4 11 3 12 2 13
REMARK SMILES IDX 1 14
REMARK H PARENT
REMARK Flexibility Score: inf
ROOT
ATOM      1  C   UNL     1      -5.593  -4.933   0.755  1.00  0.00     0.000 C 
ENDROOT
BRANCH   1   2
ATOM      2  C   UNL     1      -6.877  -4.116   0.521  1.00  0.00     0.000 C 
BRANCH   2   3
ATOM      3  C   UNL     1      -7.695  -4.614  -0.683  1.00  0.00     0.000 C 
BRANCH   3   4
ATOM      4  C   UNL     1      -8.991  -3.811  -0.886  1.00  0.00     0.006 C 
BRANCH   4   5
ATOM      5  C   UNL     1     -10.180  -4.403  -0.119  1.00  0.00     0.053 C 
BRANCH   5   6
ATOM      6  C   UNL     1     -11.174  -4.989  -1.070  1.00  0.00     0.041 C 
ATOM      7  O   UNL     1     -11.244  -6.236  -1.225  1.00  0.00    -0.550 OA
ATOM      8  O   UNL     1     -11.992  -4.156  -1.824  1.00  0.00    -0.550 OA
ENDBRANCH   5   6
ENDBRANCH   4   5
ENDBRANCH   3   4
ENDBRANCH   2   3
ENDBRANCH   1   2
BRANCH   1   9
ATOM      9  C   UNL     1      -4.559  -4.284   1.694  1.00  0.00     0.000 C 
BRANCH   9  10
ATOM     10  C   UNL     1      -4.606  -2.746   1.666  1.00  0.00    -0.000 C 
BRANCH  10  11
ATOM     11  C   UNL     1      -3.215  -2.107   1.495  1.00  0.00    -0.000 C 
BRANCH  11  12
ATOM     12  C   UNL     1      -2.027  -3.089   1.553  1.00  0.00    -0.000 C 
BRANCH  12  13
ATOM     13  C   UNL     1      -0.754  -2.615   0.830  1.00  0.00    -0.003 C 
ATOM     14  C   UNL     1      -0.912  -2.574  -0.689  1.00  0.00     0.004 C 
ENDBRANCH  12  13
ENDBRANCH  11  12
ENDBRANCH  10  11
ENDBRANCH   9  10
ENDBRANCH   1   9
TORSDOF 10
ENDMDL
MODEL 3
REMARK VINA RESULT:    -4.347      1.486      1.790
REMARK INTER + INTRA:          -7.296
REMARK INTER:                  -6.718
REMARK INTRA:                  -0.578
REMARK UNBOUND:                -0.408
REMARK SMILES CCCCCCCCCCCC(=O)[O-]
REMARK SMILES IDX 7 1 8 2 9 3 10 4 11 5 12 6 13 7 14 8 6 9 5 10 4 11 3 12 2 13
REMARK SMILES IDX 1 14
REMARK H PARENT
REMARK Flexibility Score: inf
ROOT
ATOM      1  C   UNL     1      -4.532  -4.325   1.332  1.00  0.00     0.000 C 
ENDROOT
BRANCH   1   2
ATOM      2  C   UNL     1      -5.905  -5.013   1.221  1.00  0.00     0.000 C 
BRANCH   2   3
ATOM      3  C   UNL     1      -6.927  -4.188   0.420  1.00  0.00     0.000 C 
BRANCH   3   4
ATOM      4  C   UNL     1      -8.280  -4.905   0.278  1.00  0.00     0.006 C 
BRANCH   4   5
ATOM      5  C   UNL     1      -9.235  -4.180  -0.679  1.00  0.00     0.053 C 
BRANCH   5   6
ATOM      6  C   UNL     1      -9.251  -4.860  -2.012  1.00  0.00     0.041 C 
ATOM      7  O   UNL     1      -8.236  -4.820  -2.756  1.00  0.00    -0.550 OA
ATOM      8  O   UNL     1     -10.404  -5.495  -2.456  1.00  0.00    -0.550 OA
ENDBRANCH   5   6
ENDBRANCH   4   5
ENDBRANCH   3   4
ENDBRANCH   2   3
ENDBRANCH   1   2
BRANCH   1   9
ATOM      9  C   UNL     1      -4.572  -2.804   1.570  1.00  0.00     0.000 C 
BRANCH   9  10
ATOM     10  C   UNL     1      -3.173  -2.165   1.598  1.00  0.00    -0.000 C 
BRANCH  10  11
ATOM     11  C   UNL     1      -2.042  -3.201   1.737  1.00  0.00    -0.000 C 
BRANCH  11  12
ATOM     12  C   UNL     1      -0.704  -2.810   1.077  1.00  0.00    -0.000 C 
BRANCH  12  13
ATOM     13  C   UNL     1      -0.778  -2.540  -0.436  1.00  0.00    -0.003 C 
ATOM     14  C   UNL     1      -1.137  -3.785  -1.246  1.00  0.00     0.004 C 
ENDBRANCH  12  13
ENDBRANCH  11  12
ENDBRANCH  10  11
ENDBRANCH   9  10
ENDBRANCH   1   9
TORSDOF 10
ENDMDL
MODEL 4
REMARK VINA RESULT:    -4.321      4.232      6.844
REMARK INTER + INTRA:          -7.256
REMARK INTER:                  -6.690
REMARK INTRA:                  -0.566
REMARK UNBOUND:                -0.408
REMARK SMILES CCCCCCCCCCCC(=O)[O-]
REMARK SMILES IDX 7 1 8 2 9 3 10 4 11 5 12 6 13 7 14 8 6 9 5 10 4 11 3 12 2 13
REMARK SMILES IDX 1 14
REMARK H PARENT
REMARK Flexibility Score: inf
ROOT
ATOM      1  C   UNL     1       0.648  -4.543   1.239  1.00  0.00     0.000 C 
ENDROOT
BRANCH   1   2
ATOM      2  C   UNL     1       0.407  -3.030   1.085  1.00  0.00     0.000 C 
BRANCH   2   3
ATOM      3  C   UNL     1      -0.671  -2.696   0.039  1.00  0.00     0.000 C 
BRANCH   3   4
ATOM      4  C   UNL     1      -1.900  -2.009   0.658  1.00  0.00     0.006 C 
BRANCH   4   5
ATOM      5  C   UNL     1      -2.704  -2.946   1.568  1.00  0.00     0.053 C 
BRANCH   5   6
ATOM      6  C   UNL     1      -4.060  -2.374   1.836  1.00  0.00     0.041 C 
ATOM      7  O   UNL     1      -4.188  -1.367   2.582  1.00  0.00    -0.550 OA
ATOM      8  O   UNL     1      -5.190  -2.982   1.303  1.00  0.00    -0.550 OA
ENDBRANCH   5   6
ENDBRANCH   4   5
ENDBRANCH   3   4
ENDBRANCH   2   3
ENDBRANCH   1   2
BRANCH   1   9
ATOM      9  C   UNL     1       1.856  -4.935   2.109  1.00  0.00     0.000 C 
BRANCH   9  10
ATOM     10  C   UNL     1       3.136  -5.168   1.289  1.00  0.00    -0.000 C 
BRANCH  10  11
ATOM     11  C   UNL     1       4.189  -4.062   1.494  1.00  0.00    -0.000 C 
BRANCH  11  12
ATOM     12  C   UNL     1       3.943  -3.134   2.701  1.00  0.00    -0.000 C 
BRANCH  12  13
ATOM     13  C   UNL     1       4.768  -3.464   3.957  1.00  0.00    -0.003 C 
ATOM     14  C   UNL     1       4.522  -2.487   5.106  1.00  0.00     0.004 C 
ENDBRANCH  12  13
ENDBRANCH  11  12
ENDBRANCH  10  11
ENDBRANCH   9  10
ENDBRANCH   1   9
TORSDOF 10
ENDMDL
MODEL 5
REMARK VINA RESULT:    -4.228      4.498      8.361
REMARK INTER + INTRA:          -7.108
REMARK INTER:                  -6.797
REMARK INTRA:                  -0.312
REMARK UNBOUND:                -0.408
REMARK SMILES CCCCCCCCCCCC(=O)[O-]
REMARK SMILES IDX 7 1 8 2 9 3 10 4 11 5 12 6 13 7 14 8 6 9 5 10 4 11 3 12 2 13
REMARK SMILES IDX 1 14
REMARK H PARENT
REMARK Flexibility Score: inf
ROOT
ATOM      1  C   UNL     1      -4.917  -4.329   1.471  1.00  0.00     0.000 C 
ENDROOT
BRANCH   1   2
ATOM      2  C   UNL     1      -5.040  -2.793   1.464  1.00  0.00     0.000 C 
BRANCH   2   3
ATOM      3  C   UNL     1      -3.790  -2.088   2.017  1.00  0.00     0.000 C 
BRANCH   3   4
ATOM      4  C   UNL     1      -2.579  -2.212   1.077  1.00  0.00     0.006 C 
BRANCH   4   5
ATOM      5  C   UNL     1      -1.516  -3.182   1.608  1.00  0.00     0.053 C 
BRANCH   5   6
ATOM      6  C   UNL     1      -0.216  -2.968   0.899  1.00  0.00     0.041 C 
ATOM      7  O   UNL     1      -0.162  -2.227  -0.117  1.00  0.00    -0.550 OA
ATOM      8  O   UNL     1       0.929  -3.625   1.332  1.00  0.00    -0.550 OA
ENDBRANCH   5   6
ENDBRANCH   4   5
ENDBRANCH   3   4
ENDBRANCH   2   3
ENDBRANCH   1   2
BRANCH   1   9
ATOM      9  C   UNL     1      -6.155  -5.093   0.968  1.00  0.00     0.000 C 
BRANCH   9  10
ATOM     10  C   UNL     1      -7.196  -4.176   0.301  1.00  0.00    -0.000 C 
BRANCH  10  11
ATOM     11  C   UNL     1      -8.534  -4.888   0.027  1.00  0.00    -0.000 C 
BRANCH  11  12
ATOM     12  C   UNL     1      -9.558  -4.075  -0.791  1.00  0.00    -0.000 C 
BRANCH  12  13
ATOM     13  C   UNL     1     -10.609  -4.915  -1.538  1.00  0.00    -0.003 C 
ATOM     14  C   UNL     1     -12.036  -4.409  -1.325  1.00  0.00     0.004 C 
ENDBRANCH  12  13
ENDBRANCH  11  12
ENDBRANCH  10  11
ENDBRANCH   9  10
ENDBRANCH   1   9
TORSDOF 10
ENDMDL
MODEL 6
REMARK VINA RESULT:    -4.106      4.068      7.897
REMARK INTER + INTRA:          -6.915
REMARK INTER:                  -6.580
REMARK INTRA:                  -0.335
REMARK UNBOUND:                -0.408
REMARK SMILES CCCCCCCCCCCC(=O)[O-]
REMARK SMILES IDX 7 1 8 2 9 3 10 4 11 5 12 6 13 7 14 8 6 9 5 10 4 11 3 12 2 13
REMARK SMILES IDX 1 14
REMARK H PARENT
REMARK Flexibility Score: inf
ROOT
ATOM      1  C   UNL     1      -4.733  -4.142   1.763  1.00  0.00     0.000 C 
ENDROOT
BRANCH   1   2
ATOM      2  C   UNL     1      -3.922  -2.952   2.308  1.00  0.00     0.000 C 
BRANCH   2   3
ATOM      3  C   UNL     1      -2.842  -2.462   1.328  1.00  0.00     0.000 C 
BRANCH   3   4
ATOM      4  C   UNL     1      -1.459  -3.066   1.626  1.00  0.00     0.006 C 
BRANCH   4   5
ATOM      5  C   UNL     1      -0.414  -2.701   0.565  1.00  0.00     0.053 C 
BRANCH   5   6
ATOM      6  C   UNL     1      -0.885  -3.114  -0.794  1.00  0.00     0.041 C 
ATOM      7  O   UNL     1      -1.120  -2.245  -1.674  1.00  0.00    -0.550 OA
ATOM      8  O   UNL     1      -1.113  -4.455  -1.074  1.00  0.00    -0.550 OA
ENDBRANCH   5   6
ENDBRANCH   4   5
ENDBRANCH   3   4
ENDBRANCH   2   3
ENDBRANCH   1   2
BRANCH   1   9
ATOM      9  C   UNL     1      -5.997  -3.771   0.966  1.00  0.00     0.000 C 
BRANCH   9  10
ATOM     10  C   UNL     1      -6.660  -4.986   0.293  1.00  0.00    -0.000 C 
BRANCH  10  11
ATOM     11  C   UNL     1      -8.197  -4.954   0.380  1.00  0.00    -0.000 C 
BRANCH  11  12
ATOM     12  C   UNL     1      -8.895  -4.003  -0.615  1.00  0.00    -0.000 C 
BRANCH  12  13
ATOM     13  C   UNL     1     -10.375  -4.321  -0.891  1.00  0.00    -0.003 C 
ATOM     14  C   UNL     1     -11.191  -4.513   0.386  1.00  0.00     0.004 C 
ENDBRANCH  12  13
ENDBRANCH  11  12
ENDBRANCH  10  11
ENDBRANCH   9  10
ENDBRANCH   1   9
TORSDOF 10
ENDMDL
MODEL 7
REMARK VINA RESULT:    -4.087      4.074      5.968
REMARK INTER + INTRA:          -6.884
REMARK INTER:                  -5.933
REMARK INTRA:                  -0.950
REMARK UNBOUND:                -0.408
REMARK SMILES CCCCCCCCCCCC(=O)[O-]
REMARK SMILES IDX 7 1 8 2 9 3 10 4 11 5 12 6 13 7 14 8 6 9 5 10 4 11 3 12 2 13
REMARK SMILES IDX 1 14
REMARK H PARENT
REMARK Flexibility Score: inf
ROOT
ATOM      1  C   UNL     1      -1.157  -4.594  -0.713  1.00  0.00     0.000 C 
ENDROOT
BRANCH   1   2
ATOM      2  C   UNL     1      -0.973  -3.091  -0.994  1.00  0.00     0.000 C 
BRANCH   2   3
ATOM      3  C   UNL     1      -0.930  -2.241   0.287  1.00  0.00     0.000 C 
BRANCH   3   4
ATOM      4  C   UNL     1      -1.794  -2.831   1.414  1.00  0.00     0.006 C 
BRANCH   4   5
ATOM      5  C   UNL     1      -3.151  -2.129   1.549  1.00  0.00     0.053 C 
BRANCH   5   6
ATOM      6  C   UNL     1      -4.199  -3.101   1.993  1.00  0.00     0.041 C 
ATOM      7  O   UNL     1      -5.245  -3.261   1.310  1.00  0.00    -0.550 OA
ATOM      8  O   UNL     1      -4.044  -3.795   3.187  1.00  0.00    -0.550 OA
ENDBRANCH   5   6
ENDBRANCH   4   5
ENDBRANCH   3   4
ENDBRANCH   2   3
ENDBRANCH   1   2
BRANCH   1   9
ATOM      9  C   UNL     1       0.133  -5.366  -0.379  1.00  0.00     0.000 C 
BRANCH   9  10
ATOM     10  C   UNL     1       0.055  -6.111   0.965  1.00  0.00    -0.000 C 
BRANCH  10  11
ATOM     11  C   UNL     1       0.845  -5.409   2.085  1.00  0.00    -0.000 C 
BRANCH  11  12
ATOM     12  C   UNL     1       1.787  -4.280   1.620  1.00  0.00    -0.000 C 
BRANCH  12  13
ATOM     13  C   UNL     1       3.098  -4.156   2.416  1.00  0.00    -0.003 C 
ATOM     14  C   UNL     1       3.864  -2.870   2.107  1.00  0.00     0.004 C 
ENDBRANCH  12  13
ENDBRANCH  11  12
ENDBRANCH  10  11
ENDBRANCH   9  10
ENDBRANCH   1   9
TORSDOF 10
ENDMDL
MODEL 8
REMARK VINA RESULT:    -4.063      3.772      6.863
REMARK INTER + INTRA:          -6.846
REMARK INTER:                  -6.158
REMARK INTRA:                  -0.689
REMARK UNBOUND:                -0.408
REMARK SMILES CCCCCCCCCCCC(=O)[O-]
REMARK SMILES IDX 7 1 8 2 9 3 10 4 11 5 12 6 13 7 14 8 6 9 5 10 4 11 3 12 2 13
REMARK SMILES IDX 1 14
REMARK H PARENT
REMARK Flexibility Score: inf
ROOT
ATOM      1  C   UNL     1      -2.569  -2.762   1.579  1.00  0.00     0.000 C 
ENDROOT
BRANCH   1   2
ATOM      2  C   UNL     1      -1.635  -2.065   0.572  1.00  0.00     0.000 C 
BRANCH   2   3
ATOM      3  C   UNL     1      -0.234  -2.699   0.515  1.00  0.00     0.000 C 
BRANCH   3   4
ATOM      4  C   UNL     1      -0.282  -4.206   0.212  1.00  0.00     0.006 C 
BRANCH   4   5
ATOM      5  C   UNL     1      -0.942  -4.517  -1.137  1.00  0.00     0.053 C 
BRANCH   5   6
ATOM      6  C   UNL     1      -1.898  -5.659  -0.997  1.00  0.00     0.041 C 
ATOM      7  O   UNL     1      -2.239  -6.065   0.145  1.00  0.00    -0.550 OA
ATOM      8  O   UNL     1      -2.375  -6.310  -2.128  1.00  0.00    -0.550 OA
ENDBRANCH   5   6
ENDBRANCH   4   5
ENDBRANCH   3   4
ENDBRANCH   2   3
ENDBRANCH   1   2
BRANCH   1   9
ATOM      9  C   UNL     1      -3.819  -1.958   1.984  1.00  0.00     0.000 C 
BRANCH   9  10
ATOM     10  C   UNL     1      -5.132  -2.636   1.556  1.00  0.00    -0.000 C 
BRANCH  10  11
ATOM     11  C   UNL     1      -4.968  -4.142   1.281  1.00  0.00    -0.000 C 
BRANCH  11  12
ATOM     12  C   UNL     1      -6.278  -4.956   1.259  1.00  0.00    -0.000 C 
BRANCH  12  13
ATOM     13  C   UNL     1      -6.901  -5.150  -0.134  1.00  0.00    -0.003 C 
ATOM     14  C   UNL     1      -7.887  -4.042  -0.505  1.00  0.00     0.004 C 
ENDBRANCH  12  13
ENDBRANCH  11  12
ENDBRANCH  10  11
ENDBRANCH   9  10
ENDBRANCH   1   9
TORSDOF 10
ENDMDL
MODEL 9
REMARK VINA RESULT:    -4.045      1.968      2.890
REMARK INTER + INTRA:          -6.817
REMARK INTER:                  -6.332
REMARK INTRA:                  -0.486
REMARK UNBOUND:                -0.408
REMARK SMILES CCCCCCCCCCCC(=O)[O-]
REMARK SMILES IDX 7 1 8 2 9 3 10 4 11 5 12 6 13 7 14 8 6 9 5 10 4 11 3 12 2 13
REMARK SMILES IDX 1 14
REMARK H PARENT
REMARK Flexibility Score: inf
ROOT
ATOM      1  C   UNL     1      -3.759  -2.200   2.077  1.00  0.00     0.000 C 
ENDROOT
BRANCH   1   2
ATOM      2  C   UNL     1      -5.020  -2.847   1.472  1.00  0.00     0.000 C 
BRANCH   2   3
ATOM      3  C   UNL     1      -4.898  -4.373   1.320  1.00  0.00     0.000 C 
BRANCH   3   4
ATOM      4  C   UNL     1      -6.264  -5.058   1.149  1.00  0.00     0.006 C 
BRANCH   4   5
ATOM      5  C   UNL     1      -7.231  -4.241   0.284  1.00  0.00     0.053 C 
BRANCH   5   6
ATOM      6  C   UNL     1      -7.581  -4.995  -0.961  1.00  0.00     0.041 C 
ATOM      7  O   UNL     1      -7.956  -4.377  -1.992  1.00  0.00    -0.550 OA
ATOM      8  O   UNL     1      -7.540  -6.384  -0.967  1.00  0.00    -0.550 OA
ENDBRANCH   5   6
ENDBRANCH   4   5
ENDBRANCH   3   4
ENDBRANCH   2   3
ENDBRANCH   1   2
BRANCH   1   9
ATOM      9  C   UNL     1      -2.420  -2.791   1.599  1.00  0.00     0.000 C 
BRANCH   9  10
ATOM     10  C   UNL     1      -1.888  -2.115   0.323  1.00  0.00    -0.000 C 
BRANCH  10  11
ATOM     11  C   UNL     1      -0.429  -2.494   0.009  1.00  0.00    -0.000 C 
BRANCH  11  12
ATOM     12  C   UNL     1       0.358  -3.116   1.180  1.00  0.00    -0.000 C 
BRANCH  12  13
ATOM     13  C   UNL     1       0.792  -4.578   0.970  1.00  0.00    -0.003 C 
ATOM     14  C   UNL     1       2.058  -4.940   1.745  1.00  0.00     0.004 C 
ENDBRANCH  12  13
ENDBRANCH  11  12
ENDBRANCH  10  11
ENDBRANCH   9  10
ENDBRANCH   1   9
TORSDOF 10
ENDMDL
