MODEL 1
REMARK VINA RESULT:    -3.807      0.000      0.000
REMARK INTER + INTRA:          -6.225
REMARK INTER:                  -5.365
REMARK INTRA:                  -0.860
REMARK UNBOUND:                -0.860
REMARK SMILES CCCCCCCCC(=O)[O-]
REMARK SMILES IDX 6 1 7 2 8 3 9 4 10 5 11 6 5 7 4 8 3 9 2 10 1 11
REMARK H PARENT
REMARK Flexibility Score: inf
ROOT
ATOM      1  C   UNL     1      20.469  -0.642  22.727  1.00  0.00     0.000 C 
ENDROOT
BRANCH   1   2
ATOM      2  C   UNL     1      21.083  -1.791  23.551  1.00  0.00     0.006 C 
BRANCH   2   3
ATOM      3  C   UNL     1      21.270  -3.104  22.776  1.00  0.00     0.053 C 
BRANCH   3   4
ATOM      4  C   UNL     1      22.220  -2.948  21.628  1.00  0.00     0.041 C 
ATOM      5  O   UNL     1      23.370  -2.473  21.817  1.00  0.00    -0.550 OA
ATOM      6  O   UNL     1      21.847  -3.362  20.355  1.00  0.00    -0.550 OA
ENDBRANCH   3   4
ENDBRANCH   2   3
ENDBRANCH   1   2
BRANCH   1   7
ATOM      7  C   UNL     1      19.061  -0.919  22.169  1.00  0.00     0.000 C 
BRANCH   7   8
ATOM      8  C   UNL     1      18.973  -0.737  20.646  1.00  0.00    -0.000 C 
BRANCH   8   9
ATOM      9  C   UNL     1      18.670  -2.073  19.951  1.00  0.00    -0.000 C 
BRANCH   9  10
ATOM     10  C   UNL     1      18.129  -3.134  20.923  1.00  0.00    -0.003 C 
ATOM     11  C   UNL     1      18.509  -4.557  20.517  1.00  0.00     0.004 C 
ENDBRANCH   9  10
ENDBRANCH   8   9
ENDBRANCH   7   8
ENDBRANCH   1   7
TORSDOF 7
ENDMDL
MODEL 2
REMARK VINA RESULT:    -3.765      2.246      3.755
REMARK INTER + INTRA:          -6.165
REMARK INTER:                  -5.464
REMARK INTRA:                  -0.702
REMARK UNBOUND:                -0.860
REMARK SMILES CCCCCCCCC(=O)[O-]
REMARK SMILES IDX 6 1 7 2 8 3 9 4 10 5 11 6 5 7 4 8 3 9 2 10 1 11
REMARK H PARENT
REMARK Flexibility Score: inf
ROOT
ATOM      1  C   UNL     1      21.041  -3.041  23.008  1.00  0.00     0.000 C 
ENDROOT
BRANCH   1   2
ATOM      2  C   UNL     1      22.074  -3.262  21.885  1.00  0.00     0.006 C 
BRANCH   2   3
ATOM      3  C   UNL     1      21.593  -2.849  20.485  1.00  0.00     0.053 C 
BRANCH   3   4
ATOM      4  C   UNL     1      20.895  -3.969  19.777  1.00  0.00     0.041 C 
ATOM      5  O   UNL     1      21.542  -4.743  19.024  1.00  0.00    -0.550 OA
ATOM      6  O   UNL     1      19.536  -4.179  19.977  1.00  0.00    -0.550 OA
ENDBRANCH   3   4
ENDBRANCH   2   3
ENDBRANCH   1   2
BRANCH   1   7
ATOM      7  C   UNL     1      21.115  -1.668  23.701  1.00  0.00     0.000 C 
BRANCH   7   8
ATOM      8  C   UNL     1      20.034  -0.691  23.214  1.00  0.00    -0.000 C 
BRANCH   8   9
ATOM      9  C   UNL     1      20.655   0.652  22.803  1.00  0.00    -0.000 C 
BRANCH   9  10
ATOM     10  C   UNL     1      22.116   0.512  22.348  1.00  0.00    -0.003 C 
ATOM     11  C   UNL     1      22.306   0.814  20.862  1.00  0.00     0.004 C 
ENDBRANCH   9  10
ENDBRANCH   8   9
ENDBRANCH   7   8
ENDBRANCH   1   7
TORSDOF 7
ENDMDL
MODEL 3
REMARK VINA RESULT:    -3.760      2.141      4.016
REMARK INTER + INTRA:          -6.158
REMARK INTER:                  -5.409
REMARK INTRA:                  -0.750
REMARK UNBOUND:                -0.860
REMARK SMILES CCCCCCCCC(=O)[O-]
REMARK SMILES IDX 6 1 7 2 8 3 9 4 10 5 11 6 5 7 4 8 3 9 2 10 1 11
REMARK H PARENT
REMARK Flexibility Score: inf
ROOT
ATOM      1  C   UNL     1      22.045  -3.254  21.829  1.00  0.00     0.000 C 
ENDROOT
BRANCH   1   2
ATOM      2  C   UNL     1      21.488  -3.104  20.399  1.00  0.00     0.006 C 
BRANCH   2   3
ATOM      3  C   UNL     1      19.966  -3.280  20.285  1.00  0.00     0.053 C 
BRANCH   3   4
ATOM      4  C   UNL     1      19.598  -4.527  19.543  1.00  0.00     0.041 C 
ATOM      5  O   UNL     1      20.335  -4.954  18.616  1.00  0.00    -0.550 OA
ATOM      6  O   UNL     1      18.458  -5.238  19.898  1.00  0.00    -0.550 OA
ENDBRANCH   3   4
ENDBRANCH   2   3
ENDBRANCH   1   2
BRANCH   1   7
ATOM      7  C   UNL     1      20.993  -3.178  22.950  1.00  0.00     0.000 C 
BRANCH   7   8
ATOM      8  C   UNL     1      21.066  -1.869  23.753  1.00  0.00    -0.000 C 
BRANCH   8   9
ATOM      9  C   UNL     1      20.157  -0.796  23.136  1.00  0.00    -0.000 C 
BRANCH   9  10
ATOM     10  C   UNL     1      20.950   0.384  22.553  1.00  0.00    -0.003 C 
ATOM     11  C   UNL     1      20.777   0.524  21.041  1.00  0.00     0.004 C 
ENDBRANCH   9  10
ENDBRANCH   8   9
ENDBRANCH   7   8
ENDBRANCH   1   7
TORSDOF 7
ENDMDL
MODEL 4
REMARK VINA RESULT:    -3.753      3.560      5.211
REMARK INTER + INTRA:          -6.149
REMARK INTER:                  -5.358
REMARK INTRA:                  -0.791
REMARK UNBOUND:                -0.860
REMARK SMILES CCCCCCCCC(=O)[O-]
REMARK SMILES IDX 6 1 7 2 8 3 9 4 10 5 11 6 5 7 4 8 3 9 2 10 1 11
REMARK H PARENT
REMARK Flexibility Score: inf
ROOT
ATOM      1  C   UNL     1      20.122  -1.271  18.319  1.00  0.00     0.000 C 
ENDROOT
BRANCH   1   2
ATOM      2  C   UNL     1      18.659  -1.472  17.875  1.00  0.00     0.006 C 
BRANCH   2   3
ATOM      3  C   UNL     1      18.431  -2.683  16.957  1.00  0.00     0.053 C 
BRANCH   3   4
ATOM      4  C   UNL     1      17.383  -3.607  17.496  1.00  0.00     0.041 C 
ATOM      5  O   UNL     1      17.711  -4.586  18.217  1.00  0.00    -0.550 OA
ATOM      6  O   UNL     1      16.040  -3.366  17.233  1.00  0.00    -0.550 OA
ENDBRANCH   3   4
ENDBRANCH   2   3
ENDBRANCH   1   2
BRANCH   1   7
ATOM      7  C   UNL     1      20.394  -1.544  19.810  1.00  0.00     0.000 C 
BRANCH   7   8
ATOM      8  C   UNL     1      20.253  -3.027  20.184  1.00  0.00    -0.000 C 
BRANCH   8   9
ATOM      9  C   UNL     1      21.496  -3.821  19.756  1.00  0.00    -0.000 C 
BRANCH   9  10
ATOM     10  C   UNL     1      21.185  -4.867  18.674  1.00  0.00    -0.003 C 
ATOM     11  C   UNL     1      21.873  -4.566  17.344  1.00  0.00     0.004 C 
ENDBRANCH   9  10
ENDBRANCH   8   9
ENDBRANCH   7   8
ENDBRANCH   1   7
TORSDOF 7
ENDMDL
MODEL 5
REMARK VINA RESULT:    -3.751      1.078      1.993
REMARK INTER + INTRA:          -6.145
REMARK INTER:                  -5.247
REMARK INTRA:                  -0.898
REMARK UNBOUND:                -0.860
REMARK SMILES CCCCCCCCC(=O)[O-]
REMARK SMILES IDX 6 1 7 2 8 3 9 4 10 5 11 6 5 7 4 8 3 9 2 10 1 11
REMARK H PARENT
REMARK Flexibility Score: inf
ROOT
ATOM      1  C   UNL     1      20.321  -0.625  23.274  1.00  0.00     0.000 C 
ENDROOT
BRANCH   1   2
ATOM      2  C   UNL     1      21.158  -1.842  23.719  1.00  0.00     0.006 C 
BRANCH   2   3
ATOM      3  C   UNL     1      20.997  -3.086  22.831  1.00  0.00     0.053 C 
BRANCH   3   4
ATOM      4  C   UNL     1      21.952  -3.080  21.677  1.00  0.00     0.041 C 
ATOM      5  O   UNL     1      21.597  -3.538  20.559  1.00  0.00    -0.550 OA
ATOM      6  O   UNL     1      23.221  -2.535  21.827  1.00  0.00    -0.550 OA
ENDBRANCH   3   4
ENDBRANCH   2   3
ENDBRANCH   1   2
BRANCH   1   7
ATOM      7  C   UNL     1      21.120   0.501  22.592  1.00  0.00     0.000 C 
BRANCH   7   8
ATOM      8  C   UNL     1      20.885   0.568  21.075  1.00  0.00    -0.000 C 
BRANCH   8   9
ATOM      9  C   UNL     1      19.415   0.284  20.734  1.00  0.00    -0.000 C 
BRANCH   9  10
ATOM     10  C   UNL     1      19.249  -0.927  19.803  1.00  0.00    -0.003 C 
ATOM     11  C   UNL     1      18.355  -2.014  20.399  1.00  0.00     0.004 C 
ENDBRANCH   9  10
ENDBRANCH   8   9
ENDBRANCH   7   8
ENDBRANCH   1   7
TORSDOF 7
ENDMDL
MODEL 6
REMARK VINA RESULT:    -3.749      1.558      3.740
REMARK INTER + INTRA:          -6.143
REMARK INTER:                  -5.562
REMARK INTRA:                  -0.582
REMARK UNBOUND:                -0.860
REMARK SMILES CCCCCCCCC(=O)[O-]
REMARK SMILES IDX 6 1 7 2 8 3 9 4 10 5 11 6 5 7 4 8 3 9 2 10 1 11
REMARK H PARENT
REMARK Flexibility Score: inf
ROOT
ATOM      1  C   UNL     1      17.600  -2.767  20.704  1.00  0.00     0.000 C 
ENDROOT
BRANCH   1   2
ATOM      2  C   UNL     1      18.440  -4.024  21.010  1.00  0.00     0.006 C 
BRANCH   2   3
ATOM      3  C   UNL     1      18.715  -4.920  19.792  1.00  0.00     0.053 C 
BRANCH   3   4
ATOM      4  C   UNL     1      19.829  -4.389  18.943  1.00  0.00     0.041 C 
ATOM      5  O   UNL     1      19.584  -3.896  17.811  1.00  0.00    -0.550 OA
ATOM      6  O   UNL     1      21.134  -4.404  19.420  1.00  0.00    -0.550 OA
ENDBRANCH   3   4
ENDBRANCH   2   3
ENDBRANCH   1   2
BRANCH   1   7
ATOM      7  C   UNL     1      18.139  -1.460  21.312  1.00  0.00     0.000 C 
BRANCH   7   8
ATOM      8  C   UNL     1      19.649  -1.507  21.595  1.00  0.00    -0.000 C 
BRANCH   8   9
ATOM      9  C   UNL     1      19.963  -0.945  22.990  1.00  0.00    -0.000 C 
BRANCH   9  10
ATOM     10  C   UNL     1      20.998  -1.793  23.747  1.00  0.00    -0.003 C 
ATOM     11  C   UNL     1      21.206  -3.171  23.121  1.00  0.00     0.004 C 
ENDBRANCH   9  10
ENDBRANCH   8   9
ENDBRANCH   7   8
ENDBRANCH   1   7
TORSDOF 7
ENDMDL
MODEL 7
REMARK VINA RESULT:    -3.736      2.315      4.378
REMARK INTER + INTRA:          -6.125
REMARK INTER:                  -5.474
REMARK INTRA:                  -0.652
REMARK UNBOUND:                -0.860
REMARK SMILES CCCCCCCCC(=O)[O-]
REMARK SMILES IDX 6 1 7 2 8 3 9 4 10 5 11 6 5 7 4 8 3 9 2 10 1 11
REMARK H PARENT
REMARK Flexibility Score: inf
ROOT
ATOM      1  C   UNL     1      18.772  -1.307  20.335  1.00  0.00     0.000 C 
ENDROOT
BRANCH   1   2
ATOM      2  C   UNL     1      18.226  -0.864  18.963  1.00  0.00     0.006 C 
BRANCH   2   3
ATOM      3  C   UNL     1      19.135  -1.206  17.772  1.00  0.00     0.053 C 
BRANCH   3   4
ATOM      4  C   UNL     1      19.060  -2.655  17.405  1.00  0.00     0.041 C 
ATOM      5  O   UNL     1      20.098  -3.367  17.418  1.00  0.00    -0.550 OA
ATOM      6  O   UNL     1      17.836  -3.229  17.084  1.00  0.00    -0.550 OA
ENDBRANCH   3   4
ENDBRANCH   2   3
ENDBRANCH   1   2
BRANCH   1   7
ATOM      7  C   UNL     1      18.053  -2.514  20.965  1.00  0.00     0.000 C 
BRANCH   7   8
ATOM      8  C   UNL     1      18.967  -3.738  21.128  1.00  0.00    -0.000 C 
BRANCH   8   9
ATOM      9  C   UNL     1      20.428  -3.310  21.327  1.00  0.00    -0.000 C 
BRANCH   9  10
ATOM     10  C   UNL     1      20.868  -3.378  22.798  1.00  0.00    -0.003 C 
ATOM     11  C   UNL     1      20.943  -2.002  23.458  1.00  0.00     0.004 C 
ENDBRANCH   9  10
ENDBRANCH   8   9
ENDBRANCH   7   8
ENDBRANCH   1   7
TORSDOF 7
ENDMDL
MODEL 8
REMARK VINA RESULT:    -3.729      1.850      3.056
REMARK INTER + INTRA:          -6.115
REMARK INTER:                  -5.372
REMARK INTRA:                  -0.743
REMARK UNBOUND:                -0.860
REMARK SMILES CCCCCCCCC(=O)[O-]
REMARK SMILES IDX 6 1 7 2 8 3 9 4 10 5 11 6 5 7 4 8 3 9 2 10 1 11
REMARK H PARENT
REMARK Flexibility Score: inf
ROOT
ATOM      1  C   UNL     1      17.557  -3.350  20.542  1.00  0.00     0.000 C 
ENDROOT
BRANCH   1   2
ATOM      2  C   UNL     1      18.717  -4.208  21.086  1.00  0.00     0.006 C 
BRANCH   2   3
ATOM      3  C   UNL     1      19.959  -3.409  21.508  1.00  0.00     0.053 C 
BRANCH   3   4
ATOM      4  C   UNL     1      21.054  -3.492  20.489  1.00  0.00     0.041 C 
ATOM      5  O   UNL     1      20.881  -4.142  19.425  1.00  0.00    -0.550 OA
ATOM      6  O   UNL     1      22.253  -2.822  20.699  1.00  0.00    -0.550 OA
ENDBRANCH   3   4
ENDBRANCH   2   3
ENDBRANCH   1   2
BRANCH   1   7
ATOM      7  C   UNL     1      17.628  -1.854  20.902  1.00  0.00     0.000 C 
BRANCH   7   8
ATOM      8  C   UNL     1      17.533  -0.937  19.673  1.00  0.00    -0.000 C 
BRANCH   8   9
ATOM      9  C   UNL     1      18.858  -0.921  18.897  1.00  0.00    -0.000 C 
BRANCH   9  10
ATOM     10  C   UNL     1      18.661  -1.145  17.389  1.00  0.00    -0.003 C 
ATOM     11  C   UNL     1      18.711  -2.622  16.999  1.00  0.00     0.004 C 
ENDBRANCH   9  10
ENDBRANCH   8   9
ENDBRANCH   7   8
ENDBRANCH   1   7
TORSDOF 7
ENDMDL
MODEL 9
REMARK VINA RESULT:    -3.698      2.973      4.352
REMARK INTER + INTRA:          -6.071
REMARK INTER:                  -5.370
REMARK INTRA:                  -0.701
REMARK UNBOUND:                -0.860
REMARK SMILES CCCCCCCCC(=O)[O-]
REMARK SMILES IDX 6 1 7 2 8 3 9 4 10 5 11 6 5 7 4 8 3 9 2 10 1 11
REMARK H PARENT
REMARK Flexibility Score: inf
ROOT
ATOM      1  C   UNL     1      18.497  -4.607  20.097  1.00  0.00     0.000 C 
ENDROOT
BRANCH   1   2
ATOM      2  C   UNL     1      19.155  -4.902  18.734  1.00  0.00     0.006 C 
BRANCH   2   3
ATOM      3  C   UNL     1      20.671  -4.654  18.689  1.00  0.00     0.053 C 
BRANCH   3   4
ATOM      4  C   UNL     1      21.316  -5.326  17.516  1.00  0.00     0.041 C 
ATOM      5  O   UNL     1      20.808  -6.368  17.025  1.00  0.00    -0.550 OA
ATOM      6  O   UNL     1      22.458  -4.781  16.944  1.00  0.00    -0.550 OA
ENDBRANCH   3   4
ENDBRANCH   2   3
ENDBRANCH   1   2
BRANCH   1   7
ATOM      7  C   UNL     1      18.936  -3.289  20.761  1.00  0.00     0.000 C 
BRANCH   7   8
ATOM      8  C   UNL     1      18.119  -2.078  20.287  1.00  0.00    -0.000 C 
BRANCH   8   9
ATOM      9  C   UNL     1      19.041  -0.922  19.871  1.00  0.00    -0.000 C 
BRANCH   9  10
ATOM     10  C   UNL     1      19.658  -1.132  18.479  1.00  0.00    -0.003 C 
ATOM     11  C   UNL     1      18.609  -1.410  17.403  1.00  0.00     0.004 C 
ENDBRANCH   9  10
ENDBRANCH   8   9
ENDBRANCH   7   8
ENDBRANCH   1   7
TORSDOF 7
ENDMDL
