MODEL 1
REMARK VINA RESULT:    -4.569      0.000      0.000
REMARK INTER + INTRA:         -11.974
REMARK INTER:                  -9.912
REMARK INTRA:                  -2.062
REMARK UNBOUND:                -2.062
REMARK SMILES CCCCCCCCCCCCCCCCCCCCCC(=O)[O-]
REMARK SMILES IDX 12 1 11 2 10 3 9 4 8 5 7 6 6 7 5 8 4 9 3 10 2 11 1 12 13 13
REMARK SMILES IDX 14 14 15 15 16 16 17 17 18 18 19 19 20 20 21 21 22 22 23 23
REMARK SMILES IDX 24 24
REMARK H PARENT
REMARK Flexibility Score: inf
ROOT
ATOM      1  C   UNL     1     132.132 137.911 131.612  1.00  0.00     0.000 C 
ENDROOT
BRANCH   1   2
ATOM      2  C   UNL     1     130.626 137.742 131.359  1.00  0.00     0.000 C 
BRANCH   2   3
ATOM      3  C   UNL     1     130.327 136.747 130.224  1.00  0.00     0.000 C 
BRANCH   3   4
ATOM      4  C   UNL     1     130.290 135.286 130.711  1.00  0.00    -0.000 C 
BRANCH   4   5
ATOM      5  C   UNL     1     131.593 134.528 130.412  1.00  0.00    -0.000 C 
BRANCH   5   6
ATOM      6  C   UNL     1     131.355 133.037 130.119  1.00  0.00    -0.000 C 
BRANCH   6   7
ATOM      7  C   UNL     1     130.985 132.777 128.650  1.00  0.00    -0.000 C 
BRANCH   7   8
ATOM      8  C   UNL     1     130.318 131.409 128.437  1.00  0.00    -0.000 C 
BRANCH   8   9
ATOM      9  C   UNL     1     129.130 131.521 127.474  1.00  0.00    -0.000 C 
BRANCH   9  10
ATOM     10  C   UNL     1     127.852 131.931 128.222  1.00  0.00    -0.000 C 
BRANCH  10  11
ATOM     11  C   UNL     1     127.280 133.267 127.726  1.00  0.00    -0.003 C 
ATOM     12  C   UNL     1     127.627 134.437 128.647  1.00  0.00     0.004 C 
ENDBRANCH  10  11
ENDBRANCH   9  10
ENDBRANCH   8   9
ENDBRANCH   7   8
ENDBRANCH   6   7
ENDBRANCH   5   6
ENDBRANCH   4   5
ENDBRANCH   3   4
ENDBRANCH   2   3
ENDBRANCH   1   2
BRANCH   1  13
ATOM     13  C   UNL     1     132.468 138.099 133.103  1.00  0.00     0.000 C 
BRANCH  13  14
ATOM     14  C   UNL     1     133.511 137.094 133.635  1.00  0.00     0.000 C 
BRANCH  14  15
ATOM     15  C   UNL     1     133.286 135.676 133.080  1.00  0.00     0.000 C 
BRANCH  15  16
ATOM     16  C   UNL     1     133.548 134.583 134.127  1.00  0.00     0.000 C 
BRANCH  16  17
ATOM     17  C   UNL     1     132.257 134.096 134.809  1.00  0.00     0.000 C 
BRANCH  17  18
ATOM     18  C   UNL     1     131.407 133.212 133.873  1.00  0.00     0.000 C 
BRANCH  18  19
ATOM     19  C   UNL     1     130.253 132.489 134.590  1.00  0.00     0.000 C 
BRANCH  19  20
ATOM     20  C   UNL     1     130.179 130.993 134.245  1.00  0.00     0.006 C 
BRANCH  20  21
ATOM     21  C   UNL     1     129.806 130.136 135.462  1.00  0.00     0.053 C 
BRANCH  21  22
ATOM     22  C   UNL     1     130.087 128.684 135.227  1.00  0.00     0.041 C 
ATOM     23  O   UNL     1     130.967 128.336 134.395  1.00  0.00    -0.550 OA
ATOM     24  O   UNL     1     129.360 127.714 135.905  1.00  0.00    -0.550 OA
ENDBRANCH  21  22
ENDBRANCH  20  21
ENDBRANCH  19  20
ENDBRANCH  18  19
ENDBRANCH  17  18
ENDBRANCH  16  17
ENDBRANCH  15  16
ENDBRANCH  14  15
ENDBRANCH  13  14
ENDBRANCH   1  13
TORSDOF 20
ENDMDL
MODEL 2
REMARK VINA RESULT:    -4.462      9.168     13.455
REMARK INTER + INTRA:         -11.741
REMARK INTER:                  -9.327
REMARK INTRA:                  -2.414
REMARK UNBOUND:                -2.062
REMARK SMILES CCCCCCCCCCCCCCCCCCCCCC(=O)[O-]
REMARK SMILES IDX 12 1 11 2 10 3 9 4 8 5 7 6 6 7 5 8 4 9 3 10 2 11 1 12 13 13
REMARK SMILES IDX 14 14 15 15 16 16 17 17 18 18 19 19 20 20 21 21 22 22 23 23
REMARK SMILES IDX 24 24
REMARK H PARENT
REMARK Flexibility Score: inf
ROOT
ATOM      1  C   UNL     1     121.501 120.911 132.191  1.00  0.00     0.000 C 
ENDROOT
BRANCH   1   2
ATOM      2  C   UNL     1     122.044 119.489 131.976  1.00  0.00     0.000 C 
BRANCH   2   3
ATOM      3  C   UNL     1     123.537 119.370 132.328  1.00  0.00     0.000 C 
BRANCH   3   4
ATOM      4  C   UNL     1     124.292 118.408 131.391  1.00  0.00    -0.000 C 
BRANCH   4   5
ATOM      5  C   UNL     1     125.286 119.136 130.472  1.00  0.00    -0.000 C 
BRANCH   5   6
ATOM      6  C   UNL     1     125.329 120.652 130.732  1.00  0.00    -0.000 C 
BRANCH   6   7
ATOM      7  C   UNL     1     124.973 121.475 129.484  1.00  0.00    -0.000 C 
BRANCH   7   8
ATOM      8  C   UNL     1     124.394 122.856 129.826  1.00  0.00    -0.000 C 
BRANCH   8   9
ATOM      9  C   UNL     1     125.169 123.969 129.111  1.00  0.00    -0.000 C 
BRANCH   9  10
ATOM     10  C   UNL     1     125.942 123.415 127.905  1.00  0.00    -0.000 C 
BRANCH  10  11
ATOM     11  C   UNL     1     127.439 123.753 127.956  1.00  0.00    -0.003 C 
ATOM     12  C   UNL     1     128.329 122.513 127.861  1.00  0.00     0.004 C 
ENDBRANCH  10  11
ENDBRANCH   9  10
ENDBRANCH   8   9
ENDBRANCH   7   8
ENDBRANCH   6   7
ENDBRANCH   5   6
ENDBRANCH   4   5
ENDBRANCH   3   4
ENDBRANCH   2   3
ENDBRANCH   1   2
BRANCH   1  13
ATOM     13  C   UNL     1     122.123 121.609 133.414  1.00  0.00     0.000 C 
BRANCH  13  14
ATOM     14  C   UNL     1     123.014 122.816 133.052  1.00  0.00     0.000 C 
BRANCH  14  15
ATOM     15  C   UNL     1     124.304 122.855 133.891  1.00  0.00     0.000 C 
BRANCH  15  16
ATOM     16  C   UNL     1     124.246 121.920 135.108  1.00  0.00     0.000 C 
BRANCH  16  17
ATOM     17  C   UNL     1     124.590 122.640 136.424  1.00  0.00     0.000 C 
BRANCH  17  18
ATOM     18  C   UNL     1     125.174 124.047 136.178  1.00  0.00     0.000 C 
BRANCH  18  19
ATOM     19  C   UNL     1     126.668 124.037 135.813  1.00  0.00     0.000 C 
BRANCH  19  20
ATOM     20  C   UNL     1     127.147 125.371 135.218  1.00  0.00     0.006 C 
BRANCH  20  21
ATOM     21  C   UNL     1     126.118 125.979 134.255  1.00  0.00     0.053 C 
BRANCH  21  22
ATOM     22  C   UNL     1     125.829 127.411 134.580  1.00  0.00     0.041 C 
ATOM     23  O   UNL     1     126.434 127.979 135.528  1.00  0.00    -0.550 OA
ATOM     24  O   UNL     1     124.873 128.112 133.856  1.00  0.00    -0.550 OA
ENDBRANCH  21  22
ENDBRANCH  20  21
ENDBRANCH  19  20
ENDBRANCH  18  19
ENDBRANCH  17  18
ENDBRANCH  16  17
ENDBRANCH  15  16
ENDBRANCH  14  15
ENDBRANCH  13  14
ENDBRANCH   1  13
TORSDOF 20
ENDMDL
MODEL 3
REMARK VINA RESULT:    -4.285      7.551     12.689
REMARK INTER + INTRA:         -11.358
REMARK INTER:                  -9.414
REMARK INTRA:                  -1.944
REMARK UNBOUND:                -2.062
REMARK SMILES CCCCCCCCCCCCCCCCCCCCCC(=O)[O-]
REMARK SMILES IDX 12 1 11 2 10 3 9 4 8 5 7 6 6 7 5 8 4 9 3 10 2 11 1 12 13 13
REMARK SMILES IDX 14 14 15 15 16 16 17 17 18 18 19 19 20 20 21 21 22 22 23 23
REMARK SMILES IDX 24 24
REMARK H PARENT
REMARK Flexibility Score: inf
ROOT
ATOM      1  C   UNL     1     125.037 122.988 133.867  1.00  0.00     0.000 C 
ENDROOT
BRANCH   1   2
ATOM      2  C   UNL     1     126.007 123.556 134.916  1.00  0.00     0.000 C 
BRANCH   2   3
ATOM      3  C   UNL     1     125.319 124.528 135.889  1.00  0.00     0.000 C 
BRANCH   3   4
ATOM      4  C   UNL     1     124.928 125.859 135.220  1.00  0.00    -0.000 C 
BRANCH   4   5
ATOM      5  C   UNL     1     126.115 126.541 134.520  1.00  0.00    -0.000 C 
BRANCH   5   6
ATOM      6  C   UNL     1     126.144 128.062 134.756  1.00  0.00    -0.000 C 
BRANCH   6   7
ATOM      7  C   UNL     1     126.999 128.454 135.972  1.00  0.00    -0.000 C 
BRANCH   7   8
ATOM      8  C   UNL     1     127.536 129.891 135.884  1.00  0.00    -0.000 C 
BRANCH   8   9
ATOM      9  C   UNL     1     129.065 129.899 135.761  1.00  0.00    -0.000 C 
BRANCH   9  10
ATOM     10  C   UNL     1     129.499 130.141 134.308  1.00  0.00    -0.000 C 
BRANCH  10  11
ATOM     11  C   UNL     1     129.629 128.837 133.506  1.00  0.00    -0.003 C 
ATOM     12  C   UNL     1     130.749 127.934 134.023  1.00  0.00     0.004 C 
ENDBRANCH  10  11
ENDBRANCH   9  10
ENDBRANCH   8   9
ENDBRANCH   7   8
ENDBRANCH   6   7
ENDBRANCH   5   6
ENDBRANCH   4   5
ENDBRANCH   3   4
ENDBRANCH   2   3
ENDBRANCH   1   2
BRANCH   1  13
ATOM     13  C   UNL     1     123.895 122.168 134.494  1.00  0.00     0.000 C 
BRANCH  13  14
ATOM     14  C   UNL     1     122.729 121.886 133.522  1.00  0.00     0.000 C 
BRANCH  14  15
ATOM     15  C   UNL     1     122.756 120.443 132.987  1.00  0.00     0.000 C 
BRANCH  15  16
ATOM     16  C   UNL     1     123.055 120.378 131.481  1.00  0.00     0.000 C 
BRANCH  16  17
ATOM     17  C   UNL     1     124.562 120.298 131.181  1.00  0.00     0.000 C 
BRANCH  17  18
ATOM     18  C   UNL     1     124.996 121.332 130.121  1.00  0.00     0.000 C 
BRANCH  18  19
ATOM     19  C   UNL     1     124.259 122.677 130.236  1.00  0.00     0.000 C 
BRANCH  19  20
ATOM     20  C   UNL     1     124.800 123.741 129.268  1.00  0.00     0.006 C 
BRANCH  20  21
ATOM     21  C   UNL     1     125.839 123.165 128.296  1.00  0.00     0.053 C 
BRANCH  21  22
ATOM     22  C   UNL     1     126.751 124.226 127.763  1.00  0.00     0.041 C 
ATOM     23  O   UNL     1     127.610 123.941 126.887  1.00  0.00    -0.550 OA
ATOM     24  O   UNL     1     126.674 125.523 128.254  1.00  0.00    -0.550 OA
ENDBRANCH  21  22
ENDBRANCH  20  21
ENDBRANCH  19  20
ENDBRANCH  18  19
ENDBRANCH  17  18
ENDBRANCH  16  17
ENDBRANCH  15  16
ENDBRANCH  14  15
ENDBRANCH  13  14
ENDBRANCH   1  13
TORSDOF 20
ENDMDL
MODEL 4
REMARK VINA RESULT:    -4.263      3.022      6.511
REMARK INTER + INTRA:         -11.310
REMARK INTER:                  -9.435
REMARK INTRA:                  -1.875
REMARK UNBOUND:                -2.062
REMARK SMILES CCCCCCCCCCCCCCCCCCCCCC(=O)[O-]
REMARK SMILES IDX 12 1 11 2 10 3 9 4 8 5 7 6 6 7 5 8 4 9 3 10 2 11 1 12 13 13
REMARK SMILES IDX 14 14 15 15 16 16 17 17 18 18 19 19 20 20 21 21 22 22 23 23
REMARK SMILES IDX 24 24
REMARK H PARENT
REMARK Flexibility Score: inf
ROOT
ATOM      1  C   UNL     1     132.585 133.120 134.479  1.00  0.00     0.000 C 
ENDROOT
BRANCH   1   2
ATOM      2  C   UNL     1     131.244 132.544 133.998  1.00  0.00     0.000 C 
BRANCH   2   3
ATOM      3  C   UNL     1     130.264 132.288 135.155  1.00  0.00     0.000 C 
BRANCH   3   4
ATOM      4  C   UNL     1     129.211 131.217 134.814  1.00  0.00    -0.000 C 
BRANCH   4   5
ATOM      5  C   UNL     1     127.971 131.297 135.719  1.00  0.00    -0.000 C 
BRANCH   5   6
ATOM      6  C   UNL     1     128.154 130.529 137.040  1.00  0.00    -0.000 C 
BRANCH   6   7
ATOM      7  C   UNL     1     128.070 129.006 136.853  1.00  0.00    -0.000 C 
BRANCH   7   8
ATOM      8  C   UNL     1     127.180 128.600 135.669  1.00  0.00    -0.000 C 
BRANCH   8   9
ATOM      9  C   UNL     1     127.855 127.514 134.822  1.00  0.00    -0.000 C 
BRANCH   9  10
ATOM     10  C   UNL     1     128.271 128.065 133.450  1.00  0.00    -0.000 C 
BRANCH  10  11
ATOM     11  C   UNL     1     127.271 127.704 132.341  1.00  0.00    -0.003 C 
ATOM     12  C   UNL     1     127.881 127.797 130.942  1.00  0.00     0.004 C 
ENDBRANCH  10  11
ENDBRANCH   9  10
ENDBRANCH   8   9
ENDBRANCH   7   8
ENDBRANCH   6   7
ENDBRANCH   5   6
ENDBRANCH   4   5
ENDBRANCH   3   4
ENDBRANCH   2   3
ENDBRANCH   1   2
BRANCH   1  13
ATOM     13  C   UNL     1     132.455 134.548 135.038  1.00  0.00     0.000 C 
BRANCH  13  14
ATOM     14  C   UNL     1     132.930 135.643 134.059  1.00  0.00     0.000 C 
BRANCH  14  15
ATOM     15  C   UNL     1     133.845 135.078 132.958  1.00  0.00     0.000 C 
BRANCH  15  16
ATOM     16  C   UNL     1     133.341 135.408 131.544  1.00  0.00     0.000 C 
BRANCH  16  17
ATOM     17  C   UNL     1     131.817 135.616 131.494  1.00  0.00     0.000 C 
BRANCH  17  18
ATOM     18  C   UNL     1     131.137 134.667 130.486  1.00  0.00     0.000 C 
BRANCH  18  19
ATOM     19  C   UNL     1     131.579 133.201 130.626  1.00  0.00     0.000 C 
BRANCH  19  20
ATOM     20  C   UNL     1     131.490 132.420 129.305  1.00  0.00     0.006 C 
BRANCH  20  21
ATOM     21  C   UNL     1     130.641 133.150 128.256  1.00  0.00     0.053 C 
BRANCH  21  22
ATOM     22  C   UNL     1     129.429 132.358 127.872  1.00  0.00     0.041 C 
ATOM     23  O   UNL     1     128.310 132.926 127.766  1.00  0.00    -0.550 OA
ATOM     24  O   UNL     1     129.529 130.990 127.659  1.00  0.00    -0.550 OA
ENDBRANCH  21  22
ENDBRANCH  20  21
ENDBRANCH  19  20
ENDBRANCH  18  19
ENDBRANCH  17  18
ENDBRANCH  16  17
ENDBRANCH  15  16
ENDBRANCH  14  15
ENDBRANCH  13  14
ENDBRANCH   1  13
TORSDOF 20
ENDMDL
MODEL 5
REMARK VINA RESULT:    -4.259      9.215     13.902
REMARK INTER + INTRA:         -11.300
REMARK INTER:                  -8.835
REMARK INTRA:                  -2.465
REMARK UNBOUND:                -2.062
REMARK SMILES CCCCCCCCCCCCCCCCCCCCCC(=O)[O-]
REMARK SMILES IDX 12 1 11 2 10 3 9 4 8 5 7 6 6 7 5 8 4 9 3 10 2 11 1 12 13 13
REMARK SMILES IDX 14 14 15 15 16 16 17 17 18 18 19 19 20 20 21 21 22 22 23 23
REMARK SMILES IDX 24 24
REMARK H PARENT
REMARK Flexibility Score: inf
ROOT
ATOM      1  C   UNL     1     122.740 122.733 133.616  1.00  0.00     0.000 C 
ENDROOT
BRANCH   1   2
ATOM      2  C   UNL     1     124.274 122.770 133.514  1.00  0.00     0.000 C 
BRANCH   2   3
ATOM      3  C   UNL     1     124.937 123.292 134.800  1.00  0.00     0.000 C 
BRANCH   3   4
ATOM      4  C   UNL     1     124.528 122.486 136.047  1.00  0.00    -0.000 C 
BRANCH   4   5
ATOM      5  C   UNL     1     125.258 122.950 137.318  1.00  0.00    -0.000 C 
BRANCH   5   6
ATOM      6  C   UNL     1     126.620 123.599 137.012  1.00  0.00    -0.000 C 
BRANCH   6   7
ATOM      7  C   UNL     1     126.686 125.068 137.459  1.00  0.00    -0.000 C 
BRANCH   7   8
ATOM      8  C   UNL     1     127.953 125.783 136.965  1.00  0.00    -0.000 C 
BRANCH   8   9
ATOM      9  C   UNL     1     127.603 126.895 135.968  1.00  0.00    -0.000 C 
BRANCH   9  10
ATOM     10  C   UNL     1     126.111 127.253 136.044  1.00  0.00    -0.000 C 
BRANCH  10  11
ATOM     11  C   UNL     1     125.364 126.949 134.737  1.00  0.00    -0.003 C 
ATOM     12  C   UNL     1     126.303 126.544 133.600  1.00  0.00     0.004 C 
ENDBRANCH  10  11
ENDBRANCH   9  10
ENDBRANCH   8   9
ENDBRANCH   7   8
ENDBRANCH   6   7
ENDBRANCH   5   6
ENDBRANCH   4   5
ENDBRANCH   3   4
ENDBRANCH   2   3
ENDBRANCH   1   2
BRANCH   1  13
ATOM     13  C   UNL     1     122.120 121.560 132.835  1.00  0.00     0.000 C 
BRANCH  13  14
ATOM     14  C   UNL     1     122.370 120.182 133.484  1.00  0.00     0.000 C 
BRANCH  14  15
ATOM     15  C   UNL     1     123.328 119.314 132.648  1.00  0.00     0.000 C 
BRANCH  15  16
ATOM     16  C   UNL     1     123.604 119.909 131.259  1.00  0.00     0.000 C 
BRANCH  16  17
ATOM     17  C   UNL     1     125.104 119.935 130.914  1.00  0.00     0.000 C 
BRANCH  17  18
ATOM     18  C   UNL     1     125.471 121.133 130.014  1.00  0.00     0.000 C 
BRANCH  18  19
ATOM     19  C   UNL     1     124.460 122.290 130.087  1.00  0.00     0.000 C 
BRANCH  19  20
ATOM     20  C   UNL     1     124.859 123.490 129.213  1.00  0.00     0.006 C 
BRANCH  20  21
ATOM     21  C   UNL     1     125.879 123.106 128.132  1.00  0.00     0.053 C 
BRANCH  21  22
ATOM     22  C   UNL     1     126.745 124.265 127.747  1.00  0.00     0.041 C 
ATOM     23  O   UNL     1     126.631 125.367 128.347  1.00  0.00    -0.550 OA
ATOM     24  O   UNL     1     127.658 124.139 126.709  1.00  0.00    -0.550 OA
ENDBRANCH  21  22
ENDBRANCH  20  21
ENDBRANCH  19  20
ENDBRANCH  18  19
ENDBRANCH  17  18
ENDBRANCH  16  17
ENDBRANCH  15  16
ENDBRANCH  14  15
ENDBRANCH  13  14
ENDBRANCH   1  13
TORSDOF 20
ENDMDL
MODEL 6
REMARK VINA RESULT:    -4.254      1.676      4.009
REMARK INTER + INTRA:         -11.290
REMARK INTER:                  -8.998
REMARK INTRA:                  -2.293
REMARK UNBOUND:                -2.062
REMARK SMILES CCCCCCCCCCCCCCCCCCCCCC(=O)[O-]
REMARK SMILES IDX 12 1 11 2 10 3 9 4 8 5 7 6 6 7 5 8 4 9 3 10 2 11 1 12 13 13
REMARK SMILES IDX 14 14 15 15 16 16 17 17 18 18 19 19 20 20 21 21 22 22 23 23
REMARK SMILES IDX 24 24
REMARK H PARENT
REMARK Flexibility Score: inf
ROOT
ATOM      1  C   UNL     1     131.808 133.357 133.446  1.00  0.00     0.000 C 
ENDROOT
BRANCH   1   2
ATOM      2  C   UNL     1     132.368 134.718 133.891  1.00  0.00     0.000 C 
BRANCH   2   3
ATOM      3  C   UNL     1     133.122 135.442 132.763  1.00  0.00     0.000 C 
BRANCH   3   4
ATOM      4  C   UNL     1     132.416 136.736 132.314  1.00  0.00    -0.000 C 
BRANCH   4   5
ATOM      5  C   UNL     1     131.738 136.595 130.942  1.00  0.00    -0.000 C 
BRANCH   5   6
ATOM      6  C   UNL     1     130.272 136.139 131.053  1.00  0.00    -0.000 C 
BRANCH   6   7
ATOM      7  C   UNL     1     129.940 134.986 130.092  1.00  0.00    -0.000 C 
BRANCH   7   8
ATOM      8  C   UNL     1     131.122 134.027 129.882  1.00  0.00    -0.000 C 
BRANCH   8   9
ATOM      9  C   UNL     1     130.999 133.289 128.544  1.00  0.00    -0.000 C 
BRANCH   9  10
ATOM     10  C   UNL     1     130.279 131.944 128.721  1.00  0.00    -0.000 C 
BRANCH  10  11
ATOM     11  C   UNL     1     129.510 131.516 127.462  1.00  0.00    -0.003 C 
ATOM     12  C   UNL     1     128.039 131.931 127.497  1.00  0.00     0.004 C 
ENDBRANCH  10  11
ENDBRANCH   9  10
ENDBRANCH   8   9
ENDBRANCH   7   8
ENDBRANCH   6   7
ENDBRANCH   5   6
ENDBRANCH   4   5
ENDBRANCH   3   4
ENDBRANCH   2   3
ENDBRANCH   1   2
BRANCH   1  13
ATOM     13  C   UNL     1     130.678 132.850 134.359  1.00  0.00     0.000 C 
BRANCH  13  14
ATOM     14  C   UNL     1     130.923 133.122 135.858  1.00  0.00     0.000 C 
BRANCH  14  15
ATOM     15  C   UNL     1     129.823 132.511 136.745  1.00  0.00     0.000 C 
BRANCH  15  16
ATOM     16  C   UNL     1     128.857 131.615 135.955  1.00  0.00     0.000 C 
BRANCH  16  17
ATOM     17  C   UNL     1     128.686 130.225 136.593  1.00  0.00     0.000 C 
BRANCH  17  18
ATOM     18  C   UNL     1     130.030 129.478 136.722  1.00  0.00     0.000 C 
BRANCH  18  19
ATOM     19  C   UNL     1     130.778 129.321 135.388  1.00  0.00     0.000 C 
BRANCH  19  20
ATOM     20  C   UNL     1     130.130 128.283 134.457  1.00  0.00     0.006 C 
BRANCH  20  21
ATOM     21  C   UNL     1     129.502 128.929 133.215  1.00  0.00     0.053 C 
BRANCH  21  22
ATOM     22  C   UNL     1     128.300 128.173 132.742  1.00  0.00     0.041 C 
ATOM     23  O   UNL     1     127.517 127.643 133.574  1.00  0.00    -0.550 OA
ATOM     24  O   UNL     1     128.058 128.029 131.382  1.00  0.00    -0.550 OA
ENDBRANCH  21  22
ENDBRANCH  20  21
ENDBRANCH  19  20
ENDBRANCH  18  19
ENDBRANCH  17  18
ENDBRANCH  16  17
ENDBRANCH  15  16
ENDBRANCH  14  15
ENDBRANCH  13  14
ENDBRANCH   1  13
TORSDOF 20
ENDMDL
MODEL 7
REMARK VINA RESULT:    -4.253      2.934      7.080
REMARK INTER + INTRA:         -11.286
REMARK INTER:                  -9.407
REMARK INTRA:                  -1.879
REMARK UNBOUND:                -2.062
REMARK SMILES CCCCCCCCCCCCCCCCCCCCCC(=O)[O-]
REMARK SMILES IDX 12 1 11 2 10 3 9 4 8 5 7 6 6 7 5 8 4 9 3 10 2 11 1 12 13 13
REMARK SMILES IDX 14 14 15 15 16 16 17 17 18 18 19 19 20 20 21 21 22 22 23 23
REMARK SMILES IDX 24 24
REMARK H PARENT
REMARK Flexibility Score: inf
ROOT
ATOM      1  C   UNL     1     133.090 134.144 133.294  1.00  0.00     0.000 C 
ENDROOT
BRANCH   1   2
ATOM      2  C   UNL     1     131.838 133.252 133.305  1.00  0.00     0.000 C 
BRANCH   2   3
ATOM      3  C   UNL     1     131.160 133.205 134.685  1.00  0.00     0.000 C 
BRANCH   3   4
ATOM      4  C   UNL     1     131.296 131.830 135.366  1.00  0.00    -0.000 C 
BRANCH   4   5
ATOM      5  C   UNL     1     130.183 131.566 136.392  1.00  0.00    -0.000 C 
BRANCH   5   6
ATOM      6  C   UNL     1     128.775 131.688 135.781  1.00  0.00    -0.000 C 
BRANCH   6   7
ATOM      7  C   UNL     1     128.120 130.319 135.534  1.00  0.00    -0.000 C 
BRANCH   7   8
ATOM      8  C   UNL     1     128.946 129.424 134.598  1.00  0.00    -0.000 C 
BRANCH   8   9
ATOM      9  C   UNL     1     129.008 127.986 135.127  1.00  0.00    -0.000 C 
BRANCH   9  10
ATOM     10  C   UNL     1     129.206 127.968 136.651  1.00  0.00    -0.000 C 
BRANCH  10  11
ATOM     11  C   UNL     1     128.218 127.033 137.364  1.00  0.00    -0.003 C 
ATOM     12  C   UNL     1     128.802 126.413 138.634  1.00  0.00     0.004 C 
ENDBRANCH  10  11
ENDBRANCH   9  10
ENDBRANCH   8   9
ENDBRANCH   7   8
ENDBRANCH   6   7
ENDBRANCH   5   6
ENDBRANCH   4   5
ENDBRANCH   3   4
ENDBRANCH   2   3
ENDBRANCH   1   2
BRANCH   1  13
ATOM     13  C   UNL     1     132.752 135.645 133.259  1.00  0.00     0.000 C 
BRANCH  13  14
ATOM     14  C   UNL     1     132.763 136.250 131.840  1.00  0.00     0.000 C 
BRANCH  14  15
ATOM     15  C   UNL     1     131.534 137.140 131.579  1.00  0.00     0.000 C 
BRANCH  15  16
ATOM     16  C   UNL     1     130.705 136.664 130.376  1.00  0.00     0.000 C 
BRANCH  16  17
ATOM     17  C   UNL     1     130.267 135.194 130.504  1.00  0.00     0.000 C 
BRANCH  17  18
ATOM     18  C   UNL     1     130.792 134.331 129.338  1.00  0.00     0.000 C 
BRANCH  18  19
ATOM     19  C   UNL     1     131.041 132.863 129.723  1.00  0.00     0.000 C 
BRANCH  19  20
ATOM     20  C   UNL     1     130.895 131.899 128.534  1.00  0.00     0.006 C 
BRANCH  20  21
ATOM     21  C   UNL     1     129.566 131.133 128.568  1.00  0.00     0.053 C 
BRANCH  21  22
ATOM     22  C   UNL     1     128.556 131.726 127.636  1.00  0.00     0.041 C 
ATOM     23  O   UNL     1     127.677 132.515 128.075  1.00  0.00    -0.550 OA
ATOM     24  O   UNL     1     128.565 131.388 126.290  1.00  0.00    -0.550 OA
ENDBRANCH  21  22
ENDBRANCH  20  21
ENDBRANCH  19  20
ENDBRANCH  18  19
ENDBRANCH  17  18
ENDBRANCH  16  17
ENDBRANCH  15  16
ENDBRANCH  14  15
ENDBRANCH  13  14
ENDBRANCH   1  13
TORSDOF 20
ENDMDL
MODEL 8
REMARK VINA RESULT:    -4.232      3.034      7.172
REMARK INTER + INTRA:         -11.241
REMARK INTER:                  -8.925
REMARK INTRA:                  -2.316
REMARK UNBOUND:                -2.062
REMARK SMILES CCCCCCCCCCCCCCCCCCCCCC(=O)[O-]
REMARK SMILES IDX 12 1 11 2 10 3 9 4 8 5 7 6 6 7 5 8 4 9 3 10 2 11 1 12 13 13
REMARK SMILES IDX 14 14 15 15 16 16 17 17 18 18 19 19 20 20 21 21 22 22 23 23
REMARK SMILES IDX 24 24
REMARK H PARENT
REMARK Flexibility Score: inf
ROOT
ATOM      1  C   UNL     1     130.857 132.129 135.650  1.00  0.00     0.000 C 
ENDROOT
BRANCH   1   2
ATOM      2  C   UNL     1     129.645 131.923 134.727  1.00  0.00     0.000 C 
BRANCH   2   3
ATOM      3  C   UNL     1     128.364 131.576 135.505  1.00  0.00     0.000 C 
BRANCH   3   4
ATOM      4  C   UNL     1     128.658 130.963 136.887  1.00  0.00    -0.000 C 
BRANCH   4   5
ATOM      5  C   UNL     1     127.592 129.945 137.322  1.00  0.00    -0.000 C 
BRANCH   5   6
ATOM      6  C   UNL     1     128.120 128.499 137.317  1.00  0.00    -0.000 C 
BRANCH   6   7
ATOM      7  C   UNL     1     129.372 128.332 136.441  1.00  0.00    -0.000 C 
BRANCH   7   8
ATOM      8  C   UNL     1     129.144 127.385 135.252  1.00  0.00    -0.000 C 
BRANCH   8   9
ATOM      9  C   UNL     1     128.449 128.113 134.096  1.00  0.00    -0.000 C 
BRANCH   9  10
ATOM     10  C   UNL     1     126.989 127.654 133.955  1.00  0.00    -0.000 C 
BRANCH  10  11
ATOM     11  C   UNL     1     126.732 126.293 134.619  1.00  0.00    -0.003 C 
ATOM     12  C   UNL     1     125.411 126.251 135.388  1.00  0.00     0.004 C 
ENDBRANCH  10  11
ENDBRANCH   9  10
ENDBRANCH   8   9
ENDBRANCH   7   8
ENDBRANCH   6   7
ENDBRANCH   5   6
ENDBRANCH   4   5
ENDBRANCH   3   4
ENDBRANCH   2   3
ENDBRANCH   1   2
BRANCH   1  13
ATOM     13  C   UNL     1     131.163 133.615 135.909  1.00  0.00     0.000 C 
BRANCH  13  14
ATOM     14  C   UNL     1     132.547 134.062 135.395  1.00  0.00     0.000 C 
BRANCH  14  15
ATOM     15  C   UNL     1     132.479 134.632 133.967  1.00  0.00     0.000 C 
BRANCH  15  16
ATOM     16  C   UNL     1     132.872 133.600 132.899  1.00  0.00     0.000 C 
BRANCH  16  17
ATOM     17  C   UNL     1     131.726 133.299 131.917  1.00  0.00     0.000 C 
BRANCH  17  18
ATOM     18  C   UNL     1     131.226 134.574 131.205  1.00  0.00     0.000 C 
BRANCH  18  19
ATOM     19  C   UNL     1     130.633 134.307 129.811  1.00  0.00     0.000 C 
BRANCH  19  20
ATOM     20  C   UNL     1     130.941 132.894 129.290  1.00  0.00     0.006 C 
BRANCH  20  21
ATOM     21  C   UNL     1     130.338 132.644 127.901  1.00  0.00     0.053 C 
BRANCH  21  22
ATOM     22  C   UNL     1     129.236 131.631 127.946  1.00  0.00     0.041 C 
ATOM     23  O   UNL     1     129.379 130.569 128.608  1.00  0.00    -0.550 OA
ATOM     24  O   UNL     1     128.062 131.846 127.236  1.00  0.00    -0.550 OA
ENDBRANCH  21  22
ENDBRANCH  20  21
ENDBRANCH  19  20
ENDBRANCH  18  19
ENDBRANCH  17  18
ENDBRANCH  16  17
ENDBRANCH  15  16
ENDBRANCH  14  15
ENDBRANCH  13  14
ENDBRANCH   1  13
TORSDOF 20
ENDMDL
MODEL 9
REMARK VINA RESULT:    -4.187      6.717     11.456
REMARK INTER + INTRA:         -11.143
REMARK INTER:                  -8.897
REMARK INTRA:                  -2.246
REMARK UNBOUND:                -2.062
REMARK SMILES CCCCCCCCCCCCCCCCCCCCCC(=O)[O-]
REMARK SMILES IDX 12 1 11 2 10 3 9 4 8 5 7 6 6 7 5 8 4 9 3 10 2 11 1 12 13 13
REMARK SMILES IDX 14 14 15 15 16 16 17 17 18 18 19 19 20 20 21 21 22 22 23 23
REMARK SMILES IDX 24 24
REMARK H PARENT
REMARK Flexibility Score: inf
ROOT
ATOM      1  C   UNL     1     127.256 124.831 137.634  1.00  0.00     0.000 C 
ENDROOT
BRANCH   1   2
ATOM      2  C   UNL     1     127.953 126.183 137.857  1.00  0.00     0.000 C 
BRANCH   2   3
ATOM      3  C   UNL     1     126.968 127.364 137.840  1.00  0.00     0.000 C 
BRANCH   3   4
ATOM      4  C   UNL     1     127.623 128.689 138.273  1.00  0.00    -0.000 C 
BRANCH   4   5
ATOM      5  C   UNL     1     127.576 129.760 137.171  1.00  0.00    -0.000 C 
BRANCH   5   6
ATOM      6  C   UNL     1     128.947 129.987 136.510  1.00  0.00    -0.000 C 
BRANCH   6   7
ATOM      7  C   UNL     1     128.834 130.280 135.005  1.00  0.00    -0.000 C 
BRANCH   7   8
ATOM      8  C   UNL     1     129.659 129.308 134.146  1.00  0.00    -0.000 C 
BRANCH   8   9
ATOM      9  C   UNL     1     128.746 128.397 133.317  1.00  0.00    -0.000 C 
BRANCH   9  10
ATOM     10  C   UNL     1     127.833 127.559 134.225  1.00  0.00    -0.000 C 
BRANCH  10  11
ATOM     11  C   UNL     1     126.474 127.255 133.577  1.00  0.00    -0.003 C 
ATOM     12  C   UNL     1     125.306 127.415 134.551  1.00  0.00     0.004 C 
ENDBRANCH  10  11
ENDBRANCH   9  10
ENDBRANCH   8   9
ENDBRANCH   7   8
ENDBRANCH   6   7
ENDBRANCH   5   6
ENDBRANCH   4   5
ENDBRANCH   3   4
ENDBRANCH   2   3
ENDBRANCH   1   2
BRANCH   1  13
ATOM     13  C   UNL     1     127.245 124.403 136.155  1.00  0.00     0.000 C 
BRANCH  13  14
ATOM     14  C   UNL     1     126.067 123.477 135.786  1.00  0.00     0.000 C 
BRANCH  14  15
ATOM     15  C   UNL     1     125.626 123.656 134.322  1.00  0.00     0.000 C 
BRANCH  15  16
ATOM     16  C   UNL     1     124.420 122.777 133.958  1.00  0.00     0.000 C 
BRANCH  16  17
ATOM     17  C   UNL     1     124.153 122.738 132.443  1.00  0.00     0.000 C 
BRANCH  17  18
ATOM     18  C   UNL     1     124.395 121.335 131.848  1.00  0.00     0.000 C 
BRANCH  18  19
ATOM     19  C   UNL     1     124.690 121.349 130.339  1.00  0.00     0.000 C 
BRANCH  19  20
ATOM     20  C   UNL     1     124.589 122.753 129.722  1.00  0.00     0.006 C 
BRANCH  20  21
ATOM     21  C   UNL     1     124.971 122.762 128.236  1.00  0.00     0.053 C 
BRANCH  21  22
ATOM     22  C   UNL     1     126.382 123.218 128.026  1.00  0.00     0.041 C 
ATOM     23  O   UNL     1     127.336 122.407 128.168  1.00  0.00    -0.550 OA
ATOM     24  O   UNL     1     126.647 124.542 127.703  1.00  0.00    -0.550 OA
ENDBRANCH  21  22
ENDBRANCH  20  21
ENDBRANCH  19  20
ENDBRANCH  18  19
ENDBRANCH  17  18
ENDBRANCH  16  17
ENDBRANCH  15  16
ENDBRANCH  14  15
ENDBRANCH  13  14
ENDBRANCH   1  13
TORSDOF 20
ENDMDL
