MODEL 1
REMARK VINA RESULT:    -2.857      0.000      0.000
REMARK INTER + INTRA:          -3.451
REMARK INTER:                  -3.441
REMARK INTRA:                  -0.010
REMARK UNBOUND:                -0.010
REMARK SMILES CCCCCO
REMARK SMILES IDX 4 1 3 2 2 3 1 4 5 5 6 6
REMARK H PARENT 6 7
REMARK Flexibility Score: inf
ROOT
ATOM      1  C   UNL     1       7.020  10.106  10.081  1.00  0.00     0.028 C 
ENDROOT
BRANCH   1   2
ATOM      2  C   UNL     1       6.125  10.857  11.079  1.00  0.00     0.002 C 
BRANCH   2   3
ATOM      3  C   UNL     1       5.092  11.757  10.384  1.00  0.00    -0.003 C 
ATOM      4  C   UNL     1       4.113  12.401  11.365  1.00  0.00     0.004 C 
ENDBRANCH   2   3
ENDBRANCH   1   2
BRANCH   1   5
ATOM      5  C   UNL     1       8.499  10.312  10.406  1.00  0.00     0.156 C 
BRANCH   5   6
ATOM      6  O   UNL     1       9.186   9.103  10.240  1.00  0.00    -0.396 OA
ATOM      7  H   UNL     1      10.133   9.347  10.072  1.00  0.00     0.210 HD
ENDBRANCH   5   6
ENDBRANCH   1   5
TORSDOF 4
ENDMDL
MODEL 2
REMARK VINA RESULT:    -2.851      6.638      7.513
REMARK INTER + INTRA:          -3.445
REMARK INTER:                  -3.379
REMARK INTRA:                  -0.066
REMARK UNBOUND:                -0.010
REMARK SMILES CCCCCO
REMARK SMILES IDX 4 1 3 2 2 3 1 4 5 5 6 6
REMARK H PARENT 6 7
REMARK Flexibility Score: inf
ROOT
ATOM      1  C   UNL     1       5.132  13.744  15.963  1.00  0.00     0.028 C 
ENDROOT
BRANCH   1   2
ATOM      2  C   UNL     1       6.004  14.161  14.769  1.00  0.00     0.002 C 
BRANCH   2   3
ATOM      3  C   UNL     1       7.020  15.254  15.133  1.00  0.00    -0.003 C 
ATOM      4  C   UNL     1       8.459  14.858  14.803  1.00  0.00     0.004 C 
ENDBRANCH   2   3
ENDBRANCH   1   2
BRANCH   1   5
ATOM      5  C   UNL     1       5.584  14.444  17.245  1.00  0.00     0.156 C 
BRANCH   5   6
ATOM      6  O   UNL     1       4.591  15.338  17.663  1.00  0.00    -0.396 OA
ATOM      7  H   UNL     1       3.729  14.857  17.566  1.00  0.00     0.210 HD
ENDBRANCH   5   6
ENDBRANCH   1   5
TORSDOF 4
ENDMDL
MODEL 3
REMARK VINA RESULT:    -2.822      5.777      6.695
REMARK INTER + INTRA:          -3.409
REMARK INTER:                  -3.397
REMARK INTRA:                  -0.013
REMARK UNBOUND:                -0.010
REMARK SMILES CCCCCO
REMARK SMILES IDX 4 1 3 2 2 3 1 4 5 5 6 6
REMARK H PARENT 6 7
REMARK Flexibility Score: inf
ROOT
ATOM      1  C   UNL     1       4.923  13.482  16.047  1.00  0.00     0.028 C 
ENDROOT
BRANCH   1   2
ATOM      2  C   UNL     1       5.779  13.107  14.828  1.00  0.00     0.002 C 
BRANCH   2   3
ATOM      3  C   UNL     1       5.367  13.870  13.560  1.00  0.00    -0.003 C 
ATOM      4  C   UNL     1       4.447  13.056  12.652  1.00  0.00     0.004 C 
ENDBRANCH   2   3
ENDBRANCH   1   2
BRANCH   1   5
ATOM      5  C   UNL     1       5.608  14.556  16.892  1.00  0.00     0.156 C 
BRANCH   5   6
ATOM      6  O   UNL     1       4.643  15.270  17.612  1.00  0.00    -0.396 OA
ATOM      7  H   UNL     1       3.976  14.601  17.915  1.00  0.00     0.210 HD
ENDBRANCH   5   6
ENDBRANCH   1   5
TORSDOF 4
ENDMDL
MODEL 4
REMARK VINA RESULT:    -2.812      3.812      4.929
REMARK INTER + INTRA:          -3.397
REMARK INTER:                  -3.387
REMARK INTRA:                  -0.010
REMARK UNBOUND:                -0.010
REMARK SMILES CCCCCO
REMARK SMILES IDX 4 1 3 2 2 3 1 4 5 5 6 6
REMARK H PARENT 6 7
REMARK Flexibility Score: inf
ROOT
ATOM      1  C   UNL     1       5.110  12.529  12.524  1.00  0.00     0.028 C 
ENDROOT
BRANCH   1   2
ATOM      2  C   UNL     1       5.110  13.632  13.594  1.00  0.00     0.002 C 
BRANCH   2   3
ATOM      3  C   UNL     1       4.572  13.141  14.947  1.00  0.00    -0.003 C 
ATOM      4  C   UNL     1       5.185  13.886  16.132  1.00  0.00     0.004 C 
ENDBRANCH   2   3
ENDBRANCH   1   2
BRANCH   1   5
ATOM      5  C   UNL     1       3.805  12.536  11.727  1.00  0.00     0.156 C 
BRANCH   5   6
ATOM      6  O   UNL     1       4.095  12.494  10.358  1.00  0.00    -0.396 OA
ATOM      7  H   UNL     1       3.293  12.108   9.919  1.00  0.00     0.210 HD
ENDBRANCH   5   6
ENDBRANCH   1   5
TORSDOF 4
ENDMDL
MODEL 5
REMARK VINA RESULT:    -2.797      3.397      4.023
REMARK INTER + INTRA:          -3.379
REMARK INTER:                  -3.350
REMARK INTRA:                  -0.029
REMARK UNBOUND:                -0.010
REMARK SMILES CCCCCO
REMARK SMILES IDX 4 1 3 2 2 3 1 4 5 5 6 6
REMARK H PARENT 6 7
REMARK Flexibility Score: inf
ROOT
ATOM      1  C   UNL     1       5.673  13.818  13.536  1.00  0.00     0.028 C 
ENDROOT
BRANCH   1   2
ATOM      2  C   UNL     1       4.696  12.654  13.308  1.00  0.00     0.002 C 
BRANCH   2   3
ATOM      3  C   UNL     1       3.823  12.853  12.060  1.00  0.00    -0.003 C 
ATOM      4  C   UNL     1       4.361  12.111  10.837  1.00  0.00     0.004 C 
ENDBRANCH   2   3
ENDBRANCH   1   2
BRANCH   1   5
ATOM      5  C   UNL     1       7.092  13.305  13.777  1.00  0.00     0.156 C 
BRANCH   5   6
ATOM      6  O   UNL     1       7.959  13.874  12.835  1.00  0.00    -0.396 OA
ATOM      7  H   UNL     1       8.876  13.745  13.193  1.00  0.00     0.210 HD
ENDBRANCH   5   6
ENDBRANCH   1   5
TORSDOF 4
ENDMDL
MODEL 6
REMARK VINA RESULT:    -2.787      3.014      3.327
REMARK INTER + INTRA:          -3.367
REMARK INTER:                  -3.326
REMARK INTRA:                  -0.041
REMARK UNBOUND:                -0.010
REMARK SMILES CCCCCO
REMARK SMILES IDX 4 1 3 2 2 3 1 4 5 5 6 6
REMARK H PARENT 6 7
REMARK Flexibility Score: inf
ROOT
ATOM      1  C   UNL     1       6.238  12.262  13.009  1.00  0.00     0.028 C 
ENDROOT
BRANCH   1   2
ATOM      2  C   UNL     1       5.094  13.287  12.994  1.00  0.00     0.002 C 
BRANCH   2   3
ATOM      3  C   UNL     1       3.896  12.822  12.152  1.00  0.00    -0.003 C 
ATOM      4  C   UNL     1       4.316  12.177  10.832  1.00  0.00     0.004 C 
ENDBRANCH   2   3
ENDBRANCH   1   2
BRANCH   1   5
ATOM      5  C   UNL     1       7.583  12.933  12.731  1.00  0.00     0.156 C 
BRANCH   5   6
ATOM      6  O   UNL     1       8.549  12.426  13.608  1.00  0.00    -0.396 OA
ATOM      7  H   UNL     1       9.425  12.572  13.166  1.00  0.00     0.210 HD
ENDBRANCH   5   6
ENDBRANCH   1   5
TORSDOF 4
ENDMDL
MODEL 7
REMARK VINA RESULT:    -2.770      1.691      2.229
REMARK INTER + INTRA:          -3.346
REMARK INTER:                  -3.281
REMARK INTRA:                  -0.066
REMARK UNBOUND:                -0.010
REMARK SMILES CCCCCO
REMARK SMILES IDX 4 1 3 2 2 3 1 4 5 5 6 6
REMARK H PARENT 6 7
REMARK Flexibility Score: inf
ROOT
ATOM      1  C   UNL     1       7.347  10.582  10.038  1.00  0.00     0.028 C 
ENDROOT
BRANCH   1   2
ATOM      2  C   UNL     1       6.782  11.302  11.272  1.00  0.00     0.002 C 
BRANCH   2   3
ATOM      3  C   UNL     1       7.853  11.569  12.341  1.00  0.00    -0.003 C 
ATOM      4  C   UNL     1       7.974  13.049  12.700  1.00  0.00     0.004 C 
ENDBRANCH   2   3
ENDBRANCH   1   2
BRANCH   1   5
ATOM      5  C   UNL     1       8.861  10.408  10.148  1.00  0.00     0.156 C 
BRANCH   5   6
ATOM      6  O   UNL     1       9.166   9.048  10.284  1.00  0.00    -0.396 OA
ATOM      7  H   UNL     1       9.045   8.648   9.384  1.00  0.00     0.210 HD
ENDBRANCH   5   6
ENDBRANCH   1   5
TORSDOF 4
ENDMDL
MODEL 8
REMARK VINA RESULT:    -2.744      3.190      4.458
REMARK INTER + INTRA:          -3.315
REMARK INTER:                  -3.260
REMARK INTRA:                  -0.055
REMARK UNBOUND:                -0.010
REMARK SMILES CCCCCO
REMARK SMILES IDX 4 1 3 2 2 3 1 4 5 5 6 6
REMARK H PARENT 6 7
REMARK Flexibility Score: inf
ROOT
ATOM      1  C   UNL     1       3.779  12.870  12.108  1.00  0.00     0.028 C 
ENDROOT
BRANCH   1   2
ATOM      2  C   UNL     1       4.370  12.140  10.893  1.00  0.00     0.002 C 
BRANCH   2   3
ATOM      3  C   UNL     1       5.767  11.564  11.173  1.00  0.00    -0.003 C 
ATOM      4  C   UNL     1       6.201  10.533  10.133  1.00  0.00     0.004 C 
ENDBRANCH   2   3
ENDBRANCH   1   2
BRANCH   1   5
ATOM      5  C   UNL     1       4.844  13.109  13.178  1.00  0.00     0.156 C 
BRANCH   5   6
ATOM      6  O   UNL     1       5.227  14.456  13.163  1.00  0.00    -0.396 OA
ATOM      7  H   UNL     1       5.987  14.518  12.529  1.00  0.00     0.210 HD
ENDBRANCH   5   6
ENDBRANCH   1   5
TORSDOF 4
ENDMDL
