MODEL 1
REMARK VINA RESULT:    -3.901      0.000      0.000
REMARK INTER + INTRA:          -9.586
REMARK INTER:                  -7.094
REMARK INTRA:                  -2.492
REMARK UNBOUND:                -2.492
REMARK SMILES CCCCCCCCCCCCCC[C@@H](C)C(=O)[O-]
REMARK SMILES IDX 9 1 10 2 11 3 12 4 13 5 14 6 15 7 16 8 17 9 18 10 19 11 8 12
REMARK SMILES IDX 7 13 6 14 5 15 4 16 3 17 2 18 1 19
REMARK H PARENT
REMARK Flexibility Score: inf
ROOT
ATOM      1  C   UNL     1     -21.209   8.188  19.518  1.00  0.00     0.000 C 
ENDROOT
BRANCH   1   2
ATOM      2  C   UNL     1     -21.998   8.235  20.839  1.00  0.00     0.000 C 
BRANCH   2   3
ATOM      3  C   UNL     1     -23.521   8.175  20.632  1.00  0.00     0.000 C 
BRANCH   3   4
ATOM      4  C   UNL     1     -24.143   6.859  21.134  1.00  0.00     0.000 C 
BRANCH   4   5
ATOM      5  C   UNL     1     -23.143   5.720  21.418  1.00  0.00     0.001 C 
BRANCH   5   6
ATOM      6  C   UNL     1     -23.024   4.626  20.332  1.00  0.00     0.009 C 
BRANCH   6   7
ATOM      7  C   UNL     1     -21.619   4.007  20.096  1.00  0.00     0.032 C 
ATOM      8  C   UNL     1     -20.478   4.831  20.710  1.00  0.00     0.014 C 
BRANCH   7   9
ATOM      9  C   UNL     1     -21.547   2.554  20.486  1.00  0.00     0.044 C 
ATOM     10  O   UNL     1     -22.567   1.946  20.906  1.00  0.00    -0.550 OA
ATOM     11  O   UNL     1     -20.354   1.859  20.330  1.00  0.00    -0.550 OA
ENDBRANCH   7   9
ENDBRANCH   6   7
ENDBRANCH   5   6
ENDBRANCH   4   5
ENDBRANCH   3   4
ENDBRANCH   2   3
ENDBRANCH   1   2
BRANCH   1  12
ATOM     12  C   UNL     1     -22.053   8.316  18.236  1.00  0.00     0.000 C 
BRANCH  12  13
ATOM     13  C   UNL     1     -22.482   6.956  17.660  1.00  0.00    -0.000 C 
BRANCH  13  14
ATOM     14  C   UNL     1     -21.304   6.160  17.065  1.00  0.00    -0.000 C 
BRANCH  14  15
ATOM     15  C   UNL     1     -20.460   6.918  16.020  1.00  0.00    -0.000 C 
BRANCH  15  16
ATOM     16  C   UNL     1     -18.938   6.890  16.265  1.00  0.00    -0.000 C 
BRANCH  16  17
ATOM     17  C   UNL     1     -18.507   6.312  17.626  1.00  0.00    -0.000 C 
BRANCH  17  18
ATOM     18  C   UNL     1     -17.731   7.288  18.527  1.00  0.00    -0.003 C 
ATOM     19  C   UNL     1     -17.368   6.688  19.885  1.00  0.00     0.004 C 
ENDBRANCH  17  18
ENDBRANCH  16  17
ENDBRANCH  15  16
ENDBRANCH  14  15
ENDBRANCH  13  14
ENDBRANCH  12  13
ENDBRANCH   1  12
TORSDOF 14
ENDMDL
MODEL 2
REMARK VINA RESULT:    -3.834      1.527      2.445
REMARK INTER + INTRA:          -9.464
REMARK INTER:                  -7.183
REMARK INTRA:                  -2.281
REMARK UNBOUND:                -2.492
REMARK SMILES CCCCCCCCCCCCCC[C@@H](C)C(=O)[O-]
REMARK SMILES IDX 9 1 10 2 11 3 12 4 13 5 14 6 15 7 16 8 17 9 18 10 19 11 8 12
REMARK SMILES IDX 7 13 6 14 5 15 4 16 3 17 2 18 1 19
REMARK H PARENT
REMARK Flexibility Score: inf
ROOT
ATOM      1  C   UNL     1     -22.412   7.694  18.059  1.00  0.00     0.000 C 
ENDROOT
BRANCH   1   2
ATOM      2  C   UNL     1     -21.535   8.441  19.081  1.00  0.00     0.000 C 
BRANCH   2   3
ATOM      3  C   UNL     1     -22.108   8.399  20.508  1.00  0.00     0.000 C 
BRANCH   3   4
ATOM      4  C   UNL     1     -23.631   8.174  20.536  1.00  0.00     0.000 C 
BRANCH   4   5
ATOM      5  C   UNL     1     -24.089   6.806  21.078  1.00  0.00     0.001 C 
BRANCH   5   6
ATOM      6  C   UNL     1     -22.975   5.769  21.352  1.00  0.00     0.009 C 
BRANCH   6   7
ATOM      7  C   UNL     1     -23.395   4.277  21.429  1.00  0.00     0.032 C 
ATOM      8  C   UNL     1     -22.426   3.333  20.702  1.00  0.00     0.014 C 
BRANCH   7   9
ATOM      9  C   UNL     1     -23.687   3.821  22.835  1.00  0.00     0.044 C 
ATOM     10  O   UNL     1     -22.823   3.196  23.504  1.00  0.00    -0.550 OA
ATOM     11  O   UNL     1     -24.904   4.142  23.422  1.00  0.00    -0.550 OA
ENDBRANCH   7   9
ENDBRANCH   6   7
ENDBRANCH   5   6
ENDBRANCH   4   5
ENDBRANCH   3   4
ENDBRANCH   2   3
ENDBRANCH   1   2
BRANCH   1  12
ATOM     12  C   UNL     1     -22.000   6.238  17.772  1.00  0.00     0.000 C 
BRANCH  12  13
ATOM     13  C   UNL     1     -21.446   6.040  16.351  1.00  0.00    -0.000 C 
BRANCH  13  14
ATOM     14  C   UNL     1     -20.341   7.052  15.992  1.00  0.00    -0.000 C 
BRANCH  14  15
ATOM     15  C   UNL     1     -18.898   6.561  16.230  1.00  0.00    -0.000 C 
BRANCH  15  16
ATOM     16  C   UNL     1     -18.382   6.722  17.673  1.00  0.00    -0.000 C 
BRANCH  16  17
ATOM     17  C   UNL     1     -18.023   5.404  18.387  1.00  0.00    -0.000 C 
BRANCH  17  18
ATOM     18  C   UNL     1     -19.091   4.889  19.367  1.00  0.00    -0.003 C 
ATOM     19  C   UNL     1     -19.307   5.820  20.559  1.00  0.00     0.004 C 
ENDBRANCH  17  18
ENDBRANCH  16  17
ENDBRANCH  15  16
ENDBRANCH  14  15
ENDBRANCH  13  14
ENDBRANCH  12  13
ENDBRANCH   1  12
TORSDOF 14
ENDMDL
MODEL 3
REMARK VINA RESULT:    -3.773      2.937      6.364
REMARK INTER + INTRA:          -9.353
REMARK INTER:                  -7.432
REMARK INTRA:                  -1.921
REMARK UNBOUND:                -2.492
REMARK SMILES CCCCCCCCCCCCCC[C@@H](C)C(=O)[O-]
REMARK SMILES IDX 9 1 10 2 11 3 12 4 13 5 14 6 15 7 16 8 17 9 18 10 19 11 8 12
REMARK SMILES IDX 7 13 6 14 5 15 4 16 3 17 2 18 1 19
REMARK H PARENT
REMARK Flexibility Score: inf
ROOT
ATOM      1  C   UNL     1     -22.924   5.644  21.374  1.00  0.00     0.000 C 
ENDROOT
BRANCH   1   2
ATOM      2  C   UNL     1     -24.130   6.590  21.227  1.00  0.00     0.000 C 
BRANCH   2   3
ATOM      3  C   UNL     1     -23.733   8.002  20.762  1.00  0.00     0.000 C 
BRANCH   3   4
ATOM      4  C   UNL     1     -22.212   8.239  20.798  1.00  0.00     0.000 C 
BRANCH   4   5
ATOM      5  C   UNL     1     -21.627   8.970  19.574  1.00  0.00     0.001 C 
BRANCH   5   6
ATOM      6  C   UNL     1     -21.906   8.331  18.195  1.00  0.00     0.009 C 
BRANCH   6   7
ATOM      7  C   UNL     1     -21.378   6.890  17.956  1.00  0.00     0.032 C 
ATOM      8  C   UNL     1     -22.447   5.930  17.417  1.00  0.00     0.014 C 
BRANCH   7   9
ATOM      9  C   UNL     1     -20.116   6.858  17.135  1.00  0.00     0.044 C 
ATOM     10  O   UNL     1     -19.035   7.315  17.592  1.00  0.00    -0.550 OA
ATOM     11  O   UNL     1     -20.130   6.268  15.877  1.00  0.00    -0.550 OA
ENDBRANCH   7   9
ENDBRANCH   6   7
ENDBRANCH   5   6
ENDBRANCH   4   5
ENDBRANCH   3   4
ENDBRANCH   2   3
ENDBRANCH   1   2
BRANCH   1  12
ATOM     12  C   UNL     1     -23.042   4.300  20.631  1.00  0.00     0.000 C 
BRANCH  12  13
ATOM     13  C   UNL     1     -21.966   3.285  21.051  1.00  0.00    -0.000 C 
BRANCH  13  14
ATOM     14  C   UNL     1     -22.540   1.882  21.323  1.00  0.00    -0.000 C 
BRANCH  14  15
ATOM     15  C   UNL     1     -24.066   1.827  21.544  1.00  0.00    -0.000 C 
BRANCH  15  16
ATOM     16  C   UNL     1     -24.507   1.492  22.983  1.00  0.00    -0.000 C 
BRANCH  16  17
ATOM     17  C   UNL     1     -25.557   2.448  23.582  1.00  0.00    -0.000 C 
BRANCH  17  18
ATOM     18  C   UNL     1     -25.069   3.891  23.795  1.00  0.00    -0.003 C 
ATOM     19  C   UNL     1     -26.080   4.758  24.544  1.00  0.00     0.004 C 
ENDBRANCH  17  18
ENDBRANCH  16  17
ENDBRANCH  15  16
ENDBRANCH  14  15
ENDBRANCH  13  14
ENDBRANCH  12  13
ENDBRANCH   1  12
TORSDOF 14
ENDMDL
MODEL 4
REMARK VINA RESULT:    -3.735      1.930      5.226
REMARK INTER + INTRA:          -9.284
REMARK INTER:                  -6.813
REMARK INTRA:                  -2.471
REMARK UNBOUND:                -2.492
REMARK SMILES CCCCCCCCCCCCCC[C@@H](C)C(=O)[O-]
REMARK SMILES IDX 9 1 10 2 11 3 12 4 13 5 14 6 15 7 16 8 17 9 18 10 19 11 8 12
REMARK SMILES IDX 7 13 6 14 5 15 4 16 3 17 2 18 1 19
REMARK H PARENT
REMARK Flexibility Score: inf
ROOT
ATOM      1  C   UNL     1     -21.582   8.200  18.238  1.00  0.00     0.000 C 
ENDROOT
BRANCH   1   2
ATOM      2  C   UNL     1     -22.322   6.972  17.678  1.00  0.00     0.000 C 
BRANCH   2   3
ATOM      3  C   UNL     1     -21.446   6.115  16.747  1.00  0.00     0.000 C 
BRANCH   3   4
ATOM      4  C   UNL     1     -20.497   6.957  15.875  1.00  0.00     0.000 C 
BRANCH   4   5
ATOM      5  C   UNL     1     -18.995   6.657  16.051  1.00  0.00     0.001 C 
BRANCH   5   6
ATOM      6  C   UNL     1     -18.577   6.006  17.389  1.00  0.00     0.009 C 
BRANCH   6   7
ATOM      7  C   UNL     1     -17.509   6.745  18.239  1.00  0.00     0.032 C 
ATOM      8  C   UNL     1     -18.101   7.813  19.169  1.00  0.00     0.014 C 
BRANCH   7   9
ATOM      9  C   UNL     1     -16.585   5.804  18.967  1.00  0.00     0.044 C 
ATOM     10  O   UNL     1     -15.342   6.003  18.985  1.00  0.00    -0.550 OA
ATOM     11  O   UNL     1     -17.115   4.731  19.673  1.00  0.00    -0.550 OA
ENDBRANCH   7   9
ENDBRANCH   6   7
ENDBRANCH   5   6
ENDBRANCH   4   5
ENDBRANCH   3   4
ENDBRANCH   2   3
ENDBRANCH   1   2
BRANCH   1  12
ATOM     12  C   UNL     1     -22.380   9.054  19.241  1.00  0.00     0.000 C 
BRANCH  12  13
ATOM     13  C   UNL     1     -22.430   8.439  20.649  1.00  0.00    -0.000 C 
BRANCH  13  14
ATOM     14  C   UNL     1     -23.835   7.940  21.035  1.00  0.00    -0.000 C 
BRANCH  14  15
ATOM     15  C   UNL     1     -24.108   6.450  20.739  1.00  0.00    -0.000 C 
BRANCH  15  16
ATOM     16  C   UNL     1     -23.169   5.459  21.455  1.00  0.00    -0.000 C 
BRANCH  16  17
ATOM     17  C   UNL     1     -22.802   4.204  20.639  1.00  0.00    -0.000 C 
BRANCH  17  18
ATOM     18  C   UNL     1     -21.419   4.253  19.965  1.00  0.00    -0.003 C 
ATOM     19  C   UNL     1     -20.508   5.329  20.552  1.00  0.00     0.004 C 
ENDBRANCH  17  18
ENDBRANCH  16  17
ENDBRANCH  15  16
ENDBRANCH  14  15
ENDBRANCH  13  14
ENDBRANCH  12  13
ENDBRANCH   1  12
TORSDOF 14
ENDMDL
MODEL 5
REMARK VINA RESULT:    -3.713      1.007      1.939
REMARK INTER + INTRA:          -9.244
REMARK INTER:                  -6.771
REMARK INTRA:                  -2.473
REMARK UNBOUND:                -2.492
REMARK SMILES CCCCCCCCCCCCCC[C@@H](C)C(=O)[O-]
REMARK SMILES IDX 9 1 10 2 11 3 12 4 13 5 14 6 15 7 16 8 17 9 18 10 19 11 8 12
REMARK SMILES IDX 7 13 6 14 5 15 4 16 3 17 2 18 1 19
REMARK H PARENT
REMARK Flexibility Score: inf
ROOT
ATOM      1  C   UNL     1     -23.841   7.889  19.866  1.00  0.00     0.000 C 
ENDROOT
BRANCH   1   2
ATOM      2  C   UNL     1     -24.213   7.068  21.114  1.00  0.00     0.000 C 
BRANCH   2   3
ATOM      3  C   UNL     1     -23.081   6.136  21.579  1.00  0.00     0.000 C 
BRANCH   3   4
ATOM      4  C   UNL     1     -23.286   4.677  21.135  1.00  0.00     0.000 C 
BRANCH   4   5
ATOM      5  C   UNL     1     -22.388   4.205  19.974  1.00  0.00     0.001 C 
BRANCH   5   6
ATOM      6  C   UNL     1     -20.887   4.560  20.079  1.00  0.00     0.009 C 
BRANCH   6   7
ATOM      7  C   UNL     1     -19.881   3.381  20.167  1.00  0.00     0.032 C 
ATOM      8  C   UNL     1     -18.469   3.815  20.585  1.00  0.00     0.014 C 
BRANCH   7   9
ATOM      9  C   UNL     1     -20.394   2.234  20.997  1.00  0.00     0.044 C 
ATOM     10  O   UNL     1     -20.460   2.322  22.251  1.00  0.00    -0.550 OA
ATOM     11  O   UNL     1     -20.851   1.082  20.369  1.00  0.00    -0.550 OA
ENDBRANCH   7   9
ENDBRANCH   6   7
ENDBRANCH   5   6
ENDBRANCH   4   5
ENDBRANCH   3   4
ENDBRANCH   2   3
ENDBRANCH   1   2
BRANCH   1  12
ATOM     12  C   UNL     1     -22.402   8.436  19.836  1.00  0.00     0.000 C 
BRANCH  12  13
ATOM     13  C   UNL     1     -21.694   8.192  18.493  1.00  0.00    -0.000 C 
BRANCH  13  14
ATOM     14  C   UNL     1     -22.367   7.088  17.653  1.00  0.00    -0.000 C 
BRANCH  14  15
ATOM     15  C   UNL     1     -21.405   6.224  16.812  1.00  0.00    -0.000 C 
BRANCH  15  16
ATOM     16  C   UNL     1     -20.416   7.014  15.931  1.00  0.00    -0.000 C 
BRANCH  16  17
ATOM     17  C   UNL     1     -18.927   6.738  16.214  1.00  0.00    -0.000 C 
BRANCH  17  18
ATOM     18  C   UNL     1     -18.640   6.067  17.568  1.00  0.00    -0.003 C 
ATOM     19  C   UNL     1     -18.211   7.061  18.647  1.00  0.00     0.004 C 
ENDBRANCH  17  18
ENDBRANCH  16  17
ENDBRANCH  15  16
ENDBRANCH  14  15
ENDBRANCH  13  14
ENDBRANCH  12  13
ENDBRANCH   1  12
TORSDOF 14
ENDMDL
MODEL 6
REMARK VINA RESULT:    -3.693      1.688      4.065
REMARK INTER + INTRA:          -9.207
REMARK INTER:                  -6.881
REMARK INTRA:                  -2.327
REMARK UNBOUND:                -2.492
REMARK SMILES CCCCCCCCCCCCCC[C@@H](C)C(=O)[O-]
REMARK SMILES IDX 9 1 10 2 11 3 12 4 13 5 14 6 15 7 16 8 17 9 18 10 19 11 8 12
REMARK SMILES IDX 7 13 6 14 5 15 4 16 3 17 2 18 1 19
REMARK H PARENT
REMARK Flexibility Score: inf
ROOT
ATOM      1  C   UNL     1     -18.066   6.907  17.486  1.00  0.00     0.000 C 
ENDROOT
BRANCH   1   2
ATOM      2  C   UNL     1     -18.530   6.710  18.940  1.00  0.00     0.000 C 
BRANCH   2   3
ATOM      3  C   UNL     1     -19.135   5.319  19.195  1.00  0.00     0.000 C 
BRANCH   3   4
ATOM      4  C   UNL     1     -20.356   5.360  20.133  1.00  0.00     0.000 C 
BRANCH   4   5
ATOM      5  C   UNL     1     -21.496   4.385  19.778  1.00  0.00     0.001 C 
BRANCH   5   6
ATOM      6  C   UNL     1     -21.890   3.364  20.869  1.00  0.00     0.009 C 
BRANCH   6   7
ATOM      7  C   UNL     1     -23.331   3.451  21.440  1.00  0.00     0.032 C 
ATOM      8  C   UNL     1     -24.055   2.097  21.479  1.00  0.00     0.014 C 
BRANCH   7   9
ATOM      9  C   UNL     1     -23.396   4.170  22.761  1.00  0.00     0.044 C 
ATOM     10  O   UNL     1     -24.502   4.507  23.261  1.00  0.00    -0.550 OA
ATOM     11  O   UNL     1     -22.224   4.419  23.466  1.00  0.00    -0.550 OA
ENDBRANCH   7   9
ENDBRANCH   6   7
ENDBRANCH   5   6
ENDBRANCH   4   5
ENDBRANCH   3   4
ENDBRANCH   2   3
ENDBRANCH   1   2
BRANCH   1  12
ATOM     12  C   UNL     1     -18.895   6.166  16.420  1.00  0.00     0.000 C 
BRANCH  12  13
ATOM     13  C   UNL     1     -20.168   6.925  16.013  1.00  0.00    -0.000 C 
BRANCH  13  14
ATOM     14  C   UNL     1     -21.459   6.218  16.469  1.00  0.00    -0.000 C 
BRANCH  14  15
ATOM     15  C   UNL     1     -22.397   7.067  17.352  1.00  0.00    -0.000 C 
BRANCH  15  16
ATOM     16  C   UNL     1     -21.712   8.217  18.116  1.00  0.00    -0.000 C 
BRANCH  16  17
ATOM     17  C   UNL     1     -22.294   8.509  19.513  1.00  0.00    -0.000 C 
BRANCH  17  18
ATOM     18  C   UNL     1     -23.730   8.004  19.732  1.00  0.00    -0.003 C 
ATOM     19  C   UNL     1     -23.914   7.293  21.072  1.00  0.00     0.004 C 
ENDBRANCH  17  18
ENDBRANCH  16  17
ENDBRANCH  15  16
ENDBRANCH  14  15
ENDBRANCH  13  14
ENDBRANCH  12  13
ENDBRANCH   1  12
TORSDOF 14
ENDMDL
MODEL 7
REMARK VINA RESULT:    -3.635      1.219      4.687
REMARK INTER + INTRA:          -9.101
REMARK INTER:                  -6.947
REMARK INTRA:                  -2.154
REMARK UNBOUND:                -2.492
REMARK SMILES CCCCCCCCCCCCCC[C@@H](C)C(=O)[O-]
REMARK SMILES IDX 9 1 10 2 11 3 12 4 13 5 14 6 15 7 16 8 17 9 18 10 19 11 8 12
REMARK SMILES IDX 7 13 6 14 5 15 4 16 3 17 2 18 1 19
REMARK H PARENT
REMARK Flexibility Score: inf
ROOT
ATOM      1  C   UNL     1     -21.491   6.251  16.799  1.00  0.00     0.000 C 
ENDROOT
BRANCH   1   2
ATOM      2  C   UNL     1     -20.454   7.078  16.018  1.00  0.00     0.000 C 
BRANCH   2   3
ATOM      3  C   UNL     1     -19.023   6.529  16.152  1.00  0.00     0.000 C 
BRANCH   3   4
ATOM      4  C   UNL     1     -18.435   6.728  17.561  1.00  0.00     0.000 C 
BRANCH   4   5
ATOM      5  C   UNL     1     -18.154   5.435  18.351  1.00  0.00     0.001 C 
BRANCH   5   6
ATOM      6  C   UNL     1     -19.209   5.033  19.407  1.00  0.00     0.009 C 
BRANCH   6   7
ATOM      7  C   UNL     1     -18.803   3.951  20.443  1.00  0.00     0.032 C 
ATOM      8  C   UNL     1     -19.310   4.244  21.863  1.00  0.00     0.014 C 
BRANCH   7   9
ATOM      9  C   UNL     1     -19.142   2.554  19.994  1.00  0.00     0.044 C 
ATOM     10  O   UNL     1     -20.245   2.027  20.297  1.00  0.00    -0.550 OA
ATOM     11  O   UNL     1     -18.250   1.854  19.191  1.00  0.00    -0.550 OA
ENDBRANCH   7   9
ENDBRANCH   6   7
ENDBRANCH   5   6
ENDBRANCH   4   5
ENDBRANCH   3   4
ENDBRANCH   2   3
ENDBRANCH   1   2
BRANCH   1  12
ATOM     12  C   UNL     1     -22.461   7.063  17.678  1.00  0.00     0.000 C 
BRANCH  12  13
ATOM     13  C   UNL     1     -21.772   8.218  18.423  1.00  0.00    -0.000 C 
BRANCH  13  14
ATOM     14  C   UNL     1     -22.206   8.322  19.898  1.00  0.00    -0.000 C 
BRANCH  14  15
ATOM     15  C   UNL     1     -23.686   7.986  20.173  1.00  0.00    -0.000 C 
BRANCH  15  16
ATOM     16  C   UNL     1     -23.920   6.762  21.081  1.00  0.00    -0.000 C 
BRANCH  16  17
ATOM     17  C   UNL     1     -22.698   5.841  21.262  1.00  0.00    -0.000 C 
BRANCH  17  18
ATOM     18  C   UNL     1     -22.781   4.502  20.510  1.00  0.00    -0.003 C 
ATOM     19  C   UNL     1     -23.343   3.370  21.368  1.00  0.00     0.004 C 
ENDBRANCH  17  18
ENDBRANCH  16  17
ENDBRANCH  15  16
ENDBRANCH  14  15
ENDBRANCH  13  14
ENDBRANCH  12  13
ENDBRANCH   1  12
TORSDOF 14
ENDMDL
MODEL 8
REMARK VINA RESULT:    -3.612      1.875      3.002
REMARK INTER + INTRA:          -9.060
REMARK INTER:                  -7.460
REMARK INTRA:                  -1.601
REMARK UNBOUND:                -2.492
REMARK SMILES CCCCCCCCCCCCCC[C@@H](C)C(=O)[O-]
REMARK SMILES IDX 9 1 10 2 11 3 12 4 13 5 14 6 15 7 16 8 17 9 18 10 19 11 8 12
REMARK SMILES IDX 7 13 6 14 5 15 4 16 3 17 2 18 1 19
REMARK H PARENT
REMARK Flexibility Score: inf
ROOT
ATOM      1  C   UNL     1     -23.738   7.727  20.100  1.00  0.00     0.000 C 
ENDROOT
BRANCH   1   2
ATOM      2  C   UNL     1     -24.068   6.674  21.174  1.00  0.00     0.000 C 
BRANCH   2   3
ATOM      3  C   UNL     1     -22.937   5.653  21.383  1.00  0.00     0.000 C 
BRANCH   3   4
ATOM      4  C   UNL     1     -22.696   4.765  20.148  1.00  0.00     0.000 C 
BRANCH   4   5
ATOM      5  C   UNL     1     -22.052   3.395  20.434  1.00  0.00     0.001 C 
BRANCH   5   6
ATOM      6  C   UNL     1     -22.542   2.656  21.700  1.00  0.00     0.009 C 
BRANCH   6   7
ATOM      7  C   UNL     1     -23.923   1.951  21.623  1.00  0.00     0.032 C 
ATOM      8  C   UNL     1     -23.823   0.438  21.378  1.00  0.00     0.014 C 
BRANCH   7   9
ATOM      9  C   UNL     1     -24.816   2.281  22.790  1.00  0.00     0.044 C 
ATOM     10  O   UNL     1     -25.782   1.534  23.097  1.00  0.00    -0.550 OA
ATOM     11  O   UNL     1     -24.538   3.394  23.574  1.00  0.00    -0.550 OA
ENDBRANCH   7   9
ENDBRANCH   6   7
ENDBRANCH   5   6
ENDBRANCH   4   5
ENDBRANCH   3   4
ENDBRANCH   2   3
ENDBRANCH   1   2
BRANCH   1  12
ATOM     12  C   UNL     1     -22.350   8.385  20.221  1.00  0.00     0.000 C 
BRANCH  12  13
ATOM     13  C   UNL     1     -21.618   8.494  18.874  1.00  0.00    -0.000 C 
BRANCH  13  14
ATOM     14  C   UNL     1     -22.270   7.644  17.766  1.00  0.00    -0.000 C 
BRANCH  14  15
ATOM     15  C   UNL     1     -21.401   6.490  17.226  1.00  0.00    -0.000 C 
BRANCH  15  16
ATOM     16  C   UNL     1     -20.516   6.849  16.016  1.00  0.00    -0.000 C 
BRANCH  16  17
ATOM     17  C   UNL     1     -18.999   6.828  16.290  1.00  0.00    -0.000 C 
BRANCH  17  18
ATOM     18  C   UNL     1     -18.598   6.253  17.659  1.00  0.00    -0.003 C 
ATOM     19  C   UNL     1     -18.037   7.310  18.609  1.00  0.00     0.004 C 
ENDBRANCH  17  18
ENDBRANCH  16  17
ENDBRANCH  15  16
ENDBRANCH  14  15
ENDBRANCH  13  14
ENDBRANCH  12  13
ENDBRANCH   1  12
TORSDOF 14
ENDMDL
MODEL 9
REMARK VINA RESULT:    -3.544      2.390      5.372
REMARK INTER + INTRA:          -8.937
REMARK INTER:                  -6.723
REMARK INTRA:                  -2.214
REMARK UNBOUND:                -2.492
REMARK SMILES CCCCCCCCCCCCCC[C@@H](C)C(=O)[O-]
REMARK SMILES IDX 9 1 10 2 11 3 12 4 13 5 14 6 15 7 16 8 17 9 18 10 19 11 8 12
REMARK SMILES IDX 7 13 6 14 5 15 4 16 3 17 2 18 1 19
REMARK H PARENT
REMARK Flexibility Score: inf
ROOT
ATOM      1  C   UNL     1     -22.405   8.334  20.036  1.00  0.00     0.000 C 
ENDROOT
BRANCH   1   2
ATOM      2  C   UNL     1     -22.185   8.427  18.515  1.00  0.00     0.000 C 
BRANCH   2   3
ATOM      3  C   UNL     1     -22.734   7.209  17.753  1.00  0.00     0.000 C 
BRANCH   3   4
ATOM      4  C   UNL     1     -21.636   6.200  17.367  1.00  0.00     0.000 C 
BRANCH   4   5
ATOM      5  C   UNL     1     -20.516   6.753  16.464  1.00  0.00     0.001 C 
BRANCH   5   6
ATOM      6  C   UNL     1     -19.121   6.899  17.113  1.00  0.00     0.009 C 
BRANCH   6   7
ATOM      7  C   UNL     1     -18.928   6.301  18.533  1.00  0.00     0.032 C 
ATOM      8  C   UNL     1     -17.836   5.225  18.599  1.00  0.00     0.014 C 
BRANCH   7   9
ATOM      9  C   UNL     1     -18.755   7.356  19.594  1.00  0.00     0.044 C 
ATOM     10  O   UNL     1     -18.609   7.038  20.804  1.00  0.00    -0.550 OA
ATOM     11  O   UNL     1     -18.700   8.696  19.229  1.00  0.00    -0.550 OA
ENDBRANCH   7   9
ENDBRANCH   6   7
ENDBRANCH   5   6
ENDBRANCH   4   5
ENDBRANCH   3   4
ENDBRANCH   2   3
ENDBRANCH   1   2
BRANCH   1  12
ATOM     12  C   UNL     1     -23.715   7.656  20.477  1.00  0.00     0.000 C 
BRANCH  12  13
ATOM     13  C   UNL     1     -23.498   6.248  21.055  1.00  0.00    -0.000 C 
BRANCH  13  14
ATOM     14  C   UNL     1     -22.040   5.993  21.480  1.00  0.00    -0.000 C 
BRANCH  14  15
ATOM     15  C   UNL     1     -21.380   4.747  20.854  1.00  0.00    -0.000 C 
BRANCH  15  16
ATOM     16  C   UNL     1     -22.362   3.671  20.350  1.00  0.00    -0.000 C 
BRANCH  16  17
ATOM     17  C   UNL     1     -22.090   2.246  20.870  1.00  0.00    -0.000 C 
BRANCH  17  18
ATOM     18  C   UNL     1     -23.349   1.394  21.107  1.00  0.00    -0.003 C 
ATOM     19  C   UNL     1     -24.423   2.126  21.910  1.00  0.00     0.004 C 
ENDBRANCH  17  18
ENDBRANCH  16  17
ENDBRANCH  15  16
ENDBRANCH  14  15
ENDBRANCH  13  14
ENDBRANCH  12  13
ENDBRANCH   1  12
TORSDOF 14
ENDMDL
