MODEL 1
REMARK VINA RESULT:    -2.758      0.000      0.000
REMARK INTER + INTRA:          -3.350
REMARK INTER:                  -3.242
REMARK INTRA:                  -0.108
REMARK UNBOUND:                -0.108
REMARK SMILES CCCCC(=O)[O-]
REMARK SMILES IDX 4 1 5 2 6 3 7 4 3 5 2 6 1 7
REMARK H PARENT
REMARK Flexibility Score: inf
ROOT
ATOM      1  C   UNL     1       6.219  10.871  39.627  1.00  0.00     0.053 C 
ENDROOT
BRANCH   1   2
ATOM      2  C   UNL     1       5.498   9.764  38.926  1.00  0.00     0.041 C 
ATOM      3  O   UNL     1       5.398   8.631  39.467  1.00  0.00    -0.550 OA
ATOM      4  O   UNL     1       4.978   9.968  37.655  1.00  0.00    -0.550 OA
ENDBRANCH   1   2
BRANCH   1   5
ATOM      5  C   UNL     1       5.258  11.651  40.528  1.00  0.00     0.006 C 
BRANCH   5   6
ATOM      6  C   UNL     1       5.493  11.313  42.005  1.00  0.00    -0.003 C 
ATOM      7  C   UNL     1       4.494  10.270  42.498  1.00  0.00     0.004 C 
ENDBRANCH   5   6
ENDBRANCH   1   5
TORSDOF 3
ENDMDL
MODEL 2
REMARK VINA RESULT:    -2.742      2.508      3.532
REMARK INTER + INTRA:          -3.331
REMARK INTER:                  -3.221
REMARK INTRA:                  -0.111
REMARK UNBOUND:                -0.108
REMARK SMILES CCCCC(=O)[O-]
REMARK SMILES IDX 4 1 5 2 6 3 7 4 3 5 2 6 1 7
REMARK H PARENT
REMARK Flexibility Score: inf
ROOT
ATOM      1  C   UNL     1       4.553   9.282  40.540  1.00  0.00     0.053 C 
ENDROOT
BRANCH   1   2
ATOM      2  C   UNL     1       4.465   9.711  41.970  1.00  0.00     0.041 C 
ATOM      3  O   UNL     1       4.532  10.931  42.271  1.00  0.00    -0.550 OA
ATOM      4  O   UNL     1       4.359   8.759  42.976  1.00  0.00    -0.550 OA
ENDBRANCH   1   2
BRANCH   1   5
ATOM      5  C   UNL     1       4.848  10.482  39.637  1.00  0.00     0.006 C 
BRANCH   5   6
ATOM      6  C   UNL     1       6.318  10.495  39.203  1.00  0.00    -0.003 C 
ATOM      7  C   UNL     1       7.092  11.608  39.906  1.00  0.00     0.004 C 
ENDBRANCH   5   6
ENDBRANCH   1   5
TORSDOF 3
ENDMDL
MODEL 3
REMARK VINA RESULT:    -2.672      9.651     10.588
REMARK INTER + INTRA:          -3.248
REMARK INTER:                  -3.229
REMARK INTRA:                  -0.019
REMARK UNBOUND:                -0.108
REMARK SMILES CCCCC(=O)[O-]
REMARK SMILES IDX 4 1 5 2 6 3 7 4 3 5 2 6 1 7
REMARK H PARENT
REMARK Flexibility Score: inf
ROOT
ATOM      1  C   UNL     1       6.506   0.859  44.510  1.00  0.00     0.053 C 
ENDROOT
BRANCH   1   2
ATOM      2  C   UNL     1       5.618   1.999  44.125  1.00  0.00     0.041 C 
ATOM      3  O   UNL     1       4.374   1.828  44.026  1.00  0.00    -0.550 OA
ATOM      4  O   UNL     1       6.168   3.239  43.828  1.00  0.00    -0.550 OA
ENDBRANCH   1   2
BRANCH   1   5
ATOM      5  C   UNL     1       7.845   1.378  45.041  1.00  0.00     0.006 C 
BRANCH   5   6
ATOM      6  C   UNL     1       8.546   0.316  45.896  1.00  0.00    -0.003 C 
ATOM      7  C   UNL     1       9.981   0.089  45.427  1.00  0.00     0.004 C 
ENDBRANCH   5   6
ENDBRANCH   1   5
TORSDOF 3
ENDMDL
MODEL 4
REMARK VINA RESULT:    -2.667      1.348      2.339
REMARK INTER + INTRA:          -3.243
REMARK INTER:                  -3.167
REMARK INTRA:                  -0.076
REMARK UNBOUND:                -0.108
REMARK SMILES CCCCC(=O)[O-]
REMARK SMILES IDX 4 1 5 2 6 3 7 4 3 5 2 6 1 7
REMARK H PARENT
REMARK Flexibility Score: inf
ROOT
ATOM      1  C   UNL     1       4.470  11.384  39.398  1.00  0.00     0.053 C 
ENDROOT
BRANCH   1   2
ATOM      2  C   UNL     1       4.681   9.980  38.927  1.00  0.00     0.041 C 
ATOM      3  O   UNL     1       4.921   9.748  37.713  1.00  0.00    -0.550 OA
ATOM      4  O   UNL     1       4.564   8.922  39.820  1.00  0.00    -0.550 OA
ENDBRANCH   1   2
BRANCH   1   5
ATOM      5  C   UNL     1       5.504  11.751  40.466  1.00  0.00     0.006 C 
BRANCH   5   6
ATOM      6  C   UNL     1       6.930  11.561  39.939  1.00  0.00    -0.003 C 
ATOM      7  C   UNL     1       7.964  11.973  40.983  1.00  0.00     0.004 C 
ENDBRANCH   5   6
ENDBRANCH   1   5
TORSDOF 3
ENDMDL
MODEL 5
REMARK VINA RESULT:    -2.657     13.664     14.962
REMARK INTER + INTRA:          -3.230
REMARK INTER:                  -3.206
REMARK INTRA:                  -0.025
REMARK UNBOUND:                -0.108
REMARK SMILES CCCCC(=O)[O-]
REMARK SMILES IDX 4 1 5 2 6 3 7 4 3 5 2 6 1 7
REMARK H PARENT
REMARK Flexibility Score: inf
ROOT
ATOM      1  C   UNL     1      15.117   0.897  36.088  1.00  0.00     0.053 C 
ENDROOT
BRANCH   1   2
ATOM      2  C   UNL     1      14.789   0.713  37.535  1.00  0.00     0.041 C 
ATOM      3  O   UNL     1      13.589   0.700  37.916  1.00  0.00    -0.550 OA
ATOM      4  O   UNL     1      15.809   0.605  38.472  1.00  0.00    -0.550 OA
ENDBRANCH   1   2
BRANCH   1   5
ATOM      5  C   UNL     1      15.562  -0.430  35.466  1.00  0.00     0.006 C 
BRANCH   5   6
ATOM      6  C   UNL     1      15.642  -0.322  33.939  1.00  0.00    -0.003 C 
ATOM      7  C   UNL     1      14.265  -0.070  33.331  1.00  0.00     0.004 C 
ENDBRANCH   5   6
ENDBRANCH   1   5
TORSDOF 3
ENDMDL
MODEL 6
REMARK VINA RESULT:    -2.622     13.812     14.686
REMARK INTER + INTRA:          -3.190
REMARK INTER:                  -3.171
REMARK INTRA:                  -0.019
REMARK UNBOUND:                -0.108
REMARK SMILES CCCCC(=O)[O-]
REMARK SMILES IDX 4 1 5 2 6 3 7 4 3 5 2 6 1 7
REMARK H PARENT
REMARK Flexibility Score: inf
ROOT
ATOM      1  C   UNL     1      15.115  -0.336  35.474  1.00  0.00     0.053 C 
ENDROOT
BRANCH   1   2
ATOM      2  C   UNL     1      15.110  -0.128  33.993  1.00  0.00     0.041 C 
ATOM      3  O   UNL     1      16.184   0.120  33.384  1.00  0.00    -0.550 OA
ATOM      4  O   UNL     1      13.912  -0.159  33.291  1.00  0.00    -0.550 OA
ENDBRANCH   1   2
BRANCH   1   5
ATOM      5  C   UNL     1      15.302   0.997  36.203  1.00  0.00     0.006 C 
BRANCH   5   6
ATOM      6  C   UNL     1      15.120   0.827  37.715  1.00  0.00    -0.003 C 
ATOM      7  C   UNL     1      13.642   0.844  38.098  1.00  0.00     0.004 C 
ENDBRANCH   5   6
ENDBRANCH   1   5
TORSDOF 3
ENDMDL
MODEL 7
REMARK VINA RESULT:    -2.415     12.644     13.214
REMARK INTER + INTRA:          -2.947
REMARK INTER:                  -2.896
REMARK INTRA:                  -0.050
REMARK UNBOUND:                -0.108
REMARK SMILES CCCCC(=O)[O-]
REMARK SMILES IDX 4 1 5 2 6 3 7 4 3 5 2 6 1 7
REMARK H PARENT
REMARK Flexibility Score: inf
ROOT
ATOM      1  C   UNL     1      15.488   1.296  38.658  1.00  0.00     0.053 C 
ENDROOT
BRANCH   1   2
ATOM      2  C   UNL     1      14.387   0.816  37.768  1.00  0.00     0.041 C 
ATOM      3  O   UNL     1      13.200   0.788  38.186  1.00  0.00    -0.550 OA
ATOM      4  O   UNL     1      14.677   0.352  36.491  1.00  0.00    -0.550 OA
ENDBRANCH   1   2
BRANCH   1   5
ATOM      5  C   UNL     1      15.464   2.823  38.765  1.00  0.00     0.006 C 
BRANCH   5   6
ATOM      6  C   UNL     1      15.907   3.285  40.158  1.00  0.00    -0.003 C 
ATOM      7  C   UNL     1      16.368   2.104  41.009  1.00  0.00     0.004 C 
ENDBRANCH   5   6
ENDBRANCH   1   5
TORSDOF 3
ENDMDL
MODEL 8
REMARK VINA RESULT:    -2.352     12.923     14.176
REMARK INTER + INTRA:          -2.873
REMARK INTER:                  -2.857
REMARK INTRA:                  -0.015
REMARK UNBOUND:                -0.108
REMARK SMILES CCCCC(=O)[O-]
REMARK SMILES IDX 4 1 5 2 6 3 7 4 3 5 2 6 1 7
REMARK H PARENT
REMARK Flexibility Score: inf
ROOT
ATOM      1  C   UNL     1      14.736   0.827  37.310  1.00  0.00     0.053 C 
ENDROOT
BRANCH   1   2
ATOM      2  C   UNL     1      14.776   2.146  38.015  1.00  0.00     0.041 C 
ATOM      3  O   UNL     1      13.718   2.805  38.187  1.00  0.00    -0.550 OA
ATOM      4  O   UNL     1      15.990   2.669  38.442  1.00  0.00    -0.550 OA
ENDBRANCH   1   2
BRANCH   1   5
ATOM      5  C   UNL     1      15.295   0.962  35.891  1.00  0.00     0.006 C 
BRANCH   5   6
ATOM      6  C   UNL     1      15.171  -0.360  35.124  1.00  0.00    -0.003 C 
ATOM      7  C   UNL     1      14.683  -0.126  33.697  1.00  0.00     0.004 C 
ENDBRANCH   5   6
ENDBRANCH   1   5
TORSDOF 3
ENDMDL
MODEL 9
REMARK VINA RESULT:    -2.326     13.165     13.773
REMARK INTER + INTRA:          -2.842
REMARK INTER:                  -2.784
REMARK INTRA:                  -0.058
REMARK UNBOUND:                -0.108
REMARK SMILES CCCCC(=O)[O-]
REMARK SMILES IDX 4 1 5 2 6 3 7 4 3 5 2 6 1 7
REMARK H PARENT
REMARK Flexibility Score: inf
ROOT
ATOM      1  C   UNL     1      14.247   0.816  37.675  1.00  0.00     0.053 C 
ENDROOT
BRANCH   1   2
ATOM      2  C   UNL     1      14.986   0.683  36.382  1.00  0.00     0.041 C 
ATOM      3  O   UNL     1      15.136  -0.448  35.851  1.00  0.00    -0.550 OA
ATOM      4  O   UNL     1      15.551   1.803  35.786  1.00  0.00    -0.550 OA
ENDBRANCH   1   2
BRANCH   1   5
ATOM      5  C   UNL     1      14.810   1.978  38.498  1.00  0.00     0.006 C 
BRANCH   5   6
ATOM      6  C   UNL     1      16.056   1.544  39.279  1.00  0.00    -0.003 C 
ATOM      7  C   UNL     1      16.235   2.383  40.542  1.00  0.00     0.004 C 
ENDBRANCH   5   6
ENDBRANCH   1   5
TORSDOF 3
ENDMDL
