MODEL 1
REMARK VINA RESULT:    44.269      0.000      0.000
REMARK INTER + INTRA:          73.462
REMARK INTER:                  64.973
REMARK INTRA:                   8.489
REMARK UNBOUND:                 8.489
REMARK SMILES Cc1cc2c(C(C)C)c(O)c(O)c(C=O)c2c(O)c1-c1c(C)cc2c(C(C)C)c(O)c(O)c(C=O)c2c1O
REMARK SMILES IDX 1 1 2 2 3 3 4 4 16 5 13 6 11 7 9 8 5 9 17 10 19 11 20 12
REMARK SMILES IDX 37 13 21 14 36 15 23 16 22 17 24 18 33 19 25 20 31 21 29 22
REMARK SMILES IDX 38 23 34 25 35 26 26 27 27 28 28 29 32 30 30 32 18 34 6 36
REMARK SMILES IDX 7 37 8 38 14 39 15 40 10 41 12 43
REMARK H PARENT 38 24 32 31 30 33 18 35 10 42 12 44
REMARK Flexibility Score: inf
ROOT
ATOM      1  C   UNL     1       4.286 -39.696  21.769  1.00  0.00     0.045 C 
ATOM      2  C   UNL     1       4.570 -38.256  22.122  1.00  0.00    -0.039 A 
ATOM      3  C   UNL     1       4.677 -37.892  23.466  1.00  0.00     0.013 A 
ATOM      4  C   UNL     1       4.926 -36.559  23.860  1.00  0.00    -0.006 A 
ATOM      5  C   UNL     1       5.161 -35.576  22.851  1.00  0.00     0.039 A 
ATOM      6  C   UNL     1       5.465 -34.239  23.248  1.00  0.00     0.072 A 
ATOM      7  C   UNL     1       5.709 -33.951  24.605  1.00  0.00     0.169 A 
ATOM      8  C   UNL     1       5.508 -34.930  25.584  1.00  0.00     0.162 A 
ATOM      9  C   UNL     1       4.985 -36.195  25.242  1.00  0.00     0.008 A 
ATOM     10  C   UNL     1       5.140 -35.974  21.480  1.00  0.00     0.132 A 
ATOM     11  C   UNL     1       4.803 -37.297  21.125  1.00  0.00     0.031 A 
ENDROOT
BRANCH  11  12
ATOM     12  C   UNL     1       4.737 -37.692  19.693  1.00  0.00     0.031 A 
ATOM     13  C   UNL     1       4.982 -39.028  19.310  1.00  0.00     0.132 A 
ATOM     14  C   UNL     1       4.437 -36.726  18.718  1.00  0.00    -0.039 A 
ATOM     15  C   UNL     1       4.946 -39.400  17.935  1.00  0.00     0.039 A 
ATOM     16  C   UNL     1       4.277 -37.120  17.387  1.00  0.00     0.013 A 
ATOM     17  C   UNL     1       4.233 -35.278  19.093  1.00  0.00     0.045 C 
ATOM     18  C   UNL     1       4.446 -38.464  16.986  1.00  0.00    -0.006 A 
ATOM     19  C   UNL     1       5.380 -40.678  17.478  1.00  0.00     0.072 A 
ATOM     20  C   UNL     1       4.147 -38.884  15.655  1.00  0.00     0.008 A 
ATOM     21  C   UNL     1       5.251 -41.022  16.120  1.00  0.00     0.169 A 
ATOM     22  C   UNL     1       4.610 -40.148  15.219  1.00  0.00     0.162 A 
BRANCH  13  23
ATOM     23  O   UNL     1       5.222 -39.992  20.296  1.00  0.00    -0.507 OA
ATOM     24  H   UNL     1       6.067 -40.034  20.850  1.00  0.00     0.293 HD
ENDBRANCH  13  23
BRANCH  19  25
ATOM     25  C   UNL     1       6.125 -41.613  18.356  1.00  0.00     0.264 C 
ATOM     26  O   UNL     1       5.553 -42.611  18.871  1.00  0.00    -0.298 OA
ENDBRANCH  19  25
BRANCH  20  27
ATOM     27  C   UNL     1       3.324 -37.999  14.701  1.00  0.00     0.017 C 
ATOM     28  C   UNL     1       1.943 -37.695  15.289  1.00  0.00     0.012 C 
ATOM     29  C   UNL     1       4.049 -36.709  14.272  1.00  0.00     0.012 C 
ENDBRANCH  20  27
BRANCH  21  30
ATOM     30  O   UNL     1       5.804 -42.234  15.688  1.00  0.00    -0.504 OA
ATOM     31  H   UNL     1       5.401 -42.832  14.982  1.00  0.00     0.293 HD
ENDBRANCH  21  30
BRANCH  22  32
ATOM     32  O   UNL     1       4.431 -40.505  13.880  1.00  0.00    -0.504 OA
ATOM     33  H   UNL     1       3.908 -41.308  13.562  1.00  0.00     0.293 HD
ENDBRANCH  22  32
ENDBRANCH  11  12
BRANCH  10  34
ATOM     34  O   UNL     1       5.495 -35.066  20.475  1.00  0.00    -0.507 OA
ATOM     35  H   UNL     1       4.933 -34.269  20.209  1.00  0.00     0.293 HD
ENDBRANCH  10  34
BRANCH   9  36
ATOM     36  C   UNL     1       4.530 -37.158  26.355  1.00  0.00     0.017 C 
ATOM     37  C   UNL     1       3.062 -36.916  26.719  1.00  0.00     0.012 C 
ATOM     38  C   UNL     1       4.789 -38.643  26.039  1.00  0.00     0.012 C 
ENDBRANCH   9  36
BRANCH   6  39
ATOM     39  C   UNL     1       5.492 -33.117  22.288  1.00  0.00     0.264 C 
ATOM     40  O   UNL     1       5.724 -31.945  22.686  1.00  0.00    -0.298 OA
ENDBRANCH   6  39
BRANCH   8  41
ATOM     41  O   UNL     1       5.822 -34.641  26.913  1.00  0.00    -0.504 OA
ATOM     42  H   UNL     1       6.050 -33.707  27.237  1.00  0.00     0.293 HD
ENDBRANCH   8  41
BRANCH   7  43
ATOM     43  O   UNL     1       6.125 -32.681  25.021  1.00  0.00    -0.504 OA
ATOM     44  H   UNL     1       6.500 -31.976  24.402  1.00  0.00     0.293 HD
ENDBRANCH   7  43
TORSDOF 11
ENDMDL
