MODEL 1
REMARK VINA RESULT:    -3.242      0.000      0.000
REMARK INTER + INTRA:          -5.271
REMARK INTER:                  -4.948
REMARK INTRA:                  -0.323
REMARK UNBOUND:                -0.323
REMARK SMILES CC1=CCC[C@H](C)C(=O)C[C@H](C(C)C)C(=O)C1
REMARK SMILES IDX 8 1 9 2 6 3 7 4 5 5 4 6 3 7 2 8 1 9 10 11 11 12 15 13 16 14
REMARK SMILES IDX 17 15 12 17 13 18 14 19
REMARK H PARENT
REMARK Flexibility Score: 70.00
ROOT
ATOM      1  C   UNL     1      12.315  60.732  21.406  1.00  0.00     0.136 C 
ATOM      2  O   UNL     1      11.500  59.836  21.238  1.00  0.00    -0.299 OA
ENDROOT
BRANCH   1   3
ATOM      3  C   UNL     1      13.174  61.169  20.211  1.00  0.00     0.053 C 
ATOM      4  C   UNL     1      12.292  61.692  19.075  1.00  0.00     0.016 C 
BRANCH   3   5
ATOM      5  C   UNL     1      14.122  62.231  20.728  1.00  0.00     0.015 C 
BRANCH   5   6
ATOM      6  C   UNL     1      15.585  62.037  21.028  1.00  0.00     0.028 C 
BRANCH   6   7
ATOM      7  C   UNL     1      15.950  60.578  20.746  1.00  0.00    -0.028 C 
ATOM      8  C   UNL     1      15.994  59.509  21.616  1.00  0.00    -0.070 CG0
ATOM      9  C   UNL     1      16.520  58.212  21.049  1.00  0.00     0.039 C 
ATOM     10  G   UNL     1      15.538  59.492  23.093  1.00  0.00     0.000 G0
ENDBRANCH   6   7
ENDBRANCH   5   6
ENDBRANCH   3   5
ENDBRANCH   1   3
BRANCH   1  11
ATOM     11  C   UNL     1      12.439  61.362  22.808  1.00  0.00     0.087 C 
BRANCH  11  12
ATOM     12  C   UNL     1      13.135  60.458  23.905  1.00  0.00     0.066 C 
BRANCH  12  13
ATOM     13  C   UNL     1      14.025  59.345  23.302  1.00  0.00     0.140 C 
ATOM     14  O   UNL     1      13.515  58.286  22.967  1.00  0.00    -0.299 OA
BRANCH  13  15
ATOM     15  C   UNL     1      15.537  59.518  23.101  1.00  0.00     0.106 CG0
ATOM     16  G   UNL     1      15.994  59.507  21.624  1.00  0.00     0.000 G0
ENDBRANCH  13  15
ENDBRANCH  12  13
BRANCH  12  17
ATOM     17  C   UNL     1      13.945  61.273  24.964  1.00  0.00    -0.006 C 
ATOM     18  C   UNL     1      13.161  61.438  26.277  1.00  0.00     0.008 C 
ATOM     19  C   UNL     1      14.440  62.643  24.464  1.00  0.00     0.008 C 
ENDBRANCH  12  17
ENDBRANCH  11  12
ENDBRANCH   1  11
TORSDOF 1
ENDMDL
MODEL 2
REMARK VINA RESULT:    -3.094     13.157     14.522
REMARK INTER + INTRA:          -5.044
REMARK INTER:                  -4.602
REMARK INTRA:                  -0.442
REMARK UNBOUND:                -0.323
REMARK SMILES CC1=CCC[C@H](C)C(=O)C[C@H](C(C)C)C(=O)C1
REMARK SMILES IDX 8 1 9 2 6 3 7 4 5 5 4 6 3 7 2 8 1 9 10 11 11 12 15 13 16 14
REMARK SMILES IDX 17 15 12 17 13 18 14 19
REMARK H PARENT
REMARK Flexibility Score: 70.00
ROOT
ATOM      1  C   UNL     1      17.919  52.797  34.314  1.00  0.00     0.136 C 
ATOM      2  O   UNL     1      18.571  53.389  35.162  1.00  0.00    -0.299 OA
ENDROOT
BRANCH   1   3
ATOM      3  C   UNL     1      18.286  53.007  32.837  1.00  0.00     0.053 C 
ATOM      4  C   UNL     1      19.801  53.131  32.670  1.00  0.00     0.016 C 
BRANCH   3   5
ATOM      5  C   UNL     1      17.727  51.819  32.083  1.00  0.00     0.015 C 
BRANCH   5   6
ATOM      6  C   UNL     1      16.941  51.878  30.800  1.00  0.00     0.028 C 
BRANCH   6   7
ATOM      7  C   UNL     1      15.983  50.685  30.761  1.00  0.00    -0.028 C 
ATOM      8  C   UNL     1      14.800  50.498  31.443  1.00  0.00    -0.070 CG0
ATOM      9  C   UNL     1      14.147  49.145  31.283  1.00  0.00     0.039 C 
ATOM     10  G   UNL     1      14.060  51.530  32.324  1.00  0.00     0.000 G0
ENDBRANCH   6   7
ENDBRANCH   5   6
ENDBRANCH   3   5
ENDBRANCH   1   3
BRANCH   1  11
ATOM     11  C   UNL     1      16.763  51.887  34.774  1.00  0.00     0.087 C 
BRANCH  11  12
ATOM     12  C   UNL     1      15.306  52.460  34.541  1.00  0.00     0.066 C 
BRANCH  12  13
ATOM     13  C   UNL     1      14.360  51.457  33.839  1.00  0.00     0.140 C 
ATOM     14  O   UNL     1      13.839  50.568  34.495  1.00  0.00    -0.299 OA
BRANCH  13  15
ATOM     15  C   UNL     1      14.043  51.536  32.340  1.00  0.00     0.106 CG0
ATOM     16  G   UNL     1      14.810  50.516  31.466  1.00  0.00     0.000 G0
ENDBRANCH  13  15
ENDBRANCH  12  13
BRANCH  12  17
ATOM     17  C   UNL     1      14.634  53.004  35.842  1.00  0.00    -0.006 C 
ATOM     18  C   UNL     1      14.557  54.541  35.844  1.00  0.00     0.008 C 
ATOM     19  C   UNL     1      15.282  52.503  37.146  1.00  0.00     0.008 C 
ENDBRANCH  12  17
ENDBRANCH  11  12
ENDBRANCH   1  11
TORSDOF 1
ENDMDL
MODEL 3
REMARK VINA RESULT:    -3.060     12.512     14.045
REMARK INTER + INTRA:          -4.993
REMARK INTER:                  -4.463
REMARK INTRA:                  -0.529
REMARK UNBOUND:                -0.323
REMARK SMILES CC1=CCC[C@H](C)C(=O)C[C@H](C(C)C)C(=O)C1
REMARK SMILES IDX 8 1 9 2 6 3 7 4 5 5 4 6 3 7 2 8 1 9 10 11 11 12 15 13 16 14
REMARK SMILES IDX 17 15 12 17 13 18 14 19
REMARK H PARENT
REMARK Flexibility Score: 70.00
ROOT
ATOM      1  C   UNL     1      15.435  55.538  34.908  1.00  0.00     0.136 C 
ATOM      2  O   UNL     1      14.216  55.570  35.000  1.00  0.00    -0.299 OA
ENDROOT
BRANCH   1   3
ATOM      3  C   UNL     1      16.139  56.680  34.161  1.00  0.00     0.053 C 
ATOM      4  C   UNL     1      15.332  57.976  34.272  1.00  0.00     0.016 C 
BRANCH   3   5
ATOM      5  C   UNL     1      17.515  56.813  34.778  1.00  0.00     0.015 C 
BRANCH   5   6
ATOM      6  C   UNL     1      18.820  56.845  34.028  1.00  0.00     0.028 C 
BRANCH   6   7
ATOM      7  C   UNL     1      18.759  55.807  32.904  1.00  0.00    -0.028 C 
ATOM      8  C   UNL     1      18.873  54.436  32.980  1.00  0.00    -0.070 CG0
ATOM      9  C   UNL     1      18.896  53.696  31.663  1.00  0.00     0.039 C 
ATOM     10  G   UNL     1      18.948  53.577  34.264  1.00  0.00     0.000 G0
ENDBRANCH   6   7
ENDBRANCH   5   6
ENDBRANCH   3   5
ENDBRANCH   1   3
BRANCH   1  11
ATOM     11  C   UNL     1      16.190  54.350  35.536  1.00  0.00     0.087 C 
BRANCH  11  12
ATOM     12  C   UNL     1      16.312  53.060  34.628  1.00  0.00     0.066 C 
BRANCH  12  13
ATOM     13  C   UNL     1      17.772  52.585  34.435  1.00  0.00     0.140 C 
ATOM     14  O   UNL     1      18.015  51.387  34.425  1.00  0.00    -0.299 OA
BRANCH  13  15
ATOM     15  C   UNL     1      18.939  53.564  34.250  1.00  0.00     0.106 CG0
ATOM     16  G   UNL     1      18.847  54.440  32.980  1.00  0.00     0.000 G0
ENDBRANCH  13  15
ENDBRANCH  12  13
BRANCH  12  17
ATOM     17  C   UNL     1      15.424  51.869  35.113  1.00  0.00    -0.006 C 
ATOM     18  C   UNL     1      14.079  51.820  34.367  1.00  0.00     0.008 C 
ATOM     19  C   UNL     1      15.190  51.833  36.634  1.00  0.00     0.008 C 
ENDBRANCH  12  17
ENDBRANCH  11  12
ENDBRANCH   1  11
TORSDOF 1
ENDMDL
MODEL 4
REMARK VINA RESULT:    -3.029      2.368      4.647
REMARK INTER + INTRA:          -4.946
REMARK INTER:                  -4.555
REMARK INTRA:                  -0.391
REMARK UNBOUND:                -0.323
REMARK SMILES CC1=CCC[C@H](C)C(=O)C[C@H](C(C)C)C(=O)C1
REMARK SMILES IDX 8 1 9 2 6 3 7 4 5 5 4 6 3 7 2 8 1 9 10 11 11 12 15 13 16 14
REMARK SMILES IDX 17 15 12 17 13 18 14 19
REMARK H PARENT
REMARK Flexibility Score: 70.00
ROOT
ATOM      1  C   UNL     1      11.907  63.167  24.038  1.00  0.00     0.136 C 
ATOM      2  O   UNL     1      11.438  63.990  23.264  1.00  0.00    -0.299 OA
ENDROOT
BRANCH   1   3
ATOM      3  C   UNL     1      11.907  63.497  25.538  1.00  0.00     0.053 C 
ATOM      4  C   UNL     1      12.028  62.220  26.371  1.00  0.00     0.016 C 
BRANCH   3   5
ATOM      5  C   UNL     1      13.070  64.439  25.770  1.00  0.00     0.015 C 
BRANCH   5   6
ATOM      6  C   UNL     1      14.284  64.152  26.613  1.00  0.00     0.028 C 
BRANCH   6   7
ATOM      7  C   UNL     1      15.507  64.081  25.696  1.00  0.00    -0.028 C 
ATOM      8  C   UNL     1      16.091  62.979  25.109  1.00  0.00    -0.070 CG0
ATOM      9  C   UNL     1      17.375  63.229  24.354  1.00  0.00     0.039 C 
ATOM     10  G   UNL     1      15.557  61.527  25.117  1.00  0.00     0.000 G0
ENDBRANCH   6   7
ENDBRANCH   5   6
ENDBRANCH   3   5
ENDBRANCH   1   3
BRANCH   1  11
ATOM     11  C   UNL     1      12.477  61.855  23.463  1.00  0.00     0.087 C 
BRANCH  11  12
ATOM     12  C   UNL     1      13.969  61.929  22.941  1.00  0.00     0.066 C 
BRANCH  12  13
ATOM     13  C   UNL     1      14.947  61.056  23.763  1.00  0.00     0.140 C 
ATOM     14  O   UNL     1      15.270  59.957  23.337  1.00  0.00    -0.299 OA
BRANCH  13  15
ATOM     15  C   UNL     1      15.539  61.520  25.100  1.00  0.00     0.106 CG0
ATOM     16  G   UNL     1      16.083  62.968  25.094  1.00  0.00     0.000 G0
ENDBRANCH  13  15
ENDBRANCH  12  13
BRANCH  12  17
ATOM     17  C   UNL     1      14.115  61.604  21.419  1.00  0.00    -0.006 C 
ATOM     18  C   UNL     1      15.495  62.017  20.878  1.00  0.00     0.008 C 
ATOM     19  C   UNL     1      13.000  62.193  20.537  1.00  0.00     0.008 C 
ENDBRANCH  12  17
ENDBRANCH  11  12
ENDBRANCH   1  11
TORSDOF 1
ENDMDL
MODEL 5
REMARK VINA RESULT:    -3.016     13.135     14.471
REMARK INTER + INTRA:          -4.926
REMARK INTER:                  -4.665
REMARK INTRA:                  -0.261
REMARK UNBOUND:                -0.323
REMARK SMILES CC1=CCC[C@H](C)C(=O)C[C@H](C(C)C)C(=O)C1
REMARK SMILES IDX 8 1 9 2 6 3 7 4 5 5 4 6 3 7 2 8 1 9 10 11 11 12 15 13 16 14
REMARK SMILES IDX 17 15 12 17 13 18 14 19
REMARK H PARENT
REMARK Flexibility Score: 70.00
ROOT
ATOM      1  C   UNL     1      16.625  52.210  32.711  1.00  0.00     0.136 C 
ATOM      2  O   UNL     1      16.420  52.095  31.511  1.00  0.00    -0.299 OA
ENDROOT
BRANCH   1   3
ATOM      3  C   UNL     1      15.419  52.186  33.661  1.00  0.00     0.053 C 
ATOM      4  C   UNL     1      14.465  51.048  33.294  1.00  0.00     0.016 C 
BRANCH   3   5
ATOM      5  C   UNL     1      15.977  52.029  35.060  1.00  0.00     0.015 C 
BRANCH   5   6
ATOM      6  C   UNL     1      15.996  53.091  36.128  1.00  0.00     0.028 C 
BRANCH   6   7
ATOM      7  C   UNL     1      15.884  54.460  35.453  1.00  0.00    -0.028 C 
ATOM      8  C   UNL     1      16.882  55.259  34.936  1.00  0.00    -0.070 CG0
ATOM      9  C   UNL     1      16.455  56.623  34.446  1.00  0.00     0.039 C 
ATOM     10  G   UNL     1      18.377  54.897  34.779  1.00  0.00     0.000 G0
ENDBRANCH   6   7
ENDBRANCH   5   6
ENDBRANCH   3   5
ENDBRANCH   1   3
BRANCH   1  11
ATOM     11  C   UNL     1      18.079  52.382  33.197  1.00  0.00     0.087 C 
BRANCH  11  12
ATOM     12  C   UNL     1      18.894  53.553  32.513  1.00  0.00     0.066 C 
BRANCH  12  13
ATOM     13  C   UNL     1      18.900  54.859  33.342  1.00  0.00     0.140 C 
ATOM     14  O   UNL     1      19.323  55.887  32.835  1.00  0.00    -0.299 OA
BRANCH  13  15
ATOM     15  C   UNL     1      18.389  54.918  34.788  1.00  0.00     0.106 CG0
ATOM     16  G   UNL     1      16.882  55.241  34.923  1.00  0.00     0.000 G0
ENDBRANCH  13  15
ENDBRANCH  12  13
BRANCH  12  17
ATOM     17  C   UNL     1      20.357  53.156  32.134  1.00  0.00    -0.006 C 
ATOM     18  C   UNL     1      20.449  51.690  31.674  1.00  0.00     0.008 C 
ATOM     19  C   UNL     1      21.394  53.432  33.239  1.00  0.00     0.008 C 
ENDBRANCH  12  17
ENDBRANCH  11  12
ENDBRANCH   1  11
TORSDOF 1
ENDMDL
MODEL 6
REMARK VINA RESULT:    -2.962     11.818     13.661
REMARK INTER + INTRA:          -4.843
REMARK INTER:                  -4.305
REMARK INTRA:                  -0.539
REMARK UNBOUND:                -0.323
REMARK SMILES CC1=CCC[C@H](C)C(=O)C[C@H](C(C)C)C(=O)C1
REMARK SMILES IDX 8 1 9 2 6 3 7 4 5 5 4 6 3 7 2 8 1 9 10 11 11 12 15 13 16 14
REMARK SMILES IDX 17 15 12 17 13 18 14 19
REMARK H PARENT
REMARK Flexibility Score: 70.00
ROOT
ATOM      1  C   UNL     1      15.676  52.626  33.958  1.00  0.00     0.136 C 
ATOM      2  O   UNL     1      15.195  51.538  33.675  1.00  0.00    -0.299 OA
ENDROOT
BRANCH   1   3
ATOM      3  C   UNL     1      16.309  52.803  35.346  1.00  0.00     0.053 C 
ATOM      4  C   UNL     1      15.625  51.896  36.371  1.00  0.00     0.016 C 
BRANCH   3   5
ATOM      5  C   UNL     1      17.779  52.477  35.192  1.00  0.00     0.015 C 
BRANCH   5   6
ATOM      6  C   UNL     1      18.901  53.478  35.104  1.00  0.00     0.028 C 
BRANCH   6   7
ATOM      7  C   UNL     1      19.572  53.338  33.735  1.00  0.00    -0.028 C 
ATOM      8  C   UNL     1      19.523  54.189  32.652  1.00  0.00    -0.070 CG0
ATOM      9  C   UNL     1      20.196  53.700  31.391  1.00  0.00     0.039 C 
ATOM     10  G   UNL     1      18.883  55.595  32.601  1.00  0.00     0.000 G0
ENDBRANCH   6   7
ENDBRANCH   5   6
ENDBRANCH   3   5
ENDBRANCH   1   3
BRANCH   1  11
ATOM     11  C   UNL     1      15.608  53.756  32.912  1.00  0.00     0.087 C 
BRANCH  11  12
ATOM     12  C   UNL     1      16.307  55.114  33.326  1.00  0.00     0.066 C 
BRANCH  12  13
ATOM     13  C   UNL     1      17.367  55.592  32.305  1.00  0.00     0.140 C 
ATOM     14  O   UNL     1      17.004  55.988  31.207  1.00  0.00    -0.299 OA
BRANCH  13  15
ATOM     15  C   UNL     1      18.869  55.593  32.617  1.00  0.00     0.106 CG0
ATOM     16  G   UNL     1      19.521  54.192  32.642  1.00  0.00     0.000 G0
ENDBRANCH  13  15
ENDBRANCH  12  13
BRANCH  12  17
ATOM     17  C   UNL     1      15.299  56.269  33.626  1.00  0.00    -0.006 C 
ATOM     18  C   UNL     1      15.968  57.426  34.389  1.00  0.00     0.008 C 
ATOM     19  C   UNL     1      14.021  55.819  34.358  1.00  0.00     0.008 C 
ENDBRANCH  12  17
ENDBRANCH  11  12
ENDBRANCH   1  11
TORSDOF 1
ENDMDL
MODEL 7
REMARK VINA RESULT:    -2.939     11.724     14.163
REMARK INTER + INTRA:          -4.809
REMARK INTER:                  -4.272
REMARK INTRA:                  -0.537
REMARK UNBOUND:                -0.323
REMARK SMILES CC1=CCC[C@H](C)C(=O)C[C@H](C(C)C)C(=O)C1
REMARK SMILES IDX 8 1 9 2 6 3 7 4 5 5 4 6 3 7 2 8 1 9 10 11 11 12 15 13 16 14
REMARK SMILES IDX 17 15 12 17 13 18 14 19
REMARK H PARENT
REMARK Flexibility Score: 70.00
ROOT
ATOM      1  C   UNL     1      15.454  53.155  35.614  1.00  0.00     0.136 C 
ATOM      2  O   UNL     1      14.559  53.841  36.087  1.00  0.00    -0.299 OA
ENDROOT
BRANCH   1   3
ATOM      3  C   UNL     1      15.282  51.629  35.623  1.00  0.00     0.053 C 
ATOM      4  C   UNL     1      14.926  51.133  37.026  1.00  0.00     0.016 C 
BRANCH   3   5
ATOM      5  C   UNL     1      14.196  51.314  34.616  1.00  0.00     0.015 C 
BRANCH   5   6
ATOM      6  C   UNL     1      14.391  51.127  33.135  1.00  0.00     0.028 C 
BRANCH   6   7
ATOM      7  C   UNL     1      13.509  52.137  32.397  1.00  0.00    -0.028 C 
ATOM      8  C   UNL     1      13.877  53.274  31.711  1.00  0.00    -0.070 CG0
ATOM      9  C   UNL     1      12.748  54.135  31.196  1.00  0.00     0.039 C 
ATOM     10  G   UNL     1      15.315  53.744  31.390  1.00  0.00     0.000 G0
ENDBRANCH   6   7
ENDBRANCH   5   6
ENDBRANCH   3   5
ENDBRANCH   1   3
BRANCH   1  11
ATOM     11  C   UNL     1      16.703  53.860  35.049  1.00  0.00     0.087 C 
BRANCH  11  12
ATOM     12  C   UNL     1      16.996  53.604  33.514  1.00  0.00     0.066 C 
BRANCH  12  13
ATOM     13  C   UNL     1      16.060  54.400  32.574  1.00  0.00     0.140 C 
ATOM     14  O   UNL     1      15.892  55.595  32.767  1.00  0.00    -0.299 OA
BRANCH  13  15
ATOM     15  C   UNL     1      15.330  53.746  31.393  1.00  0.00     0.106 CG0
ATOM     16  G   UNL     1      13.888  53.283  31.706  1.00  0.00     0.000 G0
ENDBRANCH  13  15
ENDBRANCH  12  13
BRANCH  12  17
ATOM     17  C   UNL     1      18.486  53.850  33.114  1.00  0.00    -0.006 C 
ATOM     18  C   UNL     1      18.908  52.973  31.922  1.00  0.00     0.008 C 
ATOM     19  C   UNL     1      19.487  53.688  34.273  1.00  0.00     0.008 C 
ENDBRANCH  12  17
ENDBRANCH  11  12
ENDBRANCH   1  11
TORSDOF 1
ENDMDL
MODEL 8
REMARK VINA RESULT:    -2.934      2.009      2.346
REMARK INTER + INTRA:          -4.801
REMARK INTER:                  -4.383
REMARK INTRA:                  -0.418
REMARK UNBOUND:                -0.323
REMARK SMILES CC1=CCC[C@H](C)C(=O)C[C@H](C(C)C)C(=O)C1
REMARK SMILES IDX 8 1 9 2 6 3 7 4 5 5 4 6 3 7 2 8 1 9 10 11 11 12 15 13 16 14
REMARK SMILES IDX 17 15 12 17 13 18 14 19
REMARK H PARENT
REMARK Flexibility Score: 70.00
ROOT
ATOM      1  C   UNL     1      12.522  60.955  22.127  1.00  0.00     0.136 C 
ATOM      2  O   UNL     1      11.900  60.158  22.815  1.00  0.00    -0.299 OA
ENDROOT
BRANCH   1   3
ATOM      3  C   UNL     1      12.741  60.621  20.644  1.00  0.00     0.053 C 
ATOM      4  C   UNL     1      12.665  61.888  19.789  1.00  0.00     0.016 C 
BRANCH   3   5
ATOM      5  C   UNL     1      14.096  59.953  20.550  1.00  0.00     0.015 C 
BRANCH   5   6
ATOM      6  C   UNL     1      15.409  60.648  20.305  1.00  0.00     0.028 C 
BRANCH   6   7
ATOM      7  C   UNL     1      16.367  60.292  21.444  1.00  0.00    -0.028 C 
ATOM      8  C   UNL     1      16.692  61.022  22.568  1.00  0.00    -0.070 CG0
ATOM      9  C   UNL     1      17.777  60.445  23.446  1.00  0.00     0.039 C 
ATOM     10  G   UNL     1      16.047  62.347  23.036  1.00  0.00     0.000 G0
ENDBRANCH   6   7
ENDBRANCH   5   6
ENDBRANCH   3   5
ENDBRANCH   1   3
BRANCH   1  11
ATOM     11  C   UNL     1      13.056  62.241  22.790  1.00  0.00     0.087 C 
BRANCH  11  12
ATOM     12  C   UNL     1      13.655  62.061  24.244  1.00  0.00     0.066 C 
BRANCH  12  13
ATOM     13  C   UNL     1      15.190  62.245  24.298  1.00  0.00     0.140 C 
ATOM     14  O   UNL     1      15.746  62.314  25.384  1.00  0.00    -0.299 OA
BRANCH  13  15
ATOM     15  C   UNL     1      16.053  62.341  23.033  1.00  0.00     0.106 CG0
ATOM     16  G   UNL     1      16.677  61.001  22.578  1.00  0.00     0.000 G0
ENDBRANCH  13  15
ENDBRANCH  12  13
BRANCH  12  17
ATOM     17  C   UNL     1      12.972  62.969  25.317  1.00  0.00    -0.006 C 
ATOM     18  C   UNL     1      12.421  62.144  26.494  1.00  0.00     0.008 C 
ATOM     19  C   UNL     1      11.876  63.894  24.757  1.00  0.00     0.008 C 
ENDBRANCH  12  17
ENDBRANCH  11  12
ENDBRANCH   1  11
TORSDOF 1
ENDMDL
MODEL 9
REMARK VINA RESULT:    -2.838     11.554     13.845
REMARK INTER + INTRA:          -4.654
REMARK INTER:                  -4.113
REMARK INTRA:                  -0.540
REMARK UNBOUND:                -0.323
REMARK SMILES CC1=CCC[C@H](C)C(=O)C[C@H](C(C)C)C(=O)C1
REMARK SMILES IDX 8 1 9 2 6 3 7 4 5 5 4 6 3 7 2 8 1 9 10 11 11 12 15 13 16 14
REMARK SMILES IDX 17 15 12 17 13 18 14 19
REMARK H PARENT
REMARK Flexibility Score: 70.00
ROOT
ATOM      1  C   UNL     1      14.546  53.167  35.104  1.00  0.00     0.136 C 
ATOM      2  O   UNL     1      13.539  53.761  35.463  1.00  0.00    -0.299 OA
ENDROOT
BRANCH   1   3
ATOM      3  C   UNL     1      15.532  52.690  36.181  1.00  0.00     0.053 C 
ATOM      4  C   UNL     1      14.920  51.562  37.012  1.00  0.00     0.016 C 
BRANCH   3   5
ATOM      5  C   UNL     1      16.782  52.244  35.451  1.00  0.00     0.015 C 
BRANCH   5   6
ATOM      6  C   UNL     1      18.009  53.082  35.208  1.00  0.00     0.028 C 
BRANCH   6   7
ATOM      7  C   UNL     1      18.714  52.559  33.954  1.00  0.00    -0.028 C 
ATOM      8  C   UNL     1      18.600  52.989  32.650  1.00  0.00    -0.070 CG0
ATOM      9  C   UNL     1      19.340  52.177  31.614  1.00  0.00     0.039 C 
ATOM     10  G   UNL     1      17.822  54.226  32.142  1.00  0.00     0.000 G0
ENDBRANCH   6   7
ENDBRANCH   5   6
ENDBRANCH   3   5
ENDBRANCH   1   3
BRANCH   1  11
ATOM     11  C   UNL     1      14.771  52.942  33.595  1.00  0.00     0.087 C 
BRANCH  11  12
ATOM     12  C   UNL     1      15.190  54.225  32.768  1.00  0.00     0.066 C 
BRANCH  12  13
ATOM     13  C   UNL     1      16.349  53.960  31.777  1.00  0.00     0.140 C 
ATOM     14  O   UNL     1      16.096  53.520  30.666  1.00  0.00    -0.299 OA
BRANCH  13  15
ATOM     15  C   UNL     1      17.816  54.234  32.134  1.00  0.00     0.106 CG0
ATOM     16  G   UNL     1      18.592  53.003  32.654  1.00  0.00     0.000 G0
ENDBRANCH  13  15
ENDBRANCH  12  13
BRANCH  12  17
ATOM     17  C   UNL     1      13.997  54.905  32.023  1.00  0.00    -0.006 C 
ATOM     18  C   UNL     1      13.502  56.159  32.764  1.00  0.00     0.008 C 
ATOM     19  C   UNL     1      12.816  53.962  31.727  1.00  0.00     0.008 C 
ENDBRANCH  12  17
ENDBRANCH  11  12
ENDBRANCH   1  11
TORSDOF 1
ENDMDL
