MODEL 1
REMARK VINA RESULT:    17.157      0.000      0.000
REMARK INTER + INTRA:          22.606
REMARK INTER:                  22.673
REMARK INTRA:                  -0.067
REMARK UNBOUND:                -0.067
REMARK SMILES CC[C@H](C=C[C@@H](C)[C@@H]1CC[C@@H]2C3=CC[C@H]4C[C@H](O)CC[C@@]4(C)[C@H]3CC[C@@]21C)C(C)C
REMARK SMILES IDX 6 1 7 2 5 3 4 4 3 5 2 6 1 7 28 8 29 9 30 10 8 11 9 12 26 13
REMARK SMILES IDX 10 14 11 15 25 16 27 17 12 18 24 19 23 20 13 21 21 22 14 23
REMARK SMILES IDX 15 24 20 25 22 26 16 27 19 28 17 29 18 30
REMARK H PARENT 18 31
REMARK Flexibility Score: inf
ROOT
ATOM      1  C   UNL     1     135.725 134.179 137.064  1.00  0.00     0.012 C 
ATOM      2  C   UNL     1     136.551 133.103 136.312  1.00  0.00     0.012 C 
ENDROOT
BRANCH   1   3
ATOM      3  C   UNL     1     136.285 134.416 138.452  1.00  0.00    -0.028 C 
ATOM      4  C   UNL     1     137.395 133.806 138.906  1.00  0.00    -0.027 C 
BRANCH   4   5
ATOM      5  C   UNL     1     137.943 134.059 140.299  1.00  0.00     0.014 C 
BRANCH   5   6
ATOM      6  C   UNL     1     136.934 133.520 141.360  1.00  0.00     0.004 C 
ATOM      7  C   UNL     1     135.765 132.758 140.730  1.00  0.00     0.004 C 
ENDBRANCH   5   6
BRANCH   5   8
ATOM      8  C   UNL     1     139.384 133.462 140.455  1.00  0.00    -0.011 C 
ATOM      9  C   UNL     1     140.187 134.202 141.544  1.00  0.00     0.008 C 
ATOM     10  C   UNL     1     139.356 131.961 140.788  1.00  0.00     0.008 C 
ENDBRANCH   5   8
ENDBRANCH   4   5
ENDBRANCH   1   3
BRANCH   1  11
ATOM     11  C   UNL     1     134.166 133.989 137.115  1.00  0.00     0.002 C 
ATOM     12  C   UNL     1     133.435 134.533 138.359  1.00  0.00     0.005 C 
ATOM     13  C   UNL     1     133.606 132.554 136.870  1.00  0.00    -0.023 C 
ATOM     14  C   UNL     1     132.237 133.617 138.601  1.00  0.00     0.009 C 
ATOM     15  C   UNL     1     132.158 132.683 137.389  1.00  0.00     0.021 C 
ATOM     16  C   UNL     1     134.379 131.473 137.673  1.00  0.00     0.008 C 
ATOM     17  C   UNL     1     133.613 132.214 135.355  1.00  0.00     0.012 C 
ATOM     18  C   UNL     1     131.463 131.368 137.726  1.00  0.00    -0.067 C 
ATOM     19  C   UNL     1     133.660 130.121 137.688  1.00  0.00     0.009 C 
ATOM     20  C   UNL     1     132.259 130.221 138.341  1.00  0.00     0.021 C 
ATOM     21  C   UNL     1     130.118 131.376 137.762  1.00  0.00    -0.027 C 
ATOM     22  C   UNL     1     131.486 128.840 138.408  1.00  0.00    -0.023 C 
ATOM     23  C   UNL     1     129.293 130.165 138.046  1.00  0.00     0.031 C 
ATOM     24  C   UNL     1     130.020 129.093 138.890  1.00  0.00     0.002 C 
ATOM     25  C   UNL     1     131.453 128.112 137.030  1.00  0.00     0.010 C 
ATOM     26  C   UNL     1     132.221 127.939 139.449  1.00  0.00     0.012 C 
ATOM     27  C   UNL     1     129.170 127.796 138.913  1.00  0.00     0.036 C 
ATOM     28  C   UNL     1     130.613 126.821 137.042  1.00  0.00     0.032 C 
ATOM     29  C   UNL     1     129.183 127.039 137.569  1.00  0.00     0.114 C 
BRANCH  29  30
ATOM     30  O   UNL     1     128.555 125.795 137.742  1.00  0.00    -0.393 OA
ATOM     31  H   UNL     1     127.947 125.667 136.967  1.00  0.00     0.210 HD
ENDBRANCH  29  30
ENDBRANCH   1  11
TORSDOF 6
ENDMDL
MODEL 2
REMARK VINA RESULT:    17.161      3.161      8.396
REMARK INTER + INTRA:          22.612
REMARK INTER:                  22.414
REMARK INTRA:                   0.198
REMARK UNBOUND:                -0.067
REMARK SMILES CC[C@H](C=C[C@@H](C)[C@@H]1CC[C@@H]2C3=CC[C@H]4C[C@H](O)CC[C@@]4(C)[C@H]3CC[C@@]21C)C(C)C
REMARK SMILES IDX 6 1 7 2 5 3 4 4 3 5 2 6 1 7 28 8 29 9 30 10 8 11 9 12 26 13
REMARK SMILES IDX 10 14 11 15 25 16 27 17 12 18 24 19 23 20 13 21 21 22 14 23
REMARK SMILES IDX 15 24 20 25 22 26 16 27 19 28 17 29 18 30
REMARK H PARENT 18 31
REMARK Flexibility Score: inf
ROOT
ATOM      1  C   UNL     1     132.057 132.556 136.987  1.00  0.00     0.012 C 
ATOM      2  C   UNL     1     130.911 133.251 137.766  1.00  0.00     0.012 C 
ENDROOT
BRANCH   1   3
ATOM      3  C   UNL     1     132.294 131.155 137.512  1.00  0.00    -0.028 C 
ATOM      4  C   UNL     1     131.293 130.321 137.845  1.00  0.00    -0.027 C 
BRANCH   4   5
ATOM      5  C   UNL     1     131.550 128.918 138.368  1.00  0.00     0.014 C 
BRANCH   5   6
ATOM      6  C   UNL     1     130.838 128.739 139.745  1.00  0.00     0.004 C 
ATOM      7  C   UNL     1     131.231 127.436 140.447  1.00  0.00     0.004 C 
ENDBRANCH   5   6
BRANCH   5   8
ATOM      8  C   UNL     1     131.136 127.837 137.311  1.00  0.00    -0.011 C 
ATOM      9  C   UNL     1     132.254 126.797 137.098  1.00  0.00     0.008 C 
ATOM     10  C   UNL     1     129.842 127.106 137.708  1.00  0.00     0.008 C 
ENDBRANCH   5   8
ENDBRANCH   4   5
ENDBRANCH   1   3
BRANCH   1  11
ATOM     11  C   UNL     1     133.413 133.338 136.845  1.00  0.00     0.002 C 
ATOM     12  C   UNL     1     134.449 132.769 135.853  1.00  0.00     0.005 C 
ATOM     13  C   UNL     1     134.195 133.667 138.154  1.00  0.00    -0.023 C 
ATOM     14  C   UNL     1     135.828 133.106 136.416  1.00  0.00     0.009 C 
ATOM     15  C   UNL     1     135.591 134.039 137.608  1.00  0.00     0.021 C 
ATOM     16  C   UNL     1     134.291 132.447 139.109  1.00  0.00     0.008 C 
ATOM     17  C   UNL     1     133.556 134.879 138.884  1.00  0.00     0.012 C 
ATOM     18  C   UNL     1     136.729 133.974 138.620  1.00  0.00    -0.067 C 
ATOM     19  C   UNL     1     135.304 132.658 140.239  1.00  0.00     0.009 C 
ATOM     20  C   UNL     1     136.735 132.889 139.693  1.00  0.00     0.021 C 
ATOM     21  C   UNL     1     137.842 134.675 138.338  1.00  0.00    -0.027 C 
ATOM     22  C   UNL     1     137.826 133.081 140.824  1.00  0.00    -0.023 C 
ATOM     23  C   UNL     1     139.029 134.738 139.242  1.00  0.00     0.031 C 
ATOM     24  C   UNL     1     139.179 133.510 140.168  1.00  0.00     0.002 C 
ATOM     25  C   UNL     1     137.406 134.154 141.876  1.00  0.00     0.010 C 
ATOM     26  C   UNL     1     138.013 131.706 141.538  1.00  0.00     0.012 C 
ATOM     27  C   UNL     1     140.286 133.791 141.217  1.00  0.00     0.036 C 
ATOM     28  C   UNL     1     138.497 134.440 142.924  1.00  0.00     0.032 C 
ATOM     29  C   UNL     1     139.854 134.806 142.295  1.00  0.00     0.114 C 
BRANCH  29  30
ATOM     30  O   UNL     1     140.836 134.850 143.298  1.00  0.00    -0.393 OA
ATOM     31  H   UNL     1     141.716 134.887 142.839  1.00  0.00     0.210 HD
ENDBRANCH  29  30
ENDBRANCH   1  11
TORSDOF 6
ENDMDL
MODEL 3
REMARK VINA RESULT:    18.136      1.186      2.500
REMARK INTER + INTRA:          23.900
REMARK INTER:                  23.850
REMARK INTRA:                   0.050
REMARK UNBOUND:                -0.067
REMARK SMILES CC[C@H](C=C[C@@H](C)[C@@H]1CC[C@@H]2C3=CC[C@H]4C[C@H](O)CC[C@@]4(C)[C@H]3CC[C@@]21C)C(C)C
REMARK SMILES IDX 6 1 7 2 5 3 4 4 3 5 2 6 1 7 28 8 29 9 30 10 8 11 9 12 26 13
REMARK SMILES IDX 10 14 11 15 25 16 27 17 12 18 24 19 23 20 13 21 21 22 14 23
REMARK SMILES IDX 15 24 20 25 22 26 16 27 19 28 17 29 18 30
REMARK H PARENT 18 31
REMARK Flexibility Score: inf
ROOT
ATOM      1  C   UNL     1     135.326 134.780 138.792  1.00  0.00     0.012 C 
ATOM      2  C   UNL     1     134.848 136.125 138.187  1.00  0.00     0.012 C 
ENDROOT
BRANCH   1   3
ATOM      3  C   UNL     1     136.726 134.910 139.357  1.00  0.00    -0.028 C 
ATOM      4  C   UNL     1     137.356 133.904 139.989  1.00  0.00    -0.027 C 
BRANCH   4   5
ATOM      5  C   UNL     1     138.760 134.052 140.547  1.00  0.00     0.014 C 
BRANCH   5   6
ATOM      6  C   UNL     1     138.682 134.493 142.041  1.00  0.00     0.004 C 
ATOM      7  C   UNL     1     140.052 134.848 142.625  1.00  0.00     0.004 C 
ENDBRANCH   5   6
BRANCH   5   8
ATOM      8  C   UNL     1     139.595 132.743 140.330  1.00  0.00    -0.011 C 
ATOM      9  C   UNL     1     140.903 132.765 141.146  1.00  0.00     0.008 C 
ATOM     10  C   UNL     1     138.797 131.481 140.700  1.00  0.00     0.008 C 
ENDBRANCH   5   8
ENDBRANCH   4   5
ENDBRANCH   1   3
BRANCH   1  11
ATOM     11  C   UNL     1     135.203 133.498 137.892  1.00  0.00     0.002 C 
ATOM     12  C   UNL     1     134.732 133.705 136.437  1.00  0.00     0.005 C 
ATOM     13  C   UNL     1     134.378 132.299 138.454  1.00  0.00    -0.023 C 
ATOM     14  C   UNL     1     133.950 132.454 136.046  1.00  0.00     0.009 C 
ATOM     15  C   UNL     1     134.146 131.448 137.186  1.00  0.00     0.021 C 
ATOM     16  C   UNL     1     133.022 132.749 139.063  1.00  0.00     0.008 C 
ATOM     17  C   UNL     1     135.206 131.504 139.498  1.00  0.00     0.012 C 
ATOM     18  C   UNL     1     132.999 130.448 137.269  1.00  0.00    -0.067 C 
ATOM     19  C   UNL     1     132.076 131.575 139.333  1.00  0.00     0.009 C 
ATOM     20  C   UNL     1     131.729 130.805 138.035  1.00  0.00     0.021 C 
ATOM     21  C   UNL     1     133.019 129.417 136.404  1.00  0.00    -0.027 C 
ATOM     22  C   UNL     1     130.727 129.599 138.258  1.00  0.00    -0.023 C 
ATOM     23  C   UNL     1     131.987 128.339 136.380  1.00  0.00     0.031 C 
ATOM     24  C   UNL     1     130.611 128.775 136.933  1.00  0.00     0.002 C 
ATOM     25  C   UNL     1     131.186 128.653 139.409  1.00  0.00     0.010 C 
ATOM     26  C   UNL     1     129.332 130.203 138.612  1.00  0.00     0.012 C 
ATOM     27  C   UNL     1     129.702 127.528 137.088  1.00  0.00     0.036 C 
ATOM     28  C   UNL     1     130.289 127.412 139.573  1.00  0.00     0.032 C 
ATOM     29  C   UNL     1     130.115 126.620 138.264  1.00  0.00     0.114 C 
BRANCH  29  30
ATOM     30  O   UNL     1     129.131 125.633 138.444  1.00  0.00    -0.393 OA
ATOM     31  H   UNL     1     128.321 126.091 138.790  1.00  0.00     0.210 HD
ENDBRANCH  29  30
ENDBRANCH   1  11
TORSDOF 6
ENDMDL
