MODEL 1
REMARK VINA RESULT:    -6.339      0.000      0.000
REMARK INTER + INTRA:          -6.895
REMARK INTER:                  -6.895
REMARK INTRA:                   0.000
REMARK UNBOUND:                 0.000
REMARK SMILES Cc1cc(O)c2c(c1)C(=O)c1cc(O)cc(O)c1C2=O
REMARK SMILES IDX 1 1 2 2 8 3 7 4 6 5 4 6 3 7 19 8 20 9 18 10 11 11 9 12 10 13
REMARK SMILES IDX 12 14 13 15 15 16 16 17 5 18 17 20 14 22
REMARK H PARENT 5 19 17 21 14 23
REMARK Flexibility Score: inf
ROOT
ATOM      1  C   UNL     1      35.690 -34.990  31.706  1.00  0.00     0.044 C 
ATOM      2  C   UNL     1      34.763 -36.033  32.258  1.00  0.00    -0.047 A 
ATOM      3  C   UNL     1      33.376 -35.870  32.150  1.00  0.00     0.016 A 
ATOM      4  C   UNL     1      32.499 -36.856  32.634  1.00  0.00     0.038 A 
ATOM      5  C   UNL     1      33.016 -38.033  33.214  1.00  0.00     0.076 A 
ATOM      6  C   UNL     1      34.418 -38.200  33.308  1.00  0.00     0.127 A 
ATOM      7  C   UNL     1      35.277 -37.204  32.825  1.00  0.00     0.050 A 
ATOM      8  C   UNL     1      32.076 -39.083  33.684  1.00  0.00     0.201 C 
ATOM      9  O   UNL     1      32.496 -40.257  33.863  1.00  0.00    -0.288 OA
ATOM     10  C   UNL     1      30.625 -38.777  33.830  1.00  0.00     0.076 A 
ATOM     11  C   UNL     1      30.112 -37.626  33.187  1.00  0.00     0.041 A 
ATOM     12  C   UNL     1      31.034 -36.668  32.530  1.00  0.00     0.194 C 
ATOM     13  O   UNL     1      30.569 -35.680  31.898  1.00  0.00    -0.289 OA
ATOM     14  C   UNL     1      28.728 -37.385  33.179  1.00  0.00     0.059 A 
ATOM     15  C   UNL     1      27.851 -38.263  33.814  1.00  0.00     0.120 A 
ATOM     16  C   UNL     1      28.354 -39.375  34.492  1.00  0.00     0.093 A 
ATOM     17  C   UNL     1      29.729 -39.624  34.538  1.00  0.00     0.131 A 
ENDROOT
BRANCH   6  18
ATOM     18  O   UNL     1      34.960 -39.346  33.889  1.00  0.00    -0.507 OA
ATOM     19  H   UNL     1      34.403 -39.971  34.460  1.00  0.00     0.293 HD
ENDBRANCH   6  18
BRANCH  17  20
ATOM     20  O   UNL     1      30.157 -40.696  35.326  1.00  0.00    -0.507 OA
ATOM     21  H   UNL     1      29.652 -41.566  35.410  1.00  0.00     0.293 HD
ENDBRANCH  17  20
BRANCH  15  22
ATOM     22  O   UNL     1      26.481 -38.012  33.778  1.00  0.00    -0.508 OA
ATOM     23  H   UNL     1      25.903 -38.336  33.012  1.00  0.00     0.293 HD
ENDBRANCH  15  22
TORSDOF 3
ENDMDL
MODEL 2
REMARK VINA RESULT:    -6.335      2.217      2.329
REMARK INTER + INTRA:          -6.891
REMARK INTER:                  -6.891
REMARK INTRA:                   0.000
REMARK UNBOUND:                 0.000
REMARK SMILES Cc1cc(O)c2c(c1)C(=O)c1cc(O)cc(O)c1C2=O
REMARK SMILES IDX 1 1 2 2 8 3 7 4 6 5 4 6 3 7 19 8 20 9 18 10 11 11 9 12 10 13
REMARK SMILES IDX 12 14 13 15 15 16 16 17 5 18 17 20 14 22
REMARK H PARENT 5 19 17 21 14 23
REMARK Flexibility Score: inf
ROOT
ATOM      1  C   UNL     1      33.605 -33.108  34.995  1.00  0.00     0.044 C 
ATOM      2  C   UNL     1      32.895 -34.428  34.923  1.00  0.00    -0.047 A 
ATOM      3  C   UNL     1      31.586 -34.497  34.429  1.00  0.00     0.016 A 
ATOM      4  C   UNL     1      30.924 -35.733  34.326  1.00  0.00     0.038 A 
ATOM      5  C   UNL     1      31.588 -36.919  34.701  1.00  0.00     0.076 A 
ATOM      6  C   UNL     1      32.915 -36.846  35.187  1.00  0.00     0.127 A 
ATOM      7  C   UNL     1      33.557 -35.605  35.287  1.00  0.00     0.050 A 
ATOM      8  C   UNL     1      30.888 -38.222  34.549  1.00  0.00     0.201 C 
ATOM      9  O   UNL     1      31.558 -39.288  34.529  1.00  0.00    -0.288 OA
ATOM     10  C   UNL     1      29.419 -38.256  34.303  1.00  0.00     0.076 A 
ATOM     11  C   UNL     1      28.782 -37.071  33.865  1.00  0.00     0.041 A 
ATOM     12  C   UNL     1      29.535 -35.796  33.818  1.00  0.00     0.194 C 
ATOM     13  O   UNL     1      28.985 -34.756  33.360  1.00  0.00    -0.289 OA
ATOM     14  C   UNL     1      27.429 -37.103  33.483  1.00  0.00     0.059 A 
ATOM     15  C   UNL     1      26.701 -38.289  33.547  1.00  0.00     0.120 A 
ATOM     16  C   UNL     1      27.310 -39.451  34.024  1.00  0.00     0.093 A 
ATOM     17  C   UNL     1      28.646 -39.443  34.436  1.00  0.00     0.131 A 
ENDROOT
BRANCH   6  18
ATOM     18  O   UNL     1      33.593 -38.000  35.580  1.00  0.00    -0.507 OA
ATOM     19  H   UNL     1      33.200 -38.924  35.442  1.00  0.00     0.293 HD
ENDBRANCH   6  18
BRANCH  17  20
ATOM     20  O   UNL     1      29.147 -40.618  34.999  1.00  0.00    -0.507 OA
ATOM     21  H   UNL     1      29.637 -40.653  35.881  1.00  0.00     0.293 HD
ENDBRANCH  17  20
BRANCH  15  22
ATOM     22  O   UNL     1      25.366 -38.299  33.147  1.00  0.00    -0.508 OA
ATOM     23  H   UNL     1      24.618 -38.086  33.796  1.00  0.00     0.293 HD
ENDBRANCH  15  22
TORSDOF 3
ENDMDL
MODEL 3
REMARK VINA RESULT:    -6.212      3.150      3.910
REMARK INTER + INTRA:          -6.757
REMARK INTER:                  -6.757
REMARK INTRA:                   0.000
REMARK UNBOUND:                 0.000
REMARK SMILES Cc1cc(O)c2c(c1)C(=O)c1cc(O)cc(O)c1C2=O
REMARK SMILES IDX 1 1 2 2 8 3 7 4 6 5 4 6 3 7 19 8 20 9 18 10 11 11 9 12 10 13
REMARK SMILES IDX 12 14 13 15 15 16 16 17 5 18 17 20 14 22
REMARK H PARENT 5 19 17 21 14 23
REMARK Flexibility Score: inf
ROOT
ATOM      1  C   UNL     1      32.455 -31.522  36.560  1.00  0.00     0.044 C 
ATOM      2  C   UNL     1      32.586 -32.848  35.870  1.00  0.00    -0.047 A 
ATOM      3  C   UNL     1      31.612 -33.837  36.056  1.00  0.00     0.016 A 
ATOM      4  C   UNL     1      31.706 -35.070  35.387  1.00  0.00     0.038 A 
ATOM      5  C   UNL     1      32.779 -35.309  34.503  1.00  0.00     0.076 A 
ATOM      6  C   UNL     1      33.753 -34.302  34.307  1.00  0.00     0.127 A 
ATOM      7  C   UNL     1      33.644 -33.080  34.986  1.00  0.00     0.050 A 
ATOM      8  C   UNL     1      32.843 -36.603  33.774  1.00  0.00     0.201 C 
ATOM      9  O   UNL     1      33.558 -36.698  32.741  1.00  0.00    -0.288 OA
ATOM     10  C   UNL     1      31.978 -37.741  34.194  1.00  0.00     0.076 A 
ATOM     11  C   UNL     1      30.869 -37.471  35.030  1.00  0.00     0.041 A 
ATOM     12  C   UNL     1      30.682 -36.116  35.602  1.00  0.00     0.194 C 
ATOM     13  O   UNL     1      29.655 -35.860  36.290  1.00  0.00    -0.289 OA
ATOM     14  C   UNL     1      29.950 -38.491  35.326  1.00  0.00     0.059 A 
ATOM     15  C   UNL     1      30.127 -39.777  34.816  1.00  0.00     0.120 A 
ATOM     16  C   UNL     1      31.245 -40.062  34.030  1.00  0.00     0.093 A 
ATOM     17  C   UNL     1      32.189 -39.073  33.742  1.00  0.00     0.131 A 
ENDROOT
BRANCH   6  18
ATOM     18  O   UNL     1      34.833 -34.513  33.450  1.00  0.00    -0.507 OA
ATOM     19  H   UNL     1      35.319 -35.401  33.412  1.00  0.00     0.293 HD
ENDBRANCH   6  18
BRANCH  17  20
ATOM     20  O   UNL     1      33.331 -39.466  33.040  1.00  0.00    -0.507 OA
ATOM     21  H   UNL     1      33.565 -39.131  32.117  1.00  0.00     0.293 HD
ENDBRANCH  17  20
BRANCH  15  22
ATOM     22  O   UNL     1      29.192 -40.768  35.110  1.00  0.00    -0.508 OA
ATOM     23  H   UNL     1      29.058 -41.104  36.056  1.00  0.00     0.293 HD
ENDBRANCH  15  22
TORSDOF 3
ENDMDL
MODEL 4
REMARK VINA RESULT:    -6.178      1.621      5.460
REMARK INTER + INTRA:          -6.720
REMARK INTER:                  -6.720
REMARK INTRA:                   0.000
REMARK UNBOUND:                 0.000
REMARK SMILES Cc1cc(O)c2c(c1)C(=O)c1cc(O)cc(O)c1C2=O
REMARK SMILES IDX 1 1 2 2 8 3 7 4 6 5 4 6 3 7 19 8 20 9 18 10 11 11 9 12 10 13
REMARK SMILES IDX 12 14 13 15 15 16 16 17 5 18 17 20 14 22
REMARK H PARENT 5 19 17 21 14 23
REMARK Flexibility Score: inf
ROOT
ATOM      1  C   UNL     1      26.988 -38.665  34.675  1.00  0.00     0.044 C 
ATOM      2  C   UNL     1      28.416 -38.721  34.219  1.00  0.00    -0.047 A 
ATOM      3  C   UNL     1      28.957 -37.673  33.465  1.00  0.00     0.016 A 
ATOM      4  C   UNL     1      30.303 -37.699  33.063  1.00  0.00     0.038 A 
ATOM      5  C   UNL     1      31.127 -38.781  33.438  1.00  0.00     0.076 A 
ATOM      6  C   UNL     1      30.581 -39.832  34.211  1.00  0.00     0.127 A 
ATOM      7  C   UNL     1      29.235 -39.790  34.600  1.00  0.00     0.050 A 
ATOM      8  C   UNL     1      32.558 -38.775  33.037  1.00  0.00     0.201 C 
ATOM      9  O   UNL     1      33.376 -39.516  33.645  1.00  0.00    -0.288 OA
ATOM     10  C   UNL     1      33.042 -37.816  32.004  1.00  0.00     0.076 A 
ATOM     11  C   UNL     1      32.229 -36.702  31.688  1.00  0.00     0.041 A 
ATOM     12  C   UNL     1      30.862 -36.595  32.252  1.00  0.00     0.194 C 
ATOM     13  O   UNL     1      30.167 -35.566  32.024  1.00  0.00    -0.289 OA
ATOM     14  C   UNL     1      32.716 -35.701  30.830  1.00  0.00     0.059 A 
ATOM     15  C   UNL     1      33.989 -35.801  30.272  1.00  0.00     0.120 A 
ATOM     16  C   UNL     1      34.777 -36.921  30.541  1.00  0.00     0.093 A 
ATOM     17  C   UNL     1      34.308 -37.945  31.370  1.00  0.00     0.131 A 
ENDROOT
BRANCH   6  18
ATOM     18  O   UNL     1      31.366 -40.922  34.586  1.00  0.00    -0.507 OA
ATOM     19  H   UNL     1      31.256 -41.375  35.486  1.00  0.00     0.293 HD
ENDBRANCH   6  18
BRANCH  17  20
ATOM     20  O   UNL     1      35.114 -39.078  31.502  1.00  0.00    -0.507 OA
ATOM     21  H   UNL     1      35.306 -39.530  32.385  1.00  0.00     0.293 HD
ENDBRANCH  17  20
BRANCH  15  22
ATOM     22  O   UNL     1      34.456 -34.787  29.438  1.00  0.00    -0.508 OA
ATOM     23  H   UNL     1      34.688 -34.965  28.468  1.00  0.00     0.293 HD
ENDBRANCH  15  22
TORSDOF 3
ENDMDL
MODEL 5
REMARK VINA RESULT:    -5.977      1.635      3.749
REMARK INTER + INTRA:          -6.501
REMARK INTER:                  -6.501
REMARK INTRA:                   0.000
REMARK UNBOUND:                 0.000
REMARK SMILES Cc1cc(O)c2c(c1)C(=O)c1cc(O)cc(O)c1C2=O
REMARK SMILES IDX 1 1 2 2 8 3 7 4 6 5 4 6 3 7 19 8 20 9 18 10 11 11 9 12 10 13
REMARK SMILES IDX 12 14 13 15 15 16 16 17 5 18 17 20 14 22
REMARK H PARENT 5 19 17 21 14 23
REMARK Flexibility Score: inf
ROOT
ATOM      1  C   UNL     1      35.859 -35.793  28.941  1.00  0.00     0.044 C 
ATOM      2  C   UNL     1      34.579 -35.932  29.712  1.00  0.00    -0.047 A 
ATOM      3  C   UNL     1      34.432 -36.957  30.654  1.00  0.00     0.016 A 
ATOM      4  C   UNL     1      33.251 -37.075  31.406  1.00  0.00     0.038 A 
ATOM      5  C   UNL     1      32.208 -36.141  31.228  1.00  0.00     0.076 A 
ATOM      6  C   UNL     1      32.366 -35.099  30.284  1.00  0.00     0.127 A 
ATOM      7  C   UNL     1      33.550 -35.000  29.541  1.00  0.00     0.050 A 
ATOM      8  C   UNL     1      30.981 -36.257  32.058  1.00  0.00     0.201 C 
ATOM      9  O   UNL     1      30.217 -35.262  32.179  1.00  0.00    -0.288 OA
ATOM     10  C   UNL     1      30.719 -37.501  32.835  1.00  0.00     0.076 A 
ATOM     11  C   UNL     1      31.793 -38.394  33.058  1.00  0.00     0.041 A 
ATOM     12  C   UNL     1      33.097 -38.171  32.389  1.00  0.00     0.194 C 
ATOM     13  O   UNL     1      34.073 -38.929  32.645  1.00  0.00    -0.289 OA
ATOM     14  C   UNL     1      31.620 -39.500  33.908  1.00  0.00     0.059 A 
ATOM     15  C   UNL     1      30.392 -39.737  34.524  1.00  0.00     0.120 A 
ATOM     16  C   UNL     1      29.314 -38.887  34.270  1.00  0.00     0.093 A 
ATOM     17  C   UNL     1      29.451 -37.795  33.408  1.00  0.00     0.131 A 
ENDROOT
BRANCH   6  18
ATOM     18  O   UNL     1      31.349 -34.168  30.075  1.00  0.00    -0.507 OA
ATOM     19  H   UNL     1      31.092 -33.858  29.145  1.00  0.00     0.293 HD
ENDBRANCH   6  18
BRANCH  17  20
ATOM     20  O   UNL     1      28.298 -37.058  33.125  1.00  0.00    -0.507 OA
ATOM     21  H   UNL     1      28.254 -36.334  32.423  1.00  0.00     0.293 HD
ENDBRANCH  17  20
BRANCH  15  22
ATOM     22  O   UNL     1      30.250 -40.831  35.375  1.00  0.00    -0.508 OA
ATOM     23  H   UNL     1      29.892 -41.718  35.042  1.00  0.00     0.293 HD
ENDBRANCH  15  22
TORSDOF 3
ENDMDL
MODEL 6
REMARK VINA RESULT:    -5.957      4.484      5.967
REMARK INTER + INTRA:          -6.479
REMARK INTER:                  -6.479
REMARK INTRA:                   0.000
REMARK UNBOUND:                 0.000
REMARK SMILES Cc1cc(O)c2c(c1)C(=O)c1cc(O)cc(O)c1C2=O
REMARK SMILES IDX 1 1 2 2 8 3 7 4 6 5 4 6 3 7 19 8 20 9 18 10 11 11 9 12 10 13
REMARK SMILES IDX 12 14 13 15 15 16 16 17 5 18 17 20 14 22
REMARK H PARENT 5 19 17 21 14 23
REMARK Flexibility Score: inf
ROOT
ATOM      1  C   UNL     1      30.438 -32.385  39.606  1.00  0.00     0.044 C 
ATOM      2  C   UNL     1      31.187 -32.995  38.458  1.00  0.00    -0.047 A 
ATOM      3  C   UNL     1      30.849 -34.273  37.996  1.00  0.00     0.016 A 
ATOM      4  C   UNL     1      31.521 -34.839  36.899  1.00  0.00     0.038 A 
ATOM      5  C   UNL     1      32.532 -34.108  36.241  1.00  0.00     0.076 A 
ATOM      6  C   UNL     1      32.861 -32.812  36.702  1.00  0.00     0.127 A 
ATOM      7  C   UNL     1      32.182 -32.265  37.799  1.00  0.00     0.050 A 
ATOM      8  C   UNL     1      33.205 -34.706  35.058  1.00  0.00     0.201 C 
ATOM      9  O   UNL     1      33.829 -33.960  34.257  1.00  0.00    -0.288 OA
ATOM     10  C   UNL     1      33.046 -36.157  34.761  1.00  0.00     0.076 A 
ATOM     11  C   UNL     1      31.986 -36.859  35.383  1.00  0.00     0.041 A 
ATOM     12  C   UNL     1      31.169 -36.197  36.428  1.00  0.00     0.194 C 
ATOM     13  O   UNL     1      30.181 -36.802  36.930  1.00  0.00    -0.289 OA
ATOM     14  C   UNL     1      31.715 -38.188  35.015  1.00  0.00     0.059 A 
ATOM     15  C   UNL     1      32.492 -38.831  34.053  1.00  0.00     0.120 A 
ATOM     16  C   UNL     1      33.569 -38.161  33.470  1.00  0.00     0.093 A 
ATOM     17  C   UNL     1      33.878 -36.847  33.837  1.00  0.00     0.131 A 
ENDROOT
BRANCH   6  18
ATOM     18  O   UNL     1      33.864 -32.069  36.081  1.00  0.00    -0.507 OA
ATOM     19  H   UNL     1      33.826 -31.839  35.094  1.00  0.00     0.293 HD
ENDBRANCH   6  18
BRANCH  17  20
ATOM     20  O   UNL     1      35.033 -36.286  33.286  1.00  0.00    -0.507 OA
ATOM     21  H   UNL     1      35.026 -35.525  32.623  1.00  0.00     0.293 HD
ENDBRANCH  17  20
BRANCH  15  22
ATOM     22  O   UNL     1      32.193 -40.144  33.693  1.00  0.00    -0.508 OA
ATOM     23  H   UNL     1      32.461 -40.926  34.278  1.00  0.00     0.293 HD
ENDBRANCH  15  22
TORSDOF 3
ENDMDL
MODEL 7
REMARK VINA RESULT:    -5.830      1.550      5.640
REMARK INTER + INTRA:          -6.341
REMARK INTER:                  -6.341
REMARK INTRA:                   0.000
REMARK UNBOUND:                 0.000
REMARK SMILES Cc1cc(O)c2c(c1)C(=O)c1cc(O)cc(O)c1C2=O
REMARK SMILES IDX 1 1 2 2 8 3 7 4 6 5 4 6 3 7 19 8 20 9 18 10 11 11 9 12 10 13
REMARK SMILES IDX 12 14 13 15 15 16 16 17 5 18 17 20 14 22
REMARK H PARENT 5 19 17 21 14 23
REMARK Flexibility Score: inf
ROOT
ATOM      1  C   UNL     1      25.216 -35.923  33.153  1.00  0.00     0.044 C 
ATOM      2  C   UNL     1      26.427 -36.778  33.384  1.00  0.00    -0.047 A 
ATOM      3  C   UNL     1      27.707 -36.214  33.338  1.00  0.00     0.016 A 
ATOM      4  C   UNL     1      28.846 -36.999  33.587  1.00  0.00     0.038 A 
ATOM      5  C   UNL     1      28.701 -38.365  33.908  1.00  0.00     0.076 A 
ATOM      6  C   UNL     1      27.405 -38.928  33.968  1.00  0.00     0.127 A 
ATOM      7  C   UNL     1      26.281 -38.130  33.713  1.00  0.00     0.050 A 
ATOM      8  C   UNL     1      29.913 -39.172  34.207  1.00  0.00     0.201 C 
ATOM      9  O   UNL     1      29.795 -40.260  34.833  1.00  0.00    -0.288 OA
ATOM     10  C   UNL     1      31.265 -38.643  33.874  1.00  0.00     0.076 A 
ATOM     11  C   UNL     1      31.401 -37.258  33.617  1.00  0.00     0.041 A 
ATOM     12  C   UNL     1      30.197 -36.398  33.520  1.00  0.00     0.194 C 
ATOM     13  O   UNL     1      30.325 -35.153  33.360  1.00  0.00    -0.289 OA
ATOM     14  C   UNL     1      32.679 -36.700  33.444  1.00  0.00     0.059 A 
ATOM     15  C   UNL     1      33.818 -37.500  33.507  1.00  0.00     0.120 A 
ATOM     16  C   UNL     1      33.688 -38.875  33.712  1.00  0.00     0.093 A 
ATOM     17  C   UNL     1      32.428 -39.461  33.860  1.00  0.00     0.131 A 
ENDROOT
BRANCH   6  18
ATOM     18  O   UNL     1      27.228 -40.279  34.270  1.00  0.00    -0.507 OA
ATOM     19  H   UNL     1      26.643 -40.582  35.039  1.00  0.00     0.293 HD
ENDBRANCH   6  18
BRANCH  17  20
ATOM     20  O   UNL     1      32.379 -40.854  33.954  1.00  0.00    -0.507 OA
ATOM     21  H   UNL     1      32.463 -41.473  33.161  1.00  0.00     0.293 HD
ENDBRANCH  17  20
BRANCH  15  22
ATOM     22  O   UNL     1      35.075 -36.921  33.349  1.00  0.00    -0.508 OA
ATOM     23  H   UNL     1      35.814 -37.067  34.026  1.00  0.00     0.293 HD
ENDBRANCH  15  22
TORSDOF 3
ENDMDL
MODEL 8
REMARK VINA RESULT:    -5.633      5.095      6.632
REMARK INTER + INTRA:          -6.127
REMARK INTER:                  -6.127
REMARK INTRA:                   0.000
REMARK UNBOUND:                 0.000
REMARK SMILES Cc1cc(O)c2c(c1)C(=O)c1cc(O)cc(O)c1C2=O
REMARK SMILES IDX 1 1 2 2 8 3 7 4 6 5 4 6 3 7 19 8 20 9 18 10 11 11 9 12 10 13
REMARK SMILES IDX 12 14 13 15 15 16 16 17 5 18 17 20 14 22
REMARK H PARENT 5 19 17 21 14 23
REMARK Flexibility Score: inf
ROOT
ATOM      1  C   UNL     1      31.655 -39.621  33.854  1.00  0.00     0.044 C 
ATOM      2  C   UNL     1      31.161 -38.540  34.771  1.00  0.00    -0.047 A 
ATOM      3  C   UNL     1      31.915 -37.374  34.954  1.00  0.00     0.016 A 
ATOM      4  C   UNL     1      31.447 -36.341  35.783  1.00  0.00     0.038 A 
ATOM      5  C   UNL     1      30.195 -36.466  36.422  1.00  0.00     0.076 A 
ATOM      6  C   UNL     1      29.430 -37.639  36.223  1.00  0.00     0.127 A 
ATOM      7  C   UNL     1      29.916 -38.660  35.395  1.00  0.00     0.050 A 
ATOM      8  C   UNL     1      29.696 -35.347  37.264  1.00  0.00     0.201 C 
ATOM      9  O   UNL     1      28.468 -35.277  37.539  1.00  0.00    -0.288 OA
ATOM     10  C   UNL     1      30.620 -34.255  37.681  1.00  0.00     0.076 A 
ATOM     11  C   UNL     1      31.843 -34.107  36.985  1.00  0.00     0.041 A 
ATOM     12  C   UNL     1      32.257 -35.119  35.985  1.00  0.00     0.194 C 
ATOM     13  O   UNL     1      33.314 -34.947  35.316  1.00  0.00    -0.289 OA
ATOM     14  C   UNL     1      32.671 -33.003  37.251  1.00  0.00     0.059 A 
ATOM     15  C   UNL     1      32.307 -32.056  38.208  1.00  0.00     0.120 A 
ATOM     16  C   UNL     1      31.125 -32.222  38.932  1.00  0.00     0.093 A 
ATOM     17  C   UNL     1      30.296 -33.325  38.707  1.00  0.00     0.131 A 
ENDROOT
BRANCH   6  18
ATOM     18  O   UNL     1      28.195 -37.798  36.851  1.00  0.00    -0.507 OA
ATOM     19  H   UNL     1      28.122 -38.060  37.827  1.00  0.00     0.293 HD
ENDBRANCH   6  18
BRANCH  17  20
ATOM     20  O   UNL     1      29.189 -33.473  39.546  1.00  0.00    -0.507 OA
ATOM     21  H   UNL     1      28.594 -32.708  39.829  1.00  0.00     0.293 HD
ENDBRANCH  17  20
BRANCH  15  22
ATOM     22  O   UNL     1      33.136 -30.961  38.442  1.00  0.00    -0.508 OA
ATOM     23  H   UNL     1      33.000 -30.081  37.959  1.00  0.00     0.293 HD
ENDBRANCH  15  22
TORSDOF 3
ENDMDL
MODEL 9
REMARK VINA RESULT:    -5.599      4.401      6.191
REMARK INTER + INTRA:          -6.090
REMARK INTER:                  -6.090
REMARK INTRA:                   0.000
REMARK UNBOUND:                 0.000
REMARK SMILES Cc1cc(O)c2c(c1)C(=O)c1cc(O)cc(O)c1C2=O
REMARK SMILES IDX 1 1 2 2 8 3 7 4 6 5 4 6 3 7 19 8 20 9 18 10 11 11 9 12 10 13
REMARK SMILES IDX 12 14 13 15 15 16 16 17 5 18 17 20 14 22
REMARK H PARENT 5 19 17 21 14 23
REMARK Flexibility Score: inf
ROOT
ATOM      1  C   UNL     1      29.480 -39.912  34.627  1.00  0.00     0.044 C 
ATOM      2  C   UNL     1      30.356 -38.696  34.692  1.00  0.00    -0.047 A 
ATOM      3  C   UNL     1      30.134 -37.720  35.672  1.00  0.00     0.016 A 
ATOM      4  C   UNL     1      30.969 -36.593  35.763  1.00  0.00     0.038 A 
ATOM      5  C   UNL     1      32.056 -36.451  34.875  1.00  0.00     0.076 A 
ATOM      6  C   UNL     1      32.285 -37.445  33.895  1.00  0.00     0.127 A 
ATOM      7  C   UNL     1      31.439 -38.560  33.817  1.00  0.00     0.050 A 
ATOM      8  C   UNL     1      32.953 -35.273  35.010  1.00  0.00     0.201 C 
ATOM      9  O   UNL     1      34.101 -35.304  34.492  1.00  0.00    -0.288 OA
ATOM     10  C   UNL     1      32.543 -34.113  35.851  1.00  0.00     0.076 A 
ATOM     11  C   UNL     1      31.493 -34.295  36.782  1.00  0.00     0.041 A 
ATOM     12  C   UNL     1      30.718 -35.559  36.792  1.00  0.00     0.194 C 
ATOM     13  O   UNL     1      29.829 -35.745  37.668  1.00  0.00    -0.289 OA
ATOM     14  C   UNL     1      31.178 -33.271  37.691  1.00  0.00     0.059 A 
ATOM     15  C   UNL     1      31.880 -32.067  37.677  1.00  0.00     0.120 A 
ATOM     16  C   UNL     1      32.885 -31.863  36.729  1.00  0.00     0.093 A 
ATOM     17  C   UNL     1      33.201 -32.854  35.795  1.00  0.00     0.131 A 
ENDROOT
BRANCH   6  18
ATOM     18  O   UNL     1      33.342 -37.326  32.994  1.00  0.00    -0.507 OA
ATOM     19  H   UNL     1      33.393 -36.564  32.328  1.00  0.00     0.293 HD
ENDBRANCH   6  18
BRANCH  17  20
ATOM     20  O   UNL     1      34.143 -32.530  34.816  1.00  0.00    -0.507 OA
ATOM     21  H   UNL     1      34.481 -33.184  34.124  1.00  0.00     0.293 HD
ENDBRANCH  17  20
BRANCH  15  22
ATOM     22  O   UNL     1      31.560 -31.073  38.599  1.00  0.00    -0.508 OA
ATOM     23  H   UNL     1      32.261 -30.431  38.950  1.00  0.00     0.293 HD
ENDBRANCH  15  22
TORSDOF 3
ENDMDL
