MODEL 1
REMARK VINA RESULT:    -3.739      0.000      0.000
REMARK INTER + INTRA:          -8.063
REMARK INTER:                  -6.580
REMARK INTRA:                  -1.483
REMARK UNBOUND:                -1.483
REMARK SMILES CCCCCCCCCCCCCCC(=O)[O-]
REMARK SMILES IDX 9 1 10 2 11 3 12 4 13 5 14 6 15 7 16 8 17 9 8 10 7 11 6 12
REMARK SMILES IDX 5 13 4 14 3 15 2 16 1 17
REMARK H PARENT
REMARK Flexibility Score: inf
ROOT
ATOM      1  C   UNL     1     -99.614 -62.618 -66.466  1.00  0.00     0.000 C 
ENDROOT
BRANCH   1   2
ATOM      2  C   UNL     1     -99.872 -62.320 -67.949  1.00  0.00     0.000 C 
BRANCH   2   3
ATOM      3  C   UNL     1     -98.925 -63.085 -68.890  1.00  0.00     0.000 C 
BRANCH   3   4
ATOM      4  C   UNL     1     -97.927 -62.208 -69.668  1.00  0.00     0.000 C 
BRANCH   4   5
ATOM      5  C   UNL     1     -96.622 -62.942 -70.009  1.00  0.00     0.006 C 
BRANCH   5   6
ATOM      6  C   UNL     1     -96.015 -62.406 -71.309  1.00  0.00     0.053 C 
BRANCH   6   7
ATOM      7  C   UNL     1     -95.241 -61.152 -71.050  1.00  0.00     0.041 C 
ATOM      8  O   UNL     1     -94.109 -61.209 -70.503  1.00  0.00    -0.550 OA
ATOM      9  O   UNL     1     -95.749 -59.926 -71.457  1.00  0.00    -0.550 OA
ENDBRANCH   6   7
ENDBRANCH   5   6
ENDBRANCH   4   5
ENDBRANCH   3   4
ENDBRANCH   2   3
ENDBRANCH   1   2
BRANCH   1  10
ATOM     10  C   UNL     1     -99.548 -61.319 -65.648  1.00  0.00     0.000 C 
BRANCH  10  11
ATOM     11  C   UNL     1    -100.345 -60.168 -66.288  1.00  0.00    -0.000 C 
BRANCH  11  12
ATOM     12  C   UNL     1     -99.530 -58.895 -66.594  1.00  0.00    -0.000 C 
BRANCH  12  13
ATOM     13  C   UNL     1     -98.347 -59.093 -67.558  1.00  0.00    -0.000 C 
BRANCH  13  14
ATOM     14  C   UNL     1     -96.993 -58.752 -66.918  1.00  0.00    -0.000 C 
BRANCH  14  15
ATOM     15  C   UNL     1     -97.171 -57.769 -65.752  1.00  0.00    -0.000 C 
BRANCH  15  16
ATOM     16  C   UNL     1     -96.436 -58.221 -64.481  1.00  0.00    -0.003 C 
ATOM     17  C   UNL     1     -96.555 -59.724 -64.232  1.00  0.00     0.004 C 
ENDBRANCH  15  16
ENDBRANCH  14  15
ENDBRANCH  13  14
ENDBRANCH  12  13
ENDBRANCH  11  12
ENDBRANCH  10  11
ENDBRANCH   1  10
TORSDOF 13
ENDMDL
MODEL 2
REMARK VINA RESULT:    -3.627      1.739      3.249
REMARK INTER + INTRA:          -7.866
REMARK INTER:                  -6.724
REMARK INTRA:                  -1.142
REMARK UNBOUND:                -1.483
REMARK SMILES CCCCCCCCCCCCCCC(=O)[O-]
REMARK SMILES IDX 9 1 10 2 11 3 12 4 13 5 14 6 15 7 16 8 17 9 8 10 7 11 6 12
REMARK SMILES IDX 5 13 4 14 3 15 2 16 1 17
REMARK H PARENT
REMARK Flexibility Score: inf
ROOT
ATOM      1  C   UNL     1     -97.943 -61.828 -69.291  1.00  0.00     0.000 C 
ENDROOT
BRANCH   1   2
ATOM      2  C   UNL     1     -96.816 -62.235 -70.249  1.00  0.00     0.000 C 
BRANCH   2   3
ATOM      3  C   UNL     1     -95.801 -61.104 -70.499  1.00  0.00     0.000 C 
BRANCH   3   4
ATOM      4  C   UNL     1     -94.369 -61.391 -70.013  1.00  0.00     0.000 C 
BRANCH   4   5
ATOM      5  C   UNL     1     -94.041 -62.891 -69.965  1.00  0.00     0.006 C 
BRANCH   5   6
ATOM      6  C   UNL     1     -93.037 -63.268 -71.059  1.00  0.00     0.053 C 
BRANCH   6   7
ATOM      7  C   UNL     1     -93.690 -63.236 -72.404  1.00  0.00     0.041 C 
ATOM      8  O   UNL     1     -93.282 -62.437 -73.287  1.00  0.00    -0.550 OA
ATOM      9  O   UNL     1     -94.716 -64.124 -72.699  1.00  0.00    -0.550 OA
ENDBRANCH   6   7
ENDBRANCH   5   6
ENDBRANCH   4   5
ENDBRANCH   3   4
ENDBRANCH   2   3
ENDBRANCH   1   2
BRANCH   1  10
ATOM     10  C   UNL     1     -98.879 -63.014 -69.010  1.00  0.00     0.000 C 
BRANCH  10  11
ATOM     11  C   UNL     1    -100.038 -62.650 -68.065  1.00  0.00    -0.000 C 
BRANCH  11  12
ATOM     12  C   UNL     1     -99.653 -61.756 -66.868  1.00  0.00    -0.000 C 
BRANCH  12  13
ATOM     13  C   UNL     1    -100.559 -60.532 -66.649  1.00  0.00    -0.000 C 
BRANCH  13  14
ATOM     14  C   UNL     1     -99.771 -59.264 -66.288  1.00  0.00    -0.000 C 
BRANCH  14  15
ATOM     15  C   UNL     1     -98.802 -58.882 -67.417  1.00  0.00    -0.000 C 
BRANCH  15  16
ATOM     16  C   UNL     1     -97.334 -58.881 -66.962  1.00  0.00    -0.003 C 
ATOM     17  C   UNL     1     -97.073 -57.909 -65.812  1.00  0.00     0.004 C 
ENDBRANCH  15  16
ENDBRANCH  14  15
ENDBRANCH  13  14
ENDBRANCH  12  13
ENDBRANCH  11  12
ENDBRANCH  10  11
ENDBRANCH   1  10
TORSDOF 13
ENDMDL
MODEL 3
REMARK VINA RESULT:    -3.324     13.364     14.662
REMARK INTER + INTRA:          -7.333
REMARK INTER:                  -5.777
REMARK INTRA:                  -1.556
REMARK UNBOUND:                -1.483
REMARK SMILES CCCCCCCCCCCCCCC(=O)[O-]
REMARK SMILES IDX 9 1 10 2 11 3 12 4 13 5 14 6 15 7 16 8 17 9 8 10 7 11 6 12
REMARK SMILES IDX 5 13 4 14 3 15 2 16 1 17
REMARK H PARENT
REMARK Flexibility Score: inf
ROOT
ATOM      1  C   UNL     1     -96.154 -45.476 -68.944  1.00  0.00     0.000 C 
ENDROOT
BRANCH   1   2
ATOM      2  C   UNL     1     -95.103 -46.126 -68.033  1.00  0.00     0.000 C 
BRANCH   2   3
ATOM      3  C   UNL     1     -94.017 -46.886 -68.816  1.00  0.00     0.000 C 
BRANCH   3   4
ATOM      4  C   UNL     1     -93.306 -46.067 -69.909  1.00  0.00     0.000 C 
BRANCH   4   5
ATOM      5  C   UNL     1     -93.347 -46.744 -71.287  1.00  0.00     0.006 C 
BRANCH   5   6
ATOM      6  C   UNL     1     -94.262 -47.972 -71.269  1.00  0.00     0.053 C 
BRANCH   6   7
ATOM      7  C   UNL     1     -94.313 -48.609 -72.621  1.00  0.00     0.041 C 
ATOM      8  O   UNL     1     -93.713 -48.080 -73.594  1.00  0.00    -0.550 OA
ATOM      9  O   UNL     1     -94.982 -49.813 -72.797  1.00  0.00    -0.550 OA
ENDBRANCH   6   7
ENDBRANCH   5   6
ENDBRANCH   4   5
ENDBRANCH   3   4
ENDBRANCH   2   3
ENDBRANCH   1   2
BRANCH   1  10
ATOM     10  C   UNL     1     -97.549 -46.061 -68.676  1.00  0.00     0.000 C 
BRANCH  10  11
ATOM     11  C   UNL     1     -98.135 -46.791 -69.898  1.00  0.00    -0.000 C 
BRANCH  11  12
ATOM     12  C   UNL     1     -97.563 -46.353 -71.262  1.00  0.00    -0.000 C 
BRANCH  12  13
ATOM     13  C   UNL     1     -97.788 -47.348 -72.415  1.00  0.00    -0.000 C 
BRANCH  13  14
ATOM     14  C   UNL     1     -99.106 -48.124 -72.284  1.00  0.00    -0.000 C 
BRANCH  14  15
ATOM     15  C   UNL     1    -100.195 -47.510 -73.176  1.00  0.00    -0.000 C 
BRANCH  15  16
ATOM     16  C   UNL     1    -101.585 -47.548 -72.523  1.00  0.00    -0.003 C 
ATOM     17  C   UNL     1    -101.686 -46.645 -71.294  1.00  0.00     0.004 C 
ENDBRANCH  15  16
ENDBRANCH  14  15
ENDBRANCH  13  14
ENDBRANCH  12  13
ENDBRANCH  11  12
ENDBRANCH  10  11
ENDBRANCH   1  10
TORSDOF 13
ENDMDL
MODEL 4
REMARK VINA RESULT:    -3.322     13.976     15.161
REMARK INTER + INTRA:          -7.330
REMARK INTER:                  -5.594
REMARK INTRA:                  -1.736
REMARK UNBOUND:                -1.483
REMARK SMILES CCCCCCCCCCCCCCC(=O)[O-]
REMARK SMILES IDX 9 1 10 2 11 3 12 4 13 5 14 6 15 7 16 8 17 9 8 10 7 11 6 12
REMARK SMILES IDX 5 13 4 14 3 15 2 16 1 17
REMARK H PARENT
REMARK Flexibility Score: inf
ROOT
ATOM      1  C   UNL     1     -98.483 -46.951 -69.536  1.00  0.00     0.000 C 
ENDROOT
BRANCH   1   2
ATOM      2  C   UNL     1     -98.168 -46.750 -71.024  1.00  0.00     0.000 C 
BRANCH   2   3
ATOM      3  C   UNL     1     -98.418 -48.014 -71.868  1.00  0.00     0.000 C 
BRANCH   3   4
ATOM      4  C   UNL     1     -99.572 -47.905 -72.881  1.00  0.00     0.000 C 
BRANCH   4   5
ATOM      5  C   UNL     1    -100.310 -46.560 -72.808  1.00  0.00     0.006 C 
BRANCH   5   6
ATOM      6  C   UNL     1    -101.801 -46.767 -72.527  1.00  0.00     0.053 C 
BRANCH   6   7
ATOM      7  C   UNL     1    -102.113 -46.459 -71.097  1.00  0.00     0.041 C 
ATOM      8  O   UNL     1    -101.613 -45.445 -70.543  1.00  0.00    -0.550 OA
ATOM      9  O   UNL     1    -102.996 -47.265 -70.390  1.00  0.00    -0.550 OA
ENDBRANCH   6   7
ENDBRANCH   5   6
ENDBRANCH   4   5
ENDBRANCH   3   4
ENDBRANCH   2   3
ENDBRANCH   1   2
BRANCH   1  10
ATOM     10  C   UNL     1     -97.852 -45.837 -68.686  1.00  0.00     0.000 C 
BRANCH  10  11
ATOM     11  C   UNL     1     -96.967 -44.884 -69.511  1.00  0.00    -0.000 C 
BRANCH  11  12
ATOM     12  C   UNL     1     -95.480 -44.850 -69.102  1.00  0.00    -0.000 C 
BRANCH  12  13
ATOM     13  C   UNL     1     -95.044 -45.960 -68.130  1.00  0.00    -0.000 C 
BRANCH  13  14
ATOM     14  C   UNL     1     -94.031 -46.932 -68.751  1.00  0.00    -0.000 C 
BRANCH  14  15
ATOM     15  C   UNL     1     -93.905 -46.699 -70.264  1.00  0.00    -0.000 C 
BRANCH  15  16
ATOM     16  C   UNL     1     -94.402 -47.896 -71.090  1.00  0.00    -0.003 C 
ATOM     17  C   UNL     1     -94.789 -47.508 -72.517  1.00  0.00     0.004 C 
ENDBRANCH  15  16
ENDBRANCH  14  15
ENDBRANCH  13  14
ENDBRANCH  12  13
ENDBRANCH  11  12
ENDBRANCH  10  11
ENDBRANCH   1  10
TORSDOF 13
ENDMDL
MODEL 5
REMARK VINA RESULT:    -3.139     12.890     14.949
REMARK INTER + INTRA:          -7.007
REMARK INTER:                  -5.358
REMARK INTRA:                  -1.649
REMARK UNBOUND:                -1.483
REMARK SMILES CCCCCCCCCCCCCCC(=O)[O-]
REMARK SMILES IDX 9 1 10 2 11 3 12 4 13 5 14 6 15 7 16 8 17 9 8 10 7 11 6 12
REMARK SMILES IDX 5 13 4 14 3 15 2 16 1 17
REMARK H PARENT
REMARK Flexibility Score: inf
ROOT
ATOM      1  C   UNL     1     -96.464 -46.035 -68.703  1.00  0.00     0.000 C 
ENDROOT
BRANCH   1   2
ATOM      2  C   UNL     1     -96.826 -44.909 -69.681  1.00  0.00     0.000 C 
BRANCH   2   3
ATOM      3  C   UNL     1     -97.064 -45.412 -71.116  1.00  0.00     0.000 C 
BRANCH   3   4
ATOM      4  C   UNL     1     -97.502 -46.884 -71.228  1.00  0.00     0.000 C 
BRANCH   4   5
ATOM      5  C   UNL     1     -98.144 -47.218 -72.583  1.00  0.00     0.006 C 
BRANCH   5   6
ATOM      6  C   UNL     1     -99.385 -48.096 -72.400  1.00  0.00     0.053 C 
BRANCH   6   7
ATOM      7  C   UNL     1    -100.627 -47.318 -72.699  1.00  0.00     0.041 C 
ATOM      8  O   UNL     1    -100.606 -46.059 -72.680  1.00  0.00    -0.550 OA
ATOM      9  O   UNL     1    -101.796 -47.982 -73.046  1.00  0.00    -0.550 OA
ENDBRANCH   6   7
ENDBRANCH   5   6
ENDBRANCH   4   5
ENDBRANCH   3   4
ENDBRANCH   2   3
ENDBRANCH   1   2
BRANCH   1  10
ATOM     10  C   UNL     1     -95.050 -45.835 -68.136  1.00  0.00     0.000 C 
BRANCH  10  11
ATOM     11  C   UNL     1     -94.059 -46.915 -68.606  1.00  0.00    -0.000 C 
BRANCH  11  12
ATOM     12  C   UNL     1     -93.586 -46.781 -70.068  1.00  0.00    -0.000 C 
BRANCH  12  13
ATOM     13  C   UNL     1     -94.098 -47.873 -71.024  1.00  0.00    -0.000 C 
BRANCH  13  14
ATOM     14  C   UNL     1     -93.686 -47.630 -72.483  1.00  0.00    -0.000 C 
BRANCH  14  15
ATOM     15  C   UNL     1     -94.693 -48.268 -73.450  1.00  0.00    -0.000 C 
BRANCH  15  16
ATOM     16  C   UNL     1     -95.142 -49.666 -73.000  1.00  0.00    -0.003 C 
ATOM     17  C   UNL     1     -94.444 -50.787 -73.770  1.00  0.00     0.004 C 
ENDBRANCH  15  16
ENDBRANCH  14  15
ENDBRANCH  13  14
ENDBRANCH  12  13
ENDBRANCH  11  12
ENDBRANCH  10  11
ENDBRANCH   1  10
TORSDOF 13
ENDMDL
MODEL 6
REMARK VINA RESULT:    -3.125     13.564     14.973
REMARK INTER + INTRA:          -6.984
REMARK INTER:                  -5.093
REMARK INTRA:                  -1.891
REMARK UNBOUND:                -1.483
REMARK SMILES CCCCCCCCCCCCCCC(=O)[O-]
REMARK SMILES IDX 9 1 10 2 11 3 12 4 13 5 14 6 15 7 16 8 17 9 8 10 7 11 6 12
REMARK SMILES IDX 5 13 4 14 3 15 2 16 1 17
REMARK H PARENT
REMARK Flexibility Score: inf
ROOT
ATOM      1  C   UNL     1     -97.607 -46.069 -68.860  1.00  0.00     0.000 C 
ENDROOT
BRANCH   1   2
ATOM      2  C   UNL     1     -96.247 -45.432 -69.175  1.00  0.00     0.000 C 
BRANCH   2   3
ATOM      3  C   UNL     1     -95.116 -45.946 -68.266  1.00  0.00     0.000 C 
BRANCH   3   4
ATOM      4  C   UNL     1     -94.086 -46.859 -68.957  1.00  0.00     0.000 C 
BRANCH   4   5
ATOM      5  C   UNL     1     -94.049 -46.675 -70.481  1.00  0.00     0.006 C 
BRANCH   5   6
ATOM      6  C   UNL     1     -94.173 -48.022 -71.199  1.00  0.00     0.053 C 
BRANCH   6   7
ATOM      7  C   UNL     1     -93.770 -47.891 -72.634  1.00  0.00     0.041 C 
ATOM      8  O   UNL     1     -92.879 -47.068 -72.969  1.00  0.00    -0.550 OA
ATOM      9  O   UNL     1     -94.344 -48.714 -73.594  1.00  0.00    -0.550 OA
ENDBRANCH   6   7
ENDBRANCH   5   6
ENDBRANCH   4   5
ENDBRANCH   3   4
ENDBRANCH   2   3
ENDBRANCH   1   2
BRANCH   1  10
ATOM     10  C   UNL     1     -98.708 -45.001 -68.780  1.00  0.00     0.000 C 
BRANCH  10  11
ATOM     11  C   UNL     1     -99.160 -44.502 -70.164  1.00  0.00    -0.000 C 
BRANCH  11  12
ATOM     12  C   UNL     1    -100.571 -44.953 -70.595  1.00  0.00    -0.000 C 
BRANCH  12  13
ATOM     13  C   UNL     1    -100.695 -46.439 -70.976  1.00  0.00    -0.000 C 
BRANCH  13  14
ATOM     14  C   UNL     1     -99.889 -46.802 -72.232  1.00  0.00    -0.000 C 
BRANCH  14  15
ATOM     15  C   UNL     1     -99.012 -48.038 -71.981  1.00  0.00    -0.000 C 
BRANCH  15  16
ATOM     16  C   UNL     1     -97.544 -47.811 -72.376  1.00  0.00    -0.003 C 
ATOM     17  C   UNL     1     -97.232 -46.344 -72.671  1.00  0.00     0.004 C 
ENDBRANCH  15  16
ENDBRANCH  14  15
ENDBRANCH  13  14
ENDBRANCH  12  13
ENDBRANCH  11  12
ENDBRANCH  10  11
ENDBRANCH   1  10
TORSDOF 13
ENDMDL
MODEL 7
REMARK VINA RESULT:    -3.114     13.615     14.614
REMARK INTER + INTRA:          -6.964
REMARK INTER:                  -5.834
REMARK INTRA:                  -1.129
REMARK UNBOUND:                -1.483
REMARK SMILES CCCCCCCCCCCCCCC(=O)[O-]
REMARK SMILES IDX 9 1 10 2 11 3 12 4 13 5 14 6 15 7 16 8 17 9 8 10 7 11 6 12
REMARK SMILES IDX 5 13 4 14 3 15 2 16 1 17
REMARK H PARENT
REMARK Flexibility Score: inf
ROOT
ATOM      1  C   UNL     1     -98.475 -48.025 -71.839  1.00  0.00     0.000 C 
ENDROOT
BRANCH   1   2
ATOM      2  C   UNL     1     -99.248 -47.560 -73.080  1.00  0.00     0.000 C 
BRANCH   2   3
ATOM      3  C   UNL     1    -100.750 -47.889 -73.011  1.00  0.00     0.000 C 
BRANCH   3   4
ATOM      4  C   UNL     1    -101.566 -47.019 -72.037  1.00  0.00     0.000 C 
BRANCH   4   5
ATOM      5  C   UNL     1    -103.023 -47.482 -71.895  1.00  0.00     0.006 C 
BRANCH   5   6
ATOM      6  C   UNL     1    -103.297 -48.708 -72.771  1.00  0.00     0.053 C 
BRANCH   6   7
ATOM      7  C   UNL     1    -104.361 -49.563 -72.160  1.00  0.00     0.041 C 
ATOM      8  O   UNL     1    -104.727 -49.366 -70.971  1.00  0.00    -0.550 OA
ATOM      9  O   UNL     1    -104.983 -50.546 -72.918  1.00  0.00    -0.550 OA
ENDBRANCH   6   7
ENDBRANCH   5   6
ENDBRANCH   4   5
ENDBRANCH   3   4
ENDBRANCH   2   3
ENDBRANCH   1   2
BRANCH   1  10
ATOM     10  C   UNL     1     -97.990 -46.824 -71.013  1.00  0.00     0.000 C 
BRANCH  10  11
ATOM     11  C   UNL     1     -98.487 -46.860 -69.556  1.00  0.00    -0.000 C 
BRANCH  11  12
ATOM     12  C   UNL     1     -97.581 -46.140 -68.536  1.00  0.00    -0.000 C 
BRANCH  12  13
ATOM     13  C   UNL     1     -96.312 -45.500 -69.126  1.00  0.00    -0.000 C 
BRANCH  13  14
ATOM     14  C   UNL     1     -95.060 -45.768 -68.279  1.00  0.00    -0.000 C 
BRANCH  14  15
ATOM     15  C   UNL     1     -94.256 -46.947 -68.847  1.00  0.00    -0.000 C 
BRANCH  15  16
ATOM     16  C   UNL     1     -93.892 -46.755 -70.327  1.00  0.00    -0.003 C 
ATOM     17  C   UNL     1     -94.354 -47.918 -71.205  1.00  0.00     0.004 C 
ENDBRANCH  15  16
ENDBRANCH  14  15
ENDBRANCH  13  14
ENDBRANCH  12  13
ENDBRANCH  11  12
ENDBRANCH  10  11
ENDBRANCH   1  10
TORSDOF 13
ENDMDL
MODEL 8
REMARK VINA RESULT:    -3.105     14.078     15.489
REMARK INTER + INTRA:          -6.948
REMARK INTER:                  -4.632
REMARK INTRA:                  -2.316
REMARK UNBOUND:                -1.483
REMARK SMILES CCCCCCCCCCCCCCC(=O)[O-]
REMARK SMILES IDX 9 1 10 2 11 3 12 4 13 5 14 6 15 7 16 8 17 9 8 10 7 11 6 12
REMARK SMILES IDX 5 13 4 14 3 15 2 16 1 17
REMARK H PARENT
REMARK Flexibility Score: inf
ROOT
ATOM      1  C   UNL     1     -93.987 -47.638 -70.620  1.00  0.00     0.000 C 
ENDROOT
BRANCH   1   2
ATOM      2  C   UNL     1     -94.884 -48.121 -71.768  1.00  0.00     0.000 C 
BRANCH   2   3
ATOM      3  C   UNL     1     -95.163 -47.028 -72.815  1.00  0.00     0.000 C 
BRANCH   3   4
ATOM      4  C   UNL     1     -96.642 -46.863 -73.210  1.00  0.00     0.000 C 
BRANCH   4   5
ATOM      5  C   UNL     1     -97.590 -47.718 -72.356  1.00  0.00     0.006 C 
BRANCH   5   6
ATOM      6  C   UNL     1     -99.047 -47.513 -72.781  1.00  0.00     0.053 C 
BRANCH   6   7
ATOM      7  C   UNL     1     -99.706 -46.482 -71.921  1.00  0.00     0.041 C 
ATOM      8  O   UNL     1     -99.604 -45.261 -72.206  1.00  0.00    -0.550 OA
ATOM      9  O   UNL     1    -100.474 -46.874 -70.832  1.00  0.00    -0.550 OA
ENDBRANCH   6   7
ENDBRANCH   5   6
ENDBRANCH   4   5
ENDBRANCH   3   4
ENDBRANCH   2   3
ENDBRANCH   1   2
BRANCH   1  10
ATOM     10  C   UNL     1     -93.223 -46.367 -71.020  1.00  0.00     0.000 C 
BRANCH  10  11
ATOM     11  C   UNL     1     -93.052 -45.380 -69.851  1.00  0.00    -0.000 C 
BRANCH  11  12
ATOM     12  C   UNL     1     -94.365 -44.829 -69.259  1.00  0.00    -0.000 C 
BRANCH  12  13
ATOM     13  C   UNL     1     -95.294 -44.131 -70.268  1.00  0.00    -0.000 C 
BRANCH  13  14
ATOM     14  C   UNL     1     -96.724 -44.691 -70.249  1.00  0.00    -0.000 C 
BRANCH  14  15
ATOM     15  C   UNL     1     -96.836 -45.873 -69.274  1.00  0.00    -0.000 C 
BRANCH  15  16
ATOM     16  C   UNL     1     -98.141 -45.848 -68.463  1.00  0.00    -0.003 C 
ATOM     17  C   UNL     1     -98.899 -44.529 -68.604  1.00  0.00     0.004 C 
ENDBRANCH  15  16
ENDBRANCH  14  15
ENDBRANCH  13  14
ENDBRANCH  12  13
ENDBRANCH  11  12
ENDBRANCH  10  11
ENDBRANCH   1  10
TORSDOF 13
ENDMDL
MODEL 9
REMARK VINA RESULT:    -3.064     14.066     15.197
REMARK INTER + INTRA:          -6.876
REMARK INTER:                  -5.082
REMARK INTRA:                  -1.794
REMARK UNBOUND:                -1.483
REMARK SMILES CCCCCCCCCCCCCCC(=O)[O-]
REMARK SMILES IDX 9 1 10 2 11 3 12 4 13 5 14 6 15 7 16 8 17 9 8 10 7 11 6 12
REMARK SMILES IDX 5 13 4 14 3 15 2 16 1 17
REMARK H PARENT
REMARK Flexibility Score: inf
ROOT
ATOM      1  C   UNL     1     -95.653 -48.008 -72.218  1.00  0.00     0.000 C 
ENDROOT
BRANCH   1   2
ATOM      2  C   UNL     1     -96.126 -46.579 -72.517  1.00  0.00     0.000 C 
BRANCH   2   3
ATOM      3  C   UNL     1     -97.657 -46.460 -72.614  1.00  0.00     0.000 C 
BRANCH   3   4
ATOM      4  C   UNL     1     -98.441 -47.684 -72.106  1.00  0.00     0.000 C 
BRANCH   4   5
ATOM      5  C   UNL     1     -99.899 -47.705 -72.590  1.00  0.00     0.006 C 
BRANCH   5   6
ATOM      6  C   UNL     1    -100.687 -46.528 -72.008  1.00  0.00     0.053 C 
BRANCH   6   7
ATOM      7  C   UNL     1    -102.052 -46.969 -71.584  1.00  0.00     0.041 C 
ATOM      8  O   UNL     1    -102.645 -46.377 -70.644  1.00  0.00    -0.550 OA
ATOM      9  O   UNL     1    -102.690 -48.001 -72.260  1.00  0.00    -0.550 OA
ENDBRANCH   6   7
ENDBRANCH   5   6
ENDBRANCH   4   5
ENDBRANCH   3   4
ENDBRANCH   2   3
ENDBRANCH   1   2
BRANCH   1  10
ATOM     10  C   UNL     1     -94.265 -48.001 -71.560  1.00  0.00     0.000 C 
BRANCH  10  11
ATOM     11  C   UNL     1     -93.647 -46.593 -71.484  1.00  0.00    -0.000 C 
BRANCH  11  12
ATOM     12  C   UNL     1     -93.337 -46.088 -70.060  1.00  0.00    -0.000 C 
BRANCH  12  13
ATOM     13  C   UNL     1     -93.973 -46.907 -68.923  1.00  0.00    -0.000 C 
BRANCH  13  14
ATOM     14  C   UNL     1     -94.967 -46.091 -68.084  1.00  0.00    -0.000 C 
BRANCH  14  15
ATOM     15  C   UNL     1     -96.031 -45.437 -68.977  1.00  0.00    -0.000 C 
BRANCH  15  16
ATOM     16  C   UNL     1     -97.403 -46.120 -68.859  1.00  0.00    -0.003 C 
ATOM     17  C   UNL     1     -98.560 -45.186 -69.215  1.00  0.00     0.004 C 
ENDBRANCH  15  16
ENDBRANCH  14  15
ENDBRANCH  13  14
ENDBRANCH  12  13
ENDBRANCH  11  12
ENDBRANCH  10  11
ENDBRANCH   1  10
TORSDOF 13
ENDMDL
