MODEL 1
REMARK VINA RESULT:    -4.497      0.000      0.000
REMARK INTER + INTRA:          -9.245
REMARK INTER:                  -6.863
REMARK INTRA:                  -2.382
REMARK UNBOUND:                -2.382
REMARK SMILES CC(=O)CCC=C(C)CCC=C(C)CCC=C(C)C
REMARK SMILES IDX 10 1 11 2 12 3 13 4 14 5 15 6 16 7 18 8 17 9 19 10 9 11 7 12
REMARK SMILES IDX 6 13 8 14 5 15 4 16 2 17 3 18 1 19
REMARK H PARENT
REMARK Flexibility Score: inf
ROOT
ATOM      1  C   UNL     1     130.376 138.141 117.158  1.00  0.00     0.032 C 
ENDROOT
BRANCH   1   2
ATOM      2  C   UNL     1     129.497 137.524 116.099  1.00  0.00    -0.028 C 
ATOM      3  C   UNL     1     129.830 137.409 114.791  1.00  0.00    -0.077 C 
ATOM      4  C   UNL     1     131.164 137.875 114.260  1.00  0.00     0.039 C 
BRANCH   3   5
ATOM      5  C   UNL     1     128.848 136.765 113.838  1.00  0.00     0.034 C 
BRANCH   5   6
ATOM      6  C   UNL     1     127.417 137.211 114.152  1.00  0.00     0.032 C 
BRANCH   6   7
ATOM      7  C   UNL     1     127.087 138.498 113.437  1.00  0.00    -0.028 C 
ATOM      8  C   UNL     1     126.483 139.705 115.549  1.00  0.00     0.039 C 
ATOM      9  C   UNL     1     126.645 139.620 114.049  1.00  0.00    -0.080 C 
ATOM     10  C   UNL     1     126.322 140.821 113.198  1.00  0.00     0.039 C 
ENDBRANCH   6   7
ENDBRANCH   5   6
ENDBRANCH   3   5
ENDBRANCH   1   2
BRANCH   1  11
ATOM     11  C   UNL     1     130.071 139.634 117.329  1.00  0.00     0.034 C 
BRANCH  11  12
ATOM     12  C   UNL     1     131.115 140.478 116.623  1.00  0.00    -0.077 C 
ATOM     13  C   UNL     1     130.804 141.381 115.665  1.00  0.00    -0.028 C 
ATOM     14  C   UNL     1     132.567 140.268 116.963  1.00  0.00     0.039 C 
BRANCH  13  15
ATOM     15  C   UNL     1     129.404 141.726 115.224  1.00  0.00     0.035 C 
BRANCH  15  16
ATOM     16  C   UNL     1     129.323 143.183 114.755  1.00  0.00     0.079 C 
BRANCH  16  17
ATOM     17  C   UNL     1     128.352 143.961 115.603  1.00  0.00     0.130 C 
ATOM     18  O   UNL     1     128.698 145.026 116.089  1.00  0.00    -0.300 OA
ATOM     19  C   UNL     1     126.962 143.459 115.857  1.00  0.00     0.087 C 
ENDBRANCH  16  17
ENDBRANCH  15  16
ENDBRANCH  13  15
ENDBRANCH  11  12
ENDBRANCH   1  11
TORSDOF 9
ENDMDL
MODEL 2
REMARK VINA RESULT:    -4.317      1.354      2.405
REMARK INTER + INTRA:          -8.970
REMARK INTER:                  -7.185
REMARK INTRA:                  -1.785
REMARK UNBOUND:                -2.382
REMARK SMILES CC(=O)CCC=C(C)CCC=C(C)CCC=C(C)C
REMARK SMILES IDX 10 1 11 2 12 3 13 4 14 5 15 6 16 7 18 8 17 9 19 10 9 11 7 12
REMARK SMILES IDX 6 13 8 14 5 15 4 16 2 17 3 18 1 19
REMARK H PARENT
REMARK Flexibility Score: inf
ROOT
ATOM      1  C   UNL     1     132.780 140.123 116.563  1.00  0.00     0.032 C 
ENDROOT
BRANCH   1   2
ATOM      2  C   UNL     1     132.206 139.320 115.422  1.00  0.00    -0.028 C 
ATOM      3  C   UNL     1     131.150 138.479 115.526  1.00  0.00    -0.077 C 
ATOM      4  C   UNL     1     130.407 138.280 116.825  1.00  0.00     0.039 C 
BRANCH   3   5
ATOM      5  C   UNL     1     130.679 137.738 114.294  1.00  0.00     0.034 C 
BRANCH   5   6
ATOM      6  C   UNL     1     129.510 136.810 114.635  1.00  0.00     0.032 C 
BRANCH   6   7
ATOM      7  C   UNL     1     128.617 136.608 113.436  1.00  0.00    -0.028 C 
ATOM      8  C   UNL     1     127.066 138.470 114.076  1.00  0.00     0.039 C 
ATOM      9  C   UNL     1     127.503 137.331 113.183  1.00  0.00    -0.080 C 
ATOM     10  C   UNL     1     126.688 136.991 111.962  1.00  0.00     0.039 C 
ENDBRANCH   6   7
ENDBRANCH   5   6
ENDBRANCH   3   5
ENDBRANCH   1   2
BRANCH   1  11
ATOM     11  C   UNL     1     132.342 141.590 116.483  1.00  0.00     0.034 C 
BRANCH  11  12
ATOM     12  C   UNL     1     131.214 141.866 117.458  1.00  0.00    -0.077 C 
ATOM     13  C   UNL     1     129.924 142.001 117.072  1.00  0.00    -0.028 C 
ATOM     14  C   UNL     1     131.546 142.053 118.916  1.00  0.00     0.039 C 
BRANCH  13  15
ATOM     15  C   UNL     1     129.422 141.824 115.661  1.00  0.00     0.035 C 
BRANCH  15  16
ATOM     16  C   UNL     1     129.464 143.152 114.898  1.00  0.00     0.079 C 
BRANCH  16  17
ATOM     17  C   UNL     1     128.630 144.193 115.598  1.00  0.00     0.130 C 
ATOM     18  O   UNL     1     127.416 144.067 115.632  1.00  0.00    -0.300 OA
ATOM     19  C   UNL     1     129.260 145.381 116.262  1.00  0.00     0.087 C 
ENDBRANCH  16  17
ENDBRANCH  15  16
ENDBRANCH  13  15
ENDBRANCH  11  12
ENDBRANCH   1  11
TORSDOF 9
ENDMDL
MODEL 3
REMARK VINA RESULT:    -4.310      1.485      4.453
REMARK INTER + INTRA:          -8.960
REMARK INTER:                  -6.473
REMARK INTRA:                  -2.487
REMARK UNBOUND:                -2.382
REMARK SMILES CC(=O)CCC=C(C)CCC=C(C)CCC=C(C)C
REMARK SMILES IDX 10 1 11 2 12 3 13 4 14 5 15 6 16 7 18 8 17 9 19 10 9 11 7 12
REMARK SMILES IDX 6 13 8 14 5 15 4 16 2 17 3 18 1 19
REMARK H PARENT
REMARK Flexibility Score: inf
ROOT
ATOM      1  C   UNL     1     129.283 136.660 114.269  1.00  0.00     0.032 C 
ENDROOT
BRANCH   1   2
ATOM      2  C   UNL     1     130.320 137.755 114.242  1.00  0.00    -0.028 C 
ATOM      3  C   UNL     1     130.752 138.434 115.331  1.00  0.00    -0.077 C 
ATOM      4  C   UNL     1     130.244 138.131 116.720  1.00  0.00     0.039 C 
BRANCH   3   5
ATOM      5  C   UNL     1     131.801 139.510 115.155  1.00  0.00     0.034 C 
BRANCH   5   6
ATOM      6  C   UNL     1     132.057 140.237 116.479  1.00  0.00     0.032 C 
BRANCH   6   7
ATOM      7  C   UNL     1     131.861 141.724 116.321  1.00  0.00    -0.028 C 
ATOM      8  C   UNL     1     130.146 141.855 118.143  1.00  0.00     0.039 C 
ATOM      9  C   UNL     1     130.989 142.462 117.046  1.00  0.00    -0.080 C 
ATOM     10  C   UNL     1     130.877 143.935 116.751  1.00  0.00     0.039 C 
ENDBRANCH   6   7
ENDBRANCH   5   6
ENDBRANCH   3   5
ENDBRANCH   1   2
BRANCH   1  11
ATOM     11  C   UNL     1     127.945 137.151 113.704  1.00  0.00     0.034 C 
BRANCH  11  12
ATOM     12  C   UNL     1     127.027 137.607 114.822  1.00  0.00    -0.077 C 
ATOM     13  C   UNL     1     126.760 138.910 115.069  1.00  0.00    -0.028 C 
ATOM     14  C   UNL     1     126.425 136.569 115.733  1.00  0.00     0.039 C 
BRANCH  13  15
ATOM     15  C   UNL     1     127.263 140.066 114.242  1.00  0.00     0.035 C 
BRANCH  15  16
ATOM     16  C   UNL     1     128.247 140.923 115.046  1.00  0.00     0.079 C 
BRANCH  16  17
ATOM     17  C   UNL     1     127.818 142.367 115.044  1.00  0.00     0.130 C 
ATOM     18  O   UNL     1     128.477 143.188 114.425  1.00  0.00    -0.300 OA
ATOM     19  C   UNL     1     126.593 142.818 115.781  1.00  0.00     0.087 C 
ENDBRANCH  16  17
ENDBRANCH  15  16
ENDBRANCH  13  15
ENDBRANCH  11  12
ENDBRANCH   1  11
TORSDOF 9
ENDMDL
MODEL 4
REMARK VINA RESULT:    -4.279      2.010      5.725
REMARK INTER + INTRA:          -8.912
REMARK INTER:                  -6.826
REMARK INTRA:                  -2.086
REMARK UNBOUND:                -2.382
REMARK SMILES CC(=O)CCC=C(C)CCC=C(C)CCC=C(C)C
REMARK SMILES IDX 10 1 11 2 12 3 13 4 14 5 15 6 16 7 18 8 17 9 19 10 9 11 7 12
REMARK SMILES IDX 6 13 8 14 5 15 4 16 2 17 3 18 1 19
REMARK H PARENT
REMARK Flexibility Score: inf
ROOT
ATOM      1  C   UNL     1     126.155 139.207 114.107  1.00  0.00     0.032 C 
ENDROOT
BRANCH   1   2
ATOM      2  C   UNL     1     127.096 140.377 113.964  1.00  0.00    -0.028 C 
ATOM      3  C   UNL     1     127.049 141.500 114.717  1.00  0.00    -0.077 C 
ATOM      4  C   UNL     1     126.039 141.682 115.825  1.00  0.00     0.039 C 
BRANCH   3   5
ATOM      5  C   UNL     1     128.061 142.596 114.464  1.00  0.00     0.034 C 
BRANCH   5   6
ATOM      6  C   UNL     1     127.832 143.774 115.416  1.00  0.00     0.032 C 
BRANCH   6   7
ATOM      7  C   UNL     1     129.132 144.224 116.036  1.00  0.00    -0.028 C 
ATOM      8  C   UNL     1     128.889 142.721 118.026  1.00  0.00     0.039 C 
ATOM      9  C   UNL     1     129.610 143.776 117.219  1.00  0.00    -0.080 C 
ATOM     10  C   UNL     1     130.908 144.344 117.730  1.00  0.00     0.039 C 
ENDBRANCH   6   7
ENDBRANCH   5   6
ENDBRANCH   3   5
ENDBRANCH   1   2
BRANCH   1  11
ATOM     11  C   UNL     1     126.884 137.975 114.656  1.00  0.00     0.034 C 
BRANCH  11  12
ATOM     12  C   UNL     1     127.638 137.261 113.550  1.00  0.00    -0.077 C 
ATOM     13  C   UNL     1     128.945 136.927 113.649  1.00  0.00    -0.028 C 
ATOM     14  C   UNL     1     126.917 136.954 112.263  1.00  0.00     0.039 C 
BRANCH  13  15
ATOM     15  C   UNL     1     129.802 137.144 114.870  1.00  0.00     0.035 C 
BRANCH  15  16
ATOM     16  C   UNL     1     130.801 138.283 114.640  1.00  0.00     0.079 C 
BRANCH  16  17
ATOM     17  C   UNL     1     130.438 139.484 115.474  1.00  0.00     0.130 C 
ATOM     18  O   UNL     1     129.558 139.387 116.316  1.00  0.00    -0.300 OA
ATOM     19  C   UNL     1     131.140 140.797 115.299  1.00  0.00     0.087 C 
ENDBRANCH  16  17
ENDBRANCH  15  16
ENDBRANCH  13  15
ENDBRANCH  11  12
ENDBRANCH   1  11
TORSDOF 9
ENDMDL
MODEL 5
REMARK VINA RESULT:    -4.274      1.647      5.207
REMARK INTER + INTRA:          -8.905
REMARK INTER:                  -6.793
REMARK INTRA:                  -2.112
REMARK UNBOUND:                -2.382
REMARK SMILES CC(=O)CCC=C(C)CCC=C(C)CCC=C(C)C
REMARK SMILES IDX 10 1 11 2 12 3 13 4 14 5 15 6 16 7 18 8 17 9 19 10 9 11 7 12
REMARK SMILES IDX 6 13 8 14 5 15 4 16 2 17 3 18 1 19
REMARK H PARENT
REMARK Flexibility Score: inf
ROOT
ATOM      1  C   UNL     1     129.186 137.637 116.291  1.00  0.00     0.032 C 
ENDROOT
BRANCH   1   2
ATOM      2  C   UNL     1     129.649 139.065 116.143  1.00  0.00    -0.028 C 
ATOM      3  C   UNL     1     130.705 139.459 115.392  1.00  0.00    -0.077 C 
ATOM      4  C   UNL     1     131.524 138.481 114.584  1.00  0.00     0.039 C 
BRANCH   3   5
ATOM      5  C   UNL     1     131.055 140.929 115.334  1.00  0.00     0.034 C 
BRANCH   5   6
ATOM      6  C   UNL     1     131.367 141.466 116.735  1.00  0.00     0.032 C 
BRANCH   6   7
ATOM      7  C   UNL     1     132.766 142.028 116.795  1.00  0.00    -0.028 C 
ATOM      8  C   UNL     1     133.775 139.868 117.567  1.00  0.00     0.039 C 
ATOM      9  C   UNL     1     133.855 141.329 117.188  1.00  0.00    -0.080 C 
ATOM     10  C   UNL     1     135.184 142.036 117.231  1.00  0.00     0.039 C 
ENDBRANCH   6   7
ENDBRANCH   5   6
ENDBRANCH   3   5
ENDBRANCH   1   2
BRANCH   1  11
ATOM     11  C   UNL     1     127.768 137.456 115.735  1.00  0.00     0.034 C 
BRANCH  11  12
ATOM     12  C   UNL     1     127.777 137.500 114.219  1.00  0.00    -0.077 C 
ATOM     13  C   UNL     1     127.058 138.397 113.506  1.00  0.00    -0.028 C 
ATOM     14  C   UNL     1     128.579 136.468 113.469  1.00  0.00     0.039 C 
BRANCH  13  15
ATOM     15  C   UNL     1     126.224 139.504 114.100  1.00  0.00     0.035 C 
BRANCH  15  16
ATOM     16  C   UNL     1     126.754 140.876 113.669  1.00  0.00     0.079 C 
BRANCH  16  17
ATOM     17  C   UNL     1     127.253 141.650 114.861  1.00  0.00     0.130 C 
ATOM     18  O   UNL     1     126.935 141.295 115.985  1.00  0.00    -0.300 OA
ATOM     19  C   UNL     1     128.142 142.846 114.697  1.00  0.00     0.087 C 
ENDBRANCH  16  17
ENDBRANCH  15  16
ENDBRANCH  13  15
ENDBRANCH  11  12
ENDBRANCH   1  11
TORSDOF 9
ENDMDL
MODEL 6
REMARK VINA RESULT:    -4.241      1.175      3.834
REMARK INTER + INTRA:          -8.854
REMARK INTER:                  -6.601
REMARK INTRA:                  -2.253
REMARK UNBOUND:                -2.382
REMARK SMILES CC(=O)CCC=C(C)CCC=C(C)CCC=C(C)C
REMARK SMILES IDX 10 1 11 2 12 3 13 4 14 5 15 6 16 7 18 8 17 9 19 10 9 11 7 12
REMARK SMILES IDX 6 13 8 14 5 15 4 16 2 17 3 18 1 19
REMARK H PARENT
REMARK Flexibility Score: inf
ROOT
ATOM      1  C   UNL     1     126.194 139.296 113.637  1.00  0.00     0.032 C 
ENDROOT
BRANCH   1   2
ATOM      2  C   UNL     1     127.388 138.376 113.559  1.00  0.00    -0.028 C 
ATOM      3  C   UNL     1     127.505 137.207 114.232  1.00  0.00    -0.077 C 
ATOM      4  C   UNL     1     126.408 136.684 115.128  1.00  0.00     0.039 C 
BRANCH   3   5
ATOM      5  C   UNL     1     128.761 136.383 114.057  1.00  0.00     0.034 C 
BRANCH   5   6
ATOM      6  C   UNL     1     130.000 137.195 114.449  1.00  0.00     0.032 C 
BRANCH   6   7
ATOM      7  C   UNL     1     129.795 137.876 115.780  1.00  0.00    -0.028 C 
ATOM      8  C   UNL     1     131.092 139.915 115.116  1.00  0.00     0.039 C 
ATOM      9  C   UNL     1     130.299 139.089 116.102  1.00  0.00    -0.080 C 
ATOM     10  C   UNL     1     130.041 139.628 117.485  1.00  0.00     0.039 C 
ENDBRANCH   6   7
ENDBRANCH   5   6
ENDBRANCH   3   5
ENDBRANCH   1   2
BRANCH   1  11
ATOM     11  C   UNL     1     126.631 140.755 113.808  1.00  0.00     0.034 C 
BRANCH  11  12
ATOM     12  C   UNL     1     126.990 141.041 115.254  1.00  0.00    -0.077 C 
ATOM     13  C   UNL     1     127.878 141.996 115.616  1.00  0.00    -0.028 C 
ATOM     14  C   UNL     1     126.374 140.192 116.335  1.00  0.00     0.039 C 
BRANCH  13  15
ATOM     15  C   UNL     1     128.565 142.942 114.664  1.00  0.00     0.035 C 
BRANCH  15  16
ATOM     16  C   UNL     1     129.917 143.394 115.227  1.00  0.00     0.079 C 
BRANCH  16  17
ATOM     17  C   UNL     1     129.721 144.364 116.363  1.00  0.00     0.130 C 
ATOM     18  O   UNL     1     129.170 145.433 116.152  1.00  0.00    -0.300 OA
ATOM     19  C   UNL     1     130.182 144.041 117.752  1.00  0.00     0.087 C 
ENDBRANCH  16  17
ENDBRANCH  15  16
ENDBRANCH  13  15
ENDBRANCH  11  12
ENDBRANCH   1  11
TORSDOF 9
ENDMDL
MODEL 7
REMARK VINA RESULT:    -4.238     12.417     15.748
REMARK INTER + INTRA:          -8.849
REMARK INTER:                  -5.873
REMARK INTRA:                  -2.976
REMARK UNBOUND:                -2.382
REMARK SMILES CC(=O)CCC=C(C)CCC=C(C)CCC=C(C)C
REMARK SMILES IDX 10 1 11 2 12 3 13 4 14 5 15 6 16 7 18 8 17 9 19 10 9 11 7 12
REMARK SMILES IDX 6 13 8 14 5 15 4 16 2 17 3 18 1 19
REMARK H PARENT
REMARK Flexibility Score: inf
ROOT
ATOM      1  C   UNL     1     143.599 135.672 121.488  1.00  0.00     0.032 C 
ENDROOT
BRANCH   1   2
ATOM      2  C   UNL     1     142.654 136.677 122.098  1.00  0.00    -0.028 C 
ATOM      3  C   UNL     1     141.492 137.083 121.534  1.00  0.00    -0.077 C 
ATOM      4  C   UNL     1     141.003 136.529 120.217  1.00  0.00     0.039 C 
BRANCH   3   5
ATOM      5  C   UNL     1     140.640 138.099 122.261  1.00  0.00     0.034 C 
BRANCH   5   6
ATOM      6  C   UNL     1     141.200 138.373 123.660  1.00  0.00     0.032 C 
BRANCH   6   7
ATOM      7  C   UNL     1     140.577 137.450 124.678  1.00  0.00    -0.028 C 
ATOM      8  C   UNL     1     142.749 137.014 125.849  1.00  0.00     0.039 C 
ATOM      9  C   UNL     1     141.264 136.814 125.654  1.00  0.00    -0.080 C 
ATOM     10  C   UNL     1     140.510 135.892 126.577  1.00  0.00     0.039 C 
ENDBRANCH   6   7
ENDBRANCH   5   6
ENDBRANCH   3   5
ENDBRANCH   1   2
BRANCH   1  11
ATOM     11  C   UNL     1     143.095 134.240 121.702  1.00  0.00     0.034 C 
BRANCH  11  12
ATOM     12  C   UNL     1     142.803 133.987 123.169  1.00  0.00    -0.077 C 
ATOM     13  C   UNL     1     141.554 133.776 123.644  1.00  0.00    -0.028 C 
ATOM     14  C   UNL     1     143.945 134.023 124.151  1.00  0.00     0.039 C 
BRANCH  13  15
ATOM     15  C   UNL     1     140.311 133.689 122.795  1.00  0.00     0.035 C 
BRANCH  15  16
ATOM     16  C   UNL     1     139.141 134.419 123.465  1.00  0.00     0.079 C 
BRANCH  16  17
ATOM     17  C   UNL     1     138.289 135.114 122.436  1.00  0.00     0.130 C 
ATOM     18  O   UNL     1     138.281 134.703 121.286  1.00  0.00    -0.300 OA
ATOM     19  C   UNL     1     137.442 136.298 122.795  1.00  0.00     0.087 C 
ENDBRANCH  16  17
ENDBRANCH  15  16
ENDBRANCH  13  15
ENDBRANCH  11  12
ENDBRANCH   1  11
TORSDOF 9
ENDMDL
MODEL 8
REMARK VINA RESULT:    -4.231      1.516      5.285
REMARK INTER + INTRA:          -8.839
REMARK INTER:                  -7.312
REMARK INTRA:                  -1.527
REMARK UNBOUND:                -2.382
REMARK SMILES CC(=O)CCC=C(C)CCC=C(C)CCC=C(C)C
REMARK SMILES IDX 10 1 11 2 12 3 13 4 14 5 15 6 16 7 18 8 17 9 19 10 9 11 7 12
REMARK SMILES IDX 6 13 8 14 5 15 4 16 2 17 3 18 1 19
REMARK H PARENT
REMARK Flexibility Score: inf
ROOT
ATOM      1  C   UNL     1     128.560 136.290 114.272  1.00  0.00     0.032 C 
ENDROOT
BRANCH   1   2
ATOM      2  C   UNL     1     129.654 137.315 114.102  1.00  0.00    -0.028 C 
ATOM      3  C   UNL     1     130.288 137.941 115.121  1.00  0.00    -0.077 C 
ATOM      4  C   UNL     1     129.973 137.642 116.567  1.00  0.00     0.039 C 
BRANCH   3   5
ATOM      5  C   UNL     1     131.371 138.948 114.802  1.00  0.00     0.034 C 
BRANCH   5   6
ATOM      6  C   UNL     1     131.959 139.536 116.089  1.00  0.00     0.032 C 
BRANCH   6   7
ATOM      7  C   UNL     1     133.449 139.309 116.152  1.00  0.00    -0.028 C 
ATOM      8  C   UNL     1     133.903 141.519 117.242  1.00  0.00     0.039 C 
ATOM      9  C   UNL     1     134.338 140.199 116.646  1.00  0.00    -0.080 C 
ATOM     10  C   UNL     1     135.802 139.847 116.611  1.00  0.00     0.039 C 
ENDBRANCH   6   7
ENDBRANCH   5   6
ENDBRANCH   3   5
ENDBRANCH   1   2
BRANCH   1  11
ATOM     11  C   UNL     1     127.201 136.964 114.495  1.00  0.00     0.034 C 
BRANCH  11  12
ATOM     12  C   UNL     1     126.849 137.861 113.324  1.00  0.00    -0.077 C 
ATOM     13  C   UNL     1     126.610 139.186 113.459  1.00  0.00    -0.028 C 
ATOM     14  C   UNL     1     126.706 137.245 111.957  1.00  0.00     0.039 C 
BRANCH  13  15
ATOM     15  C   UNL     1     126.730 139.959 114.748  1.00  0.00     0.035 C 
BRANCH  15  16
ATOM     16  C   UNL     1     128.010 140.802 114.760  1.00  0.00     0.079 C 
BRANCH  16  17
ATOM     17  C   UNL     1     127.685 142.257 114.977  1.00  0.00     0.130 C 
ATOM     18  O   UNL     1     128.405 143.113 114.487  1.00  0.00    -0.300 OA
ATOM     19  C   UNL     1     126.489 142.678 115.778  1.00  0.00     0.087 C 
ENDBRANCH  16  17
ENDBRANCH  15  16
ENDBRANCH  13  15
ENDBRANCH  11  12
ENDBRANCH   1  11
TORSDOF 9
ENDMDL
MODEL 9
REMARK VINA RESULT:    -4.179     11.758     15.361
REMARK INTER + INTRA:          -8.760
REMARK INTER:                  -6.399
REMARK INTRA:                  -2.361
REMARK UNBOUND:                -2.382
REMARK SMILES CC(=O)CCC=C(C)CCC=C(C)CCC=C(C)C
REMARK SMILES IDX 10 1 11 2 12 3 13 4 14 5 15 6 16 7 18 8 17 9 19 10 9 11 7 12
REMARK SMILES IDX 6 13 8 14 5 15 4 16 2 17 3 18 1 19
REMARK H PARENT
REMARK Flexibility Score: inf
ROOT
ATOM      1  C   UNL     1     138.357 135.873 123.671  1.00  0.00     0.032 C 
ENDROOT
BRANCH   1   2
ATOM      2  C   UNL     1     139.662 135.174 123.957  1.00  0.00    -0.028 C 
ATOM      3  C   UNL     1     139.967 133.917 123.556  1.00  0.00    -0.077 C 
ATOM      4  C   UNL     1     139.013 133.083 122.735  1.00  0.00     0.039 C 
BRANCH   3   5
ATOM      5  C   UNL     1     141.319 133.341 123.914  1.00  0.00     0.034 C 
BRANCH   5   6
ATOM      6  C   UNL     1     142.377 134.447 123.985  1.00  0.00     0.032 C 
BRANCH   6   7
ATOM      7  C   UNL     1     143.764 133.873 123.839  1.00  0.00    -0.028 C 
ATOM      8  C   UNL     1     143.791 134.147 121.349  1.00  0.00     0.039 C 
ATOM      9  C   UNL     1     144.404 133.711 122.659  1.00  0.00    -0.080 C 
ATOM     10  C   UNL     1     145.777 133.090 122.667  1.00  0.00     0.039 C 
ENDBRANCH   6   7
ENDBRANCH   5   6
ENDBRANCH   3   5
ENDBRANCH   1   2
BRANCH   1  11
ATOM     11  C   UNL     1     138.531 136.948 122.591  1.00  0.00     0.034 C 
BRANCH  11  12
ATOM     12  C   UNL     1     138.250 136.376 121.215  1.00  0.00    -0.077 C 
ATOM     13  C   UNL     1     139.229 136.063 120.336  1.00  0.00    -0.028 C 
ATOM     14  C   UNL     1     136.818 136.197 120.783  1.00  0.00     0.039 C 
BRANCH  13  15
ATOM     15  C   UNL     1     140.707 136.162 120.618  1.00  0.00     0.035 C 
BRANCH  15  16
ATOM     16  C   UNL     1     141.284 137.463 120.049  1.00  0.00     0.079 C 
BRANCH  16  17
ATOM     17  C   UNL     1     141.758 138.364 121.159  1.00  0.00     0.130 C 
ATOM     18  O   UNL     1     141.771 139.573 120.987  1.00  0.00    -0.300 OA
ATOM     19  C   UNL     1     142.207 137.809 122.477  1.00  0.00     0.087 C 
ENDBRANCH  16  17
ENDBRANCH  15  16
ENDBRANCH  13  15
ENDBRANCH  11  12
ENDBRANCH   1  11
TORSDOF 9
ENDMDL
