MODEL 1
REMARK VINA RESULT:    -3.366      0.000      0.000
REMARK INTER + INTRA:          -7.438
REMARK INTER:                  -6.514
REMARK INTRA:                  -0.924
REMARK UNBOUND:                -0.924
REMARK SMILES CCCCCCCCCCCCCCCCCC(=O)[O-]
REMARK SMILES IDX 10 1 11 2 12 3 13 4 14 5 15 6 16 7 17 8 18 9 19 10 20 11
REMARK SMILES IDX 9 12 8 13 7 14 6 15 5 16 4 17 3 18 2 19 1 20
REMARK H PARENT
REMARK Flexibility Score: inf
ROOT
ATOM      1  C   UNL     1      -4.900  36.462  21.943  1.00  0.00     0.000 C 
ENDROOT
BRANCH   1   2
ATOM      2  C   UNL     1      -5.212  36.395  20.434  1.00  0.00     0.000 C 
BRANCH   2   3
ATOM      3  C   UNL     1      -3.991  36.548  19.502  1.00  0.00     0.000 C 
BRANCH   3   4
ATOM      4  C   UNL     1      -2.780  37.261  20.130  1.00  0.00     0.000 C 
BRANCH   4   5
ATOM      5  C   UNL     1      -2.237  38.399  19.253  1.00  0.00     0.000 C 
BRANCH   5   6
ATOM      6  C   UNL     1      -1.026  37.930  18.433  1.00  0.00     0.000 C 
BRANCH   6   7
ATOM      7  C   UNL     1      -1.386  37.615  16.972  1.00  0.00     0.006 C 
BRANCH   7   8
ATOM      8  C   UNL     1      -2.891  37.728  16.696  1.00  0.00     0.053 C 
BRANCH   8   9
ATOM      9  C   UNL     1      -3.164  37.612  15.230  1.00  0.00     0.041 C 
ATOM     10  O   UNL     1      -2.806  36.584  14.596  1.00  0.00    -0.550 OA
ATOM     11  O   UNL     1      -3.788  38.654  14.556  1.00  0.00    -0.550 OA
ENDBRANCH   8   9
ENDBRANCH   7   8
ENDBRANCH   6   7
ENDBRANCH   5   6
ENDBRANCH   4   5
ENDBRANCH   3   4
ENDBRANCH   2   3
ENDBRANCH   1   2
BRANCH   1  12
ATOM     12  C   UNL     1      -4.789  35.096  22.643  1.00  0.00     0.000 C 
BRANCH  12  13
ATOM     13  C   UNL     1      -5.788  34.938  23.799  1.00  0.00    -0.000 C 
BRANCH  13  14
ATOM     14  C   UNL     1      -6.125  36.302  24.423  1.00  0.00    -0.000 C 
BRANCH  14  15
ATOM     15  C   UNL     1      -5.000  36.837  25.325  1.00  0.00    -0.000 C 
BRANCH  15  16
ATOM     16  C   UNL     1      -4.990  38.372  25.413  1.00  0.00    -0.000 C 
BRANCH  16  17
ATOM     17  C   UNL     1      -5.499  39.046  24.125  1.00  0.00    -0.000 C 
BRANCH  17  18
ATOM     18  C   UNL     1      -5.228  40.559  24.031  1.00  0.00    -0.000 C 
BRANCH  18  19
ATOM     19  C   UNL     1      -5.734  41.176  22.719  1.00  0.00    -0.003 C 
ATOM     20  C   UNL     1      -5.751  40.143  21.595  1.00  0.00     0.004 C 
ENDBRANCH  18  19
ENDBRANCH  17  18
ENDBRANCH  16  17
ENDBRANCH  15  16
ENDBRANCH  14  15
ENDBRANCH  13  14
ENDBRANCH  12  13
ENDBRANCH   1  12
TORSDOF 16
ENDMDL
MODEL 2
REMARK VINA RESULT:    -3.105      2.814      7.397
REMARK INTER + INTRA:          -6.933
REMARK INTER:                  -6.114
REMARK INTRA:                  -0.819
REMARK UNBOUND:                -0.924
REMARK SMILES CCCCCCCCCCCCCCCCCC(=O)[O-]
REMARK SMILES IDX 10 1 11 2 12 3 13 4 14 5 15 6 16 7 17 8 18 9 19 10 20 11
REMARK SMILES IDX 9 12 8 13 7 14 6 15 5 16 4 17 3 18 2 19 1 20
REMARK H PARENT
REMARK Flexibility Score: inf
ROOT
ATOM      1  C   UNL     1      -3.939  35.831  21.004  1.00  0.00     0.000 C 
ENDROOT
BRANCH   1   2
ATOM      2  C   UNL     1      -5.480  35.817  21.049  1.00  0.00     0.000 C 
BRANCH   2   3
ATOM      3  C   UNL     1      -6.101  36.067  22.439  1.00  0.00     0.000 C 
BRANCH   3   4
ATOM      4  C   UNL     1      -5.203  35.683  23.630  1.00  0.00     0.000 C 
BRANCH   4   5
ATOM      5  C   UNL     1      -5.697  36.266  24.962  1.00  0.00     0.000 C 
BRANCH   5   6
ATOM      6  C   UNL     1      -5.280  37.737  25.106  1.00  0.00     0.000 C 
BRANCH   6   7
ATOM      7  C   UNL     1      -5.679  38.588  23.890  1.00  0.00     0.006 C 
BRANCH   7   8
ATOM      8  C   UNL     1      -5.293  40.064  24.050  1.00  0.00     0.053 C 
BRANCH   8   9
ATOM      9  C   UNL     1      -5.552  40.813  22.781  1.00  0.00     0.041 C 
ATOM     10  O   UNL     1      -5.738  42.059  22.804  1.00  0.00    -0.550 OA
ATOM     11  O   UNL     1      -5.617  40.130  21.573  1.00  0.00    -0.550 OA
ENDBRANCH   8   9
ENDBRANCH   7   8
ENDBRANCH   6   7
ENDBRANCH   5   6
ENDBRANCH   4   5
ENDBRANCH   3   4
ENDBRANCH   2   3
ENDBRANCH   1   2
BRANCH   1  12
ATOM     12  C   UNL     1      -3.322  37.051  20.296  1.00  0.00     0.000 C 
BRANCH  12  13
ATOM     13  C   UNL     1      -4.249  37.648  19.227  1.00  0.00    -0.000 C 
BRANCH  13  14
ATOM     14  C   UNL     1      -3.437  38.201  18.045  1.00  0.00    -0.000 C 
BRANCH  14  15
ATOM     15  C   UNL     1      -1.934  37.894  18.160  1.00  0.00    -0.000 C 
BRANCH  15  16
ATOM     16  C   UNL     1      -1.300  37.521  16.810  1.00  0.00    -0.000 C 
BRANCH  16  17
ATOM     17  C   UNL     1      -1.862  36.210  16.229  1.00  0.00    -0.000 C 
BRANCH  17  18
ATOM     18  C   UNL     1      -3.023  36.383  15.233  1.00  0.00    -0.000 C 
BRANCH  18  19
ATOM     19  C   UNL     1      -2.792  37.532  14.240  1.00  0.00    -0.003 C 
ATOM     20  C   UNL     1      -3.899  38.579  14.343  1.00  0.00     0.004 C 
ENDBRANCH  18  19
ENDBRANCH  17  18
ENDBRANCH  16  17
ENDBRANCH  15  16
ENDBRANCH  14  15
ENDBRANCH  13  14
ENDBRANCH  12  13
ENDBRANCH   1  12
TORSDOF 16
ENDMDL
MODEL 3
REMARK VINA RESULT:    -2.684      0.929      1.316
REMARK INTER + INTRA:          -6.119
REMARK INTER:                  -4.717
REMARK INTRA:                  -1.402
REMARK UNBOUND:                -0.924
REMARK SMILES CCCCCCCCCCCCCCCCCC(=O)[O-]
REMARK SMILES IDX 10 1 11 2 12 3 13 4 14 5 15 6 16 7 17 8 18 9 19 10 20 11
REMARK SMILES IDX 9 12 8 13 7 14 6 15 5 16 4 17 3 18 2 19 1 20
REMARK H PARENT
REMARK Flexibility Score: inf
ROOT
ATOM      1  C   UNL     1      -4.457  35.809  22.099  1.00  0.00     0.000 C 
ENDROOT
BRANCH   1   2
ATOM      2  C   UNL     1      -5.564  36.503  21.280  1.00  0.00     0.000 C 
BRANCH   2   3
ATOM      3  C   UNL     1      -5.299  36.600  19.763  1.00  0.00     0.000 C 
BRANCH   3   4
ATOM      4  C   UNL     1      -4.513  37.846  19.319  1.00  0.00     0.000 C 
BRANCH   4   5
ATOM      5  C   UNL     1      -2.992  37.631  19.338  1.00  0.00     0.000 C 
BRANCH   5   6
ATOM      6  C   UNL     1      -2.355  38.101  18.023  1.00  0.00     0.000 C 
BRANCH   6   7
ATOM      7  C   UNL     1      -1.754  36.945  17.207  1.00  0.00     0.006 C 
BRANCH   7   8
ATOM      8  C   UNL     1      -2.716  36.416  16.135  1.00  0.00     0.053 C 
BRANCH   8   9
ATOM      9  C   UNL     1      -2.720  37.322  14.944  1.00  0.00     0.041 C 
ATOM     10  O   UNL     1      -3.525  38.289  14.884  1.00  0.00    -0.550 OA
ATOM     11  O   UNL     1      -1.854  37.080  13.885  1.00  0.00    -0.550 OA
ENDBRANCH   8   9
ENDBRANCH   7   8
ENDBRANCH   6   7
ENDBRANCH   5   6
ENDBRANCH   4   5
ENDBRANCH   3   4
ENDBRANCH   2   3
ENDBRANCH   1   2
BRANCH   1  12
ATOM     12  C   UNL     1      -4.952  35.034  23.332  1.00  0.00     0.000 C 
BRANCH  12  13
ATOM     13  C   UNL     1      -6.087  35.758  24.073  1.00  0.00    -0.000 C 
BRANCH  13  14
ATOM     14  C   UNL     1      -5.574  36.395  25.374  1.00  0.00    -0.000 C 
BRANCH  14  15
ATOM     15  C   UNL     1      -5.017  37.813  25.163  1.00  0.00    -0.000 C 
BRANCH  15  16
ATOM     16  C   UNL     1      -5.941  38.690  24.303  1.00  0.00    -0.000 C 
BRANCH  16  17
ATOM     17  C   UNL     1      -5.420  40.131  24.146  1.00  0.00    -0.000 C 
BRANCH  17  18
ATOM     18  C   UNL     1      -4.909  40.490  22.739  1.00  0.00    -0.000 C 
BRANCH  18  19
ATOM     19  C   UNL     1      -5.939  41.269  21.908  1.00  0.00    -0.003 C 
ATOM     20  C   UNL     1      -6.124  40.639  20.530  1.00  0.00     0.004 C 
ENDBRANCH  18  19
ENDBRANCH  17  18
ENDBRANCH  16  17
ENDBRANCH  15  16
ENDBRANCH  14  15
ENDBRANCH  13  14
ENDBRANCH  12  13
ENDBRANCH   1  12
TORSDOF 16
ENDMDL
MODEL 4
REMARK VINA RESULT:    -2.549      0.953      3.054
REMARK INTER + INTRA:          -5.857
REMARK INTER:                  -4.355
REMARK INTRA:                  -1.502
REMARK UNBOUND:                -0.924
REMARK SMILES CCCCCCCCCCCCCCCCCC(=O)[O-]
REMARK SMILES IDX 10 1 11 2 12 3 13 4 14 5 15 6 16 7 17 8 18 9 19 10 20 11
REMARK SMILES IDX 9 12 8 13 7 14 6 15 5 16 4 17 3 18 2 19 1 20
REMARK H PARENT
REMARK Flexibility Score: inf
ROOT
ATOM      1  C   UNL     1      -5.061  38.782  21.270  1.00  0.00     0.000 C 
ENDROOT
BRANCH   1   2
ATOM      2  C   UNL     1      -5.266  38.274  19.828  1.00  0.00     0.000 C 
BRANCH   2   3
ATOM      3  C   UNL     1      -4.170  37.323  19.304  1.00  0.00     0.000 C 
BRANCH   3   4
ATOM      4  C   UNL     1      -2.734  37.695  19.716  1.00  0.00     0.000 C 
BRANCH   4   5
ATOM      5  C   UNL     1      -1.909  38.268  18.554  1.00  0.00     0.000 C 
BRANCH   5   6
ATOM      6  C   UNL     1      -1.326  37.143  17.687  1.00  0.00     0.000 C 
BRANCH   6   7
ATOM      7  C   UNL     1      -1.803  37.212  16.227  1.00  0.00     0.006 C 
BRANCH   7   8
ATOM      8  C   UNL     1      -2.928  38.234  16.020  1.00  0.00     0.053 C 
BRANCH   8   9
ATOM      9  C   UNL     1      -3.518  38.093  14.652  1.00  0.00     0.041 C 
ATOM     10  O   UNL     1      -4.314  38.963  14.210  1.00  0.00    -0.550 OA
ATOM     11  O   UNL     1      -3.211  36.982  13.876  1.00  0.00    -0.550 OA
ENDBRANCH   8   9
ENDBRANCH   7   8
ENDBRANCH   6   7
ENDBRANCH   5   6
ENDBRANCH   4   5
ENDBRANCH   3   4
ENDBRANCH   2   3
ENDBRANCH   1   2
BRANCH   1  12
ATOM     12  C   UNL     1      -5.606  40.195  21.543  1.00  0.00     0.000 C 
BRANCH  12  13
ATOM     13  C   UNL     1      -5.360  40.659  22.986  1.00  0.00    -0.000 C 
BRANCH  13  14
ATOM     14  C   UNL     1      -5.771  39.570  23.990  1.00  0.00    -0.000 C 
BRANCH  14  15
ATOM     15  C   UNL     1      -4.616  39.145  24.912  1.00  0.00    -0.000 C 
BRANCH  15  16
ATOM     16  C   UNL     1      -4.983  37.951  25.809  1.00  0.00    -0.000 C 
BRANCH  16  17
ATOM     17  C   UNL     1      -6.013  37.009  25.158  1.00  0.00    -0.000 C 
BRANCH  17  18
ATOM     18  C   UNL     1      -5.412  35.823  24.382  1.00  0.00    -0.000 C 
BRANCH  18  19
ATOM     19  C   UNL     1      -5.570  35.960  22.861  1.00  0.00    -0.003 C 
ATOM     20  C   UNL     1      -4.449  35.232  22.123  1.00  0.00     0.004 C 
ENDBRANCH  18  19
ENDBRANCH  17  18
ENDBRANCH  16  17
ENDBRANCH  15  16
ENDBRANCH  14  15
ENDBRANCH  13  14
ENDBRANCH  12  13
ENDBRANCH   1  12
TORSDOF 16
ENDMDL
MODEL 5
REMARK VINA RESULT:    -2.478      2.107      3.763
REMARK INTER + INTRA:          -5.720
REMARK INTER:                  -4.096
REMARK INTRA:                  -1.624
REMARK UNBOUND:                -0.924
REMARK SMILES CCCCCCCCCCCCCCCCCC(=O)[O-]
REMARK SMILES IDX 10 1 11 2 12 3 13 4 14 5 15 6 16 7 17 8 18 9 19 10 20 11
REMARK SMILES IDX 9 12 8 13 7 14 6 15 5 16 4 17 3 18 2 19 1 20
REMARK H PARENT
REMARK Flexibility Score: inf
ROOT
ATOM      1  C   UNL     1      -4.683  36.903  20.344  1.00  0.00     0.000 C 
ENDROOT
BRANCH   1   2
ATOM      2  C   UNL     1      -5.693  35.755  20.143  1.00  0.00     0.000 C 
BRANCH   2   3
ATOM      3  C   UNL     1      -5.723  35.145  18.726  1.00  0.00     0.000 C 
BRANCH   3   4
ATOM      4  C   UNL     1      -4.358  35.079  18.018  1.00  0.00     0.000 C 
BRANCH   4   5
ATOM      5  C   UNL     1      -4.045  36.346  17.206  1.00  0.00     0.000 C 
BRANCH   5   6
ATOM      6  C   UNL     1      -2.814  36.135  16.314  1.00  0.00     0.000 C 
BRANCH   6   7
ATOM      7  C   UNL     1      -1.663  37.096  16.653  1.00  0.00     0.006 C 
BRANCH   7   8
ATOM      8  C   UNL     1      -2.049  38.124  17.726  1.00  0.00     0.053 C 
BRANCH   8   9
ATOM      9  C   UNL     1      -1.052  38.115  18.841  1.00  0.00     0.041 C 
ATOM     10  O   UNL     1       0.179  38.216  18.594  1.00  0.00    -0.550 OA
ATOM     11  O   UNL     1      -1.480  37.964  20.154  1.00  0.00    -0.550 OA
ENDBRANCH   8   9
ENDBRANCH   7   8
ENDBRANCH   6   7
ENDBRANCH   5   6
ENDBRANCH   4   5
ENDBRANCH   3   4
ENDBRANCH   2   3
ENDBRANCH   1   2
BRANCH   1  12
ATOM     12  C   UNL     1      -5.292  38.316  20.305  1.00  0.00     0.000 C 
BRANCH  12  13
ATOM     13  C   UNL     1      -4.646  39.269  21.321  1.00  0.00    -0.000 C 
BRANCH  13  14
ATOM     14  C   UNL     1      -5.709  40.150  21.999  1.00  0.00    -0.000 C 
BRANCH  14  15
ATOM     15  C   UNL     1      -5.470  40.312  23.510  1.00  0.00    -0.000 C 
BRANCH  15  16
ATOM     16  C   UNL     1      -4.725  39.116  24.124  1.00  0.00    -0.000 C 
BRANCH  16  17
ATOM     17  C   UNL     1      -5.544  38.398  25.214  1.00  0.00    -0.000 C 
BRANCH  17  18
ATOM     18  C   UNL     1      -5.545  36.861  25.123  1.00  0.00    -0.000 C 
BRANCH  18  19
ATOM     19  C   UNL     1      -6.096  36.341  23.787  1.00  0.00    -0.003 C 
ATOM     20  C   UNL     1      -5.973  34.822  23.695  1.00  0.00     0.004 C 
ENDBRANCH  18  19
ENDBRANCH  17  18
ENDBRANCH  16  17
ENDBRANCH  15  16
ENDBRANCH  14  15
ENDBRANCH  13  14
ENDBRANCH  12  13
ENDBRANCH   1  12
TORSDOF 16
ENDMDL
MODEL 6
REMARK VINA RESULT:    -2.415      3.593      6.816
REMARK INTER + INTRA:          -5.598
REMARK INTER:                  -3.910
REMARK INTRA:                  -1.687
REMARK UNBOUND:                -0.924
REMARK SMILES CCCCCCCCCCCCCCCCCC(=O)[O-]
REMARK SMILES IDX 10 1 11 2 12 3 13 4 14 5 15 6 16 7 17 8 18 9 19 10 20 11
REMARK SMILES IDX 9 12 8 13 7 14 6 15 5 16 4 17 3 18 2 19 1 20
REMARK H PARENT
REMARK Flexibility Score: inf
ROOT
ATOM      1  C   UNL     1      -0.880  37.531  18.038  1.00  0.00     0.000 C 
ENDROOT
BRANCH   1   2
ATOM      2  C   UNL     1      -1.230  38.330  19.310  1.00  0.00     0.000 C 
BRANCH   2   3
ATOM      3  C   UNL     1      -2.452  37.811  20.098  1.00  0.00     0.000 C 
BRANCH   3   4
ATOM      4  C   UNL     1      -3.475  38.890  20.494  1.00  0.00     0.000 C 
BRANCH   4   5
ATOM      5  C   UNL     1      -4.828  38.719  19.786  1.00  0.00     0.000 C 
BRANCH   5   6
ATOM      6  C   UNL     1      -5.852  39.739  20.305  1.00  0.00     0.000 C 
BRANCH   6   7
ATOM      7  C   UNL     1      -5.742  39.970  21.821  1.00  0.00     0.006 C 
BRANCH   7   8
ATOM      8  C   UNL     1      -6.025  41.425  22.219  1.00  0.00     0.053 C 
BRANCH   8   9
ATOM      9  C   UNL     1      -5.751  41.631  23.675  1.00  0.00     0.041 C 
ATOM     10  O   UNL     1      -5.209  40.721  24.355  1.00  0.00    -0.550 OA
ATOM     11  O   UNL     1      -6.124  42.821  24.289  1.00  0.00    -0.550 OA
ENDBRANCH   8   9
ENDBRANCH   7   8
ENDBRANCH   6   7
ENDBRANCH   5   6
ENDBRANCH   4   5
ENDBRANCH   3   4
ENDBRANCH   2   3
ENDBRANCH   1   2
BRANCH   1  12
ATOM     12  C   UNL     1      -1.923  37.620  16.910  1.00  0.00     0.000 C 
BRANCH  12  13
ATOM     13  C   UNL     1      -2.551  36.260  16.572  1.00  0.00    -0.000 C 
BRANCH  13  14
ATOM     14  C   UNL     1      -4.035  36.227  16.969  1.00  0.00    -0.000 C 
BRANCH  14  15
ATOM     15  C   UNL     1      -4.266  35.612  18.360  1.00  0.00    -0.000 C 
BRANCH  15  16
ATOM     16  C   UNL     1      -5.690  35.062  18.536  1.00  0.00    -0.000 C 
BRANCH  16  17
ATOM     17  C   UNL     1      -6.058  34.819  20.012  1.00  0.00    -0.000 C 
BRANCH  17  18
ATOM     18  C   UNL     1      -5.869  36.034  20.939  1.00  0.00    -0.000 C 
BRANCH  18  19
ATOM     19  C   UNL     1      -4.890  35.760  22.090  1.00  0.00    -0.003 C 
ATOM     20  C   UNL     1      -5.596  35.838  23.442  1.00  0.00     0.004 C 
ENDBRANCH  18  19
ENDBRANCH  17  18
ENDBRANCH  16  17
ENDBRANCH  15  16
ENDBRANCH  14  15
ENDBRANCH  13  14
ENDBRANCH  12  13
ENDBRANCH   1  12
TORSDOF 16
ENDMDL
MODEL 7
REMARK VINA RESULT:    -2.248      1.989      2.614
REMARK INTER + INTRA:          -5.274
REMARK INTER:                  -4.478
REMARK INTRA:                  -0.796
REMARK UNBOUND:                -0.924
REMARK SMILES CCCCCCCCCCCCCCCCCC(=O)[O-]
REMARK SMILES IDX 10 1 11 2 12 3 13 4 14 5 15 6 16 7 17 8 18 9 19 10 20 11
REMARK SMILES IDX 9 12 8 13 7 14 6 15 5 16 4 17 3 18 2 19 1 20
REMARK H PARENT
REMARK Flexibility Score: inf
ROOT
ATOM      1  C   UNL     1      -3.847  36.015  21.182  1.00  0.00     0.000 C 
ENDROOT
BRANCH   1   2
ATOM      2  C   UNL     1      -4.989  36.614  20.336  1.00  0.00     0.000 C 
BRANCH   2   3
ATOM      3  C   UNL     1      -5.714  35.617  19.408  1.00  0.00     0.000 C 
BRANCH   3   4
ATOM      4  C   UNL     1      -4.999  35.331  18.076  1.00  0.00     0.000 C 
BRANCH   4   5
ATOM      5  C   UNL     1      -3.516  35.731  18.096  1.00  0.00     0.000 C 
BRANCH   5   6
ATOM      6  C   UNL     1      -3.132  36.480  16.813  1.00  0.00     0.000 C 
BRANCH   6   7
ATOM      7  C   UNL     1      -2.729  37.940  17.076  1.00  0.00     0.006 C 
BRANCH   7   8
ATOM      8  C   UNL     1      -2.564  38.247  18.570  1.00  0.00     0.053 C 
BRANCH   8   9
ATOM      9  C   UNL     1      -1.132  38.097  18.980  1.00  0.00     0.041 C 
ATOM     10  O   UNL     1      -0.207  38.404  18.182  1.00  0.00    -0.550 OA
ATOM     11  O   UNL     1      -0.819  37.589  20.234  1.00  0.00    -0.550 OA
ENDBRANCH   8   9
ENDBRANCH   7   8
ENDBRANCH   6   7
ENDBRANCH   5   6
ENDBRANCH   4   5
ENDBRANCH   3   4
ENDBRANCH   2   3
ENDBRANCH   1   2
BRANCH   1  12
ATOM     12  C   UNL     1      -4.303  35.238  22.429  1.00  0.00     0.000 C 
BRANCH  12  13
ATOM     13  C   UNL     1      -5.812  35.367  22.691  1.00  0.00    -0.000 C 
BRANCH  13  14
ATOM     14  C   UNL     1      -6.118  36.619  23.529  1.00  0.00    -0.000 C 
BRANCH  14  15
ATOM     15  C   UNL     1      -5.319  36.665  24.842  1.00  0.00    -0.000 C 
BRANCH  15  16
ATOM     16  C   UNL     1      -5.313  38.062  25.484  1.00  0.00    -0.000 C 
BRANCH  16  17
ATOM     17  C   UNL     1      -4.635  39.123  24.597  1.00  0.00    -0.000 C 
BRANCH  17  18
ATOM     18  C   UNL     1      -5.513  40.339  24.248  1.00  0.00    -0.000 C 
BRANCH  18  19
ATOM     19  C   UNL     1      -5.412  40.746  22.771  1.00  0.00    -0.003 C 
ATOM     20  C   UNL     1      -6.124  42.072  22.516  1.00  0.00     0.004 C 
ENDBRANCH  18  19
ENDBRANCH  17  18
ENDBRANCH  16  17
ENDBRANCH  15  16
ENDBRANCH  14  15
ENDBRANCH  13  14
ENDBRANCH  12  13
ENDBRANCH   1  12
TORSDOF 16
ENDMDL
