MODEL 1
REMARK VINA RESULT:     7.116      0.000      0.000
REMARK INTER + INTRA:           7.259
REMARK INTER:                   7.531
REMARK INTRA:                  -0.272
REMARK UNBOUND:                -0.272
REMARK SMILES CC1=C[C@@H]2C(=C(C)CC[C@H]2C(C)C)CC1
REMARK SMILES IDX 1 1 2 2 3 3 4 4 10 5 9 6 8 7 6 8 5 9 14 10 15 11 7 12 11 13
REMARK SMILES IDX 12 14 13 15
REMARK H PARENT
REMARK Flexibility Score: inf
ROOT
ATOM      1  C   UNL     1     137.776 135.297 161.572  1.00  0.00     0.039 C 
ATOM      2  C   UNL     1     136.851 136.411 161.978  1.00  0.00    -0.076 C 
ATOM      3  C   UNL     1     136.865 136.841 163.261  1.00  0.00    -0.020 C 
ATOM      4  C   UNL     1     135.944 137.933 163.795  1.00  0.00     0.041 C 
ATOM      5  C   UNL     1     136.654 138.776 164.898  1.00  0.00     0.003 C 
ATOM      6  C   UNL     1     135.938 140.128 165.078  1.00  0.00     0.009 C 
ATOM      7  C   UNL     1     135.972 140.911 163.772  1.00  0.00     0.031 C 
ATOM      8  C   UNL     1     135.383 140.122 162.626  1.00  0.00    -0.073 C 
ATOM      9  C   UNL     1     135.397 138.757 162.632  1.00  0.00    -0.064 C 
ATOM     10  C   UNL     1     134.875 137.923 161.483  1.00  0.00     0.036 C 
ATOM     11  C   UNL     1     136.028 137.103 160.908  1.00  0.00     0.035 C 
ATOM     12  C   UNL     1     134.882 140.908 161.437  1.00  0.00     0.039 C 
ENDROOT
BRANCH   5  13
ATOM     13  C   UNL     1     136.803 138.001 166.254  1.00  0.00    -0.013 C 
ATOM     14  C   UNL     1     137.903 138.615 167.134  1.00  0.00     0.007 C 
ATOM     15  C   UNL     1     135.496 137.883 167.058  1.00  0.00     0.007 C 
ENDBRANCH   5  13
TORSDOF 1
ENDMDL
