MODEL 1
REMARK VINA RESULT:    -5.112      0.000      0.000
REMARK INTER + INTRA:          -5.596
REMARK INTER:                  -5.560
REMARK INTRA:                  -0.036
REMARK UNBOUND:                -0.036
REMARK SMILES O=C([O-])c1ccc(O)cc1
REMARK SMILES IDX 4 1 5 2 10 3 6 4 9 5 7 6 2 7 1 8 3 9 8 10
REMARK H PARENT 8 11
REMARK Flexibility Score: inf
ROOT
ATOM      1  C   UNL     1     -32.188  -3.385 -18.218  1.00  0.00    -0.003 A 
ATOM      2  C   UNL     1     -33.017  -3.077 -19.315  1.00  0.00     0.014 A 
ATOM      3  C   UNL     1     -30.803  -3.172 -18.331  1.00  0.00     0.014 A 
ATOM      4  C   UNL     1     -32.467  -2.569 -20.495  1.00  0.00     0.047 A 
ATOM      5  C   UNL     1     -30.258  -2.663 -19.514  1.00  0.00     0.047 A 
ATOM      6  C   UNL     1     -31.090  -2.361 -20.600  1.00  0.00     0.115 A 
ENDROOT
BRANCH   1   7
ATOM      7  C   UNL     1     -32.762  -3.923 -16.965  1.00  0.00     0.071 C 
ATOM      8  O   UNL     1     -32.013  -4.243 -16.004  1.00  0.00    -0.545 OA
ATOM      9  O   UNL     1     -34.136  -4.083 -16.832  1.00  0.00    -0.545 OA
ENDBRANCH   1   7
BRANCH   6  10
ATOM     10  O   UNL     1     -30.558  -1.854 -21.783  1.00  0.00    -0.508 OA
ATOM     11  H   UNL     1     -29.702  -1.309 -21.789  1.00  0.00     0.293 HD
ENDBRANCH   6  10
TORSDOF 2
ENDMDL
MODEL 2
REMARK VINA RESULT:    -4.983      7.419      9.861
REMARK INTER + INTRA:          -5.457
REMARK INTER:                  -5.428
REMARK INTRA:                  -0.029
REMARK UNBOUND:                -0.036
REMARK SMILES O=C([O-])c1ccc(O)cc1
REMARK SMILES IDX 4 1 5 2 10 3 6 4 9 5 7 6 2 7 1 8 3 9 8 10
REMARK H PARENT 8 11
REMARK Flexibility Score: inf
ROOT
ATOM      1  C   UNL     1     -37.300  -6.941 -13.439  1.00  0.00    -0.003 A 
ATOM      2  C   UNL     1     -37.082  -8.328 -13.548  1.00  0.00     0.014 A 
ATOM      3  C   UNL     1     -38.617  -6.468 -13.301  1.00  0.00     0.014 A 
ATOM      4  C   UNL     1     -38.160  -9.218 -13.519  1.00  0.00     0.047 A 
ATOM      5  C   UNL     1     -39.693  -7.362 -13.273  1.00  0.00     0.047 A 
ATOM      6  C   UNL     1     -39.466  -8.741 -13.382  1.00  0.00     0.115 A 
ENDROOT
BRANCH   1   7
ATOM      7  C   UNL     1     -36.165  -5.993 -13.469  1.00  0.00     0.071 C 
ATOM      8  O   UNL     1     -35.943  -5.229 -12.492  1.00  0.00    -0.545 OA
ATOM      9  O   UNL     1     -35.327  -5.933 -14.576  1.00  0.00    -0.545 OA
ENDBRANCH   1   7
BRANCH   6  10
ATOM     10  O   UNL     1     -40.529  -9.640 -13.354  1.00  0.00    -0.508 OA
ATOM     11  H   UNL     1     -41.032  -9.840 -12.497  1.00  0.00     0.293 HD
ENDBRANCH   6  10
TORSDOF 2
ENDMDL
MODEL 3
REMARK VINA RESULT:    -4.951      7.441      9.787
REMARK INTER + INTRA:          -5.422
REMARK INTER:                  -5.392
REMARK INTRA:                  -0.030
REMARK UNBOUND:                -0.036
REMARK SMILES O=C([O-])c1ccc(O)cc1
REMARK SMILES IDX 4 1 5 2 10 3 6 4 9 5 7 6 2 7 1 8 3 9 8 10
REMARK H PARENT 8 11
REMARK Flexibility Score: inf
ROOT
ATOM      1  C   UNL     1     -37.295  -6.873 -13.406  1.00  0.00    -0.003 A 
ATOM      2  C   UNL     1     -38.623  -6.439 -13.227  1.00  0.00     0.014 A 
ATOM      3  C   UNL     1     -37.041  -8.248 -13.556  1.00  0.00     0.014 A 
ATOM      4  C   UNL     1     -39.671  -7.365 -13.200  1.00  0.00     0.047 A 
ATOM      5  C   UNL     1     -38.093  -9.169 -13.528  1.00  0.00     0.047 A 
ATOM      6  C   UNL     1     -39.411  -8.729 -13.349  1.00  0.00     0.115 A 
ENDROOT
BRANCH   1   7
ATOM      7  C   UNL     1     -36.181  -5.900 -13.437  1.00  0.00     0.071 C 
ATOM      8  O   UNL     1     -35.396  -5.856 -14.421  1.00  0.00    -0.545 OA
ATOM      9  O   UNL     1     -35.984  -5.021 -12.379  1.00  0.00    -0.545 OA
ENDBRANCH   1   7
BRANCH   6  10
ATOM     10  O   UNL     1     -40.466  -9.638 -13.319  1.00  0.00    -0.508 OA
ATOM     11  H   UNL     1     -40.511 -10.375 -12.624  1.00  0.00     0.293 HD
ENDBRANCH   6  10
TORSDOF 2
ENDMDL
MODEL 4
REMARK VINA RESULT:    -4.931      8.374     10.457
REMARK INTER + INTRA:          -5.399
REMARK INTER:                  -5.369
REMARK INTRA:                  -0.031
REMARK UNBOUND:                -0.036
REMARK SMILES O=C([O-])c1ccc(O)cc1
REMARK SMILES IDX 4 1 5 2 10 3 6 4 9 5 7 6 2 7 1 8 3 9 8 10
REMARK H PARENT 8 11
REMARK Flexibility Score: inf
ROOT
ATOM      1  C   UNL     1     -38.173  -7.484 -13.407  1.00  0.00    -0.003 A 
ATOM      2  C   UNL     1     -38.882  -6.269 -13.339  1.00  0.00     0.014 A 
ATOM      3  C   UNL     1     -38.893  -8.690 -13.474  1.00  0.00     0.014 A 
ATOM      4  C   UNL     1     -40.280  -6.265 -13.338  1.00  0.00     0.047 A 
ATOM      5  C   UNL     1     -40.292  -8.681 -13.473  1.00  0.00     0.047 A 
ATOM      6  C   UNL     1     -40.989  -7.467 -13.405  1.00  0.00     0.115 A 
ENDROOT
BRANCH   1   7
ATOM      7  C   UNL     1     -36.694  -7.496 -13.409  1.00  0.00     0.071 C 
ATOM      8  O   UNL     1     -36.059  -8.287 -12.661  1.00  0.00    -0.545 OA
ATOM      9  O   UNL     1     -35.983  -6.634 -14.235  1.00  0.00    -0.545 OA
ENDBRANCH   1   7
BRANCH   6  10
ATOM     10  O   UNL     1     -42.381  -7.447 -13.403  1.00  0.00    -0.508 OA
ATOM     11  H   UNL     1     -42.898  -6.578 -13.332  1.00  0.00     0.293 HD
ENDBRANCH   6  10
TORSDOF 2
ENDMDL
MODEL 5
REMARK VINA RESULT:    -4.786      6.515      9.228
REMARK INTER + INTRA:          -5.242
REMARK INTER:                  -5.209
REMARK INTRA:                  -0.033
REMARK UNBOUND:                -0.036
REMARK SMILES O=C([O-])c1ccc(O)cc1
REMARK SMILES IDX 4 1 5 2 10 3 6 4 9 5 7 6 2 7 1 8 3 9 8 10
REMARK H PARENT 8 11
REMARK Flexibility Score: inf
ROOT
ATOM      1  C   UNL     1     -36.793  -7.317 -14.840  1.00  0.00    -0.003 A 
ATOM      2  C   UNL     1     -36.700  -7.841 -13.535  1.00  0.00     0.014 A 
ATOM      3  C   UNL     1     -37.875  -7.699 -15.651  1.00  0.00     0.014 A 
ATOM      4  C   UNL     1     -37.671  -8.726 -13.058  1.00  0.00     0.047 A 
ATOM      5  C   UNL     1     -38.845  -8.586 -15.169  1.00  0.00     0.047 A 
ATOM      6  C   UNL     1     -38.744  -9.101 -13.871  1.00  0.00     0.115 A 
ENDROOT
BRANCH   1   7
ATOM      7  C   UNL     1     -35.769  -6.380 -15.351  1.00  0.00     0.071 C 
ATOM      8  O   UNL     1     -35.168  -5.598 -14.567  1.00  0.00    -0.545 OA
ATOM      9  O   UNL     1     -35.456  -6.349 -16.705  1.00  0.00    -0.545 OA
ENDBRANCH   1   7
BRANCH   6  10
ATOM     10  O   UNL     1     -39.703  -9.984 -13.381  1.00  0.00    -0.508 OA
ATOM     11  H   UNL     1     -40.443 -10.345 -13.974  1.00  0.00     0.293 HD
ENDBRANCH   6  10
TORSDOF 2
ENDMDL
MODEL 6
REMARK VINA RESULT:    -4.642      7.727      9.310
REMARK INTER + INTRA:          -5.085
REMARK INTER:                  -5.049
REMARK INTRA:                  -0.036
REMARK UNBOUND:                -0.036
REMARK SMILES O=C([O-])c1ccc(O)cc1
REMARK SMILES IDX 4 1 5 2 10 3 6 4 9 5 7 6 2 7 1 8 3 9 8 10
REMARK H PARENT 8 11
REMARK Flexibility Score: inf
ROOT
ATOM      1  C   UNL     1     -38.420  -7.237 -13.302  1.00  0.00    -0.003 A 
ATOM      2  C   UNL     1     -37.086  -7.678 -13.404  1.00  0.00     0.014 A 
ATOM      3  C   UNL     1     -38.670  -5.873 -13.072  1.00  0.00     0.014 A 
ATOM      4  C   UNL     1     -36.030  -6.771 -13.278  1.00  0.00     0.047 A 
ATOM      5  C   UNL     1     -37.610  -4.969 -12.947  1.00  0.00     0.047 A 
ATOM      6  C   UNL     1     -36.286  -5.417 -13.050  1.00  0.00     0.115 A 
ENDROOT
BRANCH   1   7
ATOM      7  C   UNL     1     -39.542  -8.192 -13.434  1.00  0.00     0.071 C 
ATOM      8  O   UNL     1     -39.338  -9.368 -13.836  1.00  0.00    -0.545 OA
ATOM      9  O   UNL     1     -40.838  -7.803 -13.118  1.00  0.00    -0.545 OA
ENDBRANCH   1   7
BRANCH   6  10
ATOM     10  O   UNL     1     -35.224  -4.525 -12.926  1.00  0.00    -0.508 OA
ATOM     11  H   UNL     1     -35.332  -3.539 -13.137  1.00  0.00     0.293 HD
ENDBRANCH   6  10
TORSDOF 2
ENDMDL
MODEL 7
REMARK VINA RESULT:    -4.527      6.301      8.343
REMARK INTER + INTRA:          -4.961
REMARK INTER:                  -4.932
REMARK INTRA:                  -0.028
REMARK UNBOUND:                -0.036
REMARK SMILES O=C([O-])c1ccc(O)cc1
REMARK SMILES IDX 4 1 5 2 10 3 6 4 9 5 7 6 2 7 1 8 3 9 8 10
REMARK H PARENT 8 11
REMARK Flexibility Score: inf
ROOT
ATOM      1  C   UNL     1     -37.706  -7.775 -14.046  1.00  0.00    -0.003 A 
ATOM      2  C   UNL     1     -36.991  -6.853 -13.256  1.00  0.00     0.014 A 
ATOM      3  C   UNL     1     -37.346  -7.940 -15.395  1.00  0.00     0.014 A 
ATOM      4  C   UNL     1     -35.940  -6.116 -13.808  1.00  0.00     0.047 A 
ATOM      5  C   UNL     1     -36.292  -7.200 -15.942  1.00  0.00     0.047 A 
ATOM      6  C   UNL     1     -35.587  -6.285 -15.150  1.00  0.00     0.115 A 
ENDROOT
BRANCH   1   7
ATOM      7  C   UNL     1     -38.820  -8.559 -13.469  1.00  0.00     0.071 C 
ATOM      8  O   UNL     1     -38.745  -9.814 -13.387  1.00  0.00    -0.545 OA
ATOM      9  O   UNL     1     -39.966  -7.921 -13.009  1.00  0.00    -0.545 OA
ENDBRANCH   1   7
BRANCH   6  10
ATOM     10  O   UNL     1     -34.537  -5.544 -15.685  1.00  0.00    -0.508 OA
ATOM     11  H   UNL     1     -34.542  -5.240 -16.652  1.00  0.00     0.293 HD
ENDBRANCH   6  10
TORSDOF 2
ENDMDL
MODEL 8
REMARK VINA RESULT:    -4.483      9.225     10.576
REMARK INTER + INTRA:          -4.912
REMARK INTER:                  -4.877
REMARK INTRA:                  -0.035
REMARK UNBOUND:                -0.036
REMARK SMILES O=C([O-])c1ccc(O)cc1
REMARK SMILES IDX 4 1 5 2 10 3 6 4 9 5 7 6 2 7 1 8 3 9 8 10
REMARK H PARENT 8 11
REMARK Flexibility Score: inf
ROOT
ATOM      1  C   UNL     1     -39.572  -7.158 -13.003  1.00  0.00    -0.003 A 
ATOM      2  C   UNL     1     -38.331  -6.596 -13.361  1.00  0.00     0.014 A 
ATOM      3  C   UNL     1     -40.498  -6.371 -12.296  1.00  0.00     0.014 A 
ATOM      4  C   UNL     1     -38.027  -5.276 -13.015  1.00  0.00     0.047 A 
ATOM      5  C   UNL     1     -40.189  -5.050 -11.953  1.00  0.00     0.047 A 
ATOM      6  C   UNL     1     -38.951  -4.500 -12.312  1.00  0.00     0.115 A 
ENDROOT
BRANCH   1   7
ATOM      7  C   UNL     1     -39.901  -8.554 -13.365  1.00  0.00     0.071 C 
ATOM      8  O   UNL     1     -38.987  -9.374 -13.649  1.00  0.00    -0.545 OA
ATOM      9  O   UNL     1     -41.223  -8.981 -13.398  1.00  0.00    -0.545 OA
ENDBRANCH   1   7
BRANCH   6  10
ATOM     10  O   UNL     1     -38.634  -3.186 -11.976  1.00  0.00    -0.508 OA
ATOM     11  H   UNL     1     -39.283  -2.425 -12.141  1.00  0.00     0.293 HD
ENDBRANCH   6  10
TORSDOF 2
ENDMDL
MODEL 9
REMARK VINA RESULT:    -4.431      4.543      6.389
REMARK INTER + INTRA:          -4.856
REMARK INTER:                  -4.829
REMARK INTRA:                  -0.027
REMARK UNBOUND:                -0.036
REMARK SMILES O=C([O-])c1ccc(O)cc1
REMARK SMILES IDX 4 1 5 2 10 3 6 4 9 5 7 6 2 7 1 8 3 9 8 10
REMARK H PARENT 8 11
REMARK Flexibility Score: inf
ROOT
ATOM      1  C   UNL     1     -36.107  -6.510 -14.422  1.00  0.00    -0.003 A 
ATOM      2  C   UNL     1     -35.860  -6.709 -15.795  1.00  0.00     0.014 A 
ATOM      3  C   UNL     1     -35.552  -5.385 -13.787  1.00  0.00     0.014 A 
ATOM      4  C   UNL     1     -35.075  -5.800 -16.511  1.00  0.00     0.047 A 
ATOM      5  C   UNL     1     -34.767  -4.479 -14.508  1.00  0.00     0.047 A 
ATOM      6  C   UNL     1     -34.527  -4.685 -15.873  1.00  0.00     0.115 A 
ENDROOT
BRANCH   1   7
ATOM      7  C   UNL     1     -36.937  -7.467 -13.658  1.00  0.00     0.071 C 
ATOM      8  O   UNL     1     -36.397  -8.359 -12.950  1.00  0.00    -0.545 OA
ATOM      9  O   UNL     1     -38.323  -7.396 -13.711  1.00  0.00    -0.545 OA
ENDBRANCH   1   7
BRANCH   6  10
ATOM     10  O   UNL     1     -33.747  -3.789 -16.600  1.00  0.00    -0.508 OA
ATOM     11  H   UNL     1     -33.450  -3.994 -17.547  1.00  0.00     0.293 HD
ENDBRANCH   6  10
TORSDOF 2
ENDMDL
