MODEL 1
REMARK VINA RESULT:    -3.758      0.000      0.000
REMARK INTER + INTRA:          -3.620
REMARK INTER:                  -4.637
REMARK INTRA:                   1.016
REMARK UNBOUND:                 1.016
REMARK SMILES C=C1[C@H]2CC[C@@H]3[C@H]2C(C)(C)CCC[C@]13C
REMARK SMILES IDX 14 1 6 2 7 3 3 4 2 5 1 6 4 7 5 8 15 9 8 10 9 11 10 12 11 13
REMARK SMILES IDX 13 15 12 16
REMARK H PARENT
REMARK Flexibility Score: 80.00
ROOT
ATOM      1  C   UNL     1       1.194  15.276  -0.595  1.00  0.00    -0.008 C 
ATOM      2  C   UNL     1       1.571  13.762  -0.360  1.00  0.00     0.003 C 
ATOM      3  C   UNL     1       0.965  13.419   1.020  1.00  0.00     0.006 C 
ATOM      4  C   UNL     1      -0.423  13.930   0.659  1.00  0.00     0.019 C 
ATOM      5  C   UNL     1      -0.120  15.313   0.153  1.00  0.00    -0.068 C 
ATOM      6  C   UNL     1      -0.945  16.362   0.263  1.00  0.00     0.009 C 
ATOM      7  C   UNL     1      -0.738  13.062  -0.581  1.00  0.00     0.008 C 
ATOM      8  C   UNL     1       0.654  12.860  -1.232  1.00  0.00     0.005 C 
ATOM      9  C   UNL     1       0.965  15.649  -2.085  1.00  0.00     0.016 C 
ENDROOT
BRANCH   3  10
ATOM     10  C   UNL     1       1.643  13.935   2.346  1.00  0.00    -0.032 C 
ATOM     11  C   UNL     1       2.897  13.064   2.624  1.00  0.00     0.011 C 
ATOM     12  C   UNL     1       0.671  13.704   3.528  1.00  0.00     0.011 C 
BRANCH  10  13
ATOM     13  C   UNL     1       2.032  15.440   2.363  1.00  0.00     0.007 CG0
ATOM     14  G   UNL     1       2.987  15.862   1.244  1.00  0.00     0.000 G0
ENDBRANCH  10  13
ENDBRANCH   3  10
BRANCH   1  15
ATOM     15  C   UNL     1       2.242  16.279  -0.030  1.00  0.00     0.011 C 
BRANCH  15  16
ATOM     16  C   UNL     1       2.981  15.869   1.242  1.00  0.00     0.001 CG0
ATOM     17  G   UNL     1       2.039  15.440   2.369  1.00  0.00     0.000 G0
ENDBRANCH  15  16
ENDBRANCH   1  15
TORSDOF 0
ENDMDL
MODEL 2
REMARK VINA RESULT:    -3.481      1.736      3.308
REMARK INTER + INTRA:          -3.279
REMARK INTER:                  -4.300
REMARK INTRA:                   1.022
REMARK UNBOUND:                 1.016
REMARK SMILES C=C1[C@H]2CC[C@@H]3[C@H]2C(C)(C)CCC[C@]13C
REMARK SMILES IDX 14 1 6 2 7 3 3 4 2 5 1 6 4 7 5 8 15 9 8 10 9 11 10 12 11 13
REMARK SMILES IDX 13 15 12 16
REMARK H PARENT
REMARK Flexibility Score: 80.00
ROOT
ATOM      1  C   UNL     1      -1.386  13.957  -0.367  1.00  0.00    -0.008 C 
ATOM      2  C   UNL     1      -1.140  14.124   1.182  1.00  0.00     0.003 C 
ATOM      3  C   UNL     1      -0.100  15.262   1.291  1.00  0.00     0.006 C 
ATOM      4  C   UNL     1      -0.899  16.223   0.423  1.00  0.00     0.019 C 
ATOM      5  C   UNL     1      -1.161  15.389  -0.799  1.00  0.00    -0.068 C 
ATOM      6  C   UNL     1      -1.281  15.874  -2.042  1.00  0.00     0.009 C 
ATOM      7  C   UNL     1      -2.227  16.289   1.210  1.00  0.00     0.008 C 
ATOM      8  C   UNL     1      -2.346  14.869   1.820  1.00  0.00     0.005 C 
ATOM      9  C   UNL     1      -2.828  13.514  -0.736  1.00  0.00     0.016 C 
ENDROOT
BRANCH   3  10
ATOM     10  C   UNL     1       1.415  15.001   0.941  1.00  0.00    -0.032 C 
ATOM     11  C   UNL     1       2.061  14.218   2.115  1.00  0.00     0.011 C 
ATOM     12  C   UNL     1       2.150  16.361   0.857  1.00  0.00     0.011 C 
BRANCH  10  13
ATOM     13  C   UNL     1       1.679  14.257  -0.398  1.00  0.00     0.007 CG0
ATOM     14  G   UNL     1       1.015  12.883  -0.502  1.00  0.00     0.000 G0
ENDBRANCH  10  13
ENDBRANCH   3  10
BRANCH   1  15
ATOM     15  C   UNL     1      -0.412  12.956  -1.053  1.00  0.00     0.011 C 
BRANCH  15  16
ATOM     16  C   UNL     1       1.014  12.891  -0.510  1.00  0.00     0.001 CG0
ATOM     17  G   UNL     1       1.678  14.265  -0.408  1.00  0.00     0.000 G0
ENDBRANCH  15  16
ENDBRANCH   1  15
TORSDOF 0
ENDMDL
MODEL 3
REMARK VINA RESULT:    -3.432      2.143      3.880
REMARK INTER + INTRA:          -3.218
REMARK INTER:                  -4.240
REMARK INTRA:                   1.022
REMARK UNBOUND:                 1.016
REMARK SMILES C=C1[C@H]2CC[C@@H]3[C@H]2C(C)(C)CCC[C@]13C
REMARK SMILES IDX 14 1 6 2 7 3 3 4 2 5 1 6 4 7 5 8 15 9 8 10 9 11 10 12 11 13
REMARK SMILES IDX 13 15 12 16
REMARK H PARENT
REMARK Flexibility Score: 80.00
ROOT
ATOM      1  C   UNL     1       1.118  15.104  -0.879  1.00  0.00    -0.008 C 
ATOM      2  C   UNL     1       0.956  15.997   0.411  1.00  0.00     0.003 C 
ATOM      3  C   UNL     1      -0.225  15.362   1.179  1.00  0.00     0.006 C 
ATOM      4  C   UNL     1       0.369  13.961   1.153  1.00  0.00     0.019 C 
ATOM      5  C   UNL     1       0.665  13.779  -0.309  1.00  0.00    -0.068 C 
ATOM      6  C   UNL     1       0.630  12.605  -0.953  1.00  0.00     0.009 C 
ATOM      7  C   UNL     1       1.725  14.209   1.853  1.00  0.00     0.008 C 
ATOM      8  C   UNL     1       2.084  15.654   1.423  1.00  0.00     0.005 C 
ATOM      9  C   UNL     1       2.581  14.987  -1.390  1.00  0.00     0.016 C 
ENDROOT
BRANCH   3  10
ATOM     10  C   UNL     1      -1.708  15.568   0.684  1.00  0.00    -0.032 C 
ATOM     11  C   UNL     1      -2.158  17.001   1.071  1.00  0.00     0.011 C 
ATOM     12  C   UNL     1      -2.631  14.590   1.453  1.00  0.00     0.011 C 
BRANCH  10  13
ATOM     13  C   UNL     1      -1.952  15.329  -0.831  1.00  0.00     0.007 CG0
ATOM     14  G   UNL     1      -1.097  16.197  -1.757  1.00  0.00     0.000 G0
ENDBRANCH  10  13
ENDBRANCH   3  10
BRANCH   1  15
ATOM     15  C   UNL     1       0.251  15.576  -2.083  1.00  0.00     0.011 C 
BRANCH  15  16
ATOM     16  C   UNL     1      -1.105  16.199  -1.761  1.00  0.00     0.001 CG0
ATOM     17  G   UNL     1      -1.956  15.330  -0.831  1.00  0.00     0.000 G0
ENDBRANCH  15  16
ENDBRANCH   1  15
TORSDOF 0
ENDMDL
MODEL 4
REMARK VINA RESULT:    -3.380      1.965      3.984
REMARK INTER + INTRA:          -3.154
REMARK INTER:                  -4.176
REMARK INTRA:                   1.022
REMARK UNBOUND:                 1.016
REMARK SMILES C=C1[C@H]2CC[C@@H]3[C@H]2C(C)(C)CCC[C@]13C
REMARK SMILES IDX 14 1 6 2 7 3 3 4 2 5 1 6 4 7 5 8 15 9 8 10 9 11 10 12 11 13
REMARK SMILES IDX 13 15 12 16
REMARK H PARENT
REMARK Flexibility Score: 80.00
ROOT
ATOM      1  C   UNL     1       0.561  14.139   1.172  1.00  0.00    -0.008 C 
ATOM      2  C   UNL     1      -0.267  13.435   0.029  1.00  0.00     0.003 C 
ATOM      3  C   UNL     1      -0.828  14.598  -0.820  1.00  0.00     0.006 C 
ATOM      4  C   UNL     1       0.529  15.262  -1.004  1.00  0.00     0.019 C 
ATOM      5  C   UNL     1       1.017  15.365   0.414  1.00  0.00    -0.068 C 
ATOM      6  C   UNL     1       1.813  16.338   0.876  1.00  0.00     0.009 C 
ATOM      7  C   UNL     1       1.325  14.113  -1.665  1.00  0.00     0.008 C 
ATOM      8  C   UNL     1       0.707  12.843  -1.027  1.00  0.00     0.005 C 
ATOM      9  C   UNL     1       1.794  13.327   1.654  1.00  0.00     0.016 C 
ENDROOT
BRANCH   3  10
ATOM     10  C   UNL     1      -2.034  15.467  -0.294  1.00  0.00    -0.032 C 
ATOM     11  C   UNL     1      -3.339  14.645  -0.461  1.00  0.00     0.011 C 
ATOM     12  C   UNL     1      -2.179  16.718  -1.196  1.00  0.00     0.011 C 
BRANCH  10  13
ATOM     13  C   UNL     1      -1.912  15.973   1.170  1.00  0.00     0.007 CG0
ATOM     14  G   UNL     1      -1.732  14.866   2.211  1.00  0.00     0.000 G0
ENDBRANCH  10  13
ENDBRANCH   3  10
BRANCH   1  15
ATOM     15  C   UNL     1      -0.280  14.484   2.436  1.00  0.00     0.011 C 
BRANCH  15  16
ATOM     16  C   UNL     1      -1.739  14.875   2.215  1.00  0.00     0.001 CG0
ATOM     17  G   UNL     1      -1.911  15.974   1.164  1.00  0.00     0.000 G0
ENDBRANCH  15  16
ENDBRANCH   1  15
TORSDOF 0
ENDMDL
MODEL 5
REMARK VINA RESULT:    -3.185      2.245      4.033
REMARK INTER + INTRA:          -2.914
REMARK INTER:                  -3.948
REMARK INTRA:                   1.034
REMARK UNBOUND:                 1.016
REMARK SMILES C=C1[C@H]2CC[C@@H]3[C@H]2C(C)(C)CCC[C@]13C
REMARK SMILES IDX 14 1 6 2 7 3 3 4 2 5 1 6 4 7 5 8 15 9 8 10 9 11 10 12 11 13
REMARK SMILES IDX 13 15 12 16
REMARK H PARENT
REMARK Flexibility Score: 80.00
ROOT
ATOM      1  C   UNL     1       0.956  15.656  -0.401  1.00  0.00    -0.008 C 
ATOM      2  C   UNL     1       0.159  15.141   0.860  1.00  0.00     0.003 C 
ATOM      3  C   UNL     1      -0.444  13.790   0.415  1.00  0.00     0.006 C 
ATOM      4  C   UNL     1       0.887  13.230  -0.067  1.00  0.00     0.019 C 
ATOM      5  C   UNL     1       1.365  14.322  -0.984  1.00  0.00    -0.068 C 
ATOM      6  C   UNL     1       2.122  14.126  -2.071  1.00  0.00     0.009 C 
ATOM      7  C   UNL     1       1.729  13.334   1.225  1.00  0.00     0.008 C 
ATOM      8  C   UNL     1       1.159  14.597   1.918  1.00  0.00     0.005 C 
ATOM      9  C   UNL     1       2.218  16.492  -0.056  1.00  0.00     0.016 C 
ENDROOT
BRANCH   3  10
ATOM     10  C   UNL     1      -1.684  13.745  -0.557  1.00  0.00    -0.032 C 
ATOM     11  C   UNL     1      -2.955  14.115   0.254  1.00  0.00     0.011 C 
ATOM     12  C   UNL     1      -1.881  12.289  -1.049  1.00  0.00     0.011 C 
BRANCH  10  13
ATOM     13  C   UNL     1      -1.584  14.643  -1.820  1.00  0.00     0.007 CG0
ATOM     14  G   UNL     1      -1.381  16.131  -1.526  1.00  0.00     0.000 G0
ENDBRANCH  10  13
ENDBRANCH   3  10
BRANCH   1  15
ATOM     15  C   UNL     1       0.098  16.509  -1.381  1.00  0.00     0.011 C 
BRANCH  15  16
ATOM     16  C   UNL     1      -1.372  16.124  -1.534  1.00  0.00     0.001 CG0
ATOM     17  G   UNL     1      -1.574  14.632  -1.808  1.00  0.00     0.000 G0
ENDBRANCH  15  16
ENDBRANCH   1  15
TORSDOF 0
ENDMDL
MODEL 6
REMARK VINA RESULT:    -3.142      1.582      3.614
REMARK INTER + INTRA:          -2.861
REMARK INTER:                  -3.865
REMARK INTRA:                   1.005
REMARK UNBOUND:                 1.016
REMARK SMILES C=C1[C@H]2CC[C@@H]3[C@H]2C(C)(C)CCC[C@]13C
REMARK SMILES IDX 14 1 6 2 7 3 3 4 2 5 1 6 4 7 5 8 15 9 8 10 9 11 10 12 11 13
REMARK SMILES IDX 13 15 12 16
REMARK H PARENT
REMARK Flexibility Score: 80.00
ROOT
ATOM      1  C   UNL     1      -1.735  15.095   1.326  1.00  0.00    -0.008 C 
ATOM      2  C   UNL     1      -1.015  16.328   0.654  1.00  0.00     0.003 C 
ATOM      3  C   UNL     1      -0.130  15.708  -0.450  1.00  0.00     0.006 C 
ATOM      4  C   UNL     1      -1.271  14.915  -1.072  1.00  0.00     0.019 C 
ATOM      5  C   UNL     1      -1.825  14.187   0.120  1.00  0.00    -0.068 C 
ATOM      6  C   UNL     1      -2.399  12.978   0.075  1.00  0.00     0.009 C 
ATOM      7  C   UNL     1      -2.266  16.052  -1.401  1.00  0.00     0.008 C 
ATOM      8  C   UNL     1      -2.019  17.076  -0.265  1.00  0.00     0.005 C 
ATOM      9  C   UNL     1      -3.160  15.407   1.860  1.00  0.00     0.016 C 
ENDROOT
BRANCH   3  10
ATOM     10  C   UNL     1       1.205  14.955  -0.081  1.00  0.00    -0.032 C 
ATOM     11  C   UNL     1       2.288  16.015   0.253  1.00  0.00     0.011 C 
ATOM     12  C   UNL     1       1.708  14.186  -1.329  1.00  0.00     0.011 C 
BRANCH  10  13
ATOM     13  C   UNL     1       1.100  13.924   1.077  1.00  0.00     0.007 CG0
ATOM     14  G   UNL     1       0.596  14.505   2.400  1.00  0.00     0.000 G0
ENDBRANCH  10  13
ENDBRANCH   3  10
BRANCH   1  15
ATOM     15  C   UNL     1      -0.935  14.465   2.503  1.00  0.00     0.011 C 
BRANCH  15  16
ATOM     16  C   UNL     1       0.588  14.498   2.404  1.00  0.00     0.001 CG0
ATOM     17  G   UNL     1       1.115  13.925   1.086  1.00  0.00     0.000 G0
ENDBRANCH  15  16
ENDBRANCH   1  15
TORSDOF 0
ENDMDL
MODEL 7
REMARK VINA RESULT:    -2.914      2.407      3.578
REMARK INTER + INTRA:          -2.579
REMARK INTER:                  -3.589
REMARK INTRA:                   1.010
REMARK UNBOUND:                 1.016
REMARK SMILES C=C1[C@H]2CC[C@@H]3[C@H]2C(C)(C)CCC[C@]13C
REMARK SMILES IDX 14 1 6 2 7 3 3 4 2 5 1 6 4 7 5 8 15 9 8 10 9 11 10 12 11 13
REMARK SMILES IDX 13 15 12 16
REMARK H PARENT
REMARK Flexibility Score: 80.00
ROOT
ATOM      1  C   UNL     1      -2.696  15.008  -1.378  1.00  0.00    -0.008 C 
ATOM      2  C   UNL     1      -1.938  13.704  -1.841  1.00  0.00     0.003 C 
ATOM      3  C   UNL     1      -1.034  13.333  -0.644  1.00  0.00     0.006 C 
ATOM      4  C   UNL     1      -2.172  13.371   0.367  1.00  0.00     0.019 C 
ATOM      5  C   UNL     1      -2.770  14.725   0.106  1.00  0.00    -0.068 C 
ATOM      6  C   UNL     1      -3.362  15.488   1.034  1.00  0.00     0.009 C 
ATOM      7  C   UNL     1      -3.139  12.333  -0.246  1.00  0.00     0.008 C 
ATOM      8  C   UNL     1      -2.905  12.490  -1.770  1.00  0.00     0.005 C 
ATOM      9  C   UNL     1      -4.129  15.149  -1.961  1.00  0.00     0.016 C 
ENDROOT
BRANCH   3  10
ATOM     10  C   UNL     1       0.278  14.153  -0.343  1.00  0.00    -0.032 C 
ATOM     11  C   UNL     1       1.370  13.718  -1.356  1.00  0.00     0.011 C 
ATOM     12  C   UNL     1       0.798  13.766   1.064  1.00  0.00     0.011 C 
BRANCH  10  13
ATOM     13  C   UNL     1       0.125  15.699  -0.362  1.00  0.00     0.007 CG0
ATOM     14  G   UNL     1      -0.416  16.267  -1.676  1.00  0.00     0.000 G0
ENDBRANCH  10  13
ENDBRANCH   3  10
BRANCH   1  15
ATOM     15  C   UNL     1      -1.938  16.326  -1.708  1.00  0.00     0.011 C 
BRANCH  15  16
ATOM     16  C   UNL     1      -0.413  16.282  -1.658  1.00  0.00     0.001 CG0
ATOM     17  G   UNL     1       0.126  15.681  -0.358  1.00  0.00     0.000 G0
ENDBRANCH  15  16
ENDBRANCH   1  15
TORSDOF 0
ENDMDL
MODEL 8
REMARK VINA RESULT:    -2.910      1.711      4.580
REMARK INTER + INTRA:          -2.574
REMARK INTER:                  -3.595
REMARK INTRA:                   1.021
REMARK UNBOUND:                 1.016
REMARK SMILES C=C1[C@H]2CC[C@@H]3[C@H]2C(C)(C)CCC[C@]13C
REMARK SMILES IDX 14 1 6 2 7 3 3 4 2 5 1 6 4 7 5 8 15 9 8 10 9 11 10 12 11 13
REMARK SMILES IDX 13 15 12 16
REMARK H PARENT
REMARK Flexibility Score: 80.00
ROOT
ATOM      1  C   UNL     1       2.968  13.939   4.448  1.00  0.00    -0.008 C 
ATOM      2  C   UNL     1       1.479  14.454   4.360  1.00  0.00     0.003 C 
ATOM      3  C   UNL     1       0.913  13.793   3.083  1.00  0.00     0.006 C 
ATOM      4  C   UNL     1       1.331  12.388   3.494  1.00  0.00     0.019 C 
ATOM      5  C   UNL     1       2.788  12.580   3.811  1.00  0.00    -0.068 C 
ATOM      6  C   UNL     1       3.732  11.645   3.648  1.00  0.00     0.009 C 
ATOM      7  C   UNL     1       0.596  12.252   4.847  1.00  0.00     0.008 C 
ATOM      8  C   UNL     1       0.608  13.699   5.402  1.00  0.00     0.005 C 
ATOM      9  C   UNL     1       3.498  13.777   5.900  1.00  0.00     0.016 C 
ENDROOT
BRANCH   3  10
ATOM     10  C   UNL     1       1.324  14.321   1.656  1.00  0.00    -0.032 C 
ATOM     11  C   UNL     1       0.553  15.639   1.381  1.00  0.00     0.011 C 
ATOM     12  C   UNL     1       0.853  13.300   0.590  1.00  0.00     0.011 C 
BRANCH  10  13
ATOM     13  C   UNL     1       2.846  14.543   1.432  1.00  0.00     0.007 CG0
ATOM     14  G   UNL     1       3.494  15.528   2.407  1.00  0.00     0.000 G0
ENDBRANCH  10  13
ENDBRANCH   3  10
BRANCH   1  15
ATOM     15  C   UNL     1       3.989  14.836   3.689  1.00  0.00     0.011 C 
BRANCH  15  16
ATOM     16  C   UNL     1       3.504  15.508   2.407  1.00  0.00     0.001 CG0
ATOM     17  G   UNL     1       2.848  14.530   1.429  1.00  0.00     0.000 G0
ENDBRANCH  15  16
ENDBRANCH   1  15
TORSDOF 0
ENDMDL
MODEL 9
REMARK VINA RESULT:    -2.673      3.488      5.605
REMARK INTER + INTRA:          -2.282
REMARK INTER:                  -3.298
REMARK INTRA:                   1.016
REMARK UNBOUND:                 1.016
REMARK SMILES C=C1[C@H]2CC[C@@H]3[C@H]2C(C)(C)CCC[C@]13C
REMARK SMILES IDX 14 1 6 2 7 3 3 4 2 5 1 6 4 7 5 8 15 9 8 10 9 11 10 12 11 13
REMARK SMILES IDX 13 15 12 16
REMARK H PARENT
REMARK Flexibility Score: 80.00
ROOT
ATOM      1  C   UNL     1      -3.121  15.643   1.530  1.00  0.00    -0.008 C 
ATOM      2  C   UNL     1      -2.394  14.260   1.747  1.00  0.00     0.003 C 
ATOM      3  C   UNL     1      -1.848  13.884   0.351  1.00  0.00     0.006 C 
ATOM      4  C   UNL     1      -1.146  15.220   0.146  1.00  0.00     0.019 C 
ATOM      5  C   UNL     1      -2.256  16.196   0.421  1.00  0.00    -0.068 C 
ATOM      6  C   UNL     1      -2.373  17.398  -0.158  1.00  0.00     0.009 C 
ATOM      7  C   UNL     1      -0.214  15.249   1.379  1.00  0.00     0.008 C 
ATOM      8  C   UNL     1      -1.033  14.497   2.458  1.00  0.00     0.005 C 
ATOM      9  C   UNL     1      -3.068  16.587   2.763  1.00  0.00     0.016 C 
ENDROOT
BRANCH   3  10
ATOM     10  C   UNL     1      -2.816  13.354  -0.775  1.00  0.00    -0.032 C 
ATOM     11  C   UNL     1      -3.170  11.877  -0.459  1.00  0.00     0.011 C 
ATOM     12  C   UNL     1      -2.057  13.349  -2.125  1.00  0.00     0.011 C 
BRANCH  10  13
ATOM     13  C   UNL     1      -4.117  14.176  -0.986  1.00  0.00     0.007 CG0
ATOM     14  G   UNL     1      -4.998  14.302   0.259  1.00  0.00     0.000 G0
ENDBRANCH  10  13
ENDBRANCH   3  10
BRANCH   1  15
ATOM     15  C   UNL     1      -4.618  15.509   1.124  1.00  0.00     0.011 C 
BRANCH  15  16
ATOM     16  C   UNL     1      -4.997  14.315   0.251  1.00  0.00     0.001 CG0
ATOM     17  G   UNL     1      -4.122  14.185  -0.997  1.00  0.00     0.000 G0
ENDBRANCH  15  16
ENDBRANCH   1  15
TORSDOF 0
ENDMDL
