MODEL 1
REMARK VINA RESULT:    -4.220      0.000      0.000
REMARK INTER + INTRA:          -4.766
REMARK INTER:                  -4.590
REMARK INTRA:                  -0.176
REMARK UNBOUND:                -0.176
REMARK SMILES O=C([O-])c1ccccc1O
REMARK SMILES IDX 4 1 9 2 5 3 8 4 6 5 7 6 2 7 1 8 3 9 10 10
REMARK H PARENT 10 11
REMARK Flexibility Score: inf
ROOT
ATOM      1  C   UNL     1      15.857 -22.177  -0.623  1.00  0.00     0.039 A 
ATOM      2  C   UNL     1      17.208 -22.338  -0.232  1.00  0.00     0.124 A 
ATOM      3  C   UNL     1      15.463 -22.623  -1.901  1.00  0.00     0.014 A 
ATOM      4  C   UNL     1      18.125 -22.933  -1.113  1.00  0.00     0.047 A 
ATOM      5  C   UNL     1      16.386 -23.214  -2.766  1.00  0.00     0.001 A 
ATOM      6  C   UNL     1      17.715 -23.368  -2.373  1.00  0.00     0.004 A 
ENDROOT
BRANCH   1   7
ATOM      7  C   UNL     1      14.853 -21.552   0.276  1.00  0.00     0.075 C 
ATOM      8  O   UNL     1      14.415 -22.180   1.275  1.00  0.00    -0.545 OA
ATOM      9  O   UNL     1      14.376 -20.268   0.036  1.00  0.00    -0.545 OA
ENDBRANCH   1   7
BRANCH   2  10
ATOM     10  O   UNL     1      17.644 -21.911   1.022  1.00  0.00    -0.507 OA
ATOM     11  H   UNL     1      18.622 -21.948   1.287  1.00  0.00     0.293 HD
ENDBRANCH   2  10
TORSDOF 2
ENDMDL
MODEL 2
REMARK VINA RESULT:    -4.127      8.497      9.681
REMARK INTER + INTRA:          -4.665
REMARK INTER:                  -4.422
REMARK INTRA:                  -0.242
REMARK UNBOUND:                -0.176
REMARK SMILES O=C([O-])c1ccccc1O
REMARK SMILES IDX 4 1 9 2 5 3 8 4 6 5 7 6 2 7 1 8 3 9 10 10
REMARK H PARENT 10 11
REMARK Flexibility Score: inf
ROOT
ATOM      1  C   UNL     1       7.615 -26.000   1.970  1.00  0.00     0.039 A 
ATOM      2  C   UNL     1       7.689 -24.781   1.255  1.00  0.00     0.124 A 
ATOM      3  C   UNL     1       8.299 -27.125   1.466  1.00  0.00     0.014 A 
ATOM      4  C   UNL     1       8.436 -24.710   0.068  1.00  0.00     0.047 A 
ATOM      5  C   UNL     1       9.038 -27.039   0.283  1.00  0.00     0.001 A 
ATOM      6  C   UNL     1       9.106 -25.834  -0.414  1.00  0.00     0.004 A 
ENDROOT
BRANCH   1   7
ATOM      7  C   UNL     1       6.837 -26.121   3.229  1.00  0.00     0.075 C 
ATOM      8  O   UNL     1       7.239 -26.872   4.156  1.00  0.00    -0.545 OA
ATOM      9  O   UNL     1       5.654 -25.414   3.412  1.00  0.00    -0.545 OA
ENDBRANCH   1   7
BRANCH   2  10
ATOM     10  O   UNL     1       7.028 -23.642   1.715  1.00  0.00    -0.507 OA
ATOM     11  H   UNL     1       6.539 -23.632   2.603  1.00  0.00     0.293 HD
ENDBRANCH   2  10
TORSDOF 2
ENDMDL
MODEL 3
REMARK VINA RESULT:    -4.014     16.807     17.566
REMARK INTER + INTRA:          -4.542
REMARK INTER:                  -4.380
REMARK INTRA:                  -0.162
REMARK UNBOUND:                -0.176
REMARK SMILES O=C([O-])c1ccccc1O
REMARK SMILES IDX 4 1 9 2 5 3 8 4 6 5 7 6 2 7 1 8 3 9 10 10
REMARK H PARENT 10 11
REMARK Flexibility Score: inf
ROOT
ATOM      1  C   UNL     1      -0.558 -22.879  -5.099  1.00  0.00     0.039 A 
ATOM      2  C   UNL     1      -0.384 -24.194  -4.606  1.00  0.00     0.124 A 
ATOM      3  C   UNL     1      -0.304 -21.793  -4.237  1.00  0.00     0.014 A 
ATOM      4  C   UNL     1       0.035 -24.396  -3.282  1.00  0.00     0.047 A 
ATOM      5  C   UNL     1       0.113 -22.008  -2.922  1.00  0.00     0.001 A 
ATOM      6  C   UNL     1       0.282 -23.308  -2.445  1.00  0.00     0.004 A 
ENDROOT
BRANCH   1   7
ATOM      7  C   UNL     1      -1.001 -22.619  -6.493  1.00  0.00     0.075 C 
ATOM      8  O   UNL     1      -1.414 -21.477  -6.826  1.00  0.00    -0.545 OA
ATOM      9  O   UNL     1      -0.970 -23.622  -7.454  1.00  0.00    -0.545 OA
ENDBRANCH   1   7
BRANCH   2  10
ATOM     10  O   UNL     1      -0.624 -25.300  -5.422  1.00  0.00    -0.507 OA
ATOM     11  H   UNL     1      -0.249 -26.216  -5.202  1.00  0.00     0.293 HD
ENDBRANCH   2  10
TORSDOF 2
ENDMDL
MODEL 4
REMARK VINA RESULT:    -3.955     15.782     16.422
REMARK INTER + INTRA:          -4.477
REMARK INTER:                  -4.226
REMARK INTRA:                  -0.251
REMARK UNBOUND:                -0.176
REMARK SMILES O=C([O-])c1ccccc1O
REMARK SMILES IDX 4 1 9 2 5 3 8 4 6 5 7 6 2 7 1 8 3 9 10 10
REMARK H PARENT 10 11
REMARK Flexibility Score: inf
ROOT
ATOM      1  C   UNL     1       0.224 -23.234  -1.896  1.00  0.00     0.039 A 
ATOM      2  C   UNL     1      -0.148 -24.200  -2.861  1.00  0.00     0.124 A 
ATOM      3  C   UNL     1       0.354 -21.889  -2.297  1.00  0.00     0.014 A 
ATOM      4  C   UNL     1      -0.379 -23.808  -4.189  1.00  0.00     0.047 A 
ATOM      5  C   UNL     1       0.120 -21.514  -3.622  1.00  0.00     0.001 A 
ATOM      6  C   UNL     1      -0.246 -22.472  -4.566  1.00  0.00     0.004 A 
ENDROOT
BRANCH   1   7
ATOM      7  C   UNL     1       0.480 -23.603  -0.480  1.00  0.00     0.075 C 
ATOM      8  O   UNL     1       0.081 -22.858   0.454  1.00  0.00    -0.545 OA
ATOM      9  O   UNL     1       1.161 -24.770  -0.154  1.00  0.00    -0.545 OA
ENDBRANCH   1   7
BRANCH   2  10
ATOM     10  O   UNL     1      -0.288 -25.543  -2.511  1.00  0.00    -0.507 OA
ATOM     11  H   UNL     1      -1.198 -25.987  -2.458  1.00  0.00     0.293 HD
ENDBRANCH   2  10
TORSDOF 2
ENDMDL
MODEL 5
REMARK VINA RESULT:    -3.939      8.686     10.324
REMARK INTER + INTRA:          -4.460
REMARK INTER:                  -4.223
REMARK INTRA:                  -0.238
REMARK UNBOUND:                -0.176
REMARK SMILES O=C([O-])c1ccccc1O
REMARK SMILES IDX 4 1 9 2 5 3 8 4 6 5 7 6 2 7 1 8 3 9 10 10
REMARK H PARENT 10 11
REMARK Flexibility Score: inf
ROOT
ATOM      1  C   UNL     1       7.692 -25.504   1.265  1.00  0.00     0.039 A 
ATOM      2  C   UNL     1       6.745 -26.546   1.123  1.00  0.00     0.124 A 
ATOM      3  C   UNL     1       7.971 -25.011   2.556  1.00  0.00     0.014 A 
ATOM      4  C   UNL     1       6.104 -27.068   2.258  1.00  0.00     0.047 A 
ATOM      5  C   UNL     1       7.326 -25.541   3.676  1.00  0.00     0.001 A 
ATOM      6  C   UNL     1       6.394 -26.568   3.527  1.00  0.00     0.004 A 
ENDROOT
BRANCH   1   7
ATOM      7  C   UNL     1       8.393 -24.920   0.093  1.00  0.00     0.075 C 
ATOM      8  O   UNL     1       9.114 -25.645  -0.643  1.00  0.00    -0.545 OA
ATOM      9  O   UNL     1       8.272 -23.571  -0.218  1.00  0.00    -0.545 OA
ENDBRANCH   1   7
BRANCH   2  10
ATOM     10  O   UNL     1       6.436 -27.064  -0.134  1.00  0.00    -0.507 OA
ATOM     11  H   UNL     1       5.944 -27.944  -0.242  1.00  0.00     0.293 HD
ENDBRANCH   2  10
TORSDOF 2
ENDMDL
MODEL 6
REMARK VINA RESULT:    -3.848      8.784     10.340
REMARK INTER + INTRA:          -4.361
REMARK INTER:                  -4.146
REMARK INTRA:                  -0.215
REMARK UNBOUND:                -0.176
REMARK SMILES O=C([O-])c1ccccc1O
REMARK SMILES IDX 4 1 9 2 5 3 8 4 6 5 7 6 2 7 1 8 3 9 10 10
REMARK H PARENT 10 11
REMARK Flexibility Score: inf
ROOT
ATOM      1  C   UNL     1       7.267 -25.472   1.137  1.00  0.00     0.039 A 
ATOM      2  C   UNL     1       7.363 -25.208   2.524  1.00  0.00     0.124 A 
ATOM      3  C   UNL     1       6.177 -26.231   0.664  1.00  0.00     0.014 A 
ATOM      4  C   UNL     1       6.383 -25.701   3.399  1.00  0.00     0.047 A 
ATOM      5  C   UNL     1       5.209 -26.714   1.547  1.00  0.00     0.001 A 
ATOM      6  C   UNL     1       5.312 -26.450   2.913  1.00  0.00     0.004 A 
ENDROOT
BRANCH   1   7
ATOM      7  C   UNL     1       8.282 -24.971   0.174  1.00  0.00     0.075 C 
ATOM      8  O   UNL     1       8.403 -23.736  -0.038  1.00  0.00    -0.545 OA
ATOM      9  O   UNL     1       9.115 -25.848  -0.511  1.00  0.00    -0.545 OA
ENDBRANCH   1   7
BRANCH   2  10
ATOM     10  O   UNL     1       8.425 -24.463   3.037  1.00  0.00    -0.507 OA
ATOM     11  H   UNL     1       8.621 -23.522   2.713  1.00  0.00     0.293 HD
ENDBRANCH   2  10
TORSDOF 2
ENDMDL
MODEL 7
REMARK VINA RESULT:    -3.826     15.536     16.506
REMARK INTER + INTRA:          -4.337
REMARK INTER:                  -4.089
REMARK INTRA:                  -0.248
REMARK UNBOUND:                -0.176
REMARK SMILES O=C([O-])c1ccccc1O
REMARK SMILES IDX 4 1 9 2 5 3 8 4 6 5 7 6 2 7 1 8 3 9 10 10
REMARK H PARENT 10 11
REMARK Flexibility Score: inf
ROOT
ATOM      1  C   UNL     1       0.167 -23.170  -3.077  1.00  0.00     0.039 A 
ATOM      2  C   UNL     1       0.123 -21.951  -3.795  1.00  0.00     0.124 A 
ATOM      3  C   UNL     1      -0.213 -24.358  -3.734  1.00  0.00     0.014 A 
ATOM      4  C   UNL     1      -0.295 -21.943  -5.135  1.00  0.00     0.047 A 
ATOM      5  C   UNL     1      -0.626 -24.335  -5.068  1.00  0.00     0.001 A 
ATOM      6  C   UNL     1      -0.666 -23.130  -5.768  1.00  0.00     0.004 A 
ENDROOT
BRANCH   1   7
ATOM      7  C   UNL     1       0.600 -23.226  -1.657  1.00  0.00     0.075 C 
ATOM      8  O   UNL     1       0.032 -22.512  -0.790  1.00  0.00    -0.545 OA
ATOM      9  O   UNL     1       1.636 -24.061  -1.256  1.00  0.00    -0.545 OA
ENDBRANCH   1   7
BRANCH   2  10
ATOM     10  O   UNL     1       0.489 -20.751  -3.187  1.00  0.00    -0.507 OA
ATOM     11  H   UNL     1       0.403 -20.612  -2.186  1.00  0.00     0.293 HD
ENDBRANCH   2  10
TORSDOF 2
ENDMDL
MODEL 8
REMARK VINA RESULT:    -3.822     16.394     17.362
REMARK INTER + INTRA:          -4.333
REMARK INTER:                  -4.156
REMARK INTRA:                  -0.177
REMARK UNBOUND:                -0.176
REMARK SMILES O=C([O-])c1ccccc1O
REMARK SMILES IDX 4 1 9 2 5 3 8 4 6 5 7 6 2 7 1 8 3 9 10 10
REMARK H PARENT 10 11
REMARK Flexibility Score: inf
ROOT
ATOM      1  C   UNL     1      -0.414 -22.815  -4.533  1.00  0.00     0.039 A 
ATOM      2  C   UNL     1      -0.586 -24.207  -4.717  1.00  0.00     0.124 A 
ATOM      3  C   UNL     1      -0.653 -21.952  -5.622  1.00  0.00     0.014 A 
ATOM      4  C   UNL     1      -0.988 -24.703  -5.968  1.00  0.00     0.047 A 
ATOM      5  C   UNL     1      -1.054 -22.459  -6.860  1.00  0.00     0.001 A 
ATOM      6  C   UNL     1      -1.221 -23.833  -7.032  1.00  0.00     0.004 A 
ENDROOT
BRANCH   1   7
ATOM      7  C   UNL     1       0.012 -22.246  -3.229  1.00  0.00     0.075 C 
ATOM      8  O   UNL     1       0.461 -21.071  -3.163  1.00  0.00    -0.545 OA
ATOM      9  O   UNL     1      -0.075 -22.990  -2.058  1.00  0.00    -0.545 OA
ENDBRANCH   1   7
BRANCH   2  10
ATOM     10  O   UNL     1      -0.359 -25.099  -3.670  1.00  0.00    -0.507 OA
ATOM     11  H   UNL     1      -0.677 -24.905  -2.726  1.00  0.00     0.293 HD
ENDBRANCH   2  10
TORSDOF 2
ENDMDL
MODEL 9
REMARK VINA RESULT:    -3.789     17.033     17.886
REMARK INTER + INTRA:          -4.297
REMARK INTER:                  -4.077
REMARK INTRA:                  -0.220
REMARK UNBOUND:                -0.176
REMARK SMILES O=C([O-])c1ccccc1O
REMARK SMILES IDX 4 1 9 2 5 3 8 4 6 5 7 6 2 7 1 8 3 9 10 10
REMARK H PARENT 10 11
REMARK Flexibility Score: inf
ROOT
ATOM      1  C   UNL     1      -0.685 -23.607  -5.257  1.00  0.00     0.039 A 
ATOM      2  C   UNL     1      -1.012 -22.266  -4.948  1.00  0.00     0.124 A 
ATOM      3  C   UNL     1       0.021 -24.370  -4.304  1.00  0.00     0.014 A 
ATOM      4  C   UNL     1      -0.634 -21.720  -3.711  1.00  0.00     0.047 A 
ATOM      5  C   UNL     1       0.391 -23.814  -3.077  1.00  0.00     0.001 A 
ATOM      6  C   UNL     1       0.064 -22.491  -2.781  1.00  0.00     0.004 A 
ENDROOT
BRANCH   1   7
ATOM      7  C   UNL     1      -1.064 -24.226  -6.553  1.00  0.00     0.075 C 
ATOM      8  O   UNL     1      -1.161 -23.519  -7.591  1.00  0.00    -0.545 OA
ATOM      9  O   UNL     1      -1.318 -25.589  -6.651  1.00  0.00    -0.545 OA
ENDBRANCH   1   7
BRANCH   2  10
ATOM     10  O   UNL     1      -1.709 -21.473  -5.860  1.00  0.00    -0.507 OA
ATOM     11  H   UNL     1      -2.713 -21.349  -5.800  1.00  0.00     0.293 HD
ENDBRANCH   2  10
TORSDOF 2
ENDMDL
