MODEL 1
REMARK VINA RESULT:    -3.770      0.000      0.000
REMARK INTER + INTRA:          -6.087
REMARK INTER:                  -5.754
REMARK INTRA:                  -0.333
REMARK UNBOUND:                -0.333
REMARK SMILES O=C([O-])CCCCCCCCC(=O)[O-]
REMARK SMILES IDX 7 1 6 2 5 3 4 4 2 5 1 6 3 7 8 8 9 9 10 10 11 11 12 12 13 13
REMARK SMILES IDX 14 14
REMARK H PARENT
REMARK Flexibility Score: inf
ROOT
ATOM      1  C   UNL     1       4.095 -34.192  21.112  1.00  0.00     0.000 C 
ENDROOT
BRANCH   1   2
ATOM      2  C   UNL     1       4.535 -33.725  22.509  1.00  0.00     0.000 C 
BRANCH   2   3
ATOM      3  C   UNL     1       5.975 -34.137  22.846  1.00  0.00     0.006 C 
BRANCH   3   4
ATOM      4  C   UNL     1       6.125 -34.433  24.341  1.00  0.00     0.053 C 
BRANCH   4   5
ATOM      5  C   UNL     1       5.820 -35.870  24.625  1.00  0.00     0.041 C 
ATOM      6  O   UNL     1       5.964 -36.331  25.788  1.00  0.00    -0.550 OA
ATOM      7  O   UNL     1       5.331 -36.690  23.615  1.00  0.00    -0.550 OA
ENDBRANCH   4   5
ENDBRANCH   3   4
ENDBRANCH   2   3
ENDBRANCH   1   2
BRANCH   1   8
ATOM      8  C   UNL     1       5.225 -34.890  20.339  1.00  0.00     0.000 C 
BRANCH   8   9
ATOM      9  C   UNL     1       4.667 -35.688  19.154  1.00  0.00     0.000 C 
BRANCH   9  10
ATOM     10  C   UNL     1       4.975 -37.186  19.305  1.00  0.00     0.006 C 
BRANCH  10  11
ATOM     11  C   UNL     1       4.750 -37.683  20.739  1.00  0.00     0.053 C 
BRANCH  11  12
ATOM     12  C   UNL     1       5.376 -39.024  20.967  1.00  0.00     0.041 C 
ATOM     13  O   UNL     1       6.074 -39.559  20.065  1.00  0.00    -0.550 OA
ATOM     14  O   UNL     1       5.216 -39.670  22.188  1.00  0.00    -0.550 OA
ENDBRANCH  11  12
ENDBRANCH  10  11
ENDBRANCH   9  10
ENDBRANCH   8   9
ENDBRANCH   1   8
TORSDOF 9
ENDMDL
MODEL 2
REMARK VINA RESULT:    -3.533      0.721      4.444
REMARK INTER + INTRA:          -5.725
REMARK INTER:                  -5.051
REMARK INTRA:                  -0.674
REMARK UNBOUND:                -0.333
REMARK SMILES O=C([O-])CCCCCCCCC(=O)[O-]
REMARK SMILES IDX 7 1 6 2 5 3 4 4 2 5 1 6 3 7 8 8 9 9 10 10 11 11 12 12 13 13
REMARK SMILES IDX 14 14
REMARK H PARENT
REMARK Flexibility Score: inf
ROOT
ATOM      1  C   UNL     1       4.890 -34.501  20.222  1.00  0.00     0.000 C 
ENDROOT
BRANCH   1   2
ATOM      2  C   UNL     1       4.520 -35.777  19.449  1.00  0.00     0.000 C 
BRANCH   2   3
ATOM      3  C   UNL     1       5.371 -36.987  19.862  1.00  0.00     0.006 C 
BRANCH   3   4
ATOM      4  C   UNL     1       4.558 -37.964  20.716  1.00  0.00     0.053 C 
BRANCH   4   5
ATOM      5  C   UNL     1       5.364 -39.185  21.026  1.00  0.00     0.041 C 
ATOM      6  O   UNL     1       5.325 -39.694  22.177  1.00  0.00    -0.550 OA
ATOM      7  O   UNL     1       6.120 -39.791  20.031  1.00  0.00    -0.550 OA
ENDBRANCH   4   5
ENDBRANCH   3   4
ENDBRANCH   2   3
ENDBRANCH   1   2
BRANCH   1   8
ATOM      8  C   UNL     1       4.208 -34.424  21.597  1.00  0.00     0.000 C 
BRANCH   8   9
ATOM      9  C   UNL     1       5.004 -33.527  22.554  1.00  0.00     0.000 C 
BRANCH   9  10
ATOM     10  C   UNL     1       5.983 -34.356  23.398  1.00  0.00     0.006 C 
BRANCH  10  11
ATOM     11  C   UNL     1       5.548 -35.822  23.521  1.00  0.00     0.053 C 
BRANCH  11  12
ATOM     12  C   UNL     1       5.627 -36.309  24.936  1.00  0.00     0.041 C 
ATOM     13  O   UNL     1       5.273 -37.482  25.224  1.00  0.00    -0.550 OA
ATOM     14  O   UNL     1       6.125 -35.476  25.931  1.00  0.00    -0.550 OA
ENDBRANCH  11  12
ENDBRANCH  10  11
ENDBRANCH   9  10
ENDBRANCH   8   9
ENDBRANCH   1   8
TORSDOF 9
ENDMDL
MODEL 3
REMARK VINA RESULT:    -3.255      2.428      5.049
REMARK INTER + INTRA:          -5.300
REMARK INTER:                  -4.905
REMARK INTRA:                  -0.395
REMARK UNBOUND:                -0.333
REMARK SMILES O=C([O-])CCCCCCCCC(=O)[O-]
REMARK SMILES IDX 7 1 6 2 5 3 4 4 2 5 1 6 3 7 8 8 9 9 10 10 11 11 12 12 13 13
REMARK SMILES IDX 14 14
REMARK H PARENT
REMARK Flexibility Score: inf
ROOT
ATOM      1  C   UNL     1       4.408 -33.742  22.425  1.00  0.00     0.000 C 
ENDROOT
BRANCH   1   2
ATOM      2  C   UNL     1       3.985 -34.657  21.264  1.00  0.00     0.000 C 
BRANCH   2   3
ATOM      3  C   UNL     1       5.014 -35.758  20.972  1.00  0.00     0.006 C 
BRANCH   3   4
ATOM      4  C   UNL     1       4.881 -36.266  19.533  1.00  0.00     0.053 C 
BRANCH   4   5
ATOM      5  C   UNL     1       4.966 -35.129  18.565  1.00  0.00     0.041 C 
ATOM      6  O   UNL     1       4.089 -34.989  17.673  1.00  0.00    -0.550 OA
ATOM      7  O   UNL     1       5.988 -34.195  18.678  1.00  0.00    -0.550 OA
ENDBRANCH   4   5
ENDBRANCH   3   4
ENDBRANCH   2   3
ENDBRANCH   1   2
BRANCH   1   8
ATOM      8  C   UNL     1       5.906 -33.849  22.746  1.00  0.00     0.000 C 
BRANCH   8   9
ATOM      9  C   UNL     1       6.125 -34.352  24.179  1.00  0.00     0.000 C 
BRANCH   9  10
ATOM     10  C   UNL     1       6.099 -35.887  24.233  1.00  0.00     0.006 C 
BRANCH  10  11
ATOM     11  C   UNL     1       5.919 -36.415  25.664  1.00  0.00     0.053 C 
BRANCH  11  12
ATOM     12  C   UNL     1       4.832 -37.442  25.744  1.00  0.00     0.041 C 
ATOM     13  O   UNL     1       3.775 -37.198  26.384  1.00  0.00    -0.550 OA
ATOM     14  O   UNL     1       4.973 -38.658  25.086  1.00  0.00    -0.550 OA
ENDBRANCH  11  12
ENDBRANCH  10  11
ENDBRANCH   9  10
ENDBRANCH   8   9
ENDBRANCH   1   8
TORSDOF 9
ENDMDL
MODEL 4
REMARK VINA RESULT:    -2.915      2.283      4.345
REMARK INTER + INTRA:          -4.782
REMARK INTER:                  -4.443
REMARK INTRA:                  -0.340
REMARK UNBOUND:                -0.333
REMARK SMILES O=C([O-])CCCCCCCCC(=O)[O-]
REMARK SMILES IDX 7 1 6 2 5 3 4 4 2 5 1 6 3 7 8 8 9 9 10 10 11 11 12 12 13 13
REMARK SMILES IDX 14 14
REMARK H PARENT
REMARK Flexibility Score: inf
ROOT
ATOM      1  C   UNL     1       5.760 -34.836  24.089  1.00  0.00     0.000 C 
ENDROOT
BRANCH   1   2
ATOM      2  C   UNL     1       5.871 -36.345  23.820  1.00  0.00     0.000 C 
BRANCH   2   3
ATOM      3  C   UNL     1       5.766 -36.691  22.328  1.00  0.00     0.006 C 
BRANCH   3   4
ATOM      4  C   UNL     1       4.860 -37.906  22.109  1.00  0.00     0.053 C 
BRANCH   4   5
ATOM      5  C   UNL     1       5.291 -38.670  20.898  1.00  0.00     0.041 C 
ATOM      6  O   UNL     1       5.845 -39.794  21.021  1.00  0.00    -0.550 OA
ATOM      7  O   UNL     1       5.037 -38.164  19.629  1.00  0.00    -0.550 OA
ENDBRANCH   4   5
ENDBRANCH   3   4
ENDBRANCH   2   3
ENDBRANCH   1   2
BRANCH   1   8
ATOM      8  C   UNL     1       5.713 -34.007  22.796  1.00  0.00     0.000 C 
BRANCH   8   9
ATOM      9  C   UNL     1       4.267 -33.671  22.412  1.00  0.00     0.000 C 
BRANCH   9  10
ATOM     10  C   UNL     1       4.118 -33.536  20.890  1.00  0.00     0.006 C 
BRANCH  10  11
ATOM     11  C   UNL     1       4.274 -34.883  20.170  1.00  0.00     0.053 C 
BRANCH  11  12
ATOM     12  C   UNL     1       4.950 -34.728  18.842  1.00  0.00     0.041 C 
ATOM     13  O   UNL     1       6.116 -34.258  18.776  1.00  0.00    -0.550 OA
ATOM     14  O   UNL     1       4.304 -35.134  17.680  1.00  0.00    -0.550 OA
ENDBRANCH  11  12
ENDBRANCH  10  11
ENDBRANCH   9  10
ENDBRANCH   8   9
ENDBRANCH   1   8
TORSDOF 9
ENDMDL
MODEL 5
REMARK VINA RESULT:    -2.704      2.295      3.188
REMARK INTER + INTRA:          -4.460
REMARK INTER:                  -4.242
REMARK INTRA:                  -0.218
REMARK UNBOUND:                -0.333
REMARK SMILES O=C([O-])CCCCCCCCC(=O)[O-]
REMARK SMILES IDX 7 1 6 2 5 3 4 4 2 5 1 6 3 7 8 8 9 9 10 10 11 11 12 12 13 13
REMARK SMILES IDX 14 14
REMARK H PARENT
REMARK Flexibility Score: inf
ROOT
ATOM      1  C   UNL     1       5.888 -34.356  22.871  1.00  0.00     0.000 C 
ENDROOT
BRANCH   1   2
ATOM      2  C   UNL     1       6.125 -34.045  24.358  1.00  0.00     0.000 C 
BRANCH   2   3
ATOM      3  C   UNL     1       6.121 -35.304  25.235  1.00  0.00     0.006 C 
BRANCH   3   4
ATOM      4  C   UNL     1       5.678 -36.531  24.431  1.00  0.00     0.053 C 
BRANCH   4   5
ATOM      5  C   UNL     1       4.909 -37.476  25.297  1.00  0.00     0.041 C 
ATOM      6  O   UNL     1       4.155 -37.034  26.205  1.00  0.00    -0.550 OA
ATOM      7  O   UNL     1       4.985 -38.845  25.073  1.00  0.00    -0.550 OA
ENDBRANCH   4   5
ENDBRANCH   3   4
ENDBRANCH   2   3
ENDBRANCH   1   2
BRANCH   1   8
ATOM      8  C   UNL     1       4.658 -33.630  22.304  1.00  0.00     0.000 C 
BRANCH   8   9
ATOM      9  C   UNL     1       4.012 -34.445  21.176  1.00  0.00     0.000 C 
BRANCH   9  10
ATOM     10  C   UNL     1       4.443 -35.918  21.245  1.00  0.00     0.006 C 
BRANCH  10  11
ATOM     11  C   UNL     1       4.972 -36.432  19.899  1.00  0.00     0.053 C 
BRANCH  11  12
ATOM     12  C   UNL     1       4.944 -35.366  18.848  1.00  0.00     0.041 C 
ATOM     13  O   UNL     1       4.100 -35.418  17.915  1.00  0.00    -0.550 OA
ATOM     14  O   UNL     1       5.828 -34.296  18.916  1.00  0.00    -0.550 OA
ENDBRANCH  11  12
ENDBRANCH  10  11
ENDBRANCH   9  10
ENDBRANCH   8   9
ENDBRANCH   1   8
TORSDOF 9
ENDMDL
MODEL 6
REMARK VINA RESULT:    -2.654      2.875      5.481
REMARK INTER + INTRA:          -4.383
REMARK INTER:                  -3.526
REMARK INTRA:                  -0.857
REMARK UNBOUND:                -0.333
REMARK SMILES O=C([O-])CCCCCCCCC(=O)[O-]
REMARK SMILES IDX 7 1 6 2 5 3 4 4 2 5 1 6 3 7 8 8 9 9 10 10 11 11 12 12 13 13
REMARK SMILES IDX 14 14
REMARK H PARENT
REMARK Flexibility Score: inf
ROOT
ATOM      1  C   UNL     1       4.958 -37.422  22.364  1.00  0.00     0.000 C 
ENDROOT
BRANCH   1   2
ATOM      2  C   UNL     1       4.704 -37.935  20.937  1.00  0.00     0.000 C 
BRANCH   2   3
ATOM      3  C   UNL     1       5.340 -37.039  19.864  1.00  0.00     0.006 C 
BRANCH   3   4
ATOM      4  C   UNL     1       4.277 -36.197  19.152  1.00  0.00     0.053 C 
BRANCH   4   5
ATOM      5  C   UNL     1       4.894 -34.979  18.543  1.00  0.00     0.041 C 
ATOM      6  O   UNL     1       4.285 -34.342  17.643  1.00  0.00    -0.550 OA
ATOM      7  O   UNL     1       6.122 -34.517  19.001  1.00  0.00    -0.550 OA
ENDBRANCH   4   5
ENDBRANCH   3   4
ENDBRANCH   2   3
ENDBRANCH   1   2
BRANCH   1   8
ATOM      8  C   UNL     1       5.978 -36.274  22.407  1.00  0.00     0.000 C 
BRANCH   8   9
ATOM      9  C   UNL     1       5.909 -35.530  23.746  1.00  0.00     0.000 C 
BRANCH   9  10
ATOM     10  C   UNL     1       5.265 -34.146  23.574  1.00  0.00     0.006 C 
BRANCH  10  11
ATOM     11  C   UNL     1       5.083 -33.769  22.097  1.00  0.00     0.053 C 
BRANCH  11  12
ATOM     12  C   UNL     1       3.639 -33.755  21.701  1.00  0.00     0.041 C 
ATOM     13  O   UNL     1       2.874 -34.689  22.058  1.00  0.00    -0.550 OA
ATOM     14  O   UNL     1       3.130 -32.693  20.963  1.00  0.00    -0.550 OA
ENDBRANCH  11  12
ENDBRANCH  10  11
ENDBRANCH   9  10
ENDBRANCH   8   9
ENDBRANCH   1   8
TORSDOF 9
ENDMDL
MODEL 7
REMARK VINA RESULT:    -2.401      2.762      3.858
REMARK INTER + INTRA:          -3.997
REMARK INTER:                  -3.635
REMARK INTRA:                  -0.362
REMARK UNBOUND:                -0.333
REMARK SMILES O=C([O-])CCCCCCCCC(=O)[O-]
REMARK SMILES IDX 7 1 6 2 5 3 4 4 2 5 1 6 3 7 8 8 9 9 10 10 11 11 12 12 13 13
REMARK SMILES IDX 14 14
REMARK H PARENT
REMARK Flexibility Score: inf
ROOT
ATOM      1  C   UNL     1       5.526 -37.025  23.336  1.00  0.00     0.000 C 
ENDROOT
BRANCH   1   2
ATOM      2  C   UNL     1       5.917 -35.572  23.655  1.00  0.00     0.000 C 
BRANCH   2   3
ATOM      3  C   UNL     1       5.872 -34.662  22.419  1.00  0.00     0.006 C 
BRANCH   3   4
ATOM      4  C   UNL     1       4.938 -33.471  22.649  1.00  0.00     0.053 C 
BRANCH   4   5
ATOM      5  C   UNL     1       3.676 -33.635  21.864  1.00  0.00     0.041 C 
ATOM      6  O   UNL     1       2.962 -34.661  22.018  1.00  0.00    -0.550 OA
ATOM      7  O   UNL     1       3.261 -32.634  20.995  1.00  0.00    -0.550 OA
ENDBRANCH   4   5
ENDBRANCH   3   4
ENDBRANCH   2   3
ENDBRANCH   1   2
BRANCH   1   8
ATOM      8  C   UNL     1       4.643 -37.139  22.085  1.00  0.00     0.000 C 
BRANCH   8   9
ATOM      9  C   UNL     1       5.285 -38.063  21.042  1.00  0.00     0.000 C 
BRANCH   9  10
ATOM     10  C   UNL     1       5.097 -37.506  19.623  1.00  0.00     0.006 C 
BRANCH  10  11
ATOM     11  C   UNL     1       4.304 -36.192  19.615  1.00  0.00     0.053 C 
BRANCH  11  12
ATOM     12  C   UNL     1       4.903 -35.188  18.679  1.00  0.00     0.041 C 
ATOM     13  O   UNL     1       4.293 -34.857  17.628  1.00  0.00    -0.550 OA
ATOM     14  O   UNL     1       6.122 -34.593  18.984  1.00  0.00    -0.550 OA
ENDBRANCH  11  12
ENDBRANCH  10  11
ENDBRANCH   9  10
ENDBRANCH   8   9
ENDBRANCH   1   8
TORSDOF 9
ENDMDL
