MODEL 1
REMARK VINA RESULT:    12.060      0.000      0.000
REMARK INTER + INTRA:          21.237
REMARK INTER:                  21.930
REMARK INTRA:                  -0.693
REMARK UNBOUND:                -0.693
REMARK SMILES CCCCCCCCCCCCCC[C@H](C)C(=O)[O-]
REMARK SMILES IDX 9 1 10 2 11 3 12 4 13 5 14 6 15 7 16 8 17 9 18 10 19 11 8 12
REMARK SMILES IDX 7 13 6 14 5 15 4 16 3 17 2 18 1 19
REMARK H PARENT
REMARK Flexibility Score: inf
ROOT
ATOM      1  C   UNL     1      14.270  14.046  16.732  1.00  0.00     0.000 C 
ENDROOT
BRANCH   1   2
ATOM      2  C   UNL     1      13.852  15.500  16.999  1.00  0.00     0.000 C 
BRANCH   2   3
ATOM      3  C   UNL     1      14.513  16.087  18.256  1.00  0.00     0.000 C 
BRANCH   3   4
ATOM      4  C   UNL     1      15.832  16.791  17.903  1.00  0.00     0.000 C 
BRANCH   4   5
ATOM      5  C   UNL     1      15.891  18.245  18.405  1.00  0.00     0.001 C 
BRANCH   5   6
ATOM      6  C   UNL     1      16.976  18.529  19.465  1.00  0.00     0.009 C 
BRANCH   6   7
ATOM      7  C   UNL     1      16.701  19.767  20.348  1.00  0.00     0.032 C 
ATOM      8  C   UNL     1      15.391  19.592  21.123  1.00  0.00     0.014 C 
BRANCH   7   9
ATOM      9  C   UNL     1      16.648  21.030  19.531  1.00  0.00     0.044 C 
ATOM     10  O   UNL     1      17.637  21.386  18.835  1.00  0.00    -0.550 OA
ATOM     11  O   UNL     1      15.501  21.814  19.541  1.00  0.00    -0.550 OA
ENDBRANCH   7   9
ENDBRANCH   6   7
ENDBRANCH   5   6
ENDBRANCH   4   5
ENDBRANCH   3   4
ENDBRANCH   2   3
ENDBRANCH   1   2
BRANCH   1  12
ATOM     12  C   UNL     1      13.922  13.106  17.898  1.00  0.00     0.000 C 
BRANCH  12  13
ATOM     13  C   UNL     1      12.806  12.104  17.549  1.00  0.00    -0.000 C 
BRANCH  13  14
ATOM     14  C   UNL     1      11.653  12.680  16.707  1.00  0.00    -0.000 C 
BRANCH  14  15
ATOM     15  C   UNL     1      10.342  11.893  16.871  1.00  0.00    -0.000 C 
BRANCH  15  16
ATOM     16  C   UNL     1       9.111  12.806  16.978  1.00  0.00    -0.000 C 
BRANCH  16  17
ATOM     17  C   UNL     1       8.204  12.720  15.738  1.00  0.00    -0.000 C 
BRANCH  17  18
ATOM     18  C   UNL     1       9.001  12.514  14.440  1.00  0.00    -0.003 C 
ATOM     19  C   UNL     1       8.626  11.223  13.713  1.00  0.00     0.004 C 
ENDBRANCH  17  18
ENDBRANCH  16  17
ENDBRANCH  15  16
ENDBRANCH  14  15
ENDBRANCH  13  14
ENDBRANCH  12  13
ENDBRANCH   1  12
TORSDOF 14
ENDMDL
MODEL 2
REMARK VINA RESULT:    12.162      4.562      9.409
REMARK INTER + INTRA:          21.422
REMARK INTER:                  21.440
REMARK INTRA:                  -0.017
REMARK UNBOUND:                -0.693
REMARK SMILES CCCCCCCCCCCCCC[C@H](C)C(=O)[O-]
REMARK SMILES IDX 9 1 10 2 11 3 12 4 13 5 14 6 15 7 16 8 17 9 18 10 19 11 8 12
REMARK SMILES IDX 7 13 6 14 5 15 4 16 3 17 2 18 1 19
REMARK H PARENT
REMARK Flexibility Score: inf
ROOT
ATOM      1  C   UNL     1      14.666  14.039  17.180  1.00  0.00     0.000 C 
ENDROOT
BRANCH   1   2
ATOM      2  C   UNL     1      14.562  12.712  16.413  1.00  0.00     0.000 C 
BRANCH   2   3
ATOM      3  C   UNL     1      13.750  11.649  17.170  1.00  0.00     0.000 C 
BRANCH   3   4
ATOM      4  C   UNL     1      12.498  12.270  17.809  1.00  0.00     0.000 C 
BRANCH   4   5
ATOM      5  C   UNL     1      11.211  11.974  17.017  1.00  0.00     0.001 C 
BRANCH   5   6
ATOM      6  C   UNL     1      10.669  13.153  16.182  1.00  0.00     0.009 C 
BRANCH   6   7
ATOM      7  C   UNL     1       9.221  12.967  15.675  1.00  0.00     0.032 C 
ATOM      8  C   UNL     1       8.221  13.197  16.812  1.00  0.00     0.014 C 
BRANCH   7   9
ATOM      9  C   UNL     1       9.015  11.600  15.078  1.00  0.00     0.044 C 
ATOM     10  O   UNL     1       9.124  10.566  15.791  1.00  0.00    -0.550 OA
ATOM     11  O   UNL     1       8.701  11.472  13.731  1.00  0.00    -0.550 OA
ENDBRANCH   7   9
ENDBRANCH   6   7
ENDBRANCH   5   6
ENDBRANCH   4   5
ENDBRANCH   3   4
ENDBRANCH   2   3
ENDBRANCH   1   2
BRANCH   1  12
ATOM     12  C   UNL     1      13.608  15.063  16.735  1.00  0.00     0.000 C 
BRANCH  12  13
ATOM     13  C   UNL     1      14.062  16.521  16.936  1.00  0.00    -0.000 C 
BRANCH  13  14
ATOM     14  C   UNL     1      14.652  16.834  18.323  1.00  0.00    -0.000 C 
BRANCH  14  15
ATOM     15  C   UNL     1      16.175  17.053  18.289  1.00  0.00    -0.000 C 
BRANCH  15  16
ATOM     16  C   UNL     1      16.564  18.533  18.427  1.00  0.00    -0.000 C 
BRANCH  16  17
ATOM     17  C   UNL     1      16.748  18.959  19.894  1.00  0.00    -0.000 C 
BRANCH  17  18
ATOM     18  C   UNL     1      16.370  20.430  20.131  1.00  0.00    -0.003 C 
ATOM     19  C   UNL     1      17.010  21.378  19.117  1.00  0.00     0.004 C 
ENDBRANCH  17  18
ENDBRANCH  16  17
ENDBRANCH  15  16
ENDBRANCH  14  15
ENDBRANCH  13  14
ENDBRANCH  12  13
ENDBRANCH   1  12
TORSDOF 14
ENDMDL
MODEL 3
REMARK VINA RESULT:    12.323      4.749      9.187
REMARK INTER + INTRA:          21.715
REMARK INTER:                  22.499
REMARK INTRA:                  -0.784
REMARK UNBOUND:                -0.693
REMARK SMILES CCCCCCCCCCCCCC[C@H](C)C(=O)[O-]
REMARK SMILES IDX 9 1 10 2 11 3 12 4 13 5 14 6 15 7 16 8 17 9 18 10 19 11 8 12
REMARK SMILES IDX 7 13 6 14 5 15 4 16 3 17 2 18 1 19
REMARK H PARENT
REMARK Flexibility Score: inf
ROOT
ATOM      1  C   UNL     1      13.947  14.290  16.570  1.00  0.00     0.000 C 
ENDROOT
BRANCH   1   2
ATOM      2  C   UNL     1      14.255  12.812  16.858  1.00  0.00     0.000 C 
BRANCH   2   3
ATOM      3  C   UNL     1      13.194  12.147  17.749  1.00  0.00     0.000 C 
BRANCH   3   4
ATOM      4  C   UNL     1      11.792  12.300  17.139  1.00  0.00     0.000 C 
BRANCH   4   5
ATOM      5  C   UNL     1      10.932  11.032  17.285  1.00  0.00     0.001 C 
BRANCH   5   6
ATOM      6  C   UNL     1       9.558  11.087  16.584  1.00  0.00     0.009 C 
BRANCH   6   7
ATOM      7  C   UNL     1       9.243  12.435  15.898  1.00  0.00     0.032 C 
ATOM      8  C   UNL     1       8.031  13.102  16.557  1.00  0.00     0.014 C 
BRANCH   7   9
ATOM      9  C   UNL     1       8.994  12.262  14.424  1.00  0.00     0.044 C 
ATOM     10  O   UNL     1       8.396  11.240  13.989  1.00  0.00    -0.550 OA
ATOM     11  O   UNL     1       9.426  13.234  13.529  1.00  0.00    -0.550 OA
ENDBRANCH   7   9
ENDBRANCH   6   7
ENDBRANCH   5   6
ENDBRANCH   4   5
ENDBRANCH   3   4
ENDBRANCH   2   3
ENDBRANCH   1   2
BRANCH   1  12
ATOM     12  C   UNL     1      14.583  15.237  17.601  1.00  0.00     0.000 C 
BRANCH  12  13
ATOM     13  C   UNL     1      14.220  16.715  17.363  1.00  0.00    -0.000 C 
BRANCH  13  14
ATOM     14  C   UNL     1      13.524  17.006  16.021  1.00  0.00    -0.000 C 
BRANCH  14  15
ATOM     15  C   UNL     1      13.197  18.497  15.829  1.00  0.00    -0.000 C 
BRANCH  15  16
ATOM     16  C   UNL     1      14.435  19.336  15.478  1.00  0.00    -0.000 C 
BRANCH  16  17
ATOM     17  C   UNL     1      14.211  20.841  15.707  1.00  0.00    -0.000 C 
BRANCH  17  18
ATOM     18  C   UNL     1      15.518  21.591  16.008  1.00  0.00    -0.003 C 
ATOM     19  C   UNL     1      16.435  21.698  14.789  1.00  0.00     0.004 C 
ENDBRANCH  17  18
ENDBRANCH  16  17
ENDBRANCH  15  16
ENDBRANCH  14  15
ENDBRANCH  13  14
ENDBRANCH  12  13
ENDBRANCH   1  12
TORSDOF 14
ENDMDL
MODEL 4
REMARK VINA RESULT:    12.516      2.556      3.079
REMARK INTER + INTRA:          22.067
REMARK INTER:                  22.848
REMARK INTRA:                  -0.781
REMARK UNBOUND:                -0.693
REMARK SMILES CCCCCCCCCCCCCC[C@H](C)C(=O)[O-]
REMARK SMILES IDX 9 1 10 2 11 3 12 4 13 5 14 6 15 7 16 8 17 9 18 10 19 11 8 12
REMARK SMILES IDX 7 13 6 14 5 15 4 16 3 17 2 18 1 19
REMARK H PARENT
REMARK Flexibility Score: inf
ROOT
ATOM      1  C   UNL     1      14.650  14.837  17.680  1.00  0.00     0.000 C 
ENDROOT
BRANCH   1   2
ATOM      2  C   UNL     1      14.324  16.310  17.386  1.00  0.00     0.000 C 
BRANCH   2   3
ATOM      3  C   UNL     1      13.380  16.481  16.186  1.00  0.00     0.000 C 
BRANCH   3   4
ATOM      4  C   UNL     1      13.143  17.968  15.883  1.00  0.00     0.000 C 
BRANCH   4   5
ATOM      5  C   UNL     1      14.447  18.743  15.620  1.00  0.00     0.001 C 
BRANCH   5   6
ATOM      6  C   UNL     1      14.269  20.251  15.342  1.00  0.00     0.009 C 
BRANCH   6   7
ATOM      7  C   UNL     1      15.235  21.166  16.129  1.00  0.00     0.032 C 
ATOM      8  C   UNL     1      14.459  22.281  16.837  1.00  0.00     0.014 C 
BRANCH   7   9
ATOM      9  C   UNL     1      16.287  21.762  15.233  1.00  0.00     0.044 C 
ATOM     10  O   UNL     1      16.209  21.637  13.980  1.00  0.00    -0.550 OA
ATOM     11  O   UNL     1      17.356  22.457  15.786  1.00  0.00    -0.550 OA
ENDBRANCH   7   9
ENDBRANCH   6   7
ENDBRANCH   5   6
ENDBRANCH   4   5
ENDBRANCH   3   4
ENDBRANCH   2   3
ENDBRANCH   1   2
BRANCH   1  12
ATOM     12  C   UNL     1      13.851  13.866  16.795  1.00  0.00     0.000 C 
BRANCH  12  13
ATOM     13  C   UNL     1      13.811  12.434  17.358  1.00  0.00    -0.000 C 
BRANCH  13  14
ATOM     14  C   UNL     1      12.407  11.805  17.439  1.00  0.00    -0.000 C 
BRANCH  14  15
ATOM     15  C   UNL     1      11.356  12.582  16.628  1.00  0.00    -0.000 C 
BRANCH  15  16
ATOM     16  C   UNL     1      10.017  11.836  16.524  1.00  0.00    -0.000 C 
BRANCH  16  17
ATOM     17  C   UNL     1       8.840  12.780  16.226  1.00  0.00    -0.000 C 
BRANCH  17  18
ATOM     18  C   UNL     1       8.079  12.387  14.949  1.00  0.00    -0.003 C 
ATOM     19  C   UNL     1       8.978  11.727  13.903  1.00  0.00     0.004 C 
ENDBRANCH  17  18
ENDBRANCH  16  17
ENDBRANCH  15  16
ENDBRANCH  14  15
ENDBRANCH  13  14
ENDBRANCH  12  13
ENDBRANCH   1  12
TORSDOF 14
ENDMDL
MODEL 5
REMARK VINA RESULT:    13.122      2.362      3.239
REMARK INTER + INTRA:          23.169
REMARK INTER:                  23.991
REMARK INTRA:                  -0.821
REMARK UNBOUND:                -0.693
REMARK SMILES CCCCCCCCCCCCCC[C@H](C)C(=O)[O-]
REMARK SMILES IDX 9 1 10 2 11 3 12 4 13 5 14 6 15 7 16 8 17 9 18 10 19 11 8 12
REMARK SMILES IDX 7 13 6 14 5 15 4 16 3 17 2 18 1 19
REMARK H PARENT
REMARK Flexibility Score: inf
ROOT
ATOM      1  C   UNL     1      13.843  14.569  16.741  1.00  0.00     0.000 C 
ENDROOT
BRANCH   1   2
ATOM      2  C   UNL     1      14.625  15.494  17.687  1.00  0.00     0.000 C 
BRANCH   2   3
ATOM      3  C   UNL     1      14.371  16.983  17.405  1.00  0.00     0.000 C 
BRANCH   3   4
ATOM      4  C   UNL     1      13.521  17.164  16.137  1.00  0.00     0.000 C 
BRANCH   4   5
ATOM      5  C   UNL     1      13.509  18.615  15.623  1.00  0.00     0.001 C 
BRANCH   5   6
ATOM      6  C   UNL     1      14.849  19.369  15.759  1.00  0.00     0.009 C 
BRANCH   6   7
ATOM      7  C   UNL     1      14.781  20.867  15.383  1.00  0.00     0.032 C 
ATOM      8  C   UNL     1      16.012  21.270  14.566  1.00  0.00     0.014 C 
BRANCH   7   9
ATOM      9  C   UNL     1      14.667  21.740  16.604  1.00  0.00     0.044 C 
ATOM     10  O   UNL     1      13.657  22.475  16.775  1.00  0.00    -0.550 OA
ATOM     11  O   UNL     1      15.681  21.740  17.553  1.00  0.00    -0.550 OA
ENDBRANCH   7   9
ENDBRANCH   6   7
ENDBRANCH   5   6
ENDBRANCH   4   5
ENDBRANCH   3   4
ENDBRANCH   2   3
ENDBRANCH   1   2
BRANCH   1  12
ATOM     12  C   UNL     1      14.002  13.083  17.103  1.00  0.00     0.000 C 
BRANCH  12  13
ATOM     13  C   UNL     1      12.656  12.379  17.357  1.00  0.00    -0.000 C 
BRANCH  13  14
ATOM     14  C   UNL     1      11.491  12.863  16.473  1.00  0.00    -0.000 C 
BRANCH  14  15
ATOM     15  C   UNL     1      10.238  11.979  16.599  1.00  0.00    -0.000 C 
BRANCH  15  16
ATOM     16  C   UNL     1       9.271  12.150  15.417  1.00  0.00    -0.000 C 
BRANCH  16  17
ATOM     17  C   UNL     1       7.925  12.761  15.841  1.00  0.00    -0.000 C 
BRANCH  17  18
ATOM     18  C   UNL     1       7.877  13.094  17.341  1.00  0.00    -0.003 C 
ATOM     19  C   UNL     1       7.933  14.597  17.617  1.00  0.00     0.004 C 
ENDBRANCH  17  18
ENDBRANCH  16  17
ENDBRANCH  15  16
ENDBRANCH  14  15
ENDBRANCH  13  14
ENDBRANCH  12  13
ENDBRANCH   1  12
TORSDOF 14
ENDMDL
