MODEL 1
REMARK VINA RESULT:    -2.392      0.000      0.000
REMARK INTER + INTRA:          -3.880
REMARK INTER:                  -3.441
REMARK INTRA:                  -0.439
REMARK UNBOUND:                -0.439
REMARK SMILES O=C(CO)[C@H](O)[C@H](O)[C@@H](O)CO
REMARK SMILES IDX 7 1 9 2 11 3 12 4 10 6 5 8 2 9 1 10 3 11 4 12 6 14 8 16
REMARK H PARENT 12 5 10 7 4 13 6 15 8 17
REMARK Flexibility Score: inf
ROOT
ATOM      1  C   UNL     1     -36.902  32.874 -11.168  1.00  0.00     0.181 C 
ENDROOT
BRANCH   1   2
ATOM      2  C   UNL     1     -38.251  33.314 -11.792  1.00  0.00     0.171 C 
BRANCH   2   3
ATOM      3  C   UNL     1     -38.990  34.299 -10.875  1.00  0.00     0.190 C 
BRANCH   3   4
ATOM      4  O   UNL     1     -39.083  35.550 -11.500  1.00  0.00    -0.394 OA
ATOM      5  H   UNL     1     -39.280  35.366 -12.454  1.00  0.00     0.210 HD
ENDBRANCH   3   4
ENDBRANCH   2   3
BRANCH   2   6
ATOM      6  O   UNL     1     -39.062  32.189 -12.021  1.00  0.00    -0.388 OA
ATOM      7  H   UNL     1     -38.515  31.535 -12.530  1.00  0.00     0.211 HD
ENDBRANCH   2   6
ENDBRANCH   1   2
BRANCH   1   8
ATOM      8  C   UNL     1     -36.123  34.059 -10.552  1.00  0.00     0.214 C 
BRANCH   8   9
ATOM      9  C   UNL     1     -35.443  34.913 -11.602  1.00  0.00     0.189 C 
ATOM     10  O   UNL     1     -36.024  35.884 -12.066  1.00  0.00    -0.294 OA
BRANCH   9  11
ATOM     11  C   UNL     1     -34.063  34.578 -12.103  1.00  0.00     0.234 C 
BRANCH  11  12
ATOM     12  O   UNL     1     -33.096  35.088 -11.228  1.00  0.00    -0.388 OA
ATOM     13  H   UNL     1     -32.498  35.664 -11.773  1.00  0.00     0.211 HD
ENDBRANCH  11  12
ENDBRANCH   9  11
ENDBRANCH   8   9
BRANCH   8  14
ATOM     14  O   UNL     1     -35.160  33.560  -9.660  1.00  0.00    -0.382 OA
ATOM     15  H   UNL     1     -34.766  34.344  -9.196  1.00  0.00     0.211 HD
ENDBRANCH   8  14
ENDBRANCH   1   8
BRANCH   1  16
ATOM     16  O   UNL     1     -36.103  32.220 -12.124  1.00  0.00    -0.387 OA
ATOM     17  H   UNL     1     -36.679  31.553 -12.581  1.00  0.00     0.211 HD
ENDBRANCH   1  16
TORSDOF 10
ENDMDL
MODEL 2
REMARK VINA RESULT:    -2.057     19.487     20.811
REMARK INTER + INTRA:          -3.399
REMARK INTER:                  -3.090
REMARK INTRA:                  -0.308
REMARK UNBOUND:                -0.439
REMARK SMILES O=C(CO)[C@H](O)[C@H](O)[C@@H](O)CO
REMARK SMILES IDX 7 1 9 2 11 3 12 4 10 6 5 8 2 9 1 10 3 11 4 12 6 14 8 16
REMARK H PARENT 12 5 10 7 4 13 6 15 8 17
REMARK Flexibility Score: inf
ROOT
ATOM      1  C   UNL     1     -38.212  22.287   6.449  1.00  0.00     0.181 C 
ENDROOT
BRANCH   1   2
ATOM      2  C   UNL     1     -37.111  22.493   7.520  1.00  0.00     0.171 C 
BRANCH   2   3
ATOM      3  C   UNL     1     -35.843  23.098   6.901  1.00  0.00     0.190 C 
BRANCH   3   4
ATOM      4  O   UNL     1     -35.889  22.969   5.506  1.00  0.00    -0.394 OA
ATOM      5  H   UNL     1     -36.703  23.453   5.212  1.00  0.00     0.210 HD
ENDBRANCH   3   4
ENDBRANCH   2   3
BRANCH   2   6
ATOM      6  O   UNL     1     -36.795  21.264   8.124  1.00  0.00    -0.388 OA
ATOM      7  H   UNL     1     -37.302  20.562   7.638  1.00  0.00     0.211 HD
ENDBRANCH   2   6
ENDBRANCH   1   2
BRANCH   1   8
ATOM      8  C   UNL     1     -39.123  23.527   6.295  1.00  0.00     0.214 C 
BRANCH   8   9
ATOM      9  C   UNL     1     -38.976  24.188   4.940  1.00  0.00     0.189 C 
ATOM     10  O   UNL     1     -39.087  25.402   4.841  1.00  0.00    -0.294 OA
BRANCH   9  11
ATOM     11  C   UNL     1     -38.710  23.375   3.702  1.00  0.00     0.234 C 
BRANCH  11  12
ATOM     12  O   UNL     1     -37.368  23.498   3.322  1.00  0.00    -0.388 OA
ATOM     13  H   UNL     1     -37.335  23.337   2.342  1.00  0.00     0.211 HD
ENDBRANCH  11  12
ENDBRANCH   9  11
ENDBRANCH   8   9
BRANCH   8  14
ATOM     14  O   UNL     1     -38.809  24.454   7.303  1.00  0.00    -0.382 OA
ATOM     15  H   UNL     1     -38.922  23.983   8.170  1.00  0.00     0.211 HD
ENDBRANCH   8  14
ENDBRANCH   1   8
BRANCH   1  16
ATOM     16  O   UNL     1     -38.992  21.154   6.751  1.00  0.00    -0.387 OA
ATOM     17  H   UNL     1     -39.943  21.423   6.667  1.00  0.00     0.211 HD
ENDBRANCH   1  16
TORSDOF 10
ENDMDL
MODEL 3
REMARK VINA RESULT:    -2.009      1.350      3.999
REMARK INTER + INTRA:          -3.330
REMARK INTER:                  -2.891
REMARK INTRA:                  -0.439
REMARK UNBOUND:                -0.439
REMARK SMILES O=C(CO)[C@H](O)[C@H](O)[C@@H](O)CO
REMARK SMILES IDX 7 1 9 2 11 3 12 4 10 6 5 8 2 9 1 10 3 11 4 12 6 14 8 16
REMARK H PARENT 12 5 10 7 4 13 6 15 8 17
REMARK Flexibility Score: inf
ROOT
ATOM      1  C   UNL     1     -35.822  35.021 -11.038  1.00  0.00     0.181 C 
ENDROOT
BRANCH   1   2
ATOM      2  C   UNL     1     -35.366  33.805 -11.882  1.00  0.00     0.171 C 
BRANCH   2   3
ATOM      3  C   UNL     1     -35.690  32.483 -11.169  1.00  0.00     0.190 C 
BRANCH   3   4
ATOM      4  O   UNL     1     -36.355  31.620 -12.051  1.00  0.00    -0.394 OA
ATOM      5  H   UNL     1     -36.294  30.716 -11.649  1.00  0.00     0.210 HD
ENDBRANCH   3   4
ENDBRANCH   2   3
BRANCH   2   6
ATOM      6  O   UNL     1     -33.983  33.880 -12.121  1.00  0.00    -0.388 OA
ATOM      7  H   UNL     1     -33.844  34.585 -12.806  1.00  0.00     0.211 HD
ENDBRANCH   2   6
ENDBRANCH   1   2
BRANCH   1   8
ATOM      8  C   UNL     1     -37.055  34.701 -10.161  1.00  0.00     0.214 C 
BRANCH   8   9
ATOM      9  C   UNL     1     -38.348  34.725 -10.949  1.00  0.00     0.189 C 
ATOM     10  O   UNL     1     -38.816  35.794 -11.315  1.00  0.00    -0.294 OA
BRANCH   9  11
ATOM     11  C   UNL     1     -39.083  33.453 -11.279  1.00  0.00     0.234 C 
BRANCH  11  12
ATOM     12  O   UNL     1     -38.948  32.533 -10.232  1.00  0.00    -0.388 OA
ATOM     13  H   UNL     1     -38.276  32.913  -9.606  1.00  0.00     0.211 HD
ENDBRANCH  11  12
ENDBRANCH   9  11
ENDBRANCH   8   9
BRANCH   8  14
ATOM     14  O   UNL     1     -37.128  35.636  -9.115  1.00  0.00    -0.382 OA
ATOM     15  H   UNL     1     -36.861  35.159  -8.286  1.00  0.00     0.211 HD
ENDBRANCH   8  14
ENDBRANCH   1   8
BRANCH   1  16
ATOM     16  O   UNL     1     -36.097  36.125 -11.867  1.00  0.00    -0.387 OA
ATOM     17  H   UNL     1     -35.225  36.484 -12.175  1.00  0.00     0.211 HD
ENDBRANCH   1  16
TORSDOF 10
ENDMDL
MODEL 4
REMARK VINA RESULT:    -0.783     19.415     20.724
REMARK INTER + INTRA:          -1.565
REMARK INTER:                  -1.773
REMARK INTRA:                   0.208
REMARK UNBOUND:                -0.439
REMARK SMILES O=C(CO)[C@H](O)[C@H](O)[C@@H](O)CO
REMARK SMILES IDX 7 1 9 2 11 3 12 4 10 6 5 8 2 9 1 10 3 11 4 12 6 14 8 16
REMARK H PARENT 12 5 10 7 4 13 6 15 8 17
REMARK Flexibility Score: inf
ROOT
ATOM      1  C   UNL     1     -38.942  23.696   6.546  1.00  0.00     0.181 C 
ENDROOT
BRANCH   1   2
ATOM      2  C   UNL     1     -39.108  22.227   7.011  1.00  0.00     0.171 C 
BRANCH   2   3
ATOM      3  C   UNL     1     -38.107  21.882   8.123  1.00  0.00     0.190 C 
BRANCH   3   4
ATOM      4  O   UNL     1     -37.371  20.745   7.762  1.00  0.00    -0.394 OA
ATOM      5  H   UNL     1     -36.418  21.021   7.770  1.00  0.00     0.210 HD
ENDBRANCH   3   4
ENDBRANCH   2   3
BRANCH   2   6
ATOM      6  O   UNL     1     -38.918  21.356   5.924  1.00  0.00    -0.388 OA
ATOM      7  H   UNL     1     -38.217  20.706   6.192  1.00  0.00     0.211 HD
ENDBRANCH   2   6
ENDBRANCH   1   2
BRANCH   1   8
ATOM      8  C   UNL     1     -37.727  23.883   5.607  1.00  0.00     0.214 C 
BRANCH   8   9
ATOM      9  C   UNL     1     -37.977  23.329   4.220  1.00  0.00     0.189 C 
ATOM     10  O   UNL     1     -37.229  22.477   3.762  1.00  0.00    -0.294 OA
BRANCH   9  11
ATOM     11  C   UNL     1     -39.125  23.821   3.380  1.00  0.00     0.234 C 
BRANCH  11  12
ATOM     12  O   UNL     1     -38.984  25.191   3.126  1.00  0.00    -0.388 OA
ATOM     13  H   UNL     1     -39.827  25.486   2.691  1.00  0.00     0.211 HD
ENDBRANCH  11  12
ENDBRANCH   9  11
ENDBRANCH   8   9
BRANCH   8  14
ATOM     14  O   UNL     1     -36.611  23.243   6.172  1.00  0.00    -0.382 OA
ATOM     15  H   UNL     1     -36.220  23.877   6.828  1.00  0.00     0.211 HD
ENDBRANCH   8  14
ENDBRANCH   1   8
BRANCH   1  16
ATOM     16  O   UNL     1     -38.830  24.556   7.654  1.00  0.00    -0.387 OA
ATOM     17  H   UNL     1     -38.015  25.106   7.516  1.00  0.00     0.211 HD
ENDBRANCH   1  16
TORSDOF 10
ENDMDL
MODEL 5
REMARK VINA RESULT:    -0.345     20.386     21.463
REMARK INTER + INTRA:          -0.935
REMARK INTER:                  -1.332
REMARK INTRA:                   0.397
REMARK UNBOUND:                -0.439
REMARK SMILES O=C(CO)[C@H](O)[C@H](O)[C@@H](O)CO
REMARK SMILES IDX 7 1 9 2 11 3 12 4 10 6 5 8 2 9 1 10 3 11 4 12 6 14 8 16
REMARK H PARENT 12 5 10 7 4 13 6 15 8 17
REMARK Flexibility Score: inf
ROOT
ATOM      1  C   UNL     1     -38.036  23.481   6.531  1.00  0.00     0.181 C 
ENDROOT
BRANCH   1   2
ATOM      2  C   UNL     1     -38.975  22.250   6.613  1.00  0.00     0.171 C 
BRANCH   2   3
ATOM      3  C   UNL     1     -39.116  21.757   8.060  1.00  0.00     0.190 C 
BRANCH   3   4
ATOM      4  O   UNL     1     -38.963  20.364   8.103  1.00  0.00    -0.394 OA
ATOM      5  H   UNL     1     -38.387  20.127   7.331  1.00  0.00     0.210 HD
ENDBRANCH   3   4
ENDBRANCH   2   3
BRANCH   2   6
ATOM      6  O   UNL     1     -38.471  21.211   5.812  1.00  0.00    -0.388 OA
ATOM      7  H   UNL     1     -37.892  21.629   5.123  1.00  0.00     0.211 HD
ENDBRANCH   2   6
ENDBRANCH   1   2
BRANCH   1   8
ATOM      8  C   UNL     1     -36.705  23.258   7.287  1.00  0.00     0.214 C 
BRANCH   8   9
ATOM      9  C   UNL     1     -35.495  23.578   6.435  1.00  0.00     0.189 C 
ATOM     10  O   UNL     1     -35.319  22.983   5.381  1.00  0.00    -0.294 OA
BRANCH   9  11
ATOM     11  C   UNL     1     -34.488  24.609   6.869  1.00  0.00     0.234 C 
BRANCH  11  12
ATOM     12  O   UNL     1     -33.437  24.676   5.947  1.00  0.00    -0.388 OA
ATOM     13  H   UNL     1     -33.414  25.611   5.611  1.00  0.00     0.211 HD
ENDBRANCH  11  12
ENDBRANCH   9  11
ENDBRANCH   8   9
BRANCH   8  14
ATOM     14  O   UNL     1     -36.638  21.920   7.709  1.00  0.00    -0.382 OA
ATOM     15  H   UNL     1     -37.573  21.617   7.854  1.00  0.00     0.211 HD
ENDBRANCH   8  14
ENDBRANCH   1   8
BRANCH   1  16
ATOM     16  O   UNL     1     -38.681  24.630   7.025  1.00  0.00    -0.387 OA
ATOM     17  H   UNL     1     -39.304  24.332   7.738  1.00  0.00     0.211 HD
ENDBRANCH   1  16
TORSDOF 10
ENDMDL
MODEL 6
REMARK VINA RESULT:    -0.107     18.089     20.066
REMARK INTER + INTRA:          -0.594
REMARK INTER:                  -0.714
REMARK INTRA:                   0.120
REMARK UNBOUND:                -0.439
REMARK SMILES O=C(CO)[C@H](O)[C@H](O)[C@@H](O)CO
REMARK SMILES IDX 7 1 9 2 11 3 12 4 10 6 5 8 2 9 1 10 3 11 4 12 6 14 8 16
REMARK H PARENT 12 5 10 7 4 13 6 15 8 17
REMARK Flexibility Score: inf
ROOT
ATOM      1  C   UNL     1     -18.886  24.197  -6.593  1.00  0.00     0.181 C 
ENDROOT
BRANCH   1   2
ATOM      2  C   UNL     1     -20.066  23.513  -5.857  1.00  0.00     0.171 C 
BRANCH   2   3
ATOM      3  C   UNL     1     -19.575  22.350  -4.983  1.00  0.00     0.190 C 
BRANCH   3   4
ATOM      4  O   UNL     1     -20.292  22.327  -3.779  1.00  0.00    -0.394 OA
ATOM      5  H   UNL     1     -19.614  22.255  -3.058  1.00  0.00     0.210 HD
ENDBRANCH   3   4
ENDBRANCH   2   3
BRANCH   2   6
ATOM      6  O   UNL     1     -21.000  23.034  -6.792  1.00  0.00    -0.388 OA
ATOM      7  H   UNL     1     -21.902  23.192  -6.410  1.00  0.00     0.211 HD
ENDBRANCH   2   6
ENDBRANCH   1   2
BRANCH   1   8
ATOM      8  C   UNL     1     -18.879  25.731  -6.397  1.00  0.00     0.214 C 
BRANCH   8   9
ATOM      9  C   UNL     1     -19.828  26.180  -5.306  1.00  0.00     0.189 C 
ATOM     10  O   UNL     1     -19.416  26.323  -4.163  1.00  0.00    -0.294 OA
BRANCH   9  11
ATOM     11  C   UNL     1     -21.282  26.439  -5.597  1.00  0.00     0.234 C 
BRANCH  11  12
ATOM     12  O   UNL     1     -21.834  27.258  -4.604  1.00  0.00    -0.388 OA
ATOM     13  H   UNL     1     -21.620  28.194  -4.859  1.00  0.00     0.211 HD
ENDBRANCH  11  12
ENDBRANCH   9  11
ENDBRANCH   8   9
BRANCH   8  14
ATOM     14  O   UNL     1     -19.235  26.347  -7.608  1.00  0.00    -0.382 OA
ATOM     15  H   UNL     1     -18.406  26.414  -8.150  1.00  0.00     0.211 HD
ENDBRANCH   8  14
ENDBRANCH   1   8
BRANCH   1  16
ATOM     16  O   UNL     1     -18.912  23.888  -7.966  1.00  0.00    -0.387 OA
ATOM     17  H   UNL     1     -18.034  24.156  -8.343  1.00  0.00     0.211 HD
ENDBRANCH   1  16
TORSDOF 10
ENDMDL
MODEL 7
REMARK VINA RESULT:    -0.094     17.843     19.796
REMARK INTER + INTRA:          -0.574
REMARK INTER:                  -0.881
REMARK INTRA:                   0.307
REMARK UNBOUND:                -0.439
REMARK SMILES O=C(CO)[C@H](O)[C@H](O)[C@@H](O)CO
REMARK SMILES IDX 7 1 9 2 11 3 12 4 10 6 5 8 2 9 1 10 3 11 4 12 6 14 8 16
REMARK H PARENT 12 5 10 7 4 13 6 15 8 17
REMARK Flexibility Score: inf
ROOT
ATOM      1  C   UNL     1     -19.432  25.994  -5.151  1.00  0.00     0.181 C 
ENDROOT
BRANCH   1   2
ATOM      2  C   UNL     1     -20.962  26.143  -5.344  1.00  0.00     0.171 C 
BRANCH   2   3
ATOM      3  C   UNL     1     -21.284  26.982  -6.590  1.00  0.00     0.190 C 
BRANCH   3   4
ATOM      4  O   UNL     1     -22.439  27.743  -6.363  1.00  0.00    -0.394 OA
ATOM      5  H   UNL     1     -22.497  27.869  -5.381  1.00  0.00     0.210 HD
ENDBRANCH   3   4
ENDBRANCH   2   3
BRANCH   2   6
ATOM      6  O   UNL     1     -21.531  26.752  -4.211  1.00  0.00    -0.388 OA
ATOM      7  H   UNL     1     -21.480  27.734  -4.353  1.00  0.00     0.211 HD
ENDBRANCH   2   6
ENDBRANCH   1   2
BRANCH   1   8
ATOM      8  C   UNL     1     -18.934  24.566  -5.472  1.00  0.00     0.214 C 
BRANCH   8   9
ATOM      9  C   UNL     1     -18.901  24.285  -6.960  1.00  0.00     0.189 C 
ATOM     10  O   UNL     1     -18.910  25.215  -7.754  1.00  0.00    -0.294 OA
BRANCH   9  11
ATOM     11  C   UNL     1     -18.875  22.875  -7.486  1.00  0.00     0.234 C 
BRANCH  11  12
ATOM     12  O   UNL     1     -19.173  21.972  -6.458  1.00  0.00    -0.388 OA
ATOM     13  H   UNL     1     -18.306  21.726  -6.038  1.00  0.00     0.211 HD
ENDBRANCH  11  12
ENDBRANCH   9  11
ENDBRANCH   8   9
BRANCH   8  14
ATOM     14  O   UNL     1     -19.776  23.635  -4.840  1.00  0.00    -0.382 OA
ATOM     15  H   UNL     1     -19.516  22.738  -5.178  1.00  0.00     0.211 HD
ENDBRANCH   8  14
ENDBRANCH   1   8
BRANCH   1  16
ATOM     16  O   UNL     1     -19.061  26.348  -3.840  1.00  0.00    -0.387 OA
ATOM     17  H   UNL     1     -19.843  26.170  -3.256  1.00  0.00     0.211 HD
ENDBRANCH   1  16
TORSDOF 10
ENDMDL
MODEL 8
REMARK VINA RESULT:     0.413      1.777      4.442
REMARK INTER + INTRA:           0.155
REMARK INTER:                  -0.921
REMARK INTRA:                   1.076
REMARK UNBOUND:                -0.439
REMARK SMILES O=C(CO)[C@H](O)[C@H](O)[C@@H](O)CO
REMARK SMILES IDX 7 1 9 2 11 3 12 4 10 6 5 8 2 9 1 10 3 11 4 12 6 14 8 16
REMARK H PARENT 12 5 10 7 4 13 6 15 8 17
REMARK Flexibility Score: inf
ROOT
ATOM      1  C   UNL     1     -35.879  34.762 -11.026  1.00  0.00     0.181 C 
ENDROOT
BRANCH   1   2
ATOM      2  C   UNL     1     -34.353  34.501 -10.959  1.00  0.00     0.171 C 
BRANCH   2   3
ATOM      3  C   UNL     1     -33.560  35.804 -11.138  1.00  0.00     0.190 C 
BRANCH   3   4
ATOM      4  O   UNL     1     -32.550  35.616 -12.091  1.00  0.00    -0.394 OA
ATOM      5  H   UNL     1     -32.615  36.384 -12.715  1.00  0.00     0.210 HD
ENDBRANCH   3   4
ENDBRANCH   2   3
BRANCH   2   6
ATOM      6  O   UNL     1     -33.980  33.586 -11.958  1.00  0.00    -0.388 OA
ATOM      7  H   UNL     1     -33.379  32.919 -11.533  1.00  0.00     0.211 HD
ENDBRANCH   2   6
ENDBRANCH   1   2
BRANCH   1   8
ATOM      8  C   UNL     1     -36.554  34.668  -9.638  1.00  0.00     0.214 C 
BRANCH   8   9
ATOM      9  C   UNL     1     -37.929  34.038  -9.704  1.00  0.00     0.189 C 
ATOM     10  O   UNL     1     -38.834  34.478  -9.008  1.00  0.00    -0.294 OA
BRANCH   9  11
ATOM     11  C   UNL     1     -38.204  32.862 -10.603  1.00  0.00     0.234 C 
BRANCH  11  12
ATOM     12  O   UNL     1     -39.125  31.997  -9.998  1.00  0.00    -0.388 OA
ATOM     13  H   UNL     1     -39.252  31.237 -10.625  1.00  0.00     0.211 HD
ENDBRANCH  11  12
ENDBRANCH   9  11
ENDBRANCH   8   9
BRANCH   8  14
ATOM     14  O   UNL     1     -36.658  35.958  -9.092  1.00  0.00    -0.382 OA
ATOM     15  H   UNL     1     -36.857  35.845  -8.125  1.00  0.00     0.211 HD
ENDBRANCH   8  14
ENDBRANCH   1   8
BRANCH   1  16
ATOM     16  O   UNL     1     -36.496  33.868 -11.920  1.00  0.00    -0.387 OA
ATOM     17  H   UNL     1     -36.523  32.981 -11.476  1.00  0.00     0.211 HD
ENDBRANCH   1  16
TORSDOF 10
ENDMDL
