MODEL 1
REMARK VINA RESULT:    -6.576      0.000      0.000
REMARK INTER + INTRA:         -10.543
REMARK INTER:                  -9.075
REMARK INTRA:                  -1.468
REMARK UNBOUND:                -1.468
REMARK SMILES CC[C@@H](CC[C@@H](C)[C@@H]1CC[C@@H]2[C@@H]3CC=C4C[C@H](O)CC[C@]4(C)[C@H]3CC[C@@]21C)C(C)C
REMARK SMILES IDX 5 1 4 2 3 3 2 4 1 5 28 6 29 7 30 8 6 9 7 10 8 11 9 12 26 13
REMARK SMILES IDX 10 14 11 15 25 16 27 17 12 18 24 19 23 20 13 21 21 22 14 23
REMARK SMILES IDX 15 24 20 25 22 26 16 27 19 28 17 29 18 30
REMARK H PARENT 18 31
REMARK Flexibility Score: inf
ROOT
ATOM      1  C   UNL     1      14.870 -17.387  11.806  1.00  0.00     0.004 C 
ENDROOT
BRANCH   1   2
ATOM      2  C   UNL     1      15.428 -18.711  11.237  1.00  0.00     0.004 C 
BRANCH   2   3
ATOM      3  C   UNL     1      16.846 -19.050  11.783  1.00  0.00    -0.009 C 
BRANCH   3   4
ATOM      4  C   UNL     1      17.089 -18.257  13.101  1.00  0.00     0.000 C 
ATOM      5  C   UNL     1      16.870 -19.075  14.375  1.00  0.00     0.004 C 
ENDBRANCH   3   4
BRANCH   3   6
ATOM      6  C   UNL     1      17.936 -18.843  10.670  1.00  0.00    -0.014 C 
ATOM      7  C   UNL     1      17.366 -18.532   9.275  1.00  0.00     0.007 C 
ATOM      8  C   UNL     1      19.008 -17.817  11.069  1.00  0.00     0.007 C 
ENDBRANCH   3   6
ENDBRANCH   2   3
ENDBRANCH   1   2
BRANCH   1   9
ATOM      9  C   UNL     1      13.524 -17.559  12.562  1.00  0.00    -0.011 C 
ATOM     10  C   UNL     1      12.858 -18.892  12.161  1.00  0.00     0.008 C 
BRANCH   9  11
ATOM     11  C   UNL     1      13.746 -17.369  14.110  1.00  0.00    -0.002 C 
ATOM     12  C   UNL     1      13.349 -18.541  15.019  1.00  0.00     0.005 C 
ATOM     13  C   UNL     1      13.136 -16.103  14.776  1.00  0.00    -0.026 C 
ATOM     14  C   UNL     1      13.083 -17.932  16.401  1.00  0.00     0.005 C 
ATOM     15  C   UNL     1      13.339 -16.417  16.276  1.00  0.00    -0.001 C 
ATOM     16  C   UNL     1      11.621 -15.953  14.463  1.00  0.00     0.007 C 
ATOM     17  C   UNL     1      13.918 -14.833  14.359  1.00  0.00     0.012 C 
ATOM     18  C   UNL     1      12.530 -15.502  17.253  1.00  0.00     0.000 C 
ATOM     19  C   UNL     1      10.926 -14.936  15.369  1.00  0.00     0.005 C 
ATOM     20  C   UNL     1      11.041 -15.342  16.859  1.00  0.00     0.003 C 
ATOM     21  C   UNL     1      12.654 -16.000  18.703  1.00  0.00     0.031 C 
ATOM     22  C   UNL     1      10.272 -14.359  17.834  1.00  0.00    -0.008 C 
ATOM     23  C   UNL     1      11.784 -15.244  19.660  1.00  0.00    -0.027 C 
ATOM     24  C   UNL     1      10.630 -14.643  19.303  1.00  0.00    -0.065 C 
ATOM     25  C   UNL     1       8.736 -14.566  17.644  1.00  0.00     0.014 C 
ATOM     26  C   UNL     1      10.627 -12.874  17.539  1.00  0.00     0.016 C 
ATOM     27  C   UNL     1       9.754 -14.058  20.396  1.00  0.00     0.063 C 
ATOM     28  C   UNL     1       7.875 -13.890  18.724  1.00  0.00     0.033 C 
ATOM     29  C   UNL     1       8.273 -14.350  20.133  1.00  0.00     0.118 C 
BRANCH  29  30
ATOM     30  O   UNL     1       8.034 -15.726  20.285  1.00  0.00    -0.393 OA
ATOM     31  H   UNL     1       8.471 -16.179  19.515  1.00  0.00     0.210 HD
ENDBRANCH  29  30
ENDBRANCH   9  11
ENDBRANCH   1   9
TORSDOF 7
ENDMDL
MODEL 2
REMARK VINA RESULT:    -6.422      3.101      8.212
REMARK INTER + INTRA:         -10.330
REMARK INTER:                  -9.555
REMARK INTRA:                  -0.775
REMARK UNBOUND:                -1.468
REMARK SMILES CC[C@@H](CC[C@@H](C)[C@@H]1CC[C@@H]2[C@@H]3CC=C4C[C@H](O)CC[C@]4(C)[C@H]3CC[C@@]21C)C(C)C
REMARK SMILES IDX 5 1 4 2 3 3 2 4 1 5 28 6 29 7 30 8 6 9 7 10 8 11 9 12 26 13
REMARK SMILES IDX 10 14 11 15 25 16 27 17 12 18 24 19 23 20 13 21 21 22 14 23
REMARK SMILES IDX 15 24 20 25 22 26 16 27 19 28 17 29 18 30
REMARK H PARENT 18 31
REMARK Flexibility Score: inf
ROOT
ATOM      1  C   UNL     1      10.810 -15.230  17.248  1.00  0.00     0.004 C 
ENDROOT
BRANCH   1   2
ATOM      2  C   UNL     1      10.422 -13.952  16.472  1.00  0.00     0.004 C 
BRANCH   2   3
ATOM      3  C   UNL     1      11.622 -13.332  15.698  1.00  0.00    -0.009 C 
BRANCH   3   4
ATOM      4  C   UNL     1      12.731 -12.927  16.713  1.00  0.00     0.000 C 
ATOM      5  C   UNL     1      14.034 -13.713  16.566  1.00  0.00     0.004 C 
ENDBRANCH   3   4
BRANCH   3   6
ATOM      6  C   UNL     1      11.136 -12.178  14.746  1.00  0.00    -0.014 C 
ATOM      7  C   UNL     1      10.008 -11.310  15.329  1.00  0.00     0.007 C 
ATOM      8  C   UNL     1      12.291 -11.308  14.227  1.00  0.00     0.007 C 
ENDBRANCH   3   6
ENDBRANCH   2   3
ENDBRANCH   1   2
BRANCH   1   9
ATOM      9  C   UNL     1      10.544 -16.538  16.454  1.00  0.00    -0.011 C 
ATOM     10  C   UNL     1       9.957 -16.206  15.065  1.00  0.00     0.008 C 
BRANCH   9  11
ATOM     11  C   UNL     1      11.844 -17.427  16.426  1.00  0.00    -0.002 C 
ATOM     12  C   UNL     1      13.032 -16.951  17.275  1.00  0.00     0.005 C 
ATOM     13  C   UNL     1      12.446 -17.782  15.037  1.00  0.00    -0.026 C 
ATOM     14  C   UNL     1      14.281 -17.574  16.641  1.00  0.00     0.005 C 
ATOM     15  C   UNL     1      13.800 -18.409  15.438  1.00  0.00    -0.001 C 
ATOM     16  C   UNL     1      12.682 -16.517  14.164  1.00  0.00     0.007 C 
ATOM     17  C   UNL     1      11.551 -18.808  14.297  1.00  0.00     0.012 C 
ATOM     18  C   UNL     1      14.821 -18.573  14.265  1.00  0.00     0.000 C 
ATOM     19  C   UNL     1      13.578 -16.790  12.955  1.00  0.00     0.005 C 
ATOM     20  C   UNL     1      14.972 -17.301  13.394  1.00  0.00     0.003 C 
ATOM     21  C   UNL     1      16.192 -19.034  14.788  1.00  0.00     0.031 C 
ATOM     22  C   UNL     1      15.964 -17.527  12.181  1.00  0.00    -0.008 C 
ATOM     23  C   UNL     1      17.246 -19.070  13.724  1.00  0.00    -0.027 C 
ATOM     24  C   UNL     1      17.229 -18.278  12.632  1.00  0.00    -0.065 C 
ATOM     25  C   UNL     1      16.385 -16.135  11.614  1.00  0.00     0.014 C 
ATOM     26  C   UNL     1      15.297 -18.360  11.050  1.00  0.00     0.016 C 
ATOM     27  C   UNL     1      18.439 -18.288  11.717  1.00  0.00     0.063 C 
ATOM     28  C   UNL     1      17.562 -16.192  10.625  1.00  0.00     0.033 C 
ATOM     29  C   UNL     1      18.789 -16.872  11.249  1.00  0.00     0.118 C 
BRANCH  29  30
ATOM     30  O   UNL     1      19.264 -16.123  12.338  1.00  0.00    -0.393 OA
ATOM     31  H   UNL     1      19.319 -16.746  13.111  1.00  0.00     0.210 HD
ENDBRANCH  29  30
ENDBRANCH   9  11
ENDBRANCH   1   9
TORSDOF 7
ENDMDL
MODEL 3
REMARK VINA RESULT:    -6.184     11.215     15.934
REMARK INTER + INTRA:         -10.002
REMARK INTER:                  -9.634
REMARK INTRA:                  -0.368
REMARK UNBOUND:                -1.468
REMARK SMILES CC[C@@H](CC[C@@H](C)[C@@H]1CC[C@@H]2[C@@H]3CC=C4C[C@H](O)CC[C@]4(C)[C@H]3CC[C@@]21C)C(C)C
REMARK SMILES IDX 5 1 4 2 3 3 2 4 1 5 28 6 29 7 30 8 6 9 7 10 8 11 9 12 26 13
REMARK SMILES IDX 10 14 11 15 25 16 27 17 12 18 24 19 23 20 13 21 21 22 14 23
REMARK SMILES IDX 15 24 20 25 22 26 16 27 19 28 17 29 18 30
REMARK H PARENT 18 31
REMARK Flexibility Score: inf
ROOT
ATOM      1  C   UNL     1      25.909  -8.559   7.467  1.00  0.00     0.004 C 
ENDROOT
BRANCH   1   2
ATOM      2  C   UNL     1      26.858  -9.331   8.411  1.00  0.00     0.004 C 
BRANCH   2   3
ATOM      3  C   UNL     1      26.520  -9.110   9.914  1.00  0.00    -0.009 C 
BRANCH   3   4
ATOM      4  C   UNL     1      24.994  -8.841  10.062  1.00  0.00     0.000 C 
ATOM      5  C   UNL     1      24.405  -9.282  11.402  1.00  0.00     0.004 C 
ENDBRANCH   3   4
BRANCH   3   6
ATOM      6  C   UNL     1      27.455  -8.011  10.540  1.00  0.00    -0.014 C 
ATOM      7  C   UNL     1      27.007  -6.566  10.262  1.00  0.00     0.007 C 
ATOM      8  C   UNL     1      27.711  -8.231  12.039  1.00  0.00     0.007 C 
ENDBRANCH   3   6
ENDBRANCH   2   3
ENDBRANCH   1   2
BRANCH   1   9
ATOM      9  C   UNL     1      26.277  -8.708   5.965  1.00  0.00    -0.011 C 
ATOM     10  C   UNL     1      27.341  -9.813   5.787  1.00  0.00     0.008 C 
BRANCH   9  11
ATOM     11  C   UNL     1      24.972  -8.902   5.106  1.00  0.00    -0.002 C 
ATOM     12  C   UNL     1      23.808  -7.938   5.380  1.00  0.00     0.005 C 
ATOM     13  C   UNL     1      24.335 -10.320   5.072  1.00  0.00    -0.026 C 
ATOM     14  C   UNL     1      22.540  -8.665   4.915  1.00  0.00     0.005 C 
ATOM     15  C   UNL     1      22.986 -10.037   4.371  1.00  0.00    -0.001 C 
ATOM     16  C   UNL     1      24.085 -10.881   6.501  1.00  0.00     0.007 C 
ATOM     17  C   UNL     1      25.205 -11.294   4.238  1.00  0.00     0.012 C 
ATOM     18  C   UNL     1      21.937 -11.191   4.475  1.00  0.00     0.000 C 
ATOM     19  C   UNL     1      23.158 -12.097   6.507  1.00  0.00     0.005 C 
ATOM     20  C   UNL     1      21.772 -11.749   5.910  1.00  0.00     0.003 C 
ATOM     21  C   UNL     1      20.577 -10.750   3.908  1.00  0.00     0.031 C 
ATOM     22  C   UNL     1      20.750 -12.957   5.963  1.00  0.00    -0.008 C 
ATOM     23  C   UNL     1      19.497 -11.769   4.113  1.00  0.00    -0.027 C 
ATOM     24  C   UNL     1      19.492 -12.655   5.130  1.00  0.00    -0.065 C 
ATOM     25  C   UNL     1      20.323 -13.187   7.447  1.00  0.00     0.014 C 
ATOM     26  C   UNL     1      21.384 -14.263   5.406  1.00  0.00     0.016 C 
ATOM     27  C   UNL     1      18.260 -13.519   5.326  1.00  0.00     0.063 C 
ATOM     28  C   UNL     1      19.122 -14.133   7.614  1.00  0.00     0.033 C 
ATOM     29  C   UNL     1      17.907 -13.648   6.812  1.00  0.00     0.118 C 
BRANCH  29  30
ATOM     30  O   UNL     1      17.463 -12.407   7.297  1.00  0.00    -0.393 OA
ATOM     31  H   UNL     1      18.268 -11.923   7.624  1.00  0.00     0.210 HD
ENDBRANCH  29  30
ENDBRANCH   9  11
ENDBRANCH   1   9
TORSDOF 7
ENDMDL
MODEL 4
REMARK VINA RESULT:    -6.001      2.585      4.881
REMARK INTER + INTRA:          -9.749
REMARK INTER:                  -9.700
REMARK INTRA:                  -0.048
REMARK UNBOUND:                -1.468
REMARK SMILES CC[C@@H](CC[C@@H](C)[C@@H]1CC[C@@H]2[C@@H]3CC=C4C[C@H](O)CC[C@]4(C)[C@H]3CC[C@@]21C)C(C)C
REMARK SMILES IDX 5 1 4 2 3 3 2 4 1 5 28 6 29 7 30 8 6 9 7 10 8 11 9 12 26 13
REMARK SMILES IDX 10 14 11 15 25 16 27 17 12 18 24 19 23 20 13 21 21 22 14 23
REMARK SMILES IDX 15 24 20 25 22 26 16 27 19 28 17 29 18 30
REMARK H PARENT 18 31
REMARK Flexibility Score: inf
ROOT
ATOM      1  C   UNL     1      17.589 -16.765  10.888  1.00  0.00     0.004 C 
ENDROOT
BRANCH   1   2
ATOM      2  C   UNL     1      18.857 -16.126  10.279  1.00  0.00     0.004 C 
BRANCH   2   3
ATOM      3  C   UNL     1      18.637 -14.646   9.850  1.00  0.00    -0.009 C 
BRANCH   3   4
ATOM      4  C   UNL     1      17.918 -13.882  11.000  1.00  0.00     0.000 C 
ATOM      5  C   UNL     1      18.705 -12.693  11.552  1.00  0.00     0.004 C 
ENDBRANCH   3   4
BRANCH   3   6
ATOM      6  C   UNL     1      17.925 -14.570   8.451  1.00  0.00    -0.014 C 
ATOM      7  C   UNL     1      17.424 -13.166   8.070  1.00  0.00     0.007 C 
ATOM      8  C   UNL     1      18.767 -15.182   7.320  1.00  0.00     0.007 C 
ENDBRANCH   3   6
ENDBRANCH   2   3
ENDBRANCH   1   2
BRANCH   1   9
ATOM      9  C   UNL     1      17.420 -18.266  10.527  1.00  0.00    -0.011 C 
ATOM     10  C   UNL     1      18.745 -19.021  10.765  1.00  0.00     0.008 C 
BRANCH   9  11
ATOM     11  C   UNL     1      16.173 -18.865  11.281  1.00  0.00    -0.002 C 
ATOM     12  C   UNL     1      14.906 -19.108  10.448  1.00  0.00     0.005 C 
ATOM     13  C   UNL     1      15.690 -18.137  12.567  1.00  0.00    -0.026 C 
ATOM     14  C   UNL     1      13.739 -19.093  11.441  1.00  0.00     0.005 C 
ATOM     15  C   UNL     1      14.345 -18.851  12.838  1.00  0.00    -0.001 C 
ATOM     16  C   UNL     1      15.448 -16.621  12.322  1.00  0.00     0.007 C 
ATOM     17  C   UNL     1      16.686 -18.360  13.732  1.00  0.00     0.012 C 
ATOM     18  C   UNL     1      13.419 -18.134  13.873  1.00  0.00     0.000 C 
ATOM     19  C   UNL     1      14.654 -15.958  13.448  1.00  0.00     0.005 C 
ATOM     20  C   UNL     1      13.261 -16.615  13.615  1.00  0.00     0.003 C 
ATOM     21  C   UNL     1      12.041 -18.814  13.943  1.00  0.00     0.031 C 
ATOM     22  C   UNL     1      12.370 -15.914  14.719  1.00  0.00    -0.008 C 
ATOM     23  C   UNL     1      11.067 -18.082  14.814  1.00  0.00    -0.027 C 
ATOM     24  C   UNL     1      11.118 -16.752  15.034  1.00  0.00    -0.065 C 
ATOM     25  C   UNL     1      11.916 -14.519  14.185  1.00  0.00     0.014 C 
ATOM     26  C   UNL     1      13.157 -15.722  16.046  1.00  0.00     0.016 C 
ATOM     27  C   UNL     1       9.976 -16.103  15.795  1.00  0.00     0.063 C 
ATOM     28  C   UNL     1      10.816 -13.853  15.028  1.00  0.00     0.033 C 
ATOM     29  C   UNL     1       9.586 -14.761  15.167  1.00  0.00     0.118 C 
BRANCH  29  30
ATOM     30  O   UNL     1       8.998 -14.986  13.911  1.00  0.00    -0.393 OA
ATOM     31  H   UNL     1       9.210 -14.192  13.350  1.00  0.00     0.210 HD
ENDBRANCH  29  30
ENDBRANCH   9  11
ENDBRANCH   1   9
TORSDOF 7
ENDMDL
MODEL 5
REMARK VINA RESULT:    -5.840     12.828     15.050
REMARK INTER + INTRA:          -9.527
REMARK INTER:                  -9.738
REMARK INTRA:                   0.211
REMARK UNBOUND:                -1.468
REMARK SMILES CC[C@@H](CC[C@@H](C)[C@@H]1CC[C@@H]2[C@@H]3CC=C4C[C@H](O)CC[C@]4(C)[C@H]3CC[C@@]21C)C(C)C
REMARK SMILES IDX 5 1 4 2 3 3 2 4 1 5 28 6 29 7 30 8 6 9 7 10 8 11 9 12 26 13
REMARK SMILES IDX 10 14 11 15 25 16 27 17 12 18 24 19 23 20 13 21 21 22 14 23
REMARK SMILES IDX 15 24 20 25 22 26 16 27 19 28 17 29 18 30
REMARK H PARENT 18 31
REMARK Flexibility Score: inf
ROOT
ATOM      1  C   UNL     1      16.391  -6.243  16.537  1.00  0.00     0.004 C 
ENDROOT
BRANCH   1   2
ATOM      2  C   UNL     1      15.931  -6.751  15.152  1.00  0.00     0.004 C 
BRANCH   2   3
ATOM      3  C   UNL     1      16.609  -8.093  14.750  1.00  0.00    -0.009 C 
BRANCH   3   4
ATOM      4  C   UNL     1      18.092  -7.821  14.363  1.00  0.00     0.000 C 
ATOM      5  C   UNL     1      19.056  -8.948  14.737  1.00  0.00     0.004 C 
ENDBRANCH   3   4
BRANCH   3   6
ATOM      6  C   UNL     1      15.761  -8.840  13.656  1.00  0.00    -0.014 C 
ATOM      7  C   UNL     1      16.319 -10.217  13.254  1.00  0.00     0.007 C 
ATOM      8  C   UNL     1      14.271  -8.933  14.020  1.00  0.00     0.007 C 
ENDBRANCH   3   6
ENDBRANCH   2   3
ENDBRANCH   1   2
BRANCH   1   9
ATOM      9  C   UNL     1      15.732  -4.899  16.951  1.00  0.00    -0.011 C 
ATOM     10  C   UNL     1      14.975  -5.068  18.285  1.00  0.00     0.008 C 
BRANCH   9  11
ATOM     11  C   UNL     1      16.806  -3.746  16.942  1.00  0.00    -0.002 C 
ATOM     12  C   UNL     1      18.236  -4.129  16.534  1.00  0.00     0.005 C 
ATOM     13  C   UNL     1      16.958  -2.892  18.232  1.00  0.00    -0.026 C 
ATOM     14  C   UNL     1      19.151  -3.071  17.163  1.00  0.00     0.005 C 
ATOM     15  C   UNL     1      18.239  -2.086  17.919  1.00  0.00    -0.001 C 
ATOM     16  C   UNL     1      17.180  -3.776  19.492  1.00  0.00     0.007 C 
ATOM     17  C   UNL     1      15.739  -1.955  18.419  1.00  0.00     0.012 C 
ATOM     18  C   UNL     1      18.879  -1.366  19.151  1.00  0.00     0.000 C 
ATOM     19  C   UNL     1      17.673  -2.975  20.698  1.00  0.00     0.005 C 
ATOM     20  C   UNL     1      19.022  -2.277  20.395  1.00  0.00     0.003 C 
ATOM     21  C   UNL     1      20.236  -0.743  18.781  1.00  0.00     0.031 C 
ATOM     22  C   UNL     1      19.613  -1.496  21.638  1.00  0.00    -0.008 C 
ATOM     23  C   UNL     1      20.958  -0.164  19.959  1.00  0.00    -0.027 C 
ATOM     24  C   UNL     1      20.800  -0.610  21.222  1.00  0.00    -0.065 C 
ATOM     25  C   UNL     1      20.112  -2.536  22.691  1.00  0.00     0.014 C 
ATOM     26  C   UNL     1      18.543  -0.578  22.294  1.00  0.00     0.016 C 
ATOM     27  C   UNL     1      21.714  -0.057  22.300  1.00  0.00     0.063 C 
ATOM     28  C   UNL     1      20.966  -1.928  23.815  1.00  0.00     0.033 C 
ATOM     29  C   UNL     1      22.174  -1.164  23.255  1.00  0.00     0.118 C 
BRANCH  29  30
ATOM     30  O   UNL     1      23.036  -2.040  22.575  1.00  0.00    -0.393 OA
ATOM     31  H   UNL     1      22.878  -1.900  21.604  1.00  0.00     0.210 HD
ENDBRANCH  29  30
ENDBRANCH   9  11
ENDBRANCH   1   9
TORSDOF 7
ENDMDL
MODEL 6
REMARK VINA RESULT:    -5.693      1.778      3.084
REMARK INTER + INTRA:          -9.324
REMARK INTER:                  -8.993
REMARK INTRA:                  -0.331
REMARK UNBOUND:                -1.468
REMARK SMILES CC[C@@H](CC[C@@H](C)[C@@H]1CC[C@@H]2[C@@H]3CC=C4C[C@H](O)CC[C@]4(C)[C@H]3CC[C@@]21C)C(C)C
REMARK SMILES IDX 5 1 4 2 3 3 2 4 1 5 28 6 29 7 30 8 6 9 7 10 8 11 9 12 26 13
REMARK SMILES IDX 10 14 11 15 25 16 27 17 12 18 24 19 23 20 13 21 21 22 14 23
REMARK SMILES IDX 15 24 20 25 22 26 16 27 19 28 17 29 18 30
REMARK H PARENT 18 31
REMARK Flexibility Score: inf
ROOT
ATOM      1  C   UNL     1      15.387 -17.955  12.253  1.00  0.00     0.004 C 
ENDROOT
BRANCH   1   2
ATOM      2  C   UNL     1      16.705 -17.150  12.204  1.00  0.00     0.004 C 
BRANCH   2   3
ATOM      3  C   UNL     1      17.376 -17.181  10.800  1.00  0.00    -0.009 C 
BRANCH   3   4
ATOM      4  C   UNL     1      17.911 -18.616  10.520  1.00  0.00     0.000 C 
ATOM      5  C   UNL     1      17.633 -19.125   9.105  1.00  0.00     0.004 C 
ENDBRANCH   3   4
BRANCH   3   6
ATOM      6  C   UNL     1      18.442 -16.033  10.666  1.00  0.00    -0.014 C 
ATOM      7  C   UNL     1      19.853 -16.422  11.140  1.00  0.00     0.007 C 
ATOM      8  C   UNL     1      18.483 -15.420   9.258  1.00  0.00     0.007 C 
ENDBRANCH   3   6
ENDBRANCH   2   3
ENDBRANCH   1   2
BRANCH   1   9
ATOM      9  C   UNL     1      15.381 -19.064  13.340  1.00  0.00    -0.011 C 
ATOM     10  C   UNL     1      16.576 -18.874  14.298  1.00  0.00     0.008 C 
BRANCH   9  11
ATOM     11  C   UNL     1      13.973 -19.123  14.044  1.00  0.00    -0.002 C 
ATOM     12  C   UNL     1      12.736 -19.055  13.135  1.00  0.00     0.005 C 
ATOM     13  C   UNL     1      13.698 -18.112  15.192  1.00  0.00    -0.026 C 
ATOM     14  C   UNL     1      11.595 -18.531  14.014  1.00  0.00     0.005 C 
ATOM     15  C   UNL     1      12.182 -18.311  15.423  1.00  0.00    -0.001 C 
ATOM     16  C   UNL     1      13.982 -16.646  14.759  1.00  0.00     0.007 C 
ATOM     17  C   UNL     1      14.509 -18.485  16.458  1.00  0.00     0.012 C 
ATOM     18  C   UNL     1      11.498 -17.202  16.286  1.00  0.00     0.000 C 
ATOM     19  C   UNL     1      13.401 -15.618  15.730  1.00  0.00     0.005 C 
ATOM     20  C   UNL     1      11.863 -15.762  15.846  1.00  0.00     0.003 C 
ATOM     21  C   UNL     1       9.971 -17.387  16.310  1.00  0.00     0.031 C 
ATOM     22  C   UNL     1      11.203 -14.670  16.782  1.00  0.00    -0.008 C 
ATOM     23  C   UNL     1       9.254 -16.269  17.005  1.00  0.00    -0.027 C 
ATOM     24  C   UNL     1       9.732 -15.010  17.078  1.00  0.00    -0.065 C 
ATOM     25  C   UNL     1      11.261 -13.288  16.057  1.00  0.00     0.014 C 
ATOM     26  C   UNL     1      11.947 -14.564  18.143  1.00  0.00     0.016 C 
ATOM     27  C   UNL     1       8.835 -13.932  17.658  1.00  0.00     0.063 C 
ATOM     28  C   UNL     1      10.405 -12.197  16.720  1.00  0.00     0.033 C 
ATOM     29  C   UNL     1       8.939 -12.633  16.852  1.00  0.00     0.118 C 
BRANCH  29  30
ATOM     30  O   UNL     1       8.368 -12.823  15.583  1.00  0.00    -0.393 OA
ATOM     31  H   UNL     1       7.421 -13.087  15.731  1.00  0.00     0.210 HD
ENDBRANCH  29  30
ENDBRANCH   9  11
ENDBRANCH   1   9
TORSDOF 7
ENDMDL
MODEL 7
REMARK VINA RESULT:    -5.642      2.719      4.772
REMARK INTER + INTRA:          -9.254
REMARK INTER:                  -9.460
REMARK INTRA:                   0.206
REMARK UNBOUND:                -1.468
REMARK SMILES CC[C@@H](CC[C@@H](C)[C@@H]1CC[C@@H]2[C@@H]3CC=C4C[C@H](O)CC[C@]4(C)[C@H]3CC[C@@]21C)C(C)C
REMARK SMILES IDX 5 1 4 2 3 3 2 4 1 5 28 6 29 7 30 8 6 9 7 10 8 11 9 12 26 13
REMARK SMILES IDX 10 14 11 15 25 16 27 17 12 18 24 19 23 20 13 21 21 22 14 23
REMARK SMILES IDX 15 24 20 25 22 26 16 27 19 28 17 29 18 30
REMARK H PARENT 18 31
REMARK Flexibility Score: inf
ROOT
ATOM      1  C   UNL     1      17.023 -16.672  11.229  1.00  0.00     0.004 C 
ENDROOT
BRANCH   1   2
ATOM      2  C   UNL     1      18.111 -15.981  10.377  1.00  0.00     0.004 C 
BRANCH   2   3
ATOM      3  C   UNL     1      17.762 -14.502  10.041  1.00  0.00    -0.009 C 
BRANCH   3   4
ATOM      4  C   UNL     1      17.814 -14.302   8.498  1.00  0.00     0.000 C 
ATOM      5  C   UNL     1      17.050 -13.075   7.998  1.00  0.00     0.004 C 
ENDBRANCH   3   4
BRANCH   3   6
ATOM      6  C   UNL     1      18.660 -13.514  10.873  1.00  0.00    -0.014 C 
ATOM      7  C   UNL     1      17.915 -12.279  11.407  1.00  0.00     0.007 C 
ATOM      8  C   UNL     1      19.438 -14.219  11.995  1.00  0.00     0.007 C 
ENDBRANCH   3   6
ENDBRANCH   2   3
ENDBRANCH   1   2
BRANCH   1   9
ATOM      9  C   UNL     1      17.073 -18.222  11.155  1.00  0.00    -0.011 C 
ATOM     10  C   UNL     1      18.411 -18.738  11.726  1.00  0.00     0.008 C 
BRANCH   9  11
ATOM     11  C   UNL     1      15.787 -18.836  11.827  1.00  0.00    -0.002 C 
ATOM     12  C   UNL     1      14.591 -19.125  10.907  1.00  0.00     0.005 C 
ATOM     13  C   UNL     1      15.193 -18.096  13.058  1.00  0.00    -0.026 C 
ATOM     14  C   UNL     1      13.353 -19.119  11.812  1.00  0.00     0.005 C 
ATOM     15  C   UNL     1      13.848 -18.835  13.244  1.00  0.00    -0.001 C 
ATOM     16  C   UNL     1      14.937 -16.590  12.765  1.00  0.00     0.007 C 
ATOM     17  C   UNL     1      16.105 -18.273  14.298  1.00  0.00     0.012 C 
ATOM     18  C   UNL     1      12.832 -18.121  14.192  1.00  0.00     0.000 C 
ATOM     19  C   UNL     1      14.046 -15.925  13.815  1.00  0.00     0.005 C 
ATOM     20  C   UNL     1      12.660 -16.611  13.891  1.00  0.00     0.003 C 
ATOM     21  C   UNL     1      11.468 -18.832  14.174  1.00  0.00     0.031 C 
ATOM     22  C   UNL     1      11.674 -15.911  14.912  1.00  0.00    -0.008 C 
ATOM     23  C   UNL     1      10.416 -18.106  14.956  1.00  0.00    -0.027 C 
ATOM     24  C   UNL     1      10.421 -16.771  15.151  1.00  0.00    -0.065 C 
ATOM     25  C   UNL     1      11.230 -14.537  14.316  1.00  0.00     0.014 C 
ATOM     26  C   UNL     1      12.355 -15.674  16.290  1.00  0.00     0.016 C 
ATOM     27  C   UNL     1       9.211 -16.136  15.811  1.00  0.00     0.063 C 
ATOM     28  C   UNL     1      10.055 -13.882  15.062  1.00  0.00     0.033 C 
ATOM     29  C   UNL     1       8.839 -14.816  15.128  1.00  0.00     0.118 C 
BRANCH  29  30
ATOM     30  O   UNL     1       8.351 -15.078  13.838  1.00  0.00    -0.393 OA
ATOM     31  H   UNL     1       7.672 -14.379  13.641  1.00  0.00     0.210 HD
ENDBRANCH  29  30
ENDBRANCH   9  11
ENDBRANCH   1   9
TORSDOF 7
ENDMDL
