MODEL 1
REMARK VINA RESULT:    -3.804      0.000      0.000
REMARK INTER + INTRA:          -4.947
REMARK INTER:                  -5.361
REMARK INTRA:                   0.414
REMARK UNBOUND:                 0.414
REMARK SMILES CC1=CCC(=C(C)C)C(=O)CC(C)=CCC1
REMARK SMILES IDX 12 1 14 2 13 3 15 4 16 5 2 6 1 7 3 8 11 10 9 11 10 12 5 13
REMARK SMILES IDX 6 14 7 15 8 16 4 17
REMARK H PARENT
REMARK Flexibility Score: 60.00
ROOT
ATOM      1  C   UNL     1      20.568  25.591  28.123  1.00  0.00    -0.070 C 
ATOM      2  C   UNL     1      19.395  25.238  27.549  1.00  0.00    -0.027 C 
ATOM      3  C   UNL     1      21.836  25.055  27.502  1.00  0.00     0.039 C 
ENDROOT
BRANCH   2   4
ATOM      4  C   UNL     1      18.013  25.570  28.061  1.00  0.00     0.032 C 
BRANCH   4   5
ATOM      5  C   UNL     1      17.568  26.995  27.682  1.00  0.00     0.034 C 
BRANCH   5   6
ATOM      6  C   UNL     1      17.229  27.831  28.901  1.00  0.00    -0.077 C 
ATOM      7  C   UNL     1      16.025  27.445  29.722  1.00  0.00     0.039 C 
ATOM      8  C   UNL     1      17.961  28.892  29.310  1.00  0.00    -0.023 CG0
ATOM      9  G   UNL     1      19.214  29.409  28.644  1.00  0.00     0.000 G0
ENDBRANCH   5   6
ENDBRANCH   4   5
ENDBRANCH   2   4
BRANCH   1  10
ATOM     10  C   UNL     1      20.673  26.432  29.385  1.00  0.00     0.111 C 
BRANCH  10  11
ATOM     11  C   UNL     1      21.185  27.819  29.086  1.00  0.00     0.163 C 
ATOM     12  O   UNL     1      22.259  27.928  28.433  1.00  0.00    -0.294 OA
BRANCH  11  13
ATOM     13  C   UNL     1      20.433  29.046  29.495  1.00  0.00    -0.002 C 
ATOM     14  C   UNL     1      20.774  29.761  30.610  1.00  0.00    -0.069 C 
ATOM     15  C   UNL     1      20.032  31.022  30.994  1.00  0.00     0.039 C 
ATOM     16  C   UNL     1      21.884  29.309  31.532  1.00  0.00     0.039 C 
BRANCH  13  17
ATOM     17  C   UNL     1      19.224  29.424  28.658  1.00  0.00     0.066 CG0
ATOM     18  G   UNL     1      17.968  28.890  29.303  1.00  0.00     0.000 G0
ENDBRANCH  13  17
ENDBRANCH  11  13
ENDBRANCH  10  11
ENDBRANCH   1  10
TORSDOF 0
ENDMDL
MODEL 2
REMARK VINA RESULT:    -3.802      2.783      5.829
REMARK INTER + INTRA:          -4.944
REMARK INTER:                  -5.755
REMARK INTRA:                   0.812
REMARK UNBOUND:                 0.414
REMARK SMILES CC1=CCC(=C(C)C)C(=O)CC(C)=CCC1
REMARK SMILES IDX 12 1 14 2 13 3 15 4 16 5 2 6 1 7 3 8 11 10 9 11 10 12 5 13
REMARK SMILES IDX 6 14 7 15 8 16 4 17
REMARK H PARENT
REMARK Flexibility Score: 60.00
ROOT
ATOM      1  C   UNL     1      15.307  31.305  30.475  1.00  0.00    -0.070 C 
ATOM      2  C   UNL     1      16.069  32.357  30.096  1.00  0.00    -0.027 C 
ATOM      3  C   UNL     1      14.468  31.466  31.720  1.00  0.00     0.039 C 
ENDROOT
BRANCH   2   4
ATOM      4  C   UNL     1      17.056  32.380  28.953  1.00  0.00     0.032 C 
BRANCH   4   5
ATOM      5  C   UNL     1      18.498  32.654  29.421  1.00  0.00     0.034 C 
BRANCH   5   6
ATOM      6  C   UNL     1      18.954  31.667  30.478  1.00  0.00    -0.077 C 
ATOM      7  C   UNL     1      19.305  32.193  31.846  1.00  0.00     0.039 C 
ATOM      8  C   UNL     1      19.039  30.333  30.271  1.00  0.00    -0.023 CG0
ATOM      9  G   UNL     1      18.699  29.616  28.986  1.00  0.00     0.000 G0
ENDBRANCH   5   6
ENDBRANCH   4   5
ENDBRANCH   2   4
BRANCH   1  10
ATOM     10  C   UNL     1      15.303  29.963  29.761  1.00  0.00     0.111 C 
BRANCH  10  11
ATOM     11  C   UNL     1      16.480  29.114  30.169  1.00  0.00     0.163 C 
ATOM     12  O   UNL     1      16.548  28.728  31.368  1.00  0.00    -0.294 OA
BRANCH  11  13
ATOM     13  C   UNL     1      17.524  28.683  29.187  1.00  0.00    -0.002 C 
ATOM     14  C   UNL     1      17.454  27.475  28.547  1.00  0.00    -0.069 C 
ATOM     15  C   UNL     1      18.494  27.064  27.527  1.00  0.00     0.039 C 
ATOM     16  C   UNL     1      16.358  26.479  28.852  1.00  0.00     0.039 C 
BRANCH  13  17
ATOM     17  C   UNL     1      18.706  29.613  28.985  1.00  0.00     0.066 CG0
ATOM     18  G   UNL     1      19.021  30.327  30.278  1.00  0.00     0.000 G0
ENDBRANCH  13  17
ENDBRANCH  11  13
ENDBRANCH  10  11
ENDBRANCH   1  10
TORSDOF 0
ENDMDL
MODEL 3
REMARK VINA RESULT:    -3.732      1.934      3.762
REMARK INTER + INTRA:          -4.845
REMARK INTER:                  -5.276
REMARK INTRA:                   0.431
REMARK UNBOUND:                 0.414
REMARK SMILES CC1=CCC(=C(C)C)C(=O)CC(C)=CCC1
REMARK SMILES IDX 12 1 14 2 13 3 15 4 16 5 2 6 1 7 3 8 11 10 9 11 10 12 5 13
REMARK SMILES IDX 6 14 7 15 8 16 4 17
REMARK H PARENT
REMARK Flexibility Score: 60.00
ROOT
ATOM      1  C   UNL     1      18.481  26.412  27.850  1.00  0.00    -0.070 C 
ATOM      2  C   UNL     1      19.348  25.380  27.730  1.00  0.00    -0.027 C 
ATOM      3  C   UNL     1      17.009  26.081  27.902  1.00  0.00     0.039 C 
ENDROOT
BRANCH   2   4
ATOM      4  C   UNL     1      20.845  25.485  27.555  1.00  0.00     0.032 C 
BRANCH   4   5
ATOM      5  C   UNL     1      21.562  25.928  28.845  1.00  0.00     0.034 C 
BRANCH   5   6
ATOM      6  C   UNL     1      22.395  27.178  28.636  1.00  0.00    -0.077 C 
ATOM      7  C   UNL     1      23.477  27.150  27.588  1.00  0.00     0.039 C 
ATOM      8  C   UNL     1      22.205  28.329  29.321  1.00  0.00    -0.023 CG0
ATOM      9  G   UNL     1      21.154  28.562  30.380  1.00  0.00     0.000 G0
ENDBRANCH   5   6
ENDBRANCH   4   5
ENDBRANCH   2   4
BRANCH   1  10
ATOM     10  C   UNL     1      18.901  27.872  27.866  1.00  0.00     0.111 C 
BRANCH  10  11
ATOM     11  C   UNL     1      18.851  28.448  29.259  1.00  0.00     0.163 C 
ATOM     12  O   UNL     1      17.858  28.166  29.983  1.00  0.00    -0.294 OA
BRANCH  11  13
ATOM     13  C   UNL     1      19.960  29.289  29.809  1.00  0.00    -0.002 C 
ATOM     14  C   UNL     1      19.930  30.655  29.738  1.00  0.00    -0.069 C 
ATOM     15  C   UNL     1      21.037  31.499  30.331  1.00  0.00     0.039 C 
ATOM     16  C   UNL     1      18.808  31.387  29.037  1.00  0.00     0.039 C 
BRANCH  13  17
ATOM     17  C   UNL     1      21.160  28.558  30.383  1.00  0.00     0.066 CG0
ATOM     18  G   UNL     1      22.194  28.345  29.304  1.00  0.00     0.000 G0
ENDBRANCH  13  17
ENDBRANCH  11  13
ENDBRANCH  10  11
ENDBRANCH   1  10
TORSDOF 0
ENDMDL
MODEL 4
REMARK VINA RESULT:    -3.672      2.029      3.866
REMARK INTER + INTRA:          -4.761
REMARK INTER:                  -5.115
REMARK INTRA:                   0.355
REMARK UNBOUND:                 0.414
REMARK SMILES CC1=CCC(=C(C)C)C(=O)CC(C)=CCC1
REMARK SMILES IDX 12 1 14 2 13 3 15 4 16 5 2 6 1 7 3 8 11 10 9 11 10 12 5 13
REMARK SMILES IDX 6 14 7 15 8 16 4 17
REMARK H PARENT
REMARK Flexibility Score: 60.00
ROOT
ATOM      1  C   UNL     1      21.791  29.813  30.011  1.00  0.00    -0.070 C 
ATOM      2  C   UNL     1      21.981  28.552  29.558  1.00  0.00    -0.027 C 
ATOM      3  C   UNL     1      22.777  30.344  31.024  1.00  0.00     0.039 C 
ENDROOT
BRANCH   2   4
ATOM      4  C   UNL     1      21.065  27.789  28.630  1.00  0.00     0.032 C 
BRANCH   4   5
ATOM      5  C   UNL     1      19.803  27.265  29.342  1.00  0.00     0.034 C 
BRANCH   5   6
ATOM      6  C   UNL     1      18.534  27.622  28.594  1.00  0.00    -0.077 C 
ATOM      7  C   UNL     1      18.320  27.031  27.224  1.00  0.00     0.039 C 
ATOM      8  C   UNL     1      17.567  28.423  29.097  1.00  0.00    -0.023 CG0
ATOM      9  G   UNL     1      17.583  29.078  30.457  1.00  0.00     0.000 G0
ENDBRANCH   5   6
ENDBRANCH   4   5
ENDBRANCH   2   4
BRANCH   1  10
ATOM     10  C   UNL     1      20.615  30.689  29.611  1.00  0.00     0.111 C 
BRANCH  10  11
ATOM     11  C   UNL     1      19.549  30.708  30.677  1.00  0.00     0.163 C 
ATOM     12  O   UNL     1      19.901  30.949  31.864  1.00  0.00    -0.294 OA
BRANCH  11  13
ATOM     13  C   UNL     1      18.102  30.505  30.355  1.00  0.00    -0.002 C 
ATOM     14  C   UNL     1      17.280  31.553  30.044  1.00  0.00    -0.069 C 
ATOM     15  C   UNL     1      15.827  31.334  29.682  1.00  0.00     0.039 C 
ATOM     16  C   UNL     1      17.771  32.983  30.079  1.00  0.00     0.039 C 
BRANCH  13  17
ATOM     17  C   UNL     1      17.565  29.089  30.462  1.00  0.00     0.066 CG0
ATOM     18  G   UNL     1      17.568  28.437  29.100  1.00  0.00     0.000 G0
ENDBRANCH  13  17
ENDBRANCH  11  13
ENDBRANCH  10  11
ENDBRANCH   1  10
TORSDOF 0
ENDMDL
MODEL 5
REMARK VINA RESULT:    -3.650      1.711      3.410
REMARK INTER + INTRA:          -4.730
REMARK INTER:                  -5.267
REMARK INTRA:                   0.537
REMARK UNBOUND:                 0.414
REMARK SMILES CC1=CCC(=C(C)C)C(=O)CC(C)=CCC1
REMARK SMILES IDX 12 1 14 2 13 3 15 4 16 5 2 6 1 7 3 8 11 10 9 11 10 12 5 13
REMARK SMILES IDX 6 14 7 15 8 16 4 17
REMARK H PARENT
REMARK Flexibility Score: 60.00
ROOT
ATOM      1  C   UNL     1      17.954  27.339  28.440  1.00  0.00    -0.070 C 
ATOM      2  C   UNL     1      16.931  27.989  29.042  1.00  0.00    -0.027 C 
ATOM      3  C   UNL     1      17.736  25.893  28.065  1.00  0.00     0.039 C 
ENDROOT
BRANCH   2   4
ATOM      4  C   UNL     1      16.966  29.395  29.592  1.00  0.00     0.032 C 
BRANCH   4   5
ATOM      5  C   UNL     1      17.857  29.520  30.843  1.00  0.00     0.034 C 
BRANCH   5   6
ATOM      6  C   UNL     1      18.919  30.590  30.684  1.00  0.00    -0.077 C 
ATOM      7  C   UNL     1      18.475  32.005  30.415  1.00  0.00     0.039 C 
ATOM      8  C   UNL     1      20.246  30.352  30.796  1.00  0.00    -0.023 CG0
ATOM      9  G   UNL     1      20.881  29.015  31.096  1.00  0.00     0.000 G0
ENDBRANCH   5   6
ENDBRANCH   4   5
ENDBRANCH   2   4
BRANCH   1  10
ATOM     10  C   UNL     1      19.318  27.961  28.185  1.00  0.00     0.111 C 
BRANCH  10  11
ATOM     11  C   UNL     1      20.354  27.441  29.149  1.00  0.00     0.163 C 
ATOM     12  O   UNL     1      20.406  26.198  29.352  1.00  0.00    -0.294 OA
BRANCH  11  13
ATOM     13  C   UNL     1      21.338  28.348  29.819  1.00  0.00    -0.002 C 
ATOM     14  C   UNL     1      22.609  28.510  29.338  1.00  0.00    -0.069 C 
ATOM     15  C   UNL     1      23.585  29.458  29.999  1.00  0.00     0.039 C 
ATOM     16  C   UNL     1      23.111  27.727  28.146  1.00  0.00     0.039 C 
BRANCH  13  17
ATOM     17  C   UNL     1      20.890  29.025  31.101  1.00  0.00     0.066 CG0
ATOM     18  G   UNL     1      20.242  30.350  30.780  1.00  0.00     0.000 G0
ENDBRANCH  13  17
ENDBRANCH  11  13
ENDBRANCH  10  11
ENDBRANCH   1  10
TORSDOF 0
ENDMDL
MODEL 6
REMARK VINA RESULT:    -3.609      2.456      4.554
REMARK INTER + INTRA:          -4.673
REMARK INTER:                  -5.015
REMARK INTRA:                   0.342
REMARK UNBOUND:                 0.414
REMARK SMILES CC1=CCC(=C(C)C)C(=O)CC(C)=CCC1
REMARK SMILES IDX 12 1 14 2 13 3 15 4 16 5 2 6 1 7 3 8 11 10 9 11 10 12 5 13
REMARK SMILES IDX 6 14 7 15 8 16 4 17
REMARK H PARENT
REMARK Flexibility Score: 60.00
ROOT
ATOM      1  C   UNL     1      19.159  28.302  28.331  1.00  0.00    -0.070 C 
ATOM      2  C   UNL     1      20.394  27.847  28.645  1.00  0.00    -0.027 C 
ATOM      3  C   UNL     1      18.238  27.361  27.593  1.00  0.00     0.039 C 
ENDROOT
BRANCH   2   4
ATOM      4  C   UNL     1      21.505  28.647  29.283  1.00  0.00     0.032 C 
BRANCH   4   5
ATOM      5  C   UNL     1      21.324  28.802  30.806  1.00  0.00     0.034 C 
BRANCH   5   6
ATOM      6  C   UNL     1      21.362  30.254  31.241  1.00  0.00    -0.077 C 
ATOM      7  C   UNL     1      22.640  31.029  31.041  1.00  0.00     0.039 C 
ATOM      8  C   UNL     1      20.304  30.904  31.776  1.00  0.00    -0.023 CG0
ATOM      9  G   UNL     1      18.936  30.312  32.021  1.00  0.00     0.000 G0
ENDBRANCH   5   6
ENDBRANCH   4   5
ENDBRANCH   2   4
BRANCH   1  10
ATOM     10  C   UNL     1      18.679  29.716  28.618  1.00  0.00     0.111 C 
BRANCH  10  11
ATOM     11  C   UNL     1      17.763  29.758  29.815  1.00  0.00     0.163 C 
ATOM     12  O   UNL     1      16.829  28.914  29.878  1.00  0.00    -0.294 OA
BRANCH  11  13
ATOM     13  C   UNL     1      17.966  30.730  30.935  1.00  0.00    -0.002 C 
ATOM     14  C   UNL     1      17.373  31.963  30.934  1.00  0.00    -0.069 C 
ATOM     15  C   UNL     1      17.553  32.924  32.089  1.00  0.00     0.039 C 
ATOM     16  C   UNL     1      16.536  32.438  29.768  1.00  0.00     0.039 C 
BRANCH  13  17
ATOM     17  C   UNL     1      18.923  30.319  32.039  1.00  0.00     0.066 CG0
ATOM     18  G   UNL     1      20.293  30.894  31.769  1.00  0.00     0.000 G0
ENDBRANCH  13  17
ENDBRANCH  11  13
ENDBRANCH  10  11
ENDBRANCH   1  10
TORSDOF 0
ENDMDL
MODEL 7
REMARK VINA RESULT:    -3.592      2.630      3.924
REMARK INTER + INTRA:          -4.648
REMARK INTER:                  -5.052
REMARK INTRA:                   0.404
REMARK UNBOUND:                 0.414
REMARK SMILES CC1=CCC(=C(C)C)C(=O)CC(C)=CCC1
REMARK SMILES IDX 12 1 14 2 13 3 15 4 16 5 2 6 1 7 3 8 11 10 9 11 10 12 5 13
REMARK SMILES IDX 6 14 7 15 8 16 4 17
REMARK H PARENT
REMARK Flexibility Score: 60.00
ROOT
ATOM      1  C   UNL     1      18.929  26.529  28.127  1.00  0.00    -0.070 C 
ATOM      2  C   UNL     1      18.483  25.277  27.872  1.00  0.00    -0.027 C 
ATOM      3  C   UNL     1      20.397  26.695  28.440  1.00  0.00     0.039 C 
ENDROOT
BRANCH   2   4
ATOM      4  C   UNL     1      17.047  24.870  27.641  1.00  0.00     0.032 C 
BRANCH   4   5
ATOM      5  C   UNL     1      16.209  24.894  28.933  1.00  0.00     0.034 C 
BRANCH   5   6
ATOM      6  C   UNL     1      14.884  25.606  28.743  1.00  0.00    -0.077 C 
ATOM      7  C   UNL     1      13.911  25.051  27.735  1.00  0.00     0.039 C 
ATOM      8  C   UNL     1      14.513  26.699  29.447  1.00  0.00    -0.023 CG0
ATOM      9  G   UNL     1      15.331  27.378  30.520  1.00  0.00     0.000 G0
ENDBRANCH   5   6
ENDBRANCH   4   5
ENDBRANCH   2   4
BRANCH   1  10
ATOM     10  C   UNL     1      18.030  27.753  28.182  1.00  0.00     0.111 C 
BRANCH  10  11
ATOM     11  C   UNL     1      17.621  28.079  29.596  1.00  0.00     0.163 C 
ATOM     12  O   UNL     1      18.512  28.072  30.489  1.00  0.00    -0.294 OA
BRANCH  11  13
ATOM     13  C   UNL     1      16.216  28.455  29.948  1.00  0.00    -0.002 C 
ATOM     14  C   UNL     1      15.759  29.738  29.814  1.00  0.00    -0.069 C 
ATOM     15  C   UNL     1      14.326  30.101  30.136  1.00  0.00     0.039 C 
ATOM     16  C   UNL     1      16.670  30.861  29.372  1.00  0.00     0.039 C 
BRANCH  13  17
ATOM     17  C   UNL     1      15.336  27.365  30.532  1.00  0.00     0.066 CG0
ATOM     18  G   UNL     1      14.533  26.711  29.432  1.00  0.00     0.000 G0
ENDBRANCH  13  17
ENDBRANCH  11  13
ENDBRANCH  10  11
ENDBRANCH   1  10
TORSDOF 0
ENDMDL
MODEL 8
REMARK VINA RESULT:    -3.377      3.352      5.319
REMARK INTER + INTRA:          -4.346
REMARK INTER:                  -5.101
REMARK INTRA:                   0.756
REMARK UNBOUND:                 0.414
REMARK SMILES CC1=CCC(=C(C)C)C(=O)CC(C)=CCC1
REMARK SMILES IDX 12 1 14 2 13 3 15 4 16 5 2 6 1 7 3 8 11 10 9 11 10 12 5 13
REMARK SMILES IDX 6 14 7 15 8 16 4 17
REMARK H PARENT
REMARK Flexibility Score: 60.00
ROOT
ATOM      1  C   UNL     1      15.730  32.168  31.292  1.00  0.00    -0.070 C 
ATOM      2  C   UNL     1      14.859  31.159  31.533  1.00  0.00    -0.027 C 
ATOM      3  C   UNL     1      16.269  32.920  32.485  1.00  0.00     0.039 C 
ENDROOT
BRANCH   2   4
ATOM      4  C   UNL     1      14.121  30.349  30.494  1.00  0.00     0.032 C 
BRANCH   4   5
ATOM      5  C   UNL     1      15.058  29.774  29.415  1.00  0.00     0.034 C 
BRANCH   5   6
ATOM      6  C   UNL     1      16.106  28.849  30.002  1.00  0.00    -0.077 C 
ATOM      7  C   UNL     1      15.642  27.664  30.810  1.00  0.00     0.039 C 
ATOM      8  C   UNL     1      17.436  29.011  29.820  1.00  0.00    -0.023 CG0
ATOM      9  G   UNL     1      18.090  30.110  29.017  1.00  0.00     0.000 G0
ENDBRANCH   5   6
ENDBRANCH   4   5
ENDBRANCH   2   4
BRANCH   1  10
ATOM     10  C   UNL     1      16.135  32.621  29.900  1.00  0.00     0.111 C 
BRANCH  10  11
ATOM     11  C   UNL     1      17.629  32.552  29.707  1.00  0.00     0.163 C 
ATOM     12  O   UNL     1      18.236  33.612  29.391  1.00  0.00    -0.294 OA
BRANCH  11  13
ATOM     13  C   UNL     1      18.400  31.289  29.930  1.00  0.00    -0.002 C 
ATOM     14  C   UNL     1      19.397  31.210  30.864  1.00  0.00    -0.069 C 
ATOM     15  C   UNL     1      20.144  29.918  31.109  1.00  0.00     0.039 C 
ATOM     16  C   UNL     1      19.823  32.415  31.671  1.00  0.00     0.039 C 
BRANCH  13  17
ATOM     17  C   UNL     1      18.079  30.116  29.021  1.00  0.00     0.066 CG0
ATOM     18  G   UNL     1      17.416  29.019  29.818  1.00  0.00     0.000 G0
ENDBRANCH  13  17
ENDBRANCH  11  13
ENDBRANCH  10  11
ENDBRANCH   1  10
TORSDOF 0
ENDMDL
MODEL 9
REMARK VINA RESULT:    -3.306      2.303      4.717
REMARK INTER + INTRA:          -4.245
REMARK INTER:                  -4.799
REMARK INTRA:                   0.554
REMARK UNBOUND:                 0.414
REMARK SMILES CC1=CCC(=C(C)C)C(=O)CC(C)=CCC1
REMARK SMILES IDX 12 1 14 2 13 3 15 4 16 5 2 6 1 7 3 8 11 10 9 11 10 12 5 13
REMARK SMILES IDX 6 14 7 15 8 16 4 17
REMARK H PARENT
REMARK Flexibility Score: 60.00
ROOT
ATOM      1  C   UNL     1      20.909  28.383  29.698  1.00  0.00    -0.070 C 
ATOM      2  C   UNL     1      22.074  28.938  30.106  1.00  0.00    -0.027 C 
ATOM      3  C   UNL     1      20.980  27.334  28.614  1.00  0.00     0.039 C 
ENDROOT
BRANCH   2   4
ATOM      4  C   UNL     1      22.227  30.070  31.094  1.00  0.00     0.032 C 
BRANCH   4   5
ATOM      5  C   UNL     1      21.756  31.422  30.523  1.00  0.00     0.034 C 
BRANCH   5   6
ATOM      6  C   UNL     1      20.695  32.071  31.391  1.00  0.00    -0.077 C 
ATOM      7  C   UNL     1      21.052  32.428  32.811  1.00  0.00     0.039 C 
ATOM      8  C   UNL     1      19.451  32.373  30.954  1.00  0.00    -0.023 CG0
ATOM      9  G   UNL     1      18.920  32.127  29.563  1.00  0.00     0.000 G0
ENDBRANCH   5   6
ENDBRANCH   4   5
ENDBRANCH   2   4
BRANCH   1  10
ATOM     10  C   UNL     1      19.544  28.804  30.218  1.00  0.00     0.111 C 
BRANCH  10  11
ATOM     11  C   UNL     1      18.777  29.595  29.188  1.00  0.00     0.163 C 
ATOM     12  O   UNL     1      18.701  29.131  28.018  1.00  0.00    -0.294 OA
BRANCH  11  13
ATOM     13  C   UNL     1      18.072  30.869  29.532  1.00  0.00    -0.002 C 
ATOM     14  C   UNL     1      16.722  30.909  29.747  1.00  0.00    -0.069 C 
ATOM     15  C   UNL     1      16.024  32.195  30.132  1.00  0.00     0.039 C 
ATOM     16  C   UNL     1      15.856  29.681  29.579  1.00  0.00     0.039 C 
BRANCH  13  17
ATOM     17  C   UNL     1      18.910  32.135  29.559  1.00  0.00     0.066 CG0
ATOM     18  G   UNL     1      19.444  32.366  30.952  1.00  0.00     0.000 G0
ENDBRANCH  13  17
ENDBRANCH  11  13
ENDBRANCH  10  11
ENDBRANCH   1  10
TORSDOF 0
ENDMDL
