MODEL 1
REMARK VINA RESULT:    -7.761      0.000      0.000
REMARK INTER + INTRA:         -15.368
REMARK INTER:                 -12.751
REMARK INTRA:                  -2.617
REMARK UNBOUND:                -2.617
REMARK SMILES C[C@@H]1O[C@@H](OC[C@H]2O[C@@H](Oc3c(-c4ccc(O)c(O)c4)oc4cc(O)cc(O)c4c3=O)[C@H](O)[C@H](O)[C@@H]2O)[C@H](O)[C@H](O)[C@H]1O
REMARK SMILES IDX 7 1 36 2 34 3 32 4 9 5 8 6 6 7 5 8 4 9 1 10 2 11 42 12 3 13
REMARK SMILES IDX 40 14 38 15 43 16 41 18 39 20 37 22 35 24 10 26 11 27 12 28
REMARK SMILES IDX 30 29 21 30 29 31 31 32 22 33 27 34 23 35 26 36 24 37 13 38
REMARK SMILES IDX 20 39 14 40 18 41 15 42 16 43 19 44 17 46 28 48 25 50 33 52
REMARK H PARENT 43 17 41 19 39 21 37 23 35 25 19 45 17 47 28 49 25 51 33 53
REMARK Flexibility Score: inf
ROOT
ATOM      1  C   UNL     1       2.566   2.105 -24.933  1.00  0.00     0.180 C 
ATOM      2  C   UNL     1       1.527   1.761 -26.101  1.00  0.00     0.177 C 
ATOM      3  C   UNL     1       1.281   2.977 -27.010  1.00  0.00     0.180 C 
ATOM      4  C   UNL     1       2.016   4.287 -26.491  1.00  0.00     0.214 C 
ATOM      5  C   UNL     1       2.188   4.423 -24.952  1.00  0.00     0.339 C 
ATOM      6  O   UNL     1       2.105   3.243 -24.223  1.00  0.00    -0.332 OA
ENDROOT
BRANCH   1   7
ATOM      7  C   UNL     1       4.096   2.130 -25.184  1.00  0.00     0.198 C 
BRANCH   7   8
ATOM      8  O   UNL     1       4.705   0.882 -24.780  1.00  0.00    -0.347 OA
BRANCH   8   9
ATOM      9  C   UNL     1       3.918  -0.340 -24.778  1.00  0.00     0.281 C 
ATOM     10  C   UNL     1       5.213  -2.233 -21.882  1.00  0.00     0.041 C 
ATOM     11  C   UNL     1       5.141  -1.776 -23.331  1.00  0.00     0.150 C 
ATOM     12  C   UNL     1       5.071  -2.969 -24.310  1.00  0.00     0.174 C 
ATOM     13  O   UNL     1       3.974  -0.946 -23.499  1.00  0.00    -0.344 OA
ATOM     14  C   UNL     1       5.075  -2.412 -25.780  1.00  0.00     0.179 C 
ATOM     15  C   UNL     1       3.910  -1.416 -25.969  1.00  0.00     0.202 C 
BRANCH  12  16
ATOM     16  O   UNL     1       6.114  -3.932 -24.119  1.00  0.00    -0.388 OA
ATOM     17  H   UNL     1       6.076  -4.525 -24.934  1.00  0.00     0.211 HD
ENDBRANCH  12  16
BRANCH  14  18
ATOM     18  O   UNL     1       5.080  -3.408 -26.777  1.00  0.00    -0.387 OA
ATOM     19  H   UNL     1       6.021  -3.599 -27.044  1.00  0.00     0.211 HD
ENDBRANCH  14  18
BRANCH  15  20
ATOM     20  O   UNL     1       2.691  -2.116 -25.870  1.00  0.00    -0.385 OA
ATOM     21  H   UNL     1       2.245  -1.952 -24.973  1.00  0.00     0.211 HD
ENDBRANCH  15  20
ENDBRANCH   8   9
ENDBRANCH   7   8
ENDBRANCH   1   7
BRANCH   2  22
ATOM     22  O   UNL     1       0.329   1.338 -25.487  1.00  0.00    -0.387 OA
ATOM     23  H   UNL     1       0.073   1.995 -24.740  1.00  0.00     0.211 HD
ENDBRANCH   2  22
BRANCH   3  24
ATOM     24  O   UNL     1      -0.096   3.214 -27.125  1.00  0.00    -0.387 OA
ATOM     25  H   UNL     1      -0.369   3.707 -26.290  1.00  0.00     0.211 HD
ENDBRANCH   3  24
BRANCH   5  26
ATOM     26  O   UNL     1       3.451   5.030 -24.648  1.00  0.00    -0.454 OA
BRANCH  26  27
ATOM     27  C   UNL     1       3.812   6.363 -24.278  1.00  0.00     0.214 A 
ATOM     28  C   UNL     1       4.843   6.494 -23.330  1.00  0.00     0.180 A 
ATOM     29  C   UNL     1       3.225   7.548 -24.788  1.00  0.00     0.239 A 
ATOM     30  O   UNL     1       5.340   7.678 -23.014  1.00  0.00    -0.452 OA
ATOM     31  C   UNL     1       3.781   8.787 -24.450  1.00  0.00     0.111 A 
ATOM     32  O   UNL     1       2.216   7.483 -25.540  1.00  0.00    -0.285 OA
ATOM     33  C   UNL     1       4.889   8.829 -23.550  1.00  0.00     0.146 A 
ATOM     34  C   UNL     1       3.223  10.036 -24.857  1.00  0.00     0.134 A 
ATOM     35  C   UNL     1       5.482  10.048 -23.118  1.00  0.00     0.094 A 
ATOM     36  C   UNL     1       3.830  11.208 -24.429  1.00  0.00     0.093 A 
ATOM     37  C   UNL     1       4.896  11.250 -23.532  1.00  0.00     0.123 A 
BRANCH  28  38
ATOM     38  C   UNL     1       5.153   5.384 -22.456  1.00  0.00     0.025 A 
ATOM     39  C   UNL     1       4.130   4.941 -21.587  1.00  0.00     0.062 A 
ATOM     40  C   UNL     1       6.299   4.645 -22.656  1.00  0.00     0.016 A 
ATOM     41  C   UNL     1       4.102   3.562 -21.264  1.00  0.00     0.158 A 
ATOM     42  C   UNL     1       6.295   3.268 -22.318  1.00  0.00     0.051 A 
ATOM     43  C   UNL     1       5.165   2.708 -21.675  1.00  0.00     0.157 A 
BRANCH  41  44
ATOM     44  O   UNL     1       2.946   3.023 -20.704  1.00  0.00    -0.504 OA
ATOM     45  H   UNL     1       2.902   2.211 -20.078  1.00  0.00     0.293 HD
ENDBRANCH  41  44
BRANCH  43  46
ATOM     46  O   UNL     1       4.938   1.324 -21.736  1.00  0.00    -0.504 OA
ATOM     47  H   UNL     1       5.744   0.712 -21.551  1.00  0.00     0.293 HD
ENDBRANCH  43  46
ENDBRANCH  28  38
BRANCH  34  48
ATOM     48  O   UNL     1       2.045  10.069 -25.588  1.00  0.00    -0.507 OA
ATOM     49  H   UNL     1       1.319  10.726 -25.337  1.00  0.00     0.293 HD
ENDBRANCH  34  48
BRANCH  37  50
ATOM     50  O   UNL     1       5.245  12.477 -23.002  1.00  0.00    -0.508 OA
ATOM     51  H   UNL     1       6.115  12.566 -22.497  1.00  0.00     0.293 HD
ENDBRANCH  37  50
ENDBRANCH  26  27
ENDBRANCH   5  26
BRANCH   4  52
ATOM     52  O   UNL     1       1.384   5.399 -27.027  1.00  0.00    -0.384 OA
ATOM     53  H   UNL     1       0.522   5.065 -27.418  1.00  0.00     0.211 HD
ENDBRANCH   4  52
TORSDOF 16
ENDMDL
MODEL 2
REMARK VINA RESULT:    -7.564      1.480      8.964
REMARK INTER + INTRA:         -15.045
REMARK INTER:                 -13.518
REMARK INTRA:                  -1.527
REMARK UNBOUND:                -2.617
REMARK SMILES C[C@@H]1O[C@@H](OC[C@H]2O[C@@H](Oc3c(-c4ccc(O)c(O)c4)oc4cc(O)cc(O)c4c3=O)[C@H](O)[C@H](O)[C@@H]2O)[C@H](O)[C@H](O)[C@H]1O
REMARK SMILES IDX 7 1 36 2 34 3 32 4 9 5 8 6 6 7 5 8 4 9 1 10 2 11 42 12 3 13
REMARK SMILES IDX 40 14 38 15 43 16 41 18 39 20 37 22 35 24 10 26 11 27 12 28
REMARK SMILES IDX 30 29 21 30 29 31 31 32 22 33 27 34 23 35 26 36 24 37 13 38
REMARK SMILES IDX 20 39 14 40 18 41 15 42 16 43 19 44 17 46 28 48 25 50 33 52
REMARK H PARENT 43 17 41 19 39 21 37 23 35 25 19 45 17 47 28 49 25 51 33 53
REMARK Flexibility Score: inf
ROOT
ATOM      1  C   UNL     1       3.259   5.904 -25.593  1.00  0.00     0.180 C 
ATOM      2  C   UNL     1       1.713   6.286 -25.755  1.00  0.00     0.177 C 
ATOM      3  C   UNL     1       0.800   5.162 -25.236  1.00  0.00     0.180 C 
ATOM      4  C   UNL     1       1.612   3.871 -24.791  1.00  0.00     0.214 C 
ATOM      5  C   UNL     1       2.930   3.579 -25.564  1.00  0.00     0.339 C 
ATOM      6  O   UNL     1       3.498   4.659 -26.228  1.00  0.00    -0.332 OA
ENDROOT
BRANCH   1   7
ATOM      7  C   UNL     1       3.994   6.039 -24.235  1.00  0.00     0.198 C 
BRANCH   7   8
ATOM      8  O   UNL     1       4.644   7.326 -24.125  1.00  0.00    -0.347 OA
BRANCH   8   9
ATOM      9  C   UNL     1       4.093   8.477 -24.823  1.00  0.00     0.281 C 
ATOM     10  C   UNL     1       7.034  10.611 -25.488  1.00  0.00     0.041 C 
ATOM     11  C   UNL     1       5.845  10.079 -24.702  1.00  0.00     0.150 C 
ATOM     12  C   UNL     1       4.897  11.213 -24.252  1.00  0.00     0.174 C 
ATOM     13  O   UNL     1       5.121   9.147 -25.531  1.00  0.00    -0.344 OA
ATOM     14  C   UNL     1       3.742  10.587 -23.388  1.00  0.00     0.179 C 
ATOM     15  C   UNL     1       3.016   9.488 -24.196  1.00  0.00     0.202 C 
BRANCH  12  16
ATOM     16  O   UNL     1       5.557  12.268 -23.544  1.00  0.00    -0.388 OA
ATOM     17  H   UNL     1       5.673  11.923 -22.604  1.00  0.00     0.211 HD
ENDBRANCH  12  16
BRANCH  14  18
ATOM     18  O   UNL     1       2.839  11.530 -22.858  1.00  0.00    -0.387 OA
ATOM     19  H   UNL     1       3.278  12.015 -22.105  1.00  0.00     0.211 HD
ENDBRANCH  14  18
BRANCH  15  20
ATOM     20  O   UNL     1       2.347  10.087 -25.282  1.00  0.00    -0.385 OA
ATOM     21  H   UNL     1       1.575  10.664 -24.965  1.00  0.00     0.211 HD
ENDBRANCH  15  20
ENDBRANCH   8   9
ENDBRANCH   7   8
ENDBRANCH   1   7
BRANCH   2  22
ATOM     22  O   UNL     1       1.482   6.533 -27.125  1.00  0.00    -0.387 OA
ATOM     23  H   UNL     1       1.979   7.385 -27.411  1.00  0.00     0.211 HD
ENDBRANCH   2  22
BRANCH   3  24
ATOM     24  O   UNL     1      -0.140   4.822 -26.219  1.00  0.00    -0.387 OA
ATOM     25  H   UNL     1       0.379   4.678 -27.070  1.00  0.00     0.211 HD
ENDBRANCH   3  24
BRANCH   5  26
ATOM     26  O   UNL     1       3.920   3.052 -24.670  1.00  0.00    -0.454 OA
BRANCH  26  27
ATOM     27  C   UNL     1       4.286   1.716 -24.321  1.00  0.00     0.214 A 
ATOM     28  C   UNL     1       4.384   1.429 -22.948  1.00  0.00     0.180 A 
ATOM     29  C   UNL     1       4.550   0.667 -25.239  1.00  0.00     0.239 A 
ATOM     30  O   UNL     1       4.590   0.196 -22.515  1.00  0.00    -0.452 OA
ATOM     31  C   UNL     1       4.749  -0.631 -24.755  1.00  0.00     0.111 A 
ATOM     32  O   UNL     1       4.600   0.905 -26.475  1.00  0.00    -0.285 OA
ATOM     33  C   UNL     1       4.741  -0.855 -23.344  1.00  0.00     0.146 A 
ATOM     34  C   UNL     1       5.086  -1.737 -25.591  1.00  0.00     0.134 A 
ATOM     35  C   UNL     1       4.983  -2.134 -22.769  1.00  0.00     0.094 A 
ATOM     36  C   UNL     1       5.305  -2.974 -25.002  1.00  0.00     0.093 A 
ATOM     37  C   UNL     1       5.321  -3.189 -23.624  1.00  0.00     0.123 A 
BRANCH  28  38
ATOM     38  C   UNL     1       4.582   2.509 -22.006  1.00  0.00     0.025 A 
ATOM     39  C   UNL     1       5.806   3.210 -22.077  1.00  0.00     0.062 A 
ATOM     40  C   UNL     1       3.521   2.982 -21.264  1.00  0.00     0.016 A 
ATOM     41  C   UNL     1       5.790   4.585 -21.733  1.00  0.00     0.158 A 
ATOM     42  C   UNL     1       3.500   4.351 -20.894  1.00  0.00     0.051 A 
ATOM     43  C   UNL     1       4.616   5.173 -21.186  1.00  0.00     0.157 A 
BRANCH  41  44
ATOM     44  O   UNL     1       6.868   5.386 -22.105  1.00  0.00    -0.504 OA
ATOM     45  H   UNL     1       7.603   5.134 -22.776  1.00  0.00     0.293 HD
ENDBRANCH  41  44
BRANCH  43  46
ATOM     46  O   UNL     1       4.460   6.566 -21.252  1.00  0.00    -0.504 OA
ATOM     47  H   UNL     1       3.523   6.940 -21.054  1.00  0.00     0.293 HD
ENDBRANCH  43  46
ENDBRANCH  28  38
BRANCH  34  48
ATOM     48  O   UNL     1       5.281  -1.551 -26.951  1.00  0.00    -0.507 OA
ATOM     49  H   UNL     1       5.137  -2.323 -27.587  1.00  0.00     0.293 HD
ENDBRANCH  34  48
BRANCH  37  50
ATOM     50  O   UNL     1       5.789  -4.406 -23.167  1.00  0.00    -0.508 OA
ATOM     51  H   UNL     1       5.523  -5.251 -23.652  1.00  0.00     0.293 HD
ENDBRANCH  37  50
ENDBRANCH  26  27
ENDBRANCH   5  26
BRANCH   4  52
ATOM     52  O   UNL     1       0.762   2.775 -24.816  1.00  0.00    -0.384 OA
ATOM     53  H   UNL     1       1.101   2.178 -25.546  1.00  0.00     0.211 HD
ENDBRANCH   4  52
TORSDOF 16
ENDMDL
MODEL 3
REMARK VINA RESULT:    -7.037      2.236      9.648
REMARK INTER + INTRA:         -14.179
REMARK INTER:                 -12.488
REMARK INTRA:                  -1.691
REMARK UNBOUND:                -2.617
REMARK SMILES C[C@@H]1O[C@@H](OC[C@H]2O[C@@H](Oc3c(-c4ccc(O)c(O)c4)oc4cc(O)cc(O)c4c3=O)[C@H](O)[C@H](O)[C@@H]2O)[C@H](O)[C@H](O)[C@H]1O
REMARK SMILES IDX 7 1 36 2 34 3 32 4 9 5 8 6 6 7 5 8 4 9 1 10 2 11 42 12 3 13
REMARK SMILES IDX 40 14 38 15 43 16 41 18 39 20 37 22 35 24 10 26 11 27 12 28
REMARK SMILES IDX 30 29 21 30 29 31 31 32 22 33 27 34 23 35 26 36 24 37 13 38
REMARK SMILES IDX 20 39 14 40 18 41 15 42 16 43 19 44 17 46 28 48 25 50 33 52
REMARK H PARENT 43 17 41 19 39 21 37 23 35 25 19 45 17 47 28 49 25 51 33 53
REMARK Flexibility Score: inf
ROOT
ATOM      1  C   UNL     1       3.974   8.377 -23.773  1.00  0.00     0.180 C 
ATOM      2  C   UNL     1       4.658   8.933 -22.437  1.00  0.00     0.177 C 
ATOM      3  C   UNL     1       5.465   7.836 -21.722  1.00  0.00     0.180 C 
ATOM      4  C   UNL     1       5.313   6.414 -22.416  1.00  0.00     0.214 C 
ATOM      5  C   UNL     1       3.954   6.124 -23.112  1.00  0.00     0.339 C 
ATOM      6  O   UNL     1       3.195   7.235 -23.454  1.00  0.00    -0.332 OA
ENDROOT
BRANCH   1   7
ATOM      7  C   UNL     1       4.773   8.213 -25.091  1.00  0.00     0.198 C 
BRANCH   7   8
ATOM      8  O   UNL     1       4.998   9.495 -25.721  1.00  0.00    -0.347 OA
BRANCH   8   9
ATOM      9  C   UNL     1       6.355   9.961 -25.950  1.00  0.00     0.281 C 
ATOM     10  C   UNL     1       7.868  10.002 -22.581  1.00  0.00     0.041 C 
ATOM     11  C   UNL     1       7.104  10.555 -23.774  1.00  0.00     0.150 C 
ATOM     12  C   UNL     1       7.672  11.913 -24.243  1.00  0.00     0.174 C 
ATOM     13  O   UNL     1       7.178   9.603 -24.854  1.00  0.00    -0.344 OA
ATOM     14  C   UNL     1       6.784  12.446 -25.425  1.00  0.00     0.179 C 
ATOM     15  C   UNL     1       6.730  11.398 -26.559  1.00  0.00     0.202 C 
BRANCH  12  16
ATOM     16  O   UNL     1       7.778  12.885 -23.197  1.00  0.00    -0.388 OA
ATOM     17  H   UNL     1       6.885  13.355 -23.183  1.00  0.00     0.211 HD
ENDBRANCH  12  16
BRANCH  14  18
ATOM     18  O   UNL     1       7.158  13.718 -25.904  1.00  0.00    -0.387 OA
ATOM     19  H   UNL     1       6.835  14.415 -25.269  1.00  0.00     0.211 HD
ENDBRANCH  14  18
BRANCH  15  20
ATOM     20  O   UNL     1       8.015  11.272 -27.124  1.00  0.00    -0.385 OA
ATOM     21  H   UNL     1       8.479  10.431 -26.798  1.00  0.00     0.211 HD
ENDBRANCH  15  20
ENDBRANCH   8   9
ENDBRANCH   7   8
ENDBRANCH   1   7
BRANCH   2  22
ATOM     22  O   UNL     1       3.627   9.423 -21.609  1.00  0.00    -0.387 OA
ATOM     23  H   UNL     1       3.465   8.768 -20.834  1.00  0.00     0.211 HD
ENDBRANCH   2  22
BRANCH   3  24
ATOM     24  O   UNL     1       5.073   7.757 -20.378  1.00  0.00    -0.387 OA
ATOM     25  H   UNL     1       5.012   8.705 -20.045  1.00  0.00     0.211 HD
ENDBRANCH   3  24
BRANCH   5  26
ATOM     26  O   UNL     1       4.166   5.361 -24.309  1.00  0.00    -0.454 OA
BRANCH  26  27
ATOM     27  C   UNL     1       3.854   4.010 -24.655  1.00  0.00     0.214 A 
ATOM     28  C   UNL     1       2.898   3.826 -25.670  1.00  0.00     0.180 A 
ATOM     29  C   UNL     1       4.428   2.854 -24.066  1.00  0.00     0.239 A 
ATOM     30  O   UNL     1       2.631   2.624 -26.154  1.00  0.00    -0.452 OA
ATOM     31  C   UNL     1       4.142   1.597 -24.608  1.00  0.00     0.111 A 
ATOM     32  O   UNL     1       5.192   2.964 -23.070  1.00  0.00    -0.285 OA
ATOM     33  C   UNL     1       3.228   1.503 -25.703  1.00  0.00     0.146 A 
ATOM     34  C   UNL     1       4.616   0.373 -24.047  1.00  0.00     0.134 A 
ATOM     35  C   UNL     1       2.845   0.261 -26.280  1.00  0.00     0.094 A 
ATOM     36  C   UNL     1       4.235  -0.823 -24.639  1.00  0.00     0.093 A 
ATOM     37  C   UNL     1       3.325  -0.915 -25.692  1.00  0.00     0.123 A 
BRANCH  28  38
ATOM     38  C   UNL     1       1.968   4.890 -25.975  1.00  0.00     0.025 A 
ATOM     39  C   UNL     1       1.042   5.246 -24.969  1.00  0.00     0.062 A 
ATOM     40  C   UNL     1       2.160   5.677 -27.090  1.00  0.00     0.016 A 
ATOM     41  C   UNL     1       0.635   6.602 -24.909  1.00  0.00     0.158 A 
ATOM     42  C   UNL     1       1.737   7.031 -27.055  1.00  0.00     0.051 A 
ATOM     43  C   UNL     1       1.025   7.513 -25.930  1.00  0.00     0.157 A 
BRANCH  41  44
ATOM     44  O   UNL     1       0.006   7.068 -23.756  1.00  0.00    -0.504 OA
ATOM     45  H   UNL     1       0.250   7.921 -23.240  1.00  0.00     0.293 HD
ENDBRANCH  41  44
BRANCH  43  46
ATOM     46  O   UNL     1       0.995   8.891 -25.659  1.00  0.00    -0.504 OA
ATOM     47  H   UNL     1       0.314   9.213 -24.960  1.00  0.00     0.293 HD
ENDBRANCH  43  46
ENDBRANCH  28  38
BRANCH  34  48
ATOM     48  O   UNL     1       5.365   0.384 -22.880  1.00  0.00    -0.507 OA
ATOM     49  H   UNL     1       6.316   0.725 -22.900  1.00  0.00     0.293 HD
ENDBRANCH  34  48
BRANCH  37  50
ATOM     50  O   UNL     1       2.849  -2.169 -26.024  1.00  0.00    -0.508 OA
ATOM     51  H   UNL     1       3.505  -2.923 -26.169  1.00  0.00     0.293 HD
ENDBRANCH  37  50
ENDBRANCH  26  27
ENDBRANCH   5  26
BRANCH   4  52
ATOM     52  O   UNL     1       5.626   5.428 -21.492  1.00  0.00    -0.384 OA
ATOM     53  H   UNL     1       5.763   4.587 -22.020  1.00  0.00     0.211 HD
ENDBRANCH   4  52
TORSDOF 16
ENDMDL
MODEL 4
REMARK VINA RESULT:    -6.855      1.628      9.482
REMARK INTER + INTRA:         -13.880
REMARK INTER:                 -12.566
REMARK INTRA:                  -1.315
REMARK UNBOUND:                -2.617
REMARK SMILES C[C@@H]1O[C@@H](OC[C@H]2O[C@@H](Oc3c(-c4ccc(O)c(O)c4)oc4cc(O)cc(O)c4c3=O)[C@H](O)[C@H](O)[C@@H]2O)[C@H](O)[C@H](O)[C@H]1O
REMARK SMILES IDX 7 1 36 2 34 3 32 4 9 5 8 6 6 7 5 8 4 9 1 10 2 11 42 12 3 13
REMARK SMILES IDX 40 14 38 15 43 16 41 18 39 20 37 22 35 24 10 26 11 27 12 28
REMARK SMILES IDX 30 29 21 30 29 31 31 32 22 33 27 34 23 35 26 36 24 37 13 38
REMARK SMILES IDX 20 39 14 40 18 41 15 42 16 43 19 44 17 46 28 48 25 50 33 52
REMARK H PARENT 43 17 41 19 39 21 37 23 35 25 19 45 17 47 28 49 25 51 33 53
REMARK Flexibility Score: inf
ROOT
ATOM      1  C   UNL     1       3.382   6.735 -22.867  1.00  0.00     0.180 C 
ATOM      2  C   UNL     1       4.666   7.561 -22.387  1.00  0.00     0.177 C 
ATOM      3  C   UNL     1       5.924   6.676 -22.356  1.00  0.00     0.180 C 
ATOM      4  C   UNL     1       5.609   5.154 -22.686  1.00  0.00     0.214 C 
ATOM      5  C   UNL     1       4.212   4.625 -22.254  1.00  0.00     0.339 C 
ATOM      6  O   UNL     1       3.233   5.589 -22.045  1.00  0.00    -0.332 OA
ENDROOT
BRANCH   1   7
ATOM      7  C   UNL     1       3.117   6.440 -24.366  1.00  0.00     0.198 C 
BRANCH   7   8
ATOM      8  O   UNL     1       3.890   7.323 -25.211  1.00  0.00    -0.347 OA
BRANCH   8   9
ATOM      9  C   UNL     1       3.339   8.608 -25.611  1.00  0.00     0.281 C 
ATOM     10  C   UNL     1       6.288  10.825 -25.802  1.00  0.00     0.041 C 
ATOM     11  C   UNL     1       5.105  10.129 -25.145  1.00  0.00     0.150 C 
ATOM     12  C   UNL     1       4.173  11.130 -24.427  1.00  0.00     0.174 C 
ATOM     13  O   UNL     1       4.363   9.420 -26.158  1.00  0.00    -0.344 OA
ATOM     14  C   UNL     1       3.025  10.324 -23.716  1.00  0.00     0.179 C 
ATOM     15  C   UNL     1       2.279   9.449 -24.748  1.00  0.00     0.202 C 
BRANCH  12  16
ATOM     16  O   UNL     1       4.852  11.987 -23.502  1.00  0.00    -0.388 OA
ATOM     17  H   UNL     1       5.821  11.956 -23.777  1.00  0.00     0.211 HD
ENDBRANCH  12  16
BRANCH  14  18
ATOM     18  O   UNL     1       2.137  11.121 -22.966  1.00  0.00    -0.387 OA
ATOM     19  H   UNL     1       2.542  11.310 -22.075  1.00  0.00     0.211 HD
ENDBRANCH  14  18
BRANCH  15  20
ATOM     20  O   UNL     1       1.600  10.289 -25.653  1.00  0.00    -0.385 OA
ATOM     21  H   UNL     1       0.799   9.818 -26.061  1.00  0.00     0.211 HD
ENDBRANCH  15  20
ENDBRANCH   8   9
ENDBRANCH   7   8
ENDBRANCH   1   7
BRANCH   2  22
ATOM     22  O   UNL     1       4.379   8.075 -21.105  1.00  0.00    -0.387 OA
ATOM     23  H   UNL     1       4.957   7.597 -20.403  1.00  0.00     0.211 HD
ENDBRANCH   2  22
BRANCH   3  24
ATOM     24  O   UNL     1       6.546   6.776 -21.104  1.00  0.00    -0.387 OA
ATOM     25  H   UNL     1       6.073   6.124 -20.500  1.00  0.00     0.211 HD
ENDBRANCH   3  24
BRANCH   5  26
ATOM     26  O   UNL     1       3.709   3.705 -23.232  1.00  0.00    -0.454 OA
BRANCH  26  27
ATOM     27  C   UNL     1       3.899   2.301 -23.418  1.00  0.00     0.214 A 
ATOM     28  C   UNL     1       3.677   1.802 -24.715  1.00  0.00     0.180 A 
ATOM     29  C   UNL     1       4.294   1.382 -22.413  1.00  0.00     0.239 A 
ATOM     30  O   UNL     1       3.948   0.545 -25.025  1.00  0.00    -0.452 OA
ATOM     31  C   UNL     1       4.591   0.062 -22.771  1.00  0.00     0.111 A 
ATOM     32  O   UNL     1       4.382   1.755 -21.213  1.00  0.00    -0.285 OA
ATOM     33  C   UNL     1       4.427  -0.343 -24.131  1.00  0.00     0.146 A 
ATOM     34  C   UNL     1       4.931  -0.951 -21.825  1.00  0.00     0.134 A 
ATOM     35  C   UNL     1       4.659  -1.676 -24.570  1.00  0.00     0.094 A 
ATOM     36  C   UNL     1       5.163  -2.240 -22.284  1.00  0.00     0.093 A 
ATOM     37  C   UNL     1       4.980  -2.640 -23.606  1.00  0.00     0.123 A 
BRANCH  28  38
ATOM     38  C   UNL     1       2.856   2.555 -25.637  1.00  0.00     0.025 A 
ATOM     39  C   UNL     1       1.503   2.755 -25.282  1.00  0.00     0.062 A 
ATOM     40  C   UNL     1       3.441   3.254 -26.671  1.00  0.00     0.016 A 
ATOM     41  C   UNL     1       0.888   3.958 -25.709  1.00  0.00     0.158 A 
ATOM     42  C   UNL     1       2.826   4.450 -27.125  1.00  0.00     0.051 A 
ATOM     43  C   UNL     1       1.572   4.837 -26.595  1.00  0.00     0.157 A 
BRANCH  41  44
ATOM     44  O   UNL     1      -0.307   4.354 -25.112  1.00  0.00    -0.504 OA
ATOM     45  H   UNL     1      -0.417   5.113 -24.430  1.00  0.00     0.293 HD
ENDBRANCH  41  44
BRANCH  43  46
ATOM     46  O   UNL     1       1.166   6.179 -26.668  1.00  0.00    -0.504 OA
ATOM     47  H   UNL     1       1.878   6.893 -26.469  1.00  0.00     0.293 HD
ENDBRANCH  43  46
ENDBRANCH  28  38
BRANCH  34  48
ATOM     48  O   UNL     1       4.937  -0.665 -20.468  1.00  0.00    -0.507 OA
ATOM     49  H   UNL     1       4.070  -0.435 -20.002  1.00  0.00     0.293 HD
ENDBRANCH  34  48
BRANCH  37  50
ATOM     50  O   UNL     1       5.008  -3.994 -23.880  1.00  0.00    -0.508 OA
ATOM     51  H   UNL     1       4.917  -4.653 -23.119  1.00  0.00     0.293 HD
ENDBRANCH  37  50
ENDBRANCH  26  27
ENDBRANCH   5  26
BRANCH   4  52
ATOM     52  O   UNL     1       6.627   4.364 -22.173  1.00  0.00    -0.384 OA
ATOM     53  H   UNL     1       7.352   4.996 -21.890  1.00  0.00     0.211 HD
ENDBRANCH   4  52
TORSDOF 16
ENDMDL
MODEL 5
REMARK VINA RESULT:    -6.465      2.470      8.919
REMARK INTER + INTRA:         -13.240
REMARK INTER:                 -12.336
REMARK INTRA:                  -0.903
REMARK UNBOUND:                -2.617
REMARK SMILES C[C@@H]1O[C@@H](OC[C@H]2O[C@@H](Oc3c(-c4ccc(O)c(O)c4)oc4cc(O)cc(O)c4c3=O)[C@H](O)[C@H](O)[C@@H]2O)[C@H](O)[C@H](O)[C@H]1O
REMARK SMILES IDX 7 1 36 2 34 3 32 4 9 5 8 6 6 7 5 8 4 9 1 10 2 11 42 12 3 13
REMARK SMILES IDX 40 14 38 15 43 16 41 18 39 20 37 22 35 24 10 26 11 27 12 28
REMARK SMILES IDX 30 29 21 30 29 31 31 32 22 33 27 34 23 35 26 36 24 37 13 38
REMARK SMILES IDX 20 39 14 40 18 41 15 42 16 43 19 44 17 46 28 48 25 50 33 52
REMARK H PARENT 43 17 41 19 39 21 37 23 35 25 19 45 17 47 28 49 25 51 33 53
REMARK Flexibility Score: inf
ROOT
ATOM      1  C   UNL     1       2.517   8.062 -27.088  1.00  0.00     0.180 C 
ATOM      2  C   UNL     1       1.755   9.183 -26.238  1.00  0.00     0.177 C 
ATOM      3  C   UNL     1       1.664   8.797 -24.752  1.00  0.00     0.180 C 
ATOM      4  C   UNL     1       2.234   7.342 -24.463  1.00  0.00     0.214 C 
ATOM      5  C   UNL     1       2.077   6.296 -25.603  1.00  0.00     0.339 C 
ATOM      6  O   UNL     1       1.883   6.811 -26.879  1.00  0.00    -0.332 OA
ENDROOT
BRANCH   1   7
ATOM      7  C   UNL     1       4.065   7.959 -27.100  1.00  0.00     0.198 C 
BRANCH   7   8
ATOM      8  O   UNL     1       4.669   9.272 -27.085  1.00  0.00    -0.347 OA
BRANCH   8   9
ATOM      9  C   UNL     1       5.860   9.511 -26.286  1.00  0.00     0.281 C 
ATOM     10  C   UNL     1       4.547  10.161 -22.895  1.00  0.00     0.041 C 
ATOM     11  C   UNL     1       4.999  10.506 -24.305  1.00  0.00     0.150 C 
ATOM     12  C   UNL     1       6.047  11.642 -24.315  1.00  0.00     0.174 C 
ATOM     13  O   UNL     1       5.563   9.326 -24.913  1.00  0.00    -0.344 OA
ATOM     14  C   UNL     1       6.402  11.983 -25.807  1.00  0.00     0.179 C 
ATOM     15  C   UNL     1       6.894  10.713 -26.536  1.00  0.00     0.202 C 
BRANCH  12  16
ATOM     16  O   UNL     1       5.633  12.812 -23.601  1.00  0.00    -0.388 OA
ATOM     17  H   UNL     1       6.463  13.380 -23.523  1.00  0.00     0.211 HD
ENDBRANCH  12  16
BRANCH  14  18
ATOM     18  O   UNL     1       7.305  13.055 -25.957  1.00  0.00    -0.387 OA
ATOM     19  H   UNL     1       7.843  13.148 -25.123  1.00  0.00     0.211 HD
ENDBRANCH  14  18
BRANCH  15  20
ATOM     20  O   UNL     1       8.122  10.311 -25.974  1.00  0.00    -0.385 OA
ATOM     21  H   UNL     1       8.533  11.055 -25.420  1.00  0.00     0.211 HD
ENDBRANCH  15  20
ENDBRANCH   8   9
ENDBRANCH   7   8
ENDBRANCH   1   7
BRANCH   2  22
ATOM     22  O   UNL     1       0.470   9.336 -26.800  1.00  0.00    -0.387 OA
ATOM     23  H   UNL     1       0.154   8.439 -27.188  1.00  0.00     0.211 HD
ENDBRANCH   2  22
BRANCH   3  24
ATOM     24  O   UNL     1       0.334   8.886 -24.318  1.00  0.00    -0.387 OA
ATOM     25  H   UNL     1       0.052   9.841 -24.466  1.00  0.00     0.211 HD
ENDBRANCH   3  24
BRANCH   5  26
ATOM     26  O   UNL     1       3.230   5.444 -25.653  1.00  0.00    -0.454 OA
BRANCH  26  27
ATOM     27  C   UNL     1       3.644   4.340 -24.845  1.00  0.00     0.214 A 
ATOM     28  C   UNL     1       2.889   3.158 -24.961  1.00  0.00     0.180 A 
ATOM     29  C   UNL     1       4.744   4.340 -23.950  1.00  0.00     0.239 A 
ATOM     30  O   UNL     1       3.262   2.042 -24.357  1.00  0.00    -0.452 OA
ATOM     31  C   UNL     1       5.127   3.141 -23.337  1.00  0.00     0.111 A 
ATOM     32  O   UNL     1       5.371   5.407 -23.717  1.00  0.00    -0.285 OA
ATOM     33  C   UNL     1       4.360   1.961 -23.580  1.00  0.00     0.146 A 
ATOM     34  C   UNL     1       6.175   3.052 -22.373  1.00  0.00     0.134 A 
ATOM     35  C   UNL     1       4.651   0.714 -22.960  1.00  0.00     0.094 A 
ATOM     36  C   UNL     1       6.444   1.821 -21.793  1.00  0.00     0.093 A 
ATOM     37  C   UNL     1       5.681   0.674 -22.012  1.00  0.00     0.123 A 
BRANCH  28  38
ATOM     38  C   UNL     1       1.538   3.223 -25.471  1.00  0.00     0.025 A 
ATOM     39  C   UNL     1       1.165   2.260 -26.435  1.00  0.00     0.062 A 
ATOM     40  C   UNL     1       0.602   4.020 -24.849  1.00  0.00     0.016 A 
ATOM     41  C   UNL     1      -0.188   1.835 -26.442  1.00  0.00     0.158 A 
ATOM     42  C   UNL     1      -0.760   3.622 -24.866  1.00  0.00     0.051 A 
ATOM     43  C   UNL     1      -1.147   2.485 -25.616  1.00  0.00     0.157 A 
BRANCH  41  44
ATOM     44  O   UNL     1      -0.525   0.668 -27.125  1.00  0.00    -0.504 OA
ATOM     45  H   UNL     1      -1.197   0.596 -27.897  1.00  0.00     0.293 HD
ENDBRANCH  41  44
BRANCH  43  46
ATOM     46  O   UNL     1      -2.341   1.815 -25.305  1.00  0.00    -0.504 OA
ATOM     47  H   UNL     1      -2.801   1.304 -26.070  1.00  0.00     0.293 HD
ENDBRANCH  43  46
ENDBRANCH  28  38
BRANCH  34  48
ATOM     48  O   UNL     1       6.844   4.195 -21.962  1.00  0.00    -0.507 OA
ATOM     49  H   UNL     1       7.783   4.370 -22.292  1.00  0.00     0.293 HD
ENDBRANCH  34  48
BRANCH  37  50
ATOM     50  O   UNL     1       5.904  -0.415 -21.192  1.00  0.00    -0.508 OA
ATOM     51  H   UNL     1       5.678  -0.347 -20.209  1.00  0.00     0.293 HD
ENDBRANCH  37  50
ENDBRANCH  26  27
ENDBRANCH   5  26
BRANCH   4  52
ATOM     52  O   UNL     1       1.690   6.875 -23.275  1.00  0.00    -0.384 OA
ATOM     53  H   UNL     1       2.268   7.245 -22.543  1.00  0.00     0.211 HD
ENDBRANCH   4  52
TORSDOF 16
ENDMDL
MODEL 6
REMARK VINA RESULT:    -6.351      1.650      4.266
REMARK INTER + INTRA:         -13.052
REMARK INTER:                 -10.974
REMARK INTRA:                  -2.078
REMARK UNBOUND:                -2.617
REMARK SMILES C[C@@H]1O[C@@H](OC[C@H]2O[C@@H](Oc3c(-c4ccc(O)c(O)c4)oc4cc(O)cc(O)c4c3=O)[C@H](O)[C@H](O)[C@@H]2O)[C@H](O)[C@H](O)[C@H]1O
REMARK SMILES IDX 7 1 36 2 34 3 32 4 9 5 8 6 6 7 5 8 4 9 1 10 2 11 42 12 3 13
REMARK SMILES IDX 40 14 38 15 43 16 41 18 39 20 37 22 35 24 10 26 11 27 12 28
REMARK SMILES IDX 30 29 21 30 29 31 31 32 22 33 27 34 23 35 26 36 24 37 13 38
REMARK SMILES IDX 20 39 14 40 18 41 15 42 16 43 19 44 17 46 28 48 25 50 33 52
REMARK H PARENT 43 17 41 19 39 21 37 23 35 25 19 45 17 47 28 49 25 51 33 53
REMARK Flexibility Score: inf
ROOT
ATOM      1  C   UNL     1       5.898   1.139 -23.137  1.00  0.00     0.180 C 
ATOM      2  C   UNL     1       5.335   0.100 -22.057  1.00  0.00     0.177 C 
ATOM      3  C   UNL     1       4.112   0.668 -21.317  1.00  0.00     0.180 C 
ATOM      4  C   UNL     1       3.798   2.172 -21.719  1.00  0.00     0.214 C 
ATOM      5  C   UNL     1       5.017   3.056 -22.106  1.00  0.00     0.339 C 
ATOM      6  O   UNL     1       6.164   2.376 -22.496  1.00  0.00    -0.332 OA
ENDROOT
BRANCH   1   7
ATOM      7  C   UNL     1       5.233   1.311 -24.527  1.00  0.00     0.198 C 
BRANCH   7   8
ATOM      8  O   UNL     1       4.027   0.518 -24.624  1.00  0.00    -0.347 OA
BRANCH   8   9
ATOM      9  C   UNL     1       4.026  -0.705 -25.409  1.00  0.00     0.281 C 
ATOM     10  C   UNL     1       1.260  -2.688 -23.972  1.00  0.00     0.041 C 
ATOM     11  C   UNL     1       2.688  -2.184 -24.115  1.00  0.00     0.150 C 
ATOM     12  C   UNL     1       3.701  -3.345 -24.233  1.00  0.00     0.174 C 
ATOM     13  O   UNL     1       2.771  -1.352 -25.290  1.00  0.00    -0.344 OA
ATOM     14  C   UNL     1       5.150  -2.741 -24.302  1.00  0.00     0.179 C 
ATOM     15  C   UNL     1       5.250  -1.742 -25.476  1.00  0.00     0.202 C 
BRANCH  12  16
ATOM     16  O   UNL     1       3.593  -4.312 -23.182  1.00  0.00    -0.388 OA
ATOM     17  H   UNL     1       4.189  -3.967 -22.445  1.00  0.00     0.211 HD
ENDBRANCH  12  16
BRANCH  14  18
ATOM     18  O   UNL     1       6.178  -3.704 -24.346  1.00  0.00    -0.387 OA
ATOM     19  H   UNL     1       7.053  -3.257 -24.175  1.00  0.00     0.211 HD
ENDBRANCH  14  18
BRANCH  15  20
ATOM     20  O   UNL     1       5.113  -2.447 -26.688  1.00  0.00    -0.385 OA
ATOM     21  H   UNL     1       4.214  -2.263 -27.121  1.00  0.00     0.211 HD
ENDBRANCH  15  20
ENDBRANCH   8   9
ENDBRANCH   7   8
ENDBRANCH   1   7
BRANCH   2  22
ATOM     22  O   UNL     1       6.385  -0.181 -21.158  1.00  0.00    -0.387 OA
ATOM     23  H   UNL     1       7.042  -0.843 -21.590  1.00  0.00     0.211 HD
ENDBRANCH   2  22
BRANCH   3  24
ATOM     24  O   UNL     1       4.309   0.573 -19.932  1.00  0.00    -0.387 OA
ATOM     25  H   UNL     1       3.457   0.195 -19.550  1.00  0.00     0.211 HD
ENDBRANCH   3  24
BRANCH   5  26
ATOM     26  O   UNL     1       4.661   3.948 -23.172  1.00  0.00    -0.454 OA
BRANCH  26  27
ATOM     27  C   UNL     1       4.584   5.373 -23.248  1.00  0.00     0.214 A 
ATOM     28  C   UNL     1       3.476   5.907 -23.930  1.00  0.00     0.180 A 
ATOM     29  C   UNL     1       5.522   6.280 -22.692  1.00  0.00     0.239 A 
ATOM     30  O   UNL     1       3.242   7.209 -23.948  1.00  0.00    -0.452 OA
ATOM     31  C   UNL     1       5.241   7.651 -22.710  1.00  0.00     0.111 A 
ATOM     32  O   UNL     1       6.592   5.852 -22.183  1.00  0.00    -0.285 OA
ATOM     33  C   UNL     1       4.045   8.107 -23.344  1.00  0.00     0.146 A 
ATOM     34  C   UNL     1       6.150   8.645 -22.238  1.00  0.00     0.134 A 
ATOM     35  C   UNL     1       3.709   9.485 -23.450  1.00  0.00     0.094 A 
ATOM     36  C   UNL     1       5.789   9.980 -22.343  1.00  0.00     0.093 A 
ATOM     37  C   UNL     1       4.634  10.427 -22.983  1.00  0.00     0.123 A 
BRANCH  28  38
ATOM     38  C   UNL     1       2.762   5.087 -24.883  1.00  0.00     0.025 A 
ATOM     39  C   UNL     1       3.522   4.475 -25.905  1.00  0.00     0.062 A 
ATOM     40  C   UNL     1       1.456   4.723 -24.640  1.00  0.00     0.016 A 
ATOM     41  C   UNL     1       3.078   3.216 -26.382  1.00  0.00     0.158 A 
ATOM     42  C   UNL     1       0.988   3.476 -25.130  1.00  0.00     0.051 A 
ATOM     43  C   UNL     1       1.828   2.689 -25.954  1.00  0.00     0.157 A 
BRANCH  41  44
ATOM     44  O   UNL     1       3.955   2.428 -27.125  1.00  0.00    -0.504 OA
ATOM     45  H   UNL     1       3.867   1.418 -27.287  1.00  0.00     0.293 HD
ENDBRANCH  41  44
BRANCH  43  46
ATOM     46  O   UNL     1       1.596   1.309 -26.074  1.00  0.00    -0.504 OA
ATOM     47  H   UNL     1       1.607   0.916 -27.024  1.00  0.00     0.293 HD
ENDBRANCH  43  46
ENDBRANCH  28  38
BRANCH  34  48
ATOM     48  O   UNL     1       7.403   8.279 -21.770  1.00  0.00    -0.507 OA
ATOM     49  H   UNL     1       7.611   8.361 -20.784  1.00  0.00     0.293 HD
ENDBRANCH  34  48
BRANCH  37  50
ATOM     50  O   UNL     1       4.516  11.781 -23.232  1.00  0.00    -0.508 OA
ATOM     51  H   UNL     1       3.705  12.276 -22.890  1.00  0.00     0.293 HD
ENDBRANCH  37  50
ENDBRANCH  26  27
ENDBRANCH   5  26
BRANCH   4  52
ATOM     52  O   UNL     1       3.051   2.760 -20.709  1.00  0.00    -0.384 OA
ATOM     53  H   UNL     1       3.714   3.122 -20.049  1.00  0.00     0.211 HD
ENDBRANCH   4  52
TORSDOF 16
ENDMDL
MODEL 7
REMARK VINA RESULT:    -6.269      1.637      4.414
REMARK INTER + INTRA:         -12.917
REMARK INTER:                 -11.384
REMARK INTRA:                  -1.533
REMARK UNBOUND:                -2.617
REMARK SMILES C[C@@H]1O[C@@H](OC[C@H]2O[C@@H](Oc3c(-c4ccc(O)c(O)c4)oc4cc(O)cc(O)c4c3=O)[C@H](O)[C@H](O)[C@@H]2O)[C@H](O)[C@H](O)[C@H]1O
REMARK SMILES IDX 7 1 36 2 34 3 32 4 9 5 8 6 6 7 5 8 4 9 1 10 2 11 42 12 3 13
REMARK SMILES IDX 40 14 38 15 43 16 41 18 39 20 37 22 35 24 10 26 11 27 12 28
REMARK SMILES IDX 30 29 21 30 29 31 31 32 22 33 27 34 23 35 26 36 24 37 13 38
REMARK SMILES IDX 20 39 14 40 18 41 15 42 16 43 19 44 17 46 28 48 25 50 33 52
REMARK H PARENT 43 17 41 19 39 21 37 23 35 25 19 45 17 47 28 49 25 51 33 53
REMARK Flexibility Score: inf
ROOT
ATOM      1  C   UNL     1       5.497   3.262 -23.537  1.00  0.00     0.180 C 
ATOM      2  C   UNL     1       5.356   1.993 -22.572  1.00  0.00     0.177 C 
ATOM      3  C   UNL     1       4.244   2.200 -21.530  1.00  0.00     0.180 C 
ATOM      4  C   UNL     1       3.608   3.655 -21.596  1.00  0.00     0.214 C 
ATOM      5  C   UNL     1       4.553   4.806 -22.040  1.00  0.00     0.339 C 
ATOM      6  O   UNL     1       5.686   4.426 -22.748  1.00  0.00    -0.332 OA
ENDROOT
BRANCH   1   7
ATOM      7  C   UNL     1       4.530   3.492 -24.728  1.00  0.00     0.198 C 
BRANCH   7   8
ATOM      8  O   UNL     1       3.671   2.346 -24.923  1.00  0.00    -0.347 OA
BRANCH   8   9
ATOM      9  C   UNL     1       4.072   1.287 -25.835  1.00  0.00     0.281 C 
ATOM     10  C   UNL     1       0.979  -0.666 -26.353  1.00  0.00     0.041 C 
ATOM     11  C   UNL     1       2.286  -0.274 -25.680  1.00  0.00     0.150 C 
ATOM     12  C   UNL     1       3.237  -1.481 -25.518  1.00  0.00     0.174 C 
ATOM     13  O   UNL     1       2.929   0.744 -26.473  1.00  0.00    -0.344 OA
ATOM     14  C   UNL     1       4.524  -1.005 -24.751  1.00  0.00     0.179 C 
ATOM     15  C   UNL     1       5.180   0.174 -25.502  1.00  0.00     0.202 C 
BRANCH  12  16
ATOM     16  O   UNL     1       2.634  -2.606 -24.869  1.00  0.00    -0.388 OA
ATOM     17  H   UNL     1       3.023  -3.415 -25.329  1.00  0.00     0.211 HD
ENDBRANCH  12  16
BRANCH  14  18
ATOM     18  O   UNL     1       5.449  -2.033 -24.480  1.00  0.00    -0.387 OA
ATOM     19  H   UNL     1       5.182  -2.501 -23.641  1.00  0.00     0.211 HD
ENDBRANCH  14  18
BRANCH  15  20
ATOM     20  O   UNL     1       5.669  -0.288 -26.740  1.00  0.00    -0.385 OA
ATOM     21  H   UNL     1       5.299  -1.208 -26.961  1.00  0.00     0.211 HD
ENDBRANCH  15  20
ENDBRANCH   8   9
ENDBRANCH   7   8
ENDBRANCH   1   7
BRANCH   2  22
ATOM     22  O   UNL     1       6.606   1.801 -21.946  1.00  0.00    -0.387 OA
ATOM     23  H   UNL     1       6.969   2.703 -21.615  1.00  0.00     0.211 HD
ENDBRANCH   2  22
BRANCH   3  24
ATOM     24  O   UNL     1       4.745   1.954 -20.244  1.00  0.00    -0.387 OA
ATOM     25  H   UNL     1       3.984   1.562 -19.714  1.00  0.00     0.211 HD
ENDBRANCH   3  24
BRANCH   5  26
ATOM     26  O   UNL     1       3.836   5.750 -22.848  1.00  0.00    -0.454 OA
BRANCH  26  27
ATOM     27  C   UNL     1       4.122   7.095 -23.236  1.00  0.00     0.214 A 
ATOM     28  C   UNL     1       3.139   7.752 -23.998  1.00  0.00     0.180 A 
ATOM     29  C   UNL     1       5.301   7.814 -22.913  1.00  0.00     0.239 A 
ATOM     30  O   UNL     1       3.246   9.036 -24.300  1.00  0.00    -0.452 OA
ATOM     31  C   UNL     1       5.381   9.175 -23.230  1.00  0.00     0.111 A 
ATOM     32  O   UNL     1       6.262   7.231 -22.343  1.00  0.00    -0.285 OA
ATOM     33  C   UNL     1       4.296   9.791 -23.926  1.00  0.00     0.146 A 
ATOM     34  C   UNL     1       6.548   9.966 -23.007  1.00  0.00     0.134 A 
ATOM     35  C   UNL     1       4.318  11.155 -24.328  1.00  0.00     0.094 A 
ATOM     36  C   UNL     1       6.535  11.297 -23.399  1.00  0.00     0.093 A 
ATOM     37  C   UNL     1       5.487  11.892 -24.099  1.00  0.00     0.123 A 
BRANCH  28  38
ATOM     38  C   UNL     1       2.167   6.972 -24.732  1.00  0.00     0.025 A 
ATOM     39  C   UNL     1       2.619   6.300 -25.889  1.00  0.00     0.062 A 
ATOM     40  C   UNL     1       0.937   6.699 -24.173  1.00  0.00     0.016 A 
ATOM     41  C   UNL     1       1.995   5.070 -26.214  1.00  0.00     0.158 A 
ATOM     42  C   UNL     1       0.288   5.482 -24.505  1.00  0.00     0.051 A 
ATOM     43  C   UNL     1       0.853   4.632 -25.486  1.00  0.00     0.157 A 
BRANCH  41  44
ATOM     44  O   UNL     1       2.616   4.218 -27.125  1.00  0.00    -0.504 OA
ATOM     45  H   UNL     1       3.608   3.954 -27.123  1.00  0.00     0.293 HD
ENDBRANCH  41  44
BRANCH  43  46
ATOM     46  O   UNL     1       0.513   3.270 -25.512  1.00  0.00    -0.504 OA
ATOM     47  H   UNL     1      -0.070   2.950 -26.296  1.00  0.00     0.293 HD
ENDBRANCH  43  46
ENDBRANCH  28  38
BRANCH  34  48
ATOM     48  O   UNL     1       7.698   9.385 -22.494  1.00  0.00    -0.507 OA
ATOM     49  H   UNL     1       8.324   9.935 -21.923  1.00  0.00     0.293 HD
ENDBRANCH  34  48
BRANCH  37  50
ATOM     50  O   UNL     1       5.702  13.145 -24.640  1.00  0.00    -0.508 OA
ATOM     51  H   UNL     1       6.126  13.221 -25.554  1.00  0.00     0.293 HD
ENDBRANCH  37  50
ENDBRANCH  26  27
ENDBRANCH   5  26
BRANCH   4  52
ATOM     52  O   UNL     1       3.008   3.938 -20.377  1.00  0.00    -0.384 OA
ATOM     53  H   UNL     1       3.597   4.615 -19.930  1.00  0.00     0.211 HD
ENDBRANCH   4  52
TORSDOF 16
ENDMDL
