MODEL 1
REMARK VINA RESULT:    -1.353      0.000      0.000
REMARK INTER + INTRA:          -5.153
REMARK INTER:                  -3.092
REMARK INTRA:                  -2.061
REMARK UNBOUND:                -2.061
REMARK SMILES CCCCCCCCCCCCCCCCCCCCCCCC(=O)[O-]
REMARK SMILES IDX 13 1 14 2 15 3 16 4 17 5 18 6 19 7 20 8 21 9 22 10 23 11
REMARK SMILES IDX 24 12 25 13 26 14 12 15 11 16 10 17 9 18 8 19 7 20 6 21 5 22
REMARK SMILES IDX 4 23 3 24 2 25 1 26
REMARK H PARENT
REMARK Flexibility Score: inf
ROOT
ATOM      1  C   UNL     1       8.231  -4.778  -5.545  1.00  0.00     0.000 C 
ENDROOT
BRANCH   1   2
ATOM      2  C   UNL     1       8.860  -4.286  -4.224  1.00  0.00     0.000 C 
BRANCH   2   3
ATOM      3  C   UNL     1       9.125  -5.413  -3.212  1.00  0.00     0.000 C 
BRANCH   3   4
ATOM      4  C   UNL     1       8.278  -6.667  -3.473  1.00  0.00     0.000 C 
BRANCH   4   5
ATOM      5  C   UNL     1       9.061  -7.978  -3.278  1.00  0.00     0.000 C 
BRANCH   5   6
ATOM      6  C   UNL     1       8.379  -8.990  -2.330  1.00  0.00     0.000 C 
BRANCH   6   7
ATOM      7  C   UNL     1       6.996  -8.559  -1.794  1.00  0.00     0.000 C 
BRANCH   7   8
ATOM      8  C   UNL     1       6.748  -8.818  -0.293  1.00  0.00     0.000 C 
BRANCH   8   9
ATOM      9  C   UNL     1       5.267  -8.847   0.135  1.00  0.00     0.000 C 
BRANCH   9  10
ATOM     10  C   UNL     1       5.026  -8.767   1.657  1.00  0.00     0.006 C 
BRANCH  10  11
ATOM     11  C   UNL     1       4.897  -7.338   2.210  1.00  0.00     0.053 C 
BRANCH  11  12
ATOM     12  C   UNL     1       5.044  -7.297   3.701  1.00  0.00     0.041 C 
ATOM     13  O   UNL     1       4.342  -8.047   4.429  1.00  0.00    -0.550 OA
ATOM     14  O   UNL     1       5.932  -6.404   4.285  1.00  0.00    -0.550 OA
ENDBRANCH  11  12
ENDBRANCH  10  11
ENDBRANCH   9  10
ENDBRANCH   8   9
ENDBRANCH   7   8
ENDBRANCH   6   7
ENDBRANCH   5   6
ENDBRANCH   4   5
ENDBRANCH   3   4
ENDBRANCH   2   3
ENDBRANCH   1   2
BRANCH   1  15
ATOM     15  C   UNL     1       9.047  -4.342  -6.774  1.00  0.00     0.000 C 
BRANCH  15  16
ATOM     16  C   UNL     1       8.293  -4.567  -8.093  1.00  0.00     0.000 C 
BRANCH  16  17
ATOM     17  C   UNL     1       7.330  -3.416  -8.431  1.00  0.00     0.000 C 
BRANCH  17  18
ATOM     18  C   UNL     1       6.448  -3.724  -9.652  1.00  0.00    -0.000 C 
BRANCH  18  19
ATOM     19  C   UNL     1       6.500  -5.208 -10.058  1.00  0.00    -0.000 C 
BRANCH  19  20
ATOM     20  C   UNL     1       5.107  -5.871 -10.067  1.00  0.00    -0.000 C 
BRANCH  20  21
ATOM     21  C   UNL     1       5.064  -7.236  -9.352  1.00  0.00    -0.000 C 
BRANCH  21  22
ATOM     22  C   UNL     1       6.407  -7.703  -8.761  1.00  0.00    -0.000 C 
BRANCH  22  23
ATOM     23  C   UNL     1       6.330  -8.967  -7.878  1.00  0.00    -0.000 C 
BRANCH  23  24
ATOM     24  C   UNL     1       6.013  -8.710  -6.395  1.00  0.00    -0.000 C 
BRANCH  24  25
ATOM     25  C   UNL     1       5.930  -7.215  -6.052  1.00  0.00    -0.003 C 
ATOM     26  C   UNL     1       4.591  -6.874  -5.401  1.00  0.00     0.004 C 
ENDBRANCH  24  25
ENDBRANCH  23  24
ENDBRANCH  22  23
ENDBRANCH  21  22
ENDBRANCH  20  21
ENDBRANCH  19  20
ENDBRANCH  18  19
ENDBRANCH  17  18
ENDBRANCH  16  17
ENDBRANCH  15  16
ENDBRANCH   1  15
TORSDOF 22
ENDMDL
MODEL 2
REMARK VINA RESULT:    -0.737      1.157      2.085
REMARK INTER + INTRA:          -3.747
REMARK INTER:                  -2.835
REMARK INTRA:                  -0.912
REMARK UNBOUND:                -2.061
REMARK SMILES CCCCCCCCCCCCCCCCCCCCCCCC(=O)[O-]
REMARK SMILES IDX 13 1 14 2 15 3 16 4 17 5 18 6 19 7 20 8 21 9 22 10 23 11
REMARK SMILES IDX 24 12 25 13 26 14 12 15 11 16 10 17 9 18 8 19 7 20 6 21 5 22
REMARK SMILES IDX 4 23 3 24 2 25 1 26
REMARK H PARENT
REMARK Flexibility Score: inf
ROOT
ATOM      1  C   UNL     1       7.712  -4.731  -5.175  1.00  0.00     0.000 C 
ENDROOT
BRANCH   1   2
ATOM      2  C   UNL     1       8.947  -4.645  -4.254  1.00  0.00     0.000 C 
BRANCH   2   3
ATOM      3  C   UNL     1       9.086  -5.842  -3.298  1.00  0.00     0.000 C 
BRANCH   3   4
ATOM      4  C   UNL     1       8.349  -7.095  -3.792  1.00  0.00     0.000 C 
BRANCH   4   5
ATOM      5  C   UNL     1       9.086  -8.404  -3.454  1.00  0.00     0.000 C 
BRANCH   5   6
ATOM      6  C   UNL     1       8.574  -9.110  -2.179  1.00  0.00     0.000 C 
BRANCH   6   7
ATOM      7  C   UNL     1       7.278  -8.523  -1.578  1.00  0.00     0.000 C 
BRANCH   7   8
ATOM      8  C   UNL     1       6.937  -8.978  -0.143  1.00  0.00     0.000 C 
BRANCH   8   9
ATOM      9  C   UNL     1       5.432  -9.071   0.180  1.00  0.00     0.000 C 
BRANCH   9  10
ATOM     10  C   UNL     1       4.913  -8.017   1.181  1.00  0.00     0.006 C 
BRANCH  10  11
ATOM     11  C   UNL     1       4.434  -8.593   2.524  1.00  0.00     0.053 C 
BRANCH  11  12
ATOM     12  C   UNL     1       5.412  -8.329   3.629  1.00  0.00     0.041 C 
ATOM     13  O   UNL     1       5.011  -8.210   4.816  1.00  0.00    -0.550 OA
ATOM     14  O   UNL     1       6.762  -8.180   3.339  1.00  0.00    -0.550 OA
ENDBRANCH  11  12
ENDBRANCH  10  11
ENDBRANCH   9  10
ENDBRANCH   8   9
ENDBRANCH   7   8
ENDBRANCH   6   7
ENDBRANCH   5   6
ENDBRANCH   4   5
ENDBRANCH   3   4
ENDBRANCH   2   3
ENDBRANCH   1   2
BRANCH   1  15
ATOM     15  C   UNL     1       7.833  -5.868  -6.205  1.00  0.00     0.000 C 
BRANCH  15  16
ATOM     16  C   UNL     1       7.499  -5.408  -7.633  1.00  0.00     0.000 C 
BRANCH  16  17
ATOM     17  C   UNL     1       8.708  -4.788  -8.355  1.00  0.00     0.000 C 
BRANCH  17  18
ATOM     18  C   UNL     1       8.316  -3.598  -9.245  1.00  0.00    -0.000 C 
BRANCH  18  19
ATOM     19  C   UNL     1       7.018  -2.915  -8.779  1.00  0.00    -0.000 C 
BRANCH  19  20
ATOM     20  C   UNL     1       6.017  -2.692  -9.931  1.00  0.00    -0.000 C 
BRANCH  20  21
ATOM     21  C   UNL     1       4.637  -3.336  -9.689  1.00  0.00    -0.000 C 
BRANCH  21  22
ATOM     22  C   UNL     1       4.677  -4.756  -9.096  1.00  0.00    -0.000 C 
BRANCH  22  23
ATOM     23  C   UNL     1       4.562  -5.900 -10.125  1.00  0.00    -0.000 C 
BRANCH  23  24
ATOM     24  C   UNL     1       4.665  -7.320  -9.539  1.00  0.00    -0.000 C 
BRANCH  24  25
ATOM     25  C   UNL     1       4.438  -7.358  -8.021  1.00  0.00    -0.003 C 
ATOM     26  C   UNL     1       5.522  -8.175  -7.323  1.00  0.00     0.004 C 
ENDBRANCH  24  25
ENDBRANCH  23  24
ENDBRANCH  22  23
ENDBRANCH  21  22
ENDBRANCH  20  21
ENDBRANCH  19  20
ENDBRANCH  18  19
ENDBRANCH  17  18
ENDBRANCH  16  17
ENDBRANCH  15  16
ENDBRANCH   1  15
TORSDOF 22
ENDMDL
MODEL 3
REMARK VINA RESULT:    -0.515      1.661      2.757
REMARK INTER + INTRA:          -3.238
REMARK INTER:                  -2.922
REMARK INTRA:                  -0.317
REMARK UNBOUND:                -2.061
REMARK SMILES CCCCCCCCCCCCCCCCCCCCCCCC(=O)[O-]
REMARK SMILES IDX 13 1 14 2 15 3 16 4 17 5 18 6 19 7 20 8 21 9 22 10 23 11
REMARK SMILES IDX 24 12 25 13 26 14 12 15 11 16 10 17 9 18 8 19 7 20 6 21 5 22
REMARK SMILES IDX 4 23 3 24 2 25 1 26
REMARK H PARENT
REMARK Flexibility Score: inf
ROOT
ATOM      1  C   UNL     1       7.545  -4.389  -6.328  1.00  0.00     0.000 C 
ENDROOT
BRANCH   1   2
ATOM      2  C   UNL     1       8.958  -5.008  -6.365  1.00  0.00     0.000 C 
BRANCH   2   3
ATOM      3  C   UNL     1       9.124  -6.216  -5.428  1.00  0.00     0.000 C 
BRANCH   3   4
ATOM      4  C   UNL     1       8.199  -7.387  -5.788  1.00  0.00     0.000 C 
BRANCH   4   5
ATOM      5  C   UNL     1       8.717  -8.746  -5.282  1.00  0.00     0.000 C 
BRANCH   5   6
ATOM      6  C   UNL     1       8.260  -9.108  -3.851  1.00  0.00     0.000 C 
BRANCH   6   7
ATOM      7  C   UNL     1       8.420  -7.982  -2.807  1.00  0.00     0.000 C 
BRANCH   7   8
ATOM      8  C   UNL     1       8.329  -8.420  -1.329  1.00  0.00     0.000 C 
BRANCH   8   9
ATOM      9  C   UNL     1       7.017  -9.124  -0.930  1.00  0.00     0.000 C 
BRANCH   9  10
ATOM     10  C   UNL     1       6.529  -8.831   0.504  1.00  0.00     0.006 C 
BRANCH  10  11
ATOM     11  C   UNL     1       5.001  -8.770   0.659  1.00  0.00     0.053 C 
BRANCH  11  12
ATOM     12  C   UNL     1       4.590  -8.029   1.896  1.00  0.00     0.041 C 
ATOM     13  O   UNL     1       5.446  -7.403   2.575  1.00  0.00    -0.550 OA
ATOM     14  O   UNL     1       3.267  -8.061   2.316  1.00  0.00    -0.550 OA
ENDBRANCH  11  12
ENDBRANCH  10  11
ENDBRANCH   9  10
ENDBRANCH   8   9
ENDBRANCH   7   8
ENDBRANCH   6   7
ENDBRANCH   5   6
ENDBRANCH   4   5
ENDBRANCH   3   4
ENDBRANCH   2   3
ENDBRANCH   1   2
BRANCH   1  15
ATOM     15  C   UNL     1       6.479  -5.400  -5.868  1.00  0.00     0.000 C 
BRANCH  15  16
ATOM     16  C   UNL     1       5.344  -5.567  -6.889  1.00  0.00     0.000 C 
BRANCH  16  17
ATOM     17  C   UNL     1       5.848  -5.567  -8.343  1.00  0.00     0.000 C 
BRANCH  17  18
ATOM     18  C   UNL     1       4.714  -5.358  -9.360  1.00  0.00    -0.000 C 
BRANCH  18  19
ATOM     19  C   UNL     1       3.580  -6.386  -9.198  1.00  0.00    -0.000 C 
BRANCH  19  20
ATOM     20  C   UNL     1       3.749  -7.609 -10.123  1.00  0.00    -0.000 C 
BRANCH  20  21
ATOM     21  C   UNL     1       4.325  -8.850  -9.415  1.00  0.00    -0.000 C 
BRANCH  21  22
ATOM     22  C   UNL     1       5.193  -8.549  -8.179  1.00  0.00    -0.000 C 
BRANCH  22  23
ATOM     23  C   UNL     1       6.709  -8.763  -8.375  1.00  0.00    -0.000 C 
BRANCH  23  24
ATOM     24  C   UNL     1       7.155  -8.984  -9.831  1.00  0.00    -0.000 C 
BRANCH  24  25
ATOM     25  C   UNL     1       8.632  -8.633 -10.063  1.00  0.00    -0.003 C 
ATOM     26  C   UNL     1       8.891  -7.150  -9.807  1.00  0.00     0.004 C 
ENDBRANCH  24  25
ENDBRANCH  23  24
ENDBRANCH  22  23
ENDBRANCH  21  22
ENDBRANCH  20  21
ENDBRANCH  19  20
ENDBRANCH  18  19
ENDBRANCH  17  18
ENDBRANCH  16  17
ENDBRANCH  15  16
ENDBRANCH   1  15
TORSDOF 22
ENDMDL
MODEL 4
REMARK VINA RESULT:    -0.101     14.766     18.522
REMARK INTER + INTRA:          -2.292
REMARK INTER:                  -0.141
REMARK INTRA:                  -2.151
REMARK UNBOUND:                -2.061
REMARK SMILES CCCCCCCCCCCCCCCCCCCCCCCC(=O)[O-]
REMARK SMILES IDX 13 1 14 2 15 3 16 4 17 5 18 6 19 7 20 8 21 9 22 10 23 11
REMARK SMILES IDX 24 12 25 13 26 14 12 15 11 16 10 17 9 18 8 19 7 20 6 21 5 22
REMARK SMILES IDX 4 23 3 24 2 25 1 26
REMARK H PARENT
REMARK Flexibility Score: inf
ROOT
ATOM      1  C   UNL     1       5.330   5.835   7.476  1.00  0.00     0.000 C 
ENDROOT
BRANCH   1   2
ATOM      2  C   UNL     1       4.965   4.416   7.960  1.00  0.00     0.000 C 
BRANCH   2   3
ATOM      3  C   UNL     1       4.630   3.444   6.816  1.00  0.00     0.000 C 
BRANCH   3   4
ATOM      4  C   UNL     1       4.858   4.051   5.425  1.00  0.00     0.000 C 
BRANCH   4   5
ATOM      5  C   UNL     1       3.997   3.395   4.329  1.00  0.00     0.000 C 
BRANCH   5   6
ATOM      6  C   UNL     1       3.279   4.399   3.400  1.00  0.00     0.000 C 
BRANCH   6   7
ATOM      7  C   UNL     1       4.193   5.132   2.394  1.00  0.00     0.000 C 
BRANCH   7   8
ATOM      8  C   UNL     1       3.552   5.478   1.033  1.00  0.00     0.000 C 
BRANCH   8   9
ATOM      9  C   UNL     1       2.055   5.847   1.083  1.00  0.00     0.000 C 
BRANCH   9  10
ATOM     10  C   UNL     1       1.112   4.846   0.383  1.00  0.00     0.006 C 
BRANCH  10  11
ATOM     11  C   UNL     1      -0.311   5.372   0.140  1.00  0.00     0.053 C 
BRANCH  11  12
ATOM     12  C   UNL     1      -1.312   4.261   0.041  1.00  0.00     0.041 C 
ATOM     13  O   UNL     1      -0.962   3.126  -0.375  1.00  0.00    -0.550 OA
ATOM     14  O   UNL     1      -2.640   4.492   0.375  1.00  0.00    -0.550 OA
ENDBRANCH  11  12
ENDBRANCH  10  11
ENDBRANCH   9  10
ENDBRANCH   8   9
ENDBRANCH   7   8
ENDBRANCH   6   7
ENDBRANCH   5   6
ENDBRANCH   4   5
ENDBRANCH   3   4
ENDBRANCH   2   3
ENDBRANCH   1   2
BRANCH   1  15
ATOM     15  C   UNL     1       6.725   6.273   7.957  1.00  0.00     0.000 C 
BRANCH  15  16
ATOM     16  C   UNL     1       6.852   6.257   9.488  1.00  0.00     0.000 C 
BRANCH  16  17
ATOM     17  C   UNL     1       6.575   7.631  10.122  1.00  0.00     0.000 C 
BRANCH  17  18
ATOM     18  C   UNL     1       7.742   8.613   9.933  1.00  0.00    -0.000 C 
BRANCH  18  19
ATOM     19  C   UNL     1       7.274  10.005   9.471  1.00  0.00    -0.000 C 
BRANCH  19  20
ATOM     20  C   UNL     1       5.873   9.976   8.824  1.00  0.00    -0.000 C 
BRANCH  20  21
ATOM     21  C   UNL     1       5.780  10.774   7.509  1.00  0.00    -0.000 C 
BRANCH  21  22
ATOM     22  C   UNL     1       7.096  10.880   6.717  1.00  0.00    -0.000 C 
BRANCH  22  23
ATOM     23  C   UNL     1       6.932  11.120   5.201  1.00  0.00    -0.000 C 
BRANCH  23  24
ATOM     24  C   UNL     1       7.230   9.902   4.310  1.00  0.00    -0.000 C 
BRANCH  24  25
ATOM     25  C   UNL     1       7.178   8.572   5.078  1.00  0.00    -0.003 C 
ATOM     26  C   UNL     1       5.994   7.722   4.625  1.00  0.00     0.004 C 
ENDBRANCH  24  25
ENDBRANCH  23  24
ENDBRANCH  22  23
ENDBRANCH  21  22
ENDBRANCH  20  21
ENDBRANCH  19  20
ENDBRANCH  18  19
ENDBRANCH  17  18
ENDBRANCH  16  17
ENDBRANCH  15  16
ENDBRANCH   1  15
TORSDOF 22
ENDMDL
MODEL 5
REMARK VINA RESULT:    -0.011     14.857     17.591
REMARK INTER + INTRA:          -2.086
REMARK INTER:                  -0.614
REMARK INTRA:                  -1.473
REMARK UNBOUND:                -2.061
REMARK SMILES CCCCCCCCCCCCCCCCCCCCCCCC(=O)[O-]
REMARK SMILES IDX 13 1 14 2 15 3 16 4 17 5 18 6 19 7 20 8 21 9 22 10 23 11
REMARK SMILES IDX 24 12 25 13 26 14 12 15 11 16 10 17 9 18 8 19 7 20 6 21 5 22
REMARK SMILES IDX 4 23 3 24 2 25 1 26
REMARK H PARENT
REMARK Flexibility Score: inf
ROOT
ATOM      1  C   UNL     1       5.450   4.589   7.421  1.00  0.00     0.000 C 
ENDROOT
BRANCH   1   2
ATOM      2  C   UNL     1       5.960   5.865   6.720  1.00  0.00     0.000 C 
BRANCH   2   3
ATOM      3  C   UNL     1       6.213   7.037   7.684  1.00  0.00     0.000 C 
BRANCH   3   4
ATOM      4  C   UNL     1       6.157   6.623   9.161  1.00  0.00     0.000 C 
BRANCH   4   5
ATOM      5  C   UNL     1       7.358   7.133   9.978  1.00  0.00     0.000 C 
BRANCH   5   6
ATOM      6  C   UNL     1       7.499   8.672  10.007  1.00  0.00     0.000 C 
BRANCH   6   7
ATOM      7  C   UNL     1       6.174   9.455   9.885  1.00  0.00     0.000 C 
BRANCH   7   8
ATOM      8  C   UNL     1       6.239  10.758   9.059  1.00  0.00     0.000 C 
BRANCH   8   9
ATOM      9  C   UNL     1       7.599  11.052   8.396  1.00  0.00     0.000 C 
BRANCH   9  10
ATOM     10  C   UNL     1       7.646  10.817   6.871  1.00  0.00     0.006 C 
BRANCH  10  11
ATOM     11  C   UNL     1       6.281  10.528   6.226  1.00  0.00     0.053 C 
BRANCH  11  12
ATOM     12  C   UNL     1       6.418  10.032   4.818  1.00  0.00     0.041 C 
ATOM     13  O   UNL     1       7.252   9.131   4.540  1.00  0.00    -0.550 OA
ATOM     14  O   UNL     1       5.647  10.592   3.809  1.00  0.00    -0.550 OA
ENDBRANCH  11  12
ENDBRANCH  10  11
ENDBRANCH   9  10
ENDBRANCH   8   9
ENDBRANCH   7   8
ENDBRANCH   6   7
ENDBRANCH   5   6
ENDBRANCH   4   5
ENDBRANCH   3   4
ENDBRANCH   2   3
ENDBRANCH   1   2
BRANCH   1  15
ATOM     15  C   UNL     1       4.714   3.648   6.451  1.00  0.00     0.000 C 
BRANCH  15  16
ATOM     16  C   UNL     1       4.666   4.198   5.017  1.00  0.00     0.000 C 
BRANCH  16  17
ATOM     17  C   UNL     1       3.524   3.590   4.185  1.00  0.00     0.000 C 
BRANCH  17  18
ATOM     18  C   UNL     1       3.672   3.877   2.682  1.00  0.00    -0.000 C 
BRANCH  18  19
ATOM     19  C   UNL     1       3.812   5.379   2.379  1.00  0.00    -0.000 C 
BRANCH  19  20
ATOM     20  C   UNL     1       4.051   5.663   0.882  1.00  0.00    -0.000 C 
BRANCH  20  21
ATOM     21  C   UNL     1       2.754   5.836   0.067  1.00  0.00    -0.000 C 
BRANCH  21  22
ATOM     22  C   UNL     1       1.466   5.410   0.796  1.00  0.00    -0.000 C 
BRANCH  22  23
ATOM     23  C   UNL     1       0.230   5.225  -0.110  1.00  0.00    -0.000 C 
BRANCH  23  24
ATOM     24  C   UNL     1      -0.243   3.771  -0.282  1.00  0.00    -0.000 C 
BRANCH  24  25
ATOM     25  C   UNL     1      -1.770   3.626  -0.199  1.00  0.00    -0.003 C 
ATOM     26  C   UNL     1      -2.382   4.735   0.653  1.00  0.00     0.004 C 
ENDBRANCH  24  25
ENDBRANCH  23  24
ENDBRANCH  22  23
ENDBRANCH  21  22
ENDBRANCH  20  21
ENDBRANCH  19  20
ENDBRANCH  18  19
ENDBRANCH  17  18
ENDBRANCH  16  17
ENDBRANCH  15  16
ENDBRANCH   1  15
TORSDOF 22
ENDMDL
MODEL 6
REMARK VINA RESULT:     0.280     14.434     17.023
REMARK INTER + INTRA:          -1.421
REMARK INTER:                   0.465
REMARK INTRA:                  -1.886
REMARK UNBOUND:                -2.061
REMARK SMILES CCCCCCCCCCCCCCCCCCCCCCCC(=O)[O-]
REMARK SMILES IDX 13 1 14 2 15 3 16 4 17 5 18 6 19 7 20 8 21 9 22 10 23 11
REMARK SMILES IDX 24 12 25 13 26 14 12 15 11 16 10 17 9 18 8 19 7 20 6 21 5 22
REMARK SMILES IDX 4 23 3 24 2 25 1 26
REMARK H PARENT
REMARK Flexibility Score: inf
ROOT
ATOM      1  C   UNL     1       5.019   3.455   5.511  1.00  0.00     0.000 C 
ENDROOT
BRANCH   1   2
ATOM      2  C   UNL     1       4.617   3.377   6.999  1.00  0.00     0.000 C 
BRANCH   2   3
ATOM      3  C   UNL     1       5.003   4.628   7.806  1.00  0.00     0.000 C 
BRANCH   3   4
ATOM      4  C   UNL     1       5.879   5.609   7.013  1.00  0.00     0.000 C 
BRANCH   4   5
ATOM      5  C   UNL     1       6.095   6.950   7.737  1.00  0.00     0.000 C 
BRANCH   5   6
ATOM      6  C   UNL     1       6.470   6.813   9.230  1.00  0.00     0.000 C 
BRANCH   6   7
ATOM      7  C   UNL     1       6.571   8.144  10.006  1.00  0.00     0.000 C 
BRANCH   7   8
ATOM      8  C   UNL     1       6.283   9.421   9.189  1.00  0.00     0.000 C 
BRANCH   8   9
ATOM      9  C   UNL     1       7.525  10.242   8.788  1.00  0.00     0.000 C 
BRANCH   9  10
ATOM     10  C   UNL     1       7.554  10.706   7.316  1.00  0.00     0.006 C 
BRANCH  10  11
ATOM     11  C   UNL     1       6.249  10.460   6.543  1.00  0.00     0.053 C 
BRANCH  11  12
ATOM     12  C   UNL     1       6.504   9.920   5.168  1.00  0.00     0.041 C 
ATOM     13  O   UNL     1       7.416   9.073   4.977  1.00  0.00    -0.550 OA
ATOM     14  O   UNL     1       5.755  10.380   4.093  1.00  0.00    -0.550 OA
ENDBRANCH  11  12
ENDBRANCH  10  11
ENDBRANCH   9  10
ENDBRANCH   8   9
ENDBRANCH   7   8
ENDBRANCH   6   7
ENDBRANCH   5   6
ENDBRANCH   4   5
ENDBRANCH   3   4
ENDBRANCH   2   3
ENDBRANCH   1   2
BRANCH   1  15
ATOM     15  C   UNL     1       3.880   3.006   4.578  1.00  0.00     0.000 C 
BRANCH  15  16
ATOM     16  C   UNL     1       3.526   4.068   3.526  1.00  0.00     0.000 C 
BRANCH  16  17
ATOM     17  C   UNL     1       4.286   5.389   3.737  1.00  0.00     0.000 C 
BRANCH  17  18
ATOM     18  C   UNL     1       4.333   6.251   2.465  1.00  0.00    -0.000 C 
BRANCH  18  19
ATOM     19  C   UNL     1       4.188   5.416   1.180  1.00  0.00    -0.000 C 
BRANCH  19  20
ATOM     20  C   UNL     1       2.936   5.797   0.363  1.00  0.00    -0.000 C 
BRANCH  20  21
ATOM     21  C   UNL     1       1.619   5.256   0.953  1.00  0.00    -0.000 C 
BRANCH  21  22
ATOM     22  C   UNL     1       0.450   5.158  -0.045  1.00  0.00    -0.000 C 
BRANCH  22  23
ATOM     23  C   UNL     1      -0.006   3.722  -0.381  1.00  0.00    -0.000 C 
BRANCH  23  24
ATOM     24  C   UNL     1      -1.513   3.461  -0.218  1.00  0.00    -0.000 C 
BRANCH  24  25
ATOM     25  C   UNL     1      -2.348   4.750  -0.222  1.00  0.00    -0.003 C 
ATOM     26  C   UNL     1      -3.008   4.981   1.135  1.00  0.00     0.004 C 
ENDBRANCH  24  25
ENDBRANCH  23  24
ENDBRANCH  22  23
ENDBRANCH  21  22
ENDBRANCH  20  21
ENDBRANCH  19  20
ENDBRANCH  18  19
ENDBRANCH  17  18
ENDBRANCH  16  17
ENDBRANCH  15  16
ENDBRANCH   1  15
TORSDOF 22
ENDMDL
MODEL 7
REMARK VINA RESULT:     0.533     18.899     23.312
REMARK INTER + INTRA:          -0.843
REMARK INTER:                   0.105
REMARK INTRA:                  -0.947
REMARK UNBOUND:                -2.061
REMARK SMILES CCCCCCCCCCCCCCCCCCCCCCCC(=O)[O-]
REMARK SMILES IDX 13 1 14 2 15 3 16 4 17 5 18 6 19 7 20 8 21 9 22 10 23 11
REMARK SMILES IDX 24 12 25 13 26 14 12 15 11 16 10 17 9 18 8 19 7 20 6 21 5 22
REMARK SMILES IDX 4 23 3 24 2 25 1 26
REMARK H PARENT
REMARK Flexibility Score: inf
ROOT
ATOM      1  C   UNL     1      -7.886   1.201   9.749  1.00  0.00     0.000 C 
ENDROOT
BRANCH   1   2
ATOM      2  C   UNL     1      -8.889   0.084  10.104  1.00  0.00     0.000 C 
BRANCH   2   3
ATOM      3  C   UNL     1     -10.217   0.181   9.333  1.00  0.00     0.000 C 
BRANCH   3   4
ATOM      4  C   UNL     1     -10.631  -1.144   8.680  1.00  0.00     0.000 C 
BRANCH   4   5
ATOM      5  C   UNL     1     -10.959  -2.248   9.703  1.00  0.00     0.000 C 
BRANCH   5   6
ATOM      6  C   UNL     1     -10.833  -3.685   9.149  1.00  0.00     0.000 C 
BRANCH   6   7
ATOM      7  C   UNL     1      -9.849  -4.598   9.912  1.00  0.00     0.000 C 
BRANCH   7   8
ATOM      8  C   UNL     1      -8.420  -4.675   9.334  1.00  0.00     0.000 C 
BRANCH   8   9
ATOM      9  C   UNL     1      -8.054  -6.010   8.654  1.00  0.00     0.000 C 
BRANCH   9  10
ATOM     10  C   UNL     1      -7.908  -5.942   7.119  1.00  0.00     0.006 C 
BRANCH  10  11
ATOM     11  C   UNL     1      -8.086  -7.290   6.401  1.00  0.00     0.053 C 
BRANCH  11  12
ATOM     12  C   UNL     1      -9.512  -7.750   6.413  1.00  0.00     0.041 C 
ATOM     13  O   UNL     1     -10.232  -7.614   5.390  1.00  0.00    -0.550 OA
ATOM     14  O   UNL     1     -10.053  -8.297   7.569  1.00  0.00    -0.550 OA
ENDBRANCH  11  12
ENDBRANCH  10  11
ENDBRANCH   9  10
ENDBRANCH   8   9
ENDBRANCH   7   8
ENDBRANCH   6   7
ENDBRANCH   5   6
ENDBRANCH   4   5
ENDBRANCH   3   4
ENDBRANCH   2   3
ENDBRANCH   1   2
BRANCH   1  15
ATOM     15  C   UNL     1      -8.414   2.597  10.125  1.00  0.00     0.000 C 
BRANCH  15  16
ATOM     16  C   UNL     1      -7.325   3.678  10.057  1.00  0.00     0.000 C 
BRANCH  16  17
ATOM     17  C   UNL     1      -7.899   5.104  10.125  1.00  0.00     0.000 C 
BRANCH  17  18
ATOM     18  C   UNL     1      -6.849   6.178   9.798  1.00  0.00    -0.000 C 
BRANCH  18  19
ATOM     19  C   UNL     1      -7.478   7.473   9.255  1.00  0.00    -0.000 C 
BRANCH  19  20
ATOM     20  C   UNL     1      -8.973   7.604   9.615  1.00  0.00    -0.000 C 
BRANCH  20  21
ATOM     21  C   UNL     1      -9.924   7.085   8.519  1.00  0.00    -0.000 C 
BRANCH  21  22
ATOM     22  C   UNL     1     -11.090   8.028   8.169  1.00  0.00    -0.000 C 
BRANCH  22  23
ATOM     23  C   UNL     1     -10.832   9.522   8.453  1.00  0.00    -0.000 C 
BRANCH  23  24
ATOM     24  C   UNL     1     -10.329  10.339   7.249  1.00  0.00    -0.000 C 
BRANCH  24  25
ATOM     25  C   UNL     1      -8.797  10.357   7.138  1.00  0.00    -0.003 C 
ATOM     26  C   UNL     1      -8.348  11.073   5.866  1.00  0.00     0.004 C 
ENDBRANCH  24  25
ENDBRANCH  23  24
ENDBRANCH  22  23
ENDBRANCH  21  22
ENDBRANCH  20  21
ENDBRANCH  19  20
ENDBRANCH  18  19
ENDBRANCH  17  18
ENDBRANCH  16  17
ENDBRANCH  15  16
ENDBRANCH   1  15
TORSDOF 22
ENDMDL
MODEL 8
REMARK VINA RESULT:     0.576     18.885     23.018
REMARK INTER + INTRA:          -0.744
REMARK INTER:                  -1.049
REMARK INTRA:                   0.305
REMARK UNBOUND:                -2.061
REMARK SMILES CCCCCCCCCCCCCCCCCCCCCCCC(=O)[O-]
REMARK SMILES IDX 13 1 14 2 15 3 16 4 17 5 18 6 19 7 20 8 21 9 22 10 23 11
REMARK SMILES IDX 24 12 25 13 26 14 12 15 11 16 10 17 9 18 8 19 7 20 6 21 5 22
REMARK SMILES IDX 4 23 3 24 2 25 1 26
REMARK H PARENT
REMARK Flexibility Score: inf
ROOT
ATOM      1  C   UNL     1      -7.798   1.258   9.522  1.00  0.00     0.000 C 
ENDROOT
BRANCH   1   2
ATOM      2  C   UNL     1      -8.604  -0.023   9.826  1.00  0.00     0.000 C 
BRANCH   2   3
ATOM      3  C   UNL     1     -10.100   0.097   9.488  1.00  0.00     0.000 C 
BRANCH   3   4
ATOM      4  C   UNL     1     -10.725  -1.235   9.049  1.00  0.00     0.000 C 
BRANCH   4   5
ATOM      5  C   UNL     1     -10.046  -2.461   9.686  1.00  0.00     0.000 C 
BRANCH   5   6
ATOM      6  C   UNL     1     -10.059  -3.726   8.799  1.00  0.00     0.000 C 
BRANCH   6   7
ATOM      7  C   UNL     1      -8.782  -3.956   7.962  1.00  0.00     0.000 C 
BRANCH   7   8
ATOM      8  C   UNL     1      -8.930  -4.911   6.759  1.00  0.00     0.000 C 
BRANCH   8   9
ATOM      9  C   UNL     1      -9.156  -6.394   7.118  1.00  0.00     0.000 C 
BRANCH   9  10
ATOM     10  C   UNL     1      -8.131  -7.376   6.510  1.00  0.00     0.006 C 
BRANCH  10  11
ATOM     11  C   UNL     1      -8.304  -8.836   6.956  1.00  0.00     0.053 C 
BRANCH  11  12
ATOM     12  C   UNL     1      -8.479  -8.954   8.440  1.00  0.00     0.041 C 
ATOM     13  O   UNL     1      -9.625  -9.123   8.933  1.00  0.00    -0.550 OA
ATOM     14  O   UNL     1      -7.377  -8.843   9.278  1.00  0.00    -0.550 OA
ENDBRANCH  11  12
ENDBRANCH  10  11
ENDBRANCH   9  10
ENDBRANCH   8   9
ENDBRANCH   7   8
ENDBRANCH   6   7
ENDBRANCH   5   6
ENDBRANCH   4   5
ENDBRANCH   3   4
ENDBRANCH   2   3
ENDBRANCH   1   2
BRANCH   1  15
ATOM     15  C   UNL     1      -8.454   2.513  10.125  1.00  0.00     0.000 C 
BRANCH  15  16
ATOM     16  C   UNL     1      -7.542   3.748  10.052  1.00  0.00     0.000 C 
BRANCH  16  17
ATOM     17  C   UNL     1      -8.325   5.070  10.125  1.00  0.00     0.000 C 
BRANCH  17  18
ATOM     18  C   UNL     1      -7.438   6.296   9.857  1.00  0.00    -0.000 C 
BRANCH  18  19
ATOM     19  C   UNL     1      -8.150   7.366   9.011  1.00  0.00    -0.000 C 
BRANCH  19  20
ATOM     20  C   UNL     1      -8.222   8.734   9.722  1.00  0.00    -0.000 C 
BRANCH  20  21
ATOM     21  C   UNL     1      -9.394   9.618   9.252  1.00  0.00    -0.000 C 
BRANCH  21  22
ATOM     22  C   UNL     1      -8.982  10.912   8.526  1.00  0.00    -0.000 C 
BRANCH  22  23
ATOM     23  C   UNL     1      -7.488  11.006   8.151  1.00  0.00    -0.000 C 
BRANCH  23  24
ATOM     24  C   UNL     1      -6.866   9.706   7.613  1.00  0.00    -0.000 C 
BRANCH  24  25
ATOM     25  C   UNL     1      -5.331   9.743   7.589  1.00  0.00    -0.003 C 
ATOM     26  C   UNL     1      -4.778  10.416   8.843  1.00  0.00     0.004 C 
ENDBRANCH  24  25
ENDBRANCH  23  24
ENDBRANCH  22  23
ENDBRANCH  21  22
ENDBRANCH  20  21
ENDBRANCH  19  20
ENDBRANCH  18  19
ENDBRANCH  17  18
ENDBRANCH  16  17
ENDBRANCH  15  16
ENDBRANCH   1  15
TORSDOF 22
ENDMDL
