MODEL 1
REMARK VINA RESULT:    -4.874      0.000      0.000
REMARK INTER + INTRA:          -7.708
REMARK INTER:                  -7.438
REMARK INTRA:                  -0.270
REMARK UNBOUND:                -0.270
REMARK SMILES O=C([O-])CCCCCCCCC(=O)[O-]
REMARK SMILES IDX 7 1 6 2 5 3 4 4 2 5 1 6 3 7 8 8 9 9 10 10 11 11 12 12 13 13
REMARK SMILES IDX 14 14
REMARK H PARENT
REMARK Flexibility Score: inf
ROOT
ATOM      1  C   UNL     1       1.143   8.302  17.997  1.00  0.00     0.000 C 
ENDROOT
BRANCH   1   2
ATOM      2  C   UNL     1       0.797   8.726  19.430  1.00  0.00     0.000 C 
BRANCH   2   3
ATOM      3  C   UNL     1       1.142   7.613  20.431  1.00  0.00     0.006 C 
BRANCH   3   4
ATOM      4  C   UNL     1      -0.111   6.982  21.052  1.00  0.00     0.053 C 
BRANCH   4   5
ATOM      5  C   UNL     1       0.060   6.734  22.520  1.00  0.00     0.041 C 
ATOM      6  O   UNL     1       1.204   6.514  22.997  1.00  0.00    -0.550 OA
ATOM      7  O   UNL     1      -1.050   6.715  23.355  1.00  0.00    -0.550 OA
ENDBRANCH   4   5
ENDBRANCH   3   4
ENDBRANCH   2   3
ENDBRANCH   1   2
BRANCH   1   8
ATOM      8  C   UNL     1       2.254   9.189  17.414  1.00  0.00     0.000 C 
BRANCH   8   9
ATOM      9  C   UNL     1       1.737  10.148  16.330  1.00  0.00     0.000 C 
BRANCH   9  10
ATOM     10  C   UNL     1       0.656   9.509  15.441  1.00  0.00     0.006 C 
BRANCH  10  11
ATOM     11  C   UNL     1       0.209  10.444  14.311  1.00  0.00     0.053 C 
BRANCH  11  12
ATOM     12  C   UNL     1      -0.545   9.707  13.248  1.00  0.00     0.041 C 
ATOM     13  O   UNL     1      -0.201   9.806  12.040  1.00  0.00    -0.550 OA
ATOM     14  O   UNL     1      -1.608   8.882  13.594  1.00  0.00    -0.550 OA
ENDBRANCH  11  12
ENDBRANCH  10  11
ENDBRANCH   9  10
ENDBRANCH   8   9
ENDBRANCH   1   8
TORSDOF 9
ENDMDL
MODEL 2
REMARK VINA RESULT:    -4.645      4.684      5.285
REMARK INTER + INTRA:          -7.359
REMARK INTER:                  -6.988
REMARK INTRA:                  -0.371
REMARK UNBOUND:                -0.270
REMARK SMILES O=C([O-])CCCCCCCCC(=O)[O-]
REMARK SMILES IDX 7 1 6 2 5 3 4 4 2 5 1 6 3 7 8 8 9 9 10 10 11 11 12 12 13 13
REMARK SMILES IDX 14 14
REMARK H PARENT
REMARK Flexibility Score: inf
ROOT
ATOM      1  C   UNL     1      -0.052   5.695  17.247  1.00  0.00     0.000 C 
ENDROOT
BRANCH   1   2
ATOM      2  C   UNL     1      -0.070   6.091  18.729  1.00  0.00     0.000 C 
BRANCH   2   3
ATOM      3  C   UNL     1       0.619   7.447  18.944  1.00  0.00     0.006 C 
BRANCH   3   4
ATOM      4  C   UNL     1       0.221   8.095  20.277  1.00  0.00     0.053 C 
BRANCH   4   5
ATOM      5  C   UNL     1       0.485   7.186  21.438  1.00  0.00     0.041 C 
ATOM      6  O   UNL     1       1.667   6.888  21.753  1.00  0.00    -0.550 OA
ATOM      7  O   UNL     1      -0.576   6.642  22.151  1.00  0.00    -0.550 OA
ENDBRANCH   4   5
ENDBRANCH   3   4
ENDBRANCH   2   3
ENDBRANCH   1   2
BRANCH   1   8
ATOM      8  C   UNL     1      -0.835   4.393  17.016  1.00  0.00     0.000 C 
BRANCH   8   9
ATOM      9  C   UNL     1      -1.520   4.351  15.642  1.00  0.00     0.000 C 
BRANCH   9  10
ATOM     10  C   UNL     1      -2.824   5.167  15.605  1.00  0.00     0.006 C 
BRANCH  10  11
ATOM     11  C   UNL     1      -3.992   4.367  15.016  1.00  0.00     0.053 C 
BRANCH  11  12
ATOM     12  C   UNL     1      -4.859   3.782  16.088  1.00  0.00     0.041 C 
ATOM     13  O   UNL     1      -6.036   4.201  16.252  1.00  0.00    -0.550 OA
ATOM     14  O   UNL     1      -4.380   2.751  16.884  1.00  0.00    -0.550 OA
ENDBRANCH  11  12
ENDBRANCH  10  11
ENDBRANCH   9  10
ENDBRANCH   8   9
ENDBRANCH   1   8
TORSDOF 9
ENDMDL
MODEL 3
REMARK VINA RESULT:    -4.507      4.194      7.499
REMARK INTER + INTRA:          -7.148
REMARK INTER:                  -6.767
REMARK INTRA:                  -0.381
REMARK UNBOUND:                -0.270
REMARK SMILES O=C([O-])CCCCCCCCC(=O)[O-]
REMARK SMILES IDX 7 1 6 2 5 3 4 4 2 5 1 6 3 7 8 8 9 9 10 10 11 11 12 12 13 13
REMARK SMILES IDX 14 14
REMARK H PARENT
REMARK Flexibility Score: inf
ROOT
ATOM      1  C   UNL     1       0.018   5.539  17.159  1.00  0.00     0.000 C 
ENDROOT
BRANCH   1   2
ATOM      2  C   UNL     1      -1.030   4.438  16.956  1.00  0.00     0.000 C 
BRANCH   2   3
ATOM      3  C   UNL     1      -1.846   4.683  15.678  1.00  0.00     0.006 C 
BRANCH   3   4
ATOM      4  C   UNL     1      -3.293   5.092  15.983  1.00  0.00     0.053 C 
BRANCH   4   5
ATOM      5  C   UNL     1      -4.244   3.948  15.800  1.00  0.00     0.041 C 
ATOM      6  O   UNL     1      -5.111   3.984  14.887  1.00  0.00    -0.550 OA
ATOM      7  O   UNL     1      -4.194   2.858  16.659  1.00  0.00    -0.550 OA
ENDBRANCH   4   5
ENDBRANCH   3   4
ENDBRANCH   2   3
ENDBRANCH   1   2
BRANCH   1   8
ATOM      8  C   UNL     1      -0.121   6.181  18.548  1.00  0.00     0.000 C 
BRANCH   8   9
ATOM      9  C   UNL     1       0.589   7.540  18.645  1.00  0.00     0.000 C 
BRANCH   9  10
ATOM     10  C   UNL     1       0.482   8.166  20.046  1.00  0.00     0.006 C 
BRANCH  10  11
ATOM     11  C   UNL     1       1.426   7.499  21.053  1.00  0.00     0.053 C 
BRANCH  11  12
ATOM     12  C   UNL     1       0.672   6.847  22.171  1.00  0.00     0.041 C 
ATOM     13  O   UNL     1      -0.581   6.734  22.111  1.00  0.00    -0.550 OA
ATOM     14  O   UNL     1       1.357   6.333  23.264  1.00  0.00    -0.550 OA
ENDBRANCH  11  12
ENDBRANCH  10  11
ENDBRANCH   9  10
ENDBRANCH   8   9
ENDBRANCH   1   8
TORSDOF 9
ENDMDL
MODEL 4
REMARK VINA RESULT:    -4.383      1.605      2.484
REMARK INTER + INTRA:          -6.958
REMARK INTER:                  -6.474
REMARK INTRA:                  -0.484
REMARK UNBOUND:                -0.270
REMARK SMILES O=C([O-])CCCCCCCCC(=O)[O-]
REMARK SMILES IDX 7 1 6 2 5 3 4 4 2 5 1 6 3 7 8 8 9 9 10 10 11 11 12 12 13 13
REMARK SMILES IDX 14 14
REMARK H PARENT
REMARK Flexibility Score: inf
ROOT
ATOM      1  C   UNL     1       2.176  10.032  16.665  1.00  0.00     0.000 C 
ENDROOT
BRANCH   1   2
ATOM      2  C   UNL     1       1.104   9.133  17.294  1.00  0.00     0.000 C 
BRANCH   2   3
ATOM      3  C   UNL     1       1.591   8.546  18.628  1.00  0.00     0.006 C 
BRANCH   3   4
ATOM      4  C   UNL     1       0.495   8.559  19.702  1.00  0.00     0.053 C 
BRANCH   4   5
ATOM      5  C   UNL     1       0.028   7.175  20.036  1.00  0.00     0.041 C 
ATOM      6  O   UNL     1      -0.404   6.913  21.189  1.00  0.00    -0.550 OA
ATOM      7  O   UNL     1       0.100   6.167  19.082  1.00  0.00    -0.550 OA
ENDBRANCH   4   5
ENDBRANCH   3   4
ENDBRANCH   2   3
ENDBRANCH   1   2
BRANCH   1   8
ATOM      8  C   UNL     1       1.550  11.020  15.669  1.00  0.00     0.000 C 
BRANCH   8   9
ATOM      9  C   UNL     1       0.042  10.794  15.481  1.00  0.00     0.000 C 
BRANCH   9  10
ATOM     10  C   UNL     1      -0.409  10.980  14.022  1.00  0.00     0.006 C 
BRANCH  10  11
ATOM     11  C   UNL     1      -0.570   9.642  13.291  1.00  0.00     0.053 C 
BRANCH  11  12
ATOM     12  C   UNL     1      -1.991   9.166  13.313  1.00  0.00     0.041 C 
ATOM     13  O   UNL     1      -2.253   7.960  13.558  1.00  0.00    -0.550 OA
ATOM     14  O   UNL     1      -3.028  10.064  13.095  1.00  0.00    -0.550 OA
ENDBRANCH  11  12
ENDBRANCH  10  11
ENDBRANCH   9  10
ENDBRANCH   8   9
ENDBRANCH   1   8
TORSDOF 9
ENDMDL
MODEL 5
REMARK VINA RESULT:    -4.335      6.663      8.960
REMARK INTER + INTRA:          -6.886
REMARK INTER:                  -5.994
REMARK INTRA:                  -0.893
REMARK UNBOUND:                -0.270
REMARK SMILES O=C([O-])CCCCCCCCC(=O)[O-]
REMARK SMILES IDX 7 1 6 2 5 3 4 4 2 5 1 6 3 7 8 8 9 9 10 10 11 11 12 12 13 13
REMARK SMILES IDX 14 14
REMARK H PARENT
REMARK Flexibility Score: inf
ROOT
ATOM      1  C   UNL     1      -5.549   5.745  17.141  1.00  0.00     0.000 C 
ENDROOT
BRANCH   1   2
ATOM      2  C   UNL     1      -6.527   6.604  16.331  1.00  0.00     0.000 C 
BRANCH   2   3
ATOM      3  C   UNL     1      -7.362   5.735  15.377  1.00  0.00     0.006 C 
BRANCH   3   4
ATOM      4  C   UNL     1      -7.212   6.171  13.914  1.00  0.00     0.053 C 
BRANCH   4   5
ATOM      5  C   UNL     1      -5.942   5.657  13.307  1.00  0.00     0.041 C 
ATOM      6  O   UNL     1      -4.985   6.442  13.079  1.00  0.00    -0.550 OA
ATOM      7  O   UNL     1      -5.829   4.316  12.964  1.00  0.00    -0.550 OA
ENDBRANCH   4   5
ENDBRANCH   3   4
ENDBRANCH   2   3
ENDBRANCH   1   2
BRANCH   1   8
ATOM      8  C   UNL     1      -5.694   4.258  16.781  1.00  0.00     0.000 C 
BRANCH   8   9
ATOM      9  C   UNL     1      -4.408   3.666  16.186  1.00  0.00     0.000 C 
BRANCH   9  10
ATOM     10  C   UNL     1      -3.385   4.745  15.793  1.00  0.00     0.006 C 
BRANCH  10  11
ATOM     11  C   UNL     1      -2.017   4.147  15.441  1.00  0.00     0.053 C 
BRANCH  11  12
ATOM     12  C   UNL     1      -1.215   3.837  16.668  1.00  0.00     0.041 C 
ATOM     13  O   UNL     1      -0.561   4.746  17.245  1.00  0.00    -0.550 OA
ATOM     14  O   UNL     1      -1.217   2.552  17.193  1.00  0.00    -0.550 OA
ENDBRANCH  11  12
ENDBRANCH  10  11
ENDBRANCH   9  10
ENDBRANCH   8   9
ENDBRANCH   1   8
TORSDOF 9
ENDMDL
MODEL 6
REMARK VINA RESULT:    -4.330      6.965      8.000
REMARK INTER + INTRA:          -6.878
REMARK INTER:                  -6.173
REMARK INTRA:                  -0.705
REMARK UNBOUND:                -0.270
REMARK SMILES O=C([O-])CCCCCCCCC(=O)[O-]
REMARK SMILES IDX 7 1 6 2 5 3 4 4 2 5 1 6 3 7 8 8 9 9 10 10 11 11 12 12 13 13
REMARK SMILES IDX 14 14
REMARK H PARENT
REMARK Flexibility Score: inf
ROOT
ATOM      1  C   UNL     1      -5.443   5.304  17.050  1.00  0.00     0.000 C 
ENDROOT
BRANCH   1   2
ATOM      2  C   UNL     1      -5.514   3.849  16.571  1.00  0.00     0.000 C 
BRANCH   2   3
ATOM      3  C   UNL     1      -4.126   3.191  16.599  1.00  0.00     0.006 C 
BRANCH   3   4
ATOM      4  C   UNL     1      -3.102   3.960  15.754  1.00  0.00     0.053 C 
BRANCH   4   5
ATOM      5  C   UNL     1      -1.696   3.666  16.180  1.00  0.00     0.041 C 
ATOM      6  O   UNL     1      -0.751   4.405  15.799  1.00  0.00    -0.550 OA
ATOM      7  O   UNL     1      -1.427   2.556  16.971  1.00  0.00    -0.550 OA
ENDBRANCH   4   5
ENDBRANCH   3   4
ENDBRANCH   2   3
ENDBRANCH   1   2
BRANCH   1   8
ATOM      8  C   UNL     1      -6.143   6.245  16.057  1.00  0.00     0.000 C 
BRANCH   8   9
ATOM      9  C   UNL     1      -7.467   5.670  15.532  1.00  0.00     0.000 C 
BRANCH   9  10
ATOM     10  C   UNL     1      -7.715   6.008  14.052  1.00  0.00     0.006 C 
BRANCH  10  11
ATOM     11  C   UNL     1      -7.335   4.851  13.121  1.00  0.00     0.053 C 
BRANCH  11  12
ATOM     12  C   UNL     1      -5.902   4.932  12.693  1.00  0.00     0.041 C 
ATOM     13  O   UNL     1      -5.464   5.972  12.133  1.00  0.00    -0.550 OA
ATOM     14  O   UNL     1      -5.041   3.872  12.942  1.00  0.00    -0.550 OA
ENDBRANCH  11  12
ENDBRANCH  10  11
ENDBRANCH   9  10
ENDBRANCH   8   9
ENDBRANCH   1   8
TORSDOF 9
ENDMDL
MODEL 7
REMARK VINA RESULT:    -4.282      7.539      8.861
REMARK INTER + INTRA:          -6.805
REMARK INTER:                  -6.109
REMARK INTRA:                  -0.696
REMARK UNBOUND:                -0.270
REMARK SMILES O=C([O-])CCCCCCCCC(=O)[O-]
REMARK SMILES IDX 7 1 6 2 5 3 4 4 2 5 1 6 3 7 8 8 9 9 10 10 11 11 12 12 13 13
REMARK SMILES IDX 14 14
REMARK H PARENT
REMARK Flexibility Score: inf
ROOT
ATOM      1  C   UNL     1      -5.111   4.351  13.910  1.00  0.00     0.000 C 
ENDROOT
BRANCH   1   2
ATOM      2  C   UNL     1      -5.607   4.403  15.360  1.00  0.00     0.000 C 
BRANCH   2   3
ATOM      3  C   UNL     1      -4.429   4.515  16.341  1.00  0.00     0.006 C 
BRANCH   3   4
ATOM      4  C   UNL     1      -3.670   3.190  16.490  1.00  0.00     0.053 C 
BRANCH   4   5
ATOM      5  C   UNL     1      -2.210   3.348  16.193  1.00  0.00     0.041 C 
ATOM      6  O   UNL     1      -1.829   4.141  15.292  1.00  0.00    -0.550 OA
ATOM      7  O   UNL     1      -1.273   2.596  16.889  1.00  0.00    -0.550 OA
ENDBRANCH   4   5
ENDBRANCH   3   4
ENDBRANCH   2   3
ENDBRANCH   1   2
BRANCH   1   8
ATOM      8  C   UNL     1      -6.179   4.889  12.945  1.00  0.00     0.000 C 
BRANCH   8   9
ATOM      9  C   UNL     1      -7.608   4.679  13.467  1.00  0.00     0.000 C 
BRANCH   9  10
ATOM     10  C   UNL     1      -8.467   5.952  13.372  1.00  0.00     0.006 C 
BRANCH  10  11
ATOM     11  C   UNL     1      -7.989   7.047  14.333  1.00  0.00     0.053 C 
BRANCH  11  12
ATOM     12  C   UNL     1      -8.489   6.818  15.727  1.00  0.00     0.041 C 
ATOM     13  O   UNL     1      -7.735   7.024  16.714  1.00  0.00    -0.550 OA
ATOM     14  O   UNL     1      -9.799   6.409  15.937  1.00  0.00    -0.550 OA
ENDBRANCH  11  12
ENDBRANCH  10  11
ENDBRANCH   9  10
ENDBRANCH   8   9
ENDBRANCH   1   8
TORSDOF 9
ENDMDL
MODEL 8
REMARK VINA RESULT:    -4.248      7.551     10.106
REMARK INTER + INTRA:          -6.752
REMARK INTER:                  -5.676
REMARK INTRA:                  -1.076
REMARK UNBOUND:                -0.270
REMARK SMILES O=C([O-])CCCCCCCCC(=O)[O-]
REMARK SMILES IDX 7 1 6 2 5 3 4 4 2 5 1 6 3 7 8 8 9 9 10 10 11 11 12 12 13 13
REMARK SMILES IDX 14 14
REMARK H PARENT
REMARK Flexibility Score: inf
ROOT
ATOM      1  C   UNL     1      -8.595   7.056  15.806  1.00  0.00     0.000 C 
ENDROOT
BRANCH   1   2
ATOM      2  C   UNL     1      -8.155   6.850  14.352  1.00  0.00     0.000 C 
BRANCH   2   3
ATOM      3  C   UNL     1      -8.529   5.445  13.857  1.00  0.00     0.006 C 
BRANCH   3   4
ATOM      4  C   UNL     1      -7.296   4.556  13.648  1.00  0.00     0.053 C 
BRANCH   4   5
ATOM      5  C   UNL     1      -6.490   4.992  12.462  1.00  0.00     0.041 C 
ATOM      6  O   UNL     1      -5.307   5.396  12.615  1.00  0.00    -0.550 OA
ATOM      7  O   UNL     1      -7.057   4.984  11.194  1.00  0.00    -0.550 OA
ENDBRANCH   4   5
ENDBRANCH   3   4
ENDBRANCH   2   3
ENDBRANCH   1   2
BRANCH   1   8
ATOM      8  C   UNL     1      -7.387   7.019  16.756  1.00  0.00     0.000 C 
BRANCH   8   9
ATOM      9  C   UNL     1      -6.055   7.253  16.028  1.00  0.00     0.000 C 
BRANCH   9  10
ATOM     10  C   UNL     1      -4.994   6.195  16.378  1.00  0.00     0.006 C 
BRANCH  10  11
ATOM     11  C   UNL     1      -5.613   4.937  17.000  1.00  0.00     0.053 C 
BRANCH  11  12
ATOM     12  C   UNL     1      -5.008   3.687  16.439  1.00  0.00     0.041 C 
ATOM     13  O   UNL     1      -4.294   3.737  15.403  1.00  0.00    -0.550 OA
ATOM     14  O   UNL     1      -5.204   2.471  17.081  1.00  0.00    -0.550 OA
ENDBRANCH  11  12
ENDBRANCH  10  11
ENDBRANCH   9  10
ENDBRANCH   8   9
ENDBRANCH   1   8
TORSDOF 9
ENDMDL
MODEL 9
REMARK VINA RESULT:    -4.237      6.680      7.787
REMARK INTER + INTRA:          -6.737
REMARK INTER:                  -5.953
REMARK INTRA:                  -0.784
REMARK UNBOUND:                -0.270
REMARK SMILES O=C([O-])CCCCCCCCC(=O)[O-]
REMARK SMILES IDX 7 1 6 2 5 3 4 4 2 5 1 6 3 7 8 8 9 9 10 10 11 11 12 12 13 13
REMARK SMILES IDX 14 14
REMARK H PARENT
REMARK Flexibility Score: inf
ROOT
ATOM      1  C   UNL     1      -5.038   4.185  14.416  1.00  0.00     0.000 C 
ENDROOT
BRANCH   1   2
ATOM      2  C   UNL     1      -5.239   3.763  15.877  1.00  0.00     0.000 C 
BRANCH   2   3
ATOM      3  C   UNL     1      -3.898   3.397  16.533  1.00  0.00     0.006 C 
BRANCH   3   4
ATOM      4  C   UNL     1      -2.699   3.782  15.657  1.00  0.00     0.053 C 
BRANCH   4   5
ATOM      5  C   UNL     1      -1.403   3.645  16.396  1.00  0.00     0.041 C 
ATOM      6  O   UNL     1      -0.566   4.586  16.387  1.00  0.00    -0.550 OA
ATOM      7  O   UNL     1      -1.106   2.466  17.067  1.00  0.00    -0.550 OA
ENDBRANCH   4   5
ENDBRANCH   3   4
ENDBRANCH   2   3
ENDBRANCH   1   2
BRANCH   1   8
ATOM      8  C   UNL     1      -5.830   5.464  14.100  1.00  0.00     0.000 C 
BRANCH   8   9
ATOM      9  C   UNL     1      -4.967   6.731  14.189  1.00  0.00     0.000 C 
BRANCH   9  10
ATOM     10  C   UNL     1      -5.151   7.481  15.520  1.00  0.00     0.006 C 
BRANCH  10  11
ATOM     11  C   UNL     1      -6.537   7.244  16.132  1.00  0.00     0.053 C 
BRANCH  11  12
ATOM     12  C   UNL     1      -6.478   7.178  17.627  1.00  0.00     0.041 C 
ATOM     13  O   UNL     1      -6.029   6.151  18.200  1.00  0.00    -0.550 OA
ATOM     14  O   UNL     1      -6.889   8.266  18.387  1.00  0.00    -0.550 OA
ENDBRANCH  11  12
ENDBRANCH  10  11
ENDBRANCH   9  10
ENDBRANCH   8   9
ENDBRANCH   1   8
TORSDOF 9
ENDMDL
