MODEL 1
REMARK VINA RESULT:    -0.211      0.000      0.000
REMARK INTER + INTRA:          -0.537
REMARK INTER:                  -0.248
REMARK INTRA:                  -0.289
REMARK UNBOUND:                -0.289
REMARK SMILES O=c1c(O)c(-c2ccc(O)cc2)oc2cc(O)cc(O)c12
REMARK SMILES IDX 5 1 3 2 2 3 1 4 21 5 19 6 18 7 16 8 15 9 14 10 13 11 6 12
REMARK SMILES IDX 7 13 8 14 9 15 12 16 11 17 10 18 4 20 20 22 17 24
REMARK H PARENT 10 19 4 21 20 23 17 25
REMARK Flexibility Score: inf
ROOT
ATOM      1  C   UNL     1      24.998  26.157  48.250  1.00  0.00     0.180 A 
ATOM      2  C   UNL     1      25.067  24.782  47.963  1.00  0.00     0.208 A 
ATOM      3  C   UNL     1      23.902  24.113  47.556  1.00  0.00     0.238 A 
ATOM      4  O   UNL     1      23.982  22.895  47.247  1.00  0.00    -0.285 OA
ATOM      5  C   UNL     1      22.680  24.821  47.457  1.00  0.00     0.111 A 
ATOM      6  C   UNL     1      21.431  24.234  47.093  1.00  0.00     0.134 A 
ATOM      7  C   UNL     1      20.313  25.055  46.901  1.00  0.00     0.093 A 
ATOM      8  C   UNL     1      20.383  26.432  47.122  1.00  0.00     0.123 A 
ATOM      9  C   UNL     1      21.583  27.006  47.535  1.00  0.00     0.094 A 
ATOM     10  C   UNL     1      22.726  26.218  47.701  1.00  0.00     0.146 A 
ATOM     11  O   UNL     1      23.852  26.806  48.086  1.00  0.00    -0.452 OA
ENDROOT
BRANCH   1  12
ATOM     12  C   UNL     1      26.177  26.926  48.709  1.00  0.00     0.021 A 
ATOM     13  C   UNL     1      27.047  27.550  47.795  1.00  0.00     0.016 A 
ATOM     14  C   UNL     1      28.167  28.251  48.252  1.00  0.00     0.047 A 
ATOM     15  C   UNL     1      28.441  28.326  49.623  1.00  0.00     0.115 A 
ATOM     16  C   UNL     1      26.471  26.989  50.081  1.00  0.00     0.016 A 
ATOM     17  C   UNL     1      27.591  27.691  50.535  1.00  0.00     0.047 A 
BRANCH  15  18
ATOM     18  O   UNL     1      29.553  29.023  50.089  1.00  0.00    -0.508 OA
ATOM     19  H   UNL     1      30.480  28.851  49.716  1.00  0.00     0.293 HD
ENDBRANCH  15  18
ENDBRANCH   1  12
BRANCH   2  20
ATOM     20  O   UNL     1      26.288  24.108  48.045  1.00  0.00    -0.502 OA
ATOM     21  H   UNL     1      26.464  23.384  48.731  1.00  0.00     0.293 HD
ENDBRANCH   2  20
BRANCH   6  22
ATOM     22  O   UNL     1      21.230  22.859  46.938  1.00  0.00    -0.507 OA
ATOM     23  H   UNL     1      21.491  22.159  47.616  1.00  0.00     0.293 HD
ENDBRANCH   6  22
BRANCH   8  24
ATOM     24  O   UNL     1      19.262  27.239  46.943  1.00  0.00    -0.508 OA
ATOM     25  H   UNL     1      19.229  27.948  46.220  1.00  0.00     0.293 HD
ENDBRANCH   8  24
TORSDOF 5
ENDMDL
MODEL 2
REMARK VINA RESULT:    -0.201      2.922      5.549
REMARK INTER + INTRA:          -0.526
REMARK INTER:                  -0.226
REMARK INTRA:                  -0.300
REMARK UNBOUND:                -0.289
REMARK SMILES O=c1c(O)c(-c2ccc(O)cc2)oc2cc(O)cc(O)c12
REMARK SMILES IDX 5 1 3 2 2 3 1 4 21 5 19 6 18 7 16 8 15 9 14 10 13 11 6 12
REMARK SMILES IDX 7 13 8 14 9 15 12 16 11 17 10 18 4 20 20 22 17 24
REMARK H PARENT 10 19 4 21 20 23 17 25
REMARK Flexibility Score: inf
ROOT
ATOM      1  C   UNL     1      25.225  26.650  47.774  1.00  0.00     0.180 A 
ATOM      2  C   UNL     1      24.552  25.417  47.812  1.00  0.00     0.208 A 
ATOM      3  C   UNL     1      25.282  24.237  47.600  1.00  0.00     0.238 A 
ATOM      4  O   UNL     1      24.684  23.133  47.691  1.00  0.00    -0.285 OA
ATOM      5  C   UNL     1      26.671  24.305  47.334  1.00  0.00     0.111 A 
ATOM      6  C   UNL     1      27.501  23.176  47.063  1.00  0.00     0.134 A 
ATOM      7  C   UNL     1      28.884  23.350  46.943  1.00  0.00     0.093 A 
ATOM      8  C   UNL     1      29.461  24.619  47.018  1.00  0.00     0.123 A 
ATOM      9  C   UNL     1      28.652  25.735  47.223  1.00  0.00     0.094 A 
ATOM     10  C   UNL     1      27.271  25.590  47.382  1.00  0.00     0.146 A 
ATOM     11  O   UNL     1      26.538  26.678  47.586  1.00  0.00    -0.452 OA
ENDROOT
BRANCH   1  12
ATOM     12  C   UNL     1      24.519  27.939  47.963  1.00  0.00     0.021 A 
ATOM     13  C   UNL     1      23.946  28.628  46.878  1.00  0.00     0.016 A 
ATOM     14  C   UNL     1      23.306  29.855  47.079  1.00  0.00     0.047 A 
ATOM     15  C   UNL     1      23.243  30.415  48.361  1.00  0.00     0.115 A 
ATOM     16  C   UNL     1      24.469  28.519  49.242  1.00  0.00     0.016 A 
ATOM     17  C   UNL     1      23.829  29.745  49.440  1.00  0.00     0.047 A 
BRANCH  15  18
ATOM     18  O   UNL     1      22.607  31.636  48.573  1.00  0.00    -0.508 OA
ATOM     19  H   UNL     1      23.131  32.475  48.795  1.00  0.00     0.293 HD
ENDBRANCH  15  18
ENDBRANCH   1  12
BRANCH   2  20
ATOM     20  O   UNL     1      23.184  25.371  48.099  1.00  0.00    -0.502 OA
ATOM     21  H   UNL     1      22.514  24.932  47.480  1.00  0.00     0.293 HD
ENDBRANCH   2  20
BRANCH   6  22
ATOM     22  O   UNL     1      27.016  21.877  46.877  1.00  0.00    -0.507 OA
ATOM     23  H   UNL     1      27.592  21.051  46.823  1.00  0.00     0.293 HD
ENDBRANCH   6  22
BRANCH   8  24
ATOM     24  O   UNL     1      30.837  24.785  46.882  1.00  0.00    -0.508 OA
ATOM     25  H   UNL     1      31.364  24.283  46.177  1.00  0.00     0.293 HD
ENDBRANCH   8  24
TORSDOF 5
ENDMDL
MODEL 3
REMARK VINA RESULT:    -0.200      4.266      6.679
REMARK INTER + INTRA:          -0.525
REMARK INTER:                  -0.225
REMARK INTRA:                  -0.300
REMARK UNBOUND:                -0.289
REMARK SMILES O=c1c(O)c(-c2ccc(O)cc2)oc2cc(O)cc(O)c12
REMARK SMILES IDX 5 1 3 2 2 3 1 4 21 5 19 6 18 7 16 8 15 9 14 10 13 11 6 12
REMARK SMILES IDX 7 13 8 14 9 15 12 16 11 17 10 18 4 20 20 22 17 24
REMARK H PARENT 10 19 4 21 20 23 17 25
REMARK Flexibility Score: inf
ROOT
ATOM      1  C   UNL     1      21.543  30.261  47.788  1.00  0.00     0.180 A 
ATOM      2  C   UNL     1      20.635  29.189  47.823  1.00  0.00     0.208 A 
ATOM      3  C   UNL     1      21.112  27.886  47.611  1.00  0.00     0.238 A 
ATOM      4  O   UNL     1      20.303  26.925  47.699  1.00  0.00    -0.285 OA
ATOM      5  C   UNL     1      22.486  27.673  47.347  1.00  0.00     0.111 A 
ATOM      6  C   UNL     1      23.072  26.399  47.077  1.00  0.00     0.134 A 
ATOM      7  C   UNL     1      24.462  26.290  46.960  1.00  0.00     0.093 A 
ATOM      8  C   UNL     1      25.283  27.417  47.038  1.00  0.00     0.123 A 
ATOM      9  C   UNL     1      24.716  28.673  47.243  1.00  0.00     0.094 A 
ATOM     10  C   UNL     1      23.334  28.810  47.399  1.00  0.00     0.146 A 
ATOM     11  O   UNL     1      22.835  30.023  47.603  1.00  0.00    -0.452 OA
ENDROOT
BRANCH   1  12
ATOM     12  C   UNL     1      21.112  31.666  47.978  1.00  0.00     0.021 A 
ATOM     13  C   UNL     1      20.692  32.457  46.893  1.00  0.00     0.016 A 
ATOM     14  C   UNL     1      20.313  33.788  47.094  1.00  0.00     0.047 A 
ATOM     15  C   UNL     1      20.361  34.348  48.376  1.00  0.00     0.115 A 
ATOM     16  C   UNL     1      21.177  32.242  49.257  1.00  0.00     0.016 A 
ATOM     17  C   UNL     1      20.797  33.573  49.455  1.00  0.00     0.047 A 
BRANCH  15  18
ATOM     18  O   UNL     1      19.984  35.672  48.588  1.00  0.00    -0.508 OA
ATOM     19  H   UNL     1      20.622  36.439  48.410  1.00  0.00     0.293 HD
ENDBRANCH  15  18
ENDBRANCH   1  12
BRANCH   2  20
ATOM     20  O   UNL     1      19.285  29.420  48.107  1.00  0.00    -0.502 OA
ATOM     21  H   UNL     1      18.616  29.675  47.392  1.00  0.00     0.293 HD
ENDBRANCH   2  20
BRANCH   6  22
ATOM     22  O   UNL     1      22.335  25.226  46.888  1.00  0.00    -0.507 OA
ATOM     23  H   UNL     1      21.413  25.185  46.482  1.00  0.00     0.293 HD
ENDBRANCH   6  22
BRANCH   8  24
ATOM     24  O   UNL     1      26.665  27.301  46.905  1.00  0.00    -0.508 OA
ATOM     25  H   UNL     1      27.248  26.996  47.676  1.00  0.00     0.293 HD
ENDBRANCH   8  24
TORSDOF 5
ENDMDL
MODEL 4
REMARK VINA RESULT:    -0.192      2.533      3.153
REMARK INTER + INTRA:          -0.514
REMARK INTER:                  -0.232
REMARK INTRA:                  -0.283
REMARK UNBOUND:                -0.289
REMARK SMILES O=c1c(O)c(-c2ccc(O)cc2)oc2cc(O)cc(O)c12
REMARK SMILES IDX 5 1 3 2 2 3 1 4 21 5 19 6 18 7 16 8 15 9 14 10 13 11 6 12
REMARK SMILES IDX 7 13 8 14 9 15 12 16 11 17 10 18 4 20 20 22 17 24
REMARK H PARENT 10 19 4 21 20 23 17 25
REMARK Flexibility Score: inf
ROOT
ATOM      1  C   UNL     1      24.941  29.240  47.877  1.00  0.00     0.180 A 
ATOM      2  C   UNL     1      24.916  27.870  47.562  1.00  0.00     0.208 A 
ATOM      3  C   UNL     1      23.686  27.263  47.265  1.00  0.00     0.238 A 
ATOM      4  O   UNL     1      23.676  26.050  46.930  1.00  0.00    -0.285 OA
ATOM      5  C   UNL     1      22.495  28.028  47.304  1.00  0.00     0.111 A 
ATOM      6  C   UNL     1      21.188  27.506  47.060  1.00  0.00     0.134 A 
ATOM      7  C   UNL     1      20.097  28.381  46.996  1.00  0.00     0.093 A 
ATOM      8  C   UNL     1      20.255  29.748  47.232  1.00  0.00     0.123 A 
ATOM      9  C   UNL     1      21.517  30.258  47.529  1.00  0.00     0.094 A 
ATOM     10  C   UNL     1      22.631  29.416  47.565  1.00  0.00     0.146 A 
ATOM     11  O   UNL     1      23.817  29.944  47.841  1.00  0.00    -0.452 OA
ENDROOT
BRANCH   1  12
ATOM     12  C   UNL     1      26.197  29.945  48.225  1.00  0.00     0.021 A 
ATOM     13  C   UNL     1      27.041  30.474  47.231  1.00  0.00     0.016 A 
ATOM     14  C   UNL     1      28.232  31.114  47.585  1.00  0.00     0.047 A 
ATOM     15  C   UNL     1      28.602  31.223  48.931  1.00  0.00     0.115 A 
ATOM     16  C   UNL     1      26.586  30.040  49.572  1.00  0.00     0.016 A 
ATOM     17  C   UNL     1      27.777  30.682  49.922  1.00  0.00     0.047 A 
BRANCH  15  18
ATOM     18  O   UNL     1      29.786  31.860  49.294  1.00  0.00    -0.508 OA
ATOM     19  H   UNL     1      30.667  31.361  49.330  1.00  0.00     0.293 HD
ENDBRANCH  15  18
ENDBRANCH   1  12
BRANCH   2  20
ATOM     20  O   UNL     1      26.106  27.139  47.509  1.00  0.00    -0.502 OA
ATOM     21  H   UNL     1      26.241  26.366  46.869  1.00  0.00     0.293 HD
ENDBRANCH   2  20
BRANCH   6  22
ATOM     22  O   UNL     1      20.908  26.145  46.904  1.00  0.00    -0.507 OA
ATOM     23  H   UNL     1      20.025  25.773  46.587  1.00  0.00     0.293 HD
ENDBRANCH   6  22
BRANCH   8  24
ATOM     24  O   UNL     1      19.161  30.609  47.181  1.00  0.00    -0.508 OA
ATOM     25  H   UNL     1      18.421  30.568  47.873  1.00  0.00     0.293 HD
ENDBRANCH   8  24
TORSDOF 5
ENDMDL
MODEL 5
REMARK VINA RESULT:    -0.186      3.030      3.897
REMARK INTER + INTRA:          -0.508
REMARK INTER:                  -0.209
REMARK INTRA:                  -0.299
REMARK UNBOUND:                -0.289
REMARK SMILES O=c1c(O)c(-c2ccc(O)cc2)oc2cc(O)cc(O)c12
REMARK SMILES IDX 5 1 3 2 2 3 1 4 21 5 19 6 18 7 16 8 15 9 14 10 13 11 6 12
REMARK SMILES IDX 7 13 8 14 9 15 12 16 11 17 10 18 4 20 20 22 17 24
REMARK H PARENT 10 19 4 21 20 23 17 25
REMARK Flexibility Score: inf
ROOT
ATOM      1  C   UNL     1      28.228  24.593  48.078  1.00  0.00     0.180 A 
ATOM      2  C   UNL     1      27.734  23.319  47.745  1.00  0.00     0.208 A 
ATOM      3  C   UNL     1      26.384  23.186  47.386  1.00  0.00     0.238 A 
ATOM      4  O   UNL     1      25.961  22.054  47.035  1.00  0.00    -0.285 OA
ATOM      5  C   UNL     1      25.541  24.324  47.380  1.00  0.00     0.111 A 
ATOM      6  C   UNL     1      24.147  24.297  47.071  1.00  0.00     0.134 A 
ATOM      7  C   UNL     1      23.441  25.502  46.969  1.00  0.00     0.093 A 
ATOM      8  C   UNL     1      24.061  26.726  47.229  1.00  0.00     0.123 A 
ATOM      9  C   UNL     1      25.406  26.757  47.589  1.00  0.00     0.094 A 
ATOM     10  C   UNL     1      26.147  25.574  47.664  1.00  0.00     0.146 A 
ATOM     11  O   UNL     1      27.429  25.649  48.001  1.00  0.00    -0.452 OA
ENDROOT
BRANCH   1  12
ATOM     12  C   UNL     1      29.634  24.809  48.492  1.00  0.00     0.021 A 
ATOM     13  C   UNL     1      30.023  24.722  49.842  1.00  0.00     0.016 A 
ATOM     14  C   UNL     1      31.351  24.954  50.210  1.00  0.00     0.047 A 
ATOM     15  C   UNL     1      32.304  25.289  49.240  1.00  0.00     0.115 A 
ATOM     16  C   UNL     1      30.592  25.166  47.528  1.00  0.00     0.016 A 
ATOM     17  C   UNL     1      31.919  25.397  47.900  1.00  0.00     0.047 A 
BRANCH  15  18
ATOM     18  O   UNL     1      33.630  25.521  49.596  1.00  0.00    -0.508 OA
ATOM     19  H   UNL     1      33.884  26.258  50.243  1.00  0.00     0.293 HD
ENDBRANCH  15  18
ENDBRANCH   1  12
BRANCH   2  20
ATOM     20  O   UNL     1      28.590  22.214  47.736  1.00  0.00    -0.502 OA
ATOM     21  H   UNL     1      29.543  22.268  47.401  1.00  0.00     0.293 HD
ENDBRANCH   2  20
BRANCH   6  22
ATOM     22  O   UNL     1      23.410  23.124  46.884  1.00  0.00    -0.507 OA
ATOM     23  H   UNL     1      23.185  22.723  45.986  1.00  0.00     0.293 HD
ENDBRANCH   6  22
BRANCH   8  24
ATOM     24  O   UNL     1      23.346  27.918  47.140  1.00  0.00    -0.508 OA
ATOM     25  H   UNL     1      22.337  27.925  47.044  1.00  0.00     0.293 HD
ENDBRANCH   8  24
TORSDOF 5
ENDMDL
MODEL 6
REMARK VINA RESULT:    -0.167      3.975      6.190
REMARK INTER + INTRA:          -0.485
REMARK INTER:                  -0.186
REMARK INTRA:                  -0.300
REMARK UNBOUND:                -0.289
REMARK SMILES O=c1c(O)c(-c2ccc(O)cc2)oc2cc(O)cc(O)c12
REMARK SMILES IDX 5 1 3 2 2 3 1 4 21 5 19 6 18 7 16 8 15 9 14 10 13 11 6 12
REMARK SMILES IDX 7 13 8 14 9 15 12 16 11 17 10 18 4 20 20 22 17 24
REMARK H PARENT 10 19 4 21 20 23 17 25
REMARK Flexibility Score: inf
ROOT
ATOM      1  C   UNL     1      23.471  28.547  48.208  1.00  0.00     0.180 A 
ATOM      2  C   UNL     1      24.302  29.502  47.597  1.00  0.00     0.208 A 
ATOM      3  C   UNL     1      24.005  30.865  47.757  1.00  0.00     0.238 A 
ATOM      4  O   UNL     1      24.784  31.716  47.254  1.00  0.00    -0.285 OA
ATOM      5  C   UNL     1      22.872  31.255  48.511  1.00  0.00     0.111 A 
ATOM      6  C   UNL     1      22.454  32.606  48.704  1.00  0.00     0.134 A 
ATOM      7  C   UNL     1      21.394  32.882  49.576  1.00  0.00     0.093 A 
ATOM      8  C   UNL     1      20.695  31.853  50.210  1.00  0.00     0.123 A 
ATOM      9  C   UNL     1      21.058  30.527  49.981  1.00  0.00     0.094 A 
ATOM     10  C   UNL     1      22.135  30.221  49.145  1.00  0.00     0.146 A 
ATOM     11  O   UNL     1      22.454  28.946  48.962  1.00  0.00    -0.452 OA
ENDROOT
BRANCH   1  12
ATOM     12  C   UNL     1      23.705  27.091  48.065  1.00  0.00     0.021 A 
ATOM     13  C   UNL     1      23.163  26.364  46.989  1.00  0.00     0.016 A 
ATOM     14  C   UNL     1      23.378  24.986  46.888  1.00  0.00     0.047 A 
ATOM     15  C   UNL     1      24.123  24.316  47.865  1.00  0.00     0.115 A 
ATOM     16  C   UNL     1      24.434  26.407  49.052  1.00  0.00     0.016 A 
ATOM     17  C   UNL     1      24.647  25.030  48.948  1.00  0.00     0.047 A 
BRANCH  15  18
ATOM     18  O   UNL     1      24.344  22.944  47.774  1.00  0.00    -0.508 OA
ATOM     19  H   UNL     1      23.643  22.318  47.396  1.00  0.00     0.293 HD
ENDBRANCH  15  18
ENDBRANCH   1  12
BRANCH   2  20
ATOM     20  O   UNL     1      25.428  29.095  46.876  1.00  0.00    -0.502 OA
ATOM     21  H   UNL     1      25.361  28.651  45.968  1.00  0.00     0.293 HD
ENDBRANCH   2  20
BRANCH   6  22
ATOM     22  O   UNL     1      23.023  33.701  48.047  1.00  0.00    -0.507 OA
ATOM     23  H   UNL     1      24.012  33.900  48.013  1.00  0.00     0.293 HD
ENDBRANCH   6  22
BRANCH   8  24
ATOM     24  O   UNL     1      19.632  32.136  51.064  1.00  0.00    -0.508 OA
ATOM     25  H   UNL     1      18.877  32.751  50.784  1.00  0.00     0.293 HD
ENDBRANCH   8  24
TORSDOF 5
ENDMDL
MODEL 7
REMARK VINA RESULT:    -0.167      4.004      4.893
REMARK INTER + INTRA:          -0.485
REMARK INTER:                  -0.185
REMARK INTRA:                  -0.300
REMARK UNBOUND:                -0.289
REMARK SMILES O=c1c(O)c(-c2ccc(O)cc2)oc2cc(O)cc(O)c12
REMARK SMILES IDX 5 1 3 2 2 3 1 4 21 5 19 6 18 7 16 8 15 9 14 10 13 11 6 12
REMARK SMILES IDX 7 13 8 14 9 15 12 16 11 17 10 18 4 20 20 22 17 24
REMARK H PARENT 10 19 4 21 20 23 17 25
REMARK Flexibility Score: inf
ROOT
ATOM      1  C   UNL     1      24.644  29.968  49.038  1.00  0.00     0.180 A 
ATOM      2  C   UNL     1      25.873  29.391  48.674  1.00  0.00     0.208 A 
ATOM      3  C   UNL     1      25.875  28.139  48.039  1.00  0.00     0.238 A 
ATOM      4  O   UNL     1      26.975  27.653  47.665  1.00  0.00    -0.285 OA
ATOM      5  C   UNL     1      24.651  27.472  47.791  1.00  0.00     0.111 A 
ATOM      6  C   UNL     1      24.539  26.181  47.191  1.00  0.00     0.134 A 
ATOM      7  C   UNL     1      23.272  25.676  46.875  1.00  0.00     0.093 A 
ATOM      8  C   UNL     1      22.112  26.384  47.198  1.00  0.00     0.123 A 
ATOM      9  C   UNL     1      22.210  27.617  47.838  1.00  0.00     0.094 A 
ATOM     10  C   UNL     1      23.461  28.165  48.133  1.00  0.00     0.146 A 
ATOM     11  O   UNL     1      23.510  29.348  48.734  1.00  0.00    -0.452 OA
ENDROOT
BRANCH   1  12
ATOM     12  C   UNL     1      24.561  31.273  49.733  1.00  0.00     0.021 A 
ATOM     13  C   UNL     1      24.623  31.362  51.136  1.00  0.00     0.016 A 
ATOM     14  C   UNL     1      24.519  32.603  51.771  1.00  0.00     0.047 A 
ATOM     15  C   UNL     1      24.338  33.768  51.015  1.00  0.00     0.115 A 
ATOM     16  C   UNL     1      24.358  32.444  48.984  1.00  0.00     0.016 A 
ATOM     17  C   UNL     1      24.255  33.684  49.621  1.00  0.00     0.047 A 
BRANCH  15  18
ATOM     18  O   UNL     1      24.234  35.010  51.637  1.00  0.00    -0.508 OA
ATOM     19  H   UNL     1      24.737  35.218  52.492  1.00  0.00     0.293 HD
ENDBRANCH  15  18
ENDBRANCH   1  12
BRANCH   2  20
ATOM     20  O   UNL     1      27.068  30.077  48.908  1.00  0.00    -0.502 OA
ATOM     21  H   UNL     1      27.380  30.324  49.839  1.00  0.00     0.293 HD
ENDBRANCH   2  20
BRANCH   6  22
ATOM     22  O   UNL     1      25.629  25.352  46.912  1.00  0.00    -0.507 OA
ATOM     23  H   UNL     1      26.425  25.225  47.520  1.00  0.00     0.293 HD
ENDBRANCH   6  22
BRANCH   8  24
ATOM     24  O   UNL     1      20.855  25.866  46.894  1.00  0.00    -0.508 OA
ATOM     25  H   UNL     1      20.747  25.046  46.308  1.00  0.00     0.293 HD
ENDBRANCH   8  24
TORSDOF 5
ENDMDL
MODEL 8
REMARK VINA RESULT:    -0.165      3.100      4.044
REMARK INTER + INTRA:          -0.483
REMARK INTER:                  -0.198
REMARK INTRA:                  -0.286
REMARK UNBOUND:                -0.289
REMARK SMILES O=c1c(O)c(-c2ccc(O)cc2)oc2cc(O)cc(O)c12
REMARK SMILES IDX 5 1 3 2 2 3 1 4 21 5 19 6 18 7 16 8 15 9 14 10 13 11 6 12
REMARK SMILES IDX 7 13 8 14 9 15 12 16 11 17 10 18 4 20 20 22 17 24
REMARK H PARENT 10 19 4 21 20 23 17 25
REMARK Flexibility Score: inf
ROOT
ATOM      1  C   UNL     1      26.052  29.852  48.409  1.00  0.00     0.180 A 
ATOM      2  C   UNL     1      26.853  28.731  48.126  1.00  0.00     0.208 A 
ATOM      3  C   UNL     1      26.239  27.553  47.674  1.00  0.00     0.238 A 
ATOM      4  O   UNL     1      26.966  26.572  47.369  1.00  0.00    -0.285 OA
ATOM      5  C   UNL     1      24.832  27.503  47.526  1.00  0.00     0.111 A 
ATOM      6  C   UNL     1      24.100  26.349  47.113  1.00  0.00     0.134 A 
ATOM      7  C   UNL     1      22.725  26.452  46.876  1.00  0.00     0.093 A 
ATOM      8  C   UNL     1      22.042  27.650  47.099  1.00  0.00     0.123 A 
ATOM      9  C   UNL     1      22.737  28.767  47.559  1.00  0.00     0.094 A 
ATOM     10  C   UNL     1      24.117  28.705  47.771  1.00  0.00     0.146 A 
ATOM     11  O   UNL     1      24.743  29.795  48.199  1.00  0.00    -0.452 OA
ENDROOT
BRANCH   1  12
ATOM     12  C   UNL     1      26.624  31.122  48.914  1.00  0.00     0.021 A 
ATOM     13  C   UNL     1      27.117  32.105  48.036  1.00  0.00     0.016 A 
ATOM     14  C   UNL     1      27.673  33.285  48.538  1.00  0.00     0.047 A 
ATOM     15  C   UNL     1      27.757  33.493  49.920  1.00  0.00     0.115 A 
ATOM     16  C   UNL     1      26.731  31.329  50.299  1.00  0.00     0.016 A 
ATOM     17  C   UNL     1      27.288  32.510  50.798  1.00  0.00     0.047 A 
BRANCH  15  18
ATOM     18  O   UNL     1      28.309  34.665  50.430  1.00  0.00    -0.508 OA
ATOM     19  H   UNL     1      28.062  35.009  51.351  1.00  0.00     0.293 HD
ENDBRANCH  15  18
ENDBRANCH   1  12
BRANCH   2  20
ATOM     20  O   UNL     1      28.242  28.809  48.258  1.00  0.00    -0.502 OA
ATOM     21  H   UNL     1      28.874  28.550  47.511  1.00  0.00     0.293 HD
ENDBRANCH   2  20
BRANCH   6  22
ATOM     22  O   UNL     1      24.669  25.082  46.951  1.00  0.00    -0.507 OA
ATOM     23  H   UNL     1      24.227  24.311  46.472  1.00  0.00     0.293 HD
ENDBRANCH   6  22
BRANCH   8  24
ATOM     24  O   UNL     1      20.671  27.740  46.875  1.00  0.00    -0.508 OA
ATOM     25  H   UNL     1      20.298  28.095  46.002  1.00  0.00     0.293 HD
ENDBRANCH   8  24
TORSDOF 5
ENDMDL
