MODEL 1
REMARK VINA RESULT:    -4.020      0.000      0.000
REMARK INTER + INTRA:          -5.963
REMARK INTER:                  -5.665
REMARK INTRA:                  -0.297
REMARK UNBOUND:                -0.297
REMARK SMILES CCCCCCCCC(=O)[O-]
REMARK SMILES IDX 6 1 7 2 8 3 9 4 10 5 11 6 5 7 4 8 3 9 2 10 1 11
REMARK H PARENT
REMARK Flexibility Score: inf
ROOT
ATOM      1  C   UNL     1       5.324  44.072  11.412  1.00  0.00     0.000 C 
ENDROOT
BRANCH   1   2
ATOM      2  C   UNL     1       6.697  44.717  11.682  1.00  0.00     0.006 C 
BRANCH   2   3
ATOM      3  C   UNL     1       7.895  43.828  11.295  1.00  0.00     0.053 C 
BRANCH   3   4
ATOM      4  C   UNL     1       7.722  42.403  11.729  1.00  0.00     0.041 C 
ATOM      5  O   UNL     1       7.683  41.479  10.876  1.00  0.00    -0.550 OA
ATOM      6  O   UNL     1       7.644  42.093  13.081  1.00  0.00    -0.550 OA
ENDBRANCH   3   4
ENDBRANCH   2   3
ENDBRANCH   1   2
BRANCH   1   7
ATOM      7  C   UNL     1       4.166  45.060  11.195  1.00  0.00     0.000 C 
BRANCH   7   8
ATOM      8  C   UNL     1       3.319  44.727   9.958  1.00  0.00    -0.000 C 
BRANCH   8   9
ATOM      9  C   UNL     1       2.766  43.299  10.041  1.00  0.00    -0.000 C 
BRANCH   9  10
ATOM     10  C   UNL     1       1.682  43.190  11.119  1.00  0.00    -0.003 C 
ATOM     11  C   UNL     1       0.491  42.375  10.623  1.00  0.00     0.004 C 
ENDBRANCH   9  10
ENDBRANCH   8   9
ENDBRANCH   7   8
ENDBRANCH   1   7
TORSDOF 7
ENDMDL
MODEL 2
REMARK VINA RESULT:    -2.758      2.787      5.298
REMARK INTER + INTRA:          -4.185
REMARK INTER:                  -3.926
REMARK INTRA:                  -0.259
REMARK UNBOUND:                -0.297
REMARK SMILES CCCCCCCCC(=O)[O-]
REMARK SMILES IDX 6 1 7 2 8 3 9 4 10 5 11 6 5 7 4 8 3 9 2 10 1 11
REMARK H PARENT
REMARK Flexibility Score: inf
ROOT
ATOM      1  C   UNL     1       5.522  44.256  12.872  1.00  0.00     0.000 C 
ENDROOT
BRANCH   1   2
ATOM      2  C   UNL     1       4.872  44.210  11.475  1.00  0.00     0.006 C 
BRANCH   2   3
ATOM      3  C   UNL     1       3.447  44.794  11.427  1.00  0.00     0.053 C 
BRANCH   3   4
ATOM      4  C   UNL     1       2.390  43.733  11.360  1.00  0.00     0.041 C 
ATOM      5  O   UNL     1       1.437  43.731  12.183  1.00  0.00    -0.550 OA
ATOM      6  O   UNL     1       2.435  42.768  10.361  1.00  0.00    -0.550 OA
ENDBRANCH   3   4
ENDBRANCH   2   3
ENDBRANCH   1   2
BRANCH   1   7
ATOM      7  C   UNL     1       6.204  42.954  13.322  1.00  0.00     0.000 C 
BRANCH   7   8
ATOM      8  C   UNL     1       7.623  42.794  12.757  1.00  0.00    -0.000 C 
BRANCH   8   9
ATOM      9  C   UNL     1       7.618  41.908  11.506  1.00  0.00    -0.000 C 
BRANCH   9  10
ATOM     10  C   UNL     1       7.592  42.758  10.230  1.00  0.00    -0.003 C 
ATOM     11  C   UNL     1       8.327  44.080  10.433  1.00  0.00     0.004 C 
ENDBRANCH   9  10
ENDBRANCH   8   9
ENDBRANCH   7   8
ENDBRANCH   1   7
TORSDOF 7
ENDMDL
MODEL 3
REMARK VINA RESULT:    -2.225      1.961      2.590
REMARK INTER + INTRA:          -3.432
REMARK INTER:                  -3.609
REMARK INTRA:                   0.177
REMARK UNBOUND:                -0.297
REMARK SMILES CCCCCCCCC(=O)[O-]
REMARK SMILES IDX 6 1 7 2 8 3 9 4 10 5 11 6 5 7 4 8 3 9 2 10 1 11
REMARK H PARENT
REMARK Flexibility Score: inf
ROOT
ATOM      1  C   UNL     1       7.010  43.228  12.807  1.00  0.00     0.000 C 
ENDROOT
BRANCH   1   2
ATOM      2  C   UNL     1       7.224  42.214  11.667  1.00  0.00     0.006 C 
BRANCH   2   3
ATOM      3  C   UNL     1       6.898  42.766  10.266  1.00  0.00     0.053 C 
BRANCH   3   4
ATOM      4  C   UNL     1       7.500  44.117  10.023  1.00  0.00     0.041 C 
ATOM      5  O   UNL     1       6.760  45.125   9.875  1.00  0.00    -0.550 OA
ATOM      6  O   UNL     1       8.881  44.271  10.001  1.00  0.00    -0.550 OA
ENDBRANCH   3   4
ENDBRANCH   2   3
ENDBRANCH   1   2
BRANCH   1   7
ATOM      7  C   UNL     1       5.545  43.466  13.208  1.00  0.00     0.000 C 
BRANCH   7   8
ATOM      8  C   UNL     1       4.693  44.026  12.060  1.00  0.00    -0.000 C 
BRANCH   8   9
ATOM      9  C   UNL     1       3.330  43.327  11.999  1.00  0.00    -0.000 C 
BRANCH   9  10
ATOM     10  C   UNL     1       2.465  43.906  10.873  1.00  0.00    -0.003 C 
ATOM     11  C   UNL     1       1.383  42.918  10.447  1.00  0.00     0.004 C 
ENDBRANCH   9  10
ENDBRANCH   8   9
ENDBRANCH   7   8
ENDBRANCH   1   7
TORSDOF 7
ENDMDL
MODEL 4
REMARK VINA RESULT:    -1.787      2.933      4.196
REMARK INTER + INTRA:          -2.815
REMARK INTER:                  -2.589
REMARK INTRA:                  -0.227
REMARK UNBOUND:                -0.297
REMARK SMILES CCCCCCCCC(=O)[O-]
REMARK SMILES IDX 6 1 7 2 8 3 9 4 10 5 11 6 5 7 4 8 3 9 2 10 1 11
REMARK H PARENT
REMARK Flexibility Score: inf
ROOT
ATOM      1  C   UNL     1       1.729  43.247  11.166  1.00  0.00     0.000 C 
ENDROOT
BRANCH   1   2
ATOM      2  C   UNL     1       3.129  43.406  10.540  1.00  0.00     0.006 C 
BRANCH   2   3
ATOM      3  C   UNL     1       3.881  44.670  10.996  1.00  0.00     0.053 C 
BRANCH   3   4
ATOM      4  C   UNL     1       5.295  44.384  11.407  1.00  0.00     0.041 C 
ATOM      5  O   UNL     1       5.740  44.824  12.500  1.00  0.00    -0.550 OA
ATOM      6  O   UNL     1       6.108  43.597  10.602  1.00  0.00    -0.550 OA
ENDBRANCH   3   4
ENDBRANCH   2   3
ENDBRANCH   1   2
BRANCH   1   7
ATOM      7  C   UNL     1       1.513  44.000  12.489  1.00  0.00     0.000 C 
BRANCH   7   8
ATOM      8  C   UNL     1       0.086  43.852  13.037  1.00  0.00    -0.000 C 
BRANCH   8   9
ATOM      9  C   UNL     1      -0.250  44.990  14.007  1.00  0.00    -0.000 C 
BRANCH   9  10
ATOM     10  C   UNL     1      -1.718  44.929  14.441  1.00  0.00    -0.003 C 
ATOM     11  C   UNL     1      -2.142  43.496  14.750  1.00  0.00     0.004 C 
ENDBRANCH   9  10
ENDBRANCH   8   9
ENDBRANCH   7   8
ENDBRANCH   1   7
TORSDOF 7
ENDMDL
MODEL 5
REMARK VINA RESULT:    -1.636      1.692      2.420
REMARK INTER + INTRA:          -2.604
REMARK INTER:                  -2.332
REMARK INTRA:                  -0.272
REMARK UNBOUND:                -0.297
REMARK SMILES CCCCCCCCC(=O)[O-]
REMARK SMILES IDX 6 1 7 2 8 3 9 4 10 5 11 6 5 7 4 8 3 9 2 10 1 11
REMARK H PARENT
REMARK Flexibility Score: inf
ROOT
ATOM      1  C   UNL     1       4.712  43.194   9.972  1.00  0.00     0.000 C 
ENDROOT
BRANCH   1   2
ATOM      2  C   UNL     1       5.030  44.702  10.010  1.00  0.00     0.006 C 
BRANCH   2   3
ATOM      3  C   UNL     1       6.056  45.100  11.089  1.00  0.00     0.053 C 
BRANCH   3   4
ATOM      4  C   UNL     1       6.297  44.009  12.088  1.00  0.00     0.041 C 
ATOM      5  O   UNL     1       5.469  43.801  13.015  1.00  0.00    -0.550 OA
ATOM      6  O   UNL     1       7.416  43.194  11.973  1.00  0.00    -0.550 OA
ENDBRANCH   3   4
ENDBRANCH   2   3
ENDBRANCH   1   2
BRANCH   1   7
ATOM      7  C   UNL     1       3.219  42.841   9.875  1.00  0.00     0.000 C 
BRANCH   7   8
ATOM      8  C   UNL     1       2.308  43.913  10.489  1.00  0.00    -0.000 C 
BRANCH   8   9
ATOM      9  C   UNL     1       2.040  43.622  11.971  1.00  0.00    -0.000 C 
BRANCH   9  10
ATOM     10  C   UNL     1       0.538  43.492  12.244  1.00  0.00    -0.003 C 
ATOM     11  C   UNL     1       0.132  44.286  13.482  1.00  0.00     0.004 C 
ENDBRANCH   9  10
ENDBRANCH   8   9
ENDBRANCH   7   8
ENDBRANCH   1   7
TORSDOF 7
ENDMDL
MODEL 6
REMARK VINA RESULT:    -1.500      4.869      6.919
REMARK INTER + INTRA:          -2.412
REMARK INTER:                  -2.273
REMARK INTRA:                  -0.139
REMARK UNBOUND:                -0.297
REMARK SMILES CCCCCCCCC(=O)[O-]
REMARK SMILES IDX 6 1 7 2 8 3 9 4 10 5 11 6 5 7 4 8 3 9 2 10 1 11
REMARK H PARENT
REMARK Flexibility Score: inf
ROOT
ATOM      1  C   UNL     1       1.543  44.278  12.278  1.00  0.00     0.000 C 
ENDROOT
BRANCH   1   2
ATOM      2  C   UNL     1       0.289  43.749  13.000  1.00  0.00     0.006 C 
BRANCH   2   3
ATOM      3  C   UNL     1      -0.318  44.739  14.012  1.00  0.00     0.053 C 
BRANCH   3   4
ATOM      4  C   UNL     1      -1.647  44.286  14.538  1.00  0.00     0.041 C 
ATOM      5  O   UNL     1      -2.470  45.124  14.993  1.00  0.00    -0.550 OA
ATOM      6  O   UNL     1      -1.994  42.941  14.488  1.00  0.00    -0.550 OA
ENDBRANCH   3   4
ENDBRANCH   2   3
ENDBRANCH   1   2
BRANCH   1   7
ATOM      7  C   UNL     1       2.435  43.203  11.637  1.00  0.00     0.000 C 
BRANCH   7   8
ATOM      8  C   UNL     1       2.990  43.621  10.268  1.00  0.00    -0.000 C 
BRANCH   8   9
ATOM      9  C   UNL     1       4.439  44.110  10.390  1.00  0.00    -0.000 C 
BRANCH   9  10
ATOM     10  C   UNL     1       4.934  44.011  11.838  1.00  0.00    -0.003 C 
ATOM     11  C   UNL     1       6.185  44.858  12.051  1.00  0.00     0.004 C 
ENDBRANCH   9  10
ENDBRANCH   8   9
ENDBRANCH   7   8
ENDBRANCH   1   7
TORSDOF 7
ENDMDL
