MODEL 1
REMARK VINA RESULT:    -5.845      0.000      0.000
REMARK INTER + INTRA:         -12.547
REMARK INTER:                 -10.288
REMARK INTRA:                  -2.260
REMARK UNBOUND:                -2.260
REMARK SMILES CCCCCCC=CCCCCCCCC(=O)[O-]
REMARK SMILES IDX 10 1 11 2 12 3 13 4 14 5 15 6 16 7 17 8 18 9 9 10 8 11 7 12
REMARK SMILES IDX 6 13 5 14 4 15 3 16 2 17 1 18
REMARK H PARENT
REMARK Flexibility Score: inf
ROOT
ATOM      1  C   UNL     1      13.182 -13.427  37.057  1.00  0.00     0.004 C 
ENDROOT
BRANCH   1   2
ATOM      2  C   UNL     1      13.195 -13.129  35.547  1.00  0.00     0.000 C 
BRANCH   2   3
ATOM      3  C   UNL     1      12.877 -11.658  35.234  1.00  0.00     0.000 C 
BRANCH   3   4
ATOM      4  C   UNL     1      11.367 -11.366  35.242  1.00  0.00     0.000 C 
BRANCH   4   5
ATOM      5  C   UNL     1      10.949 -10.453  36.406  1.00  0.00     0.006 C 
BRANCH   5   6
ATOM      6  C   UNL     1      12.153  -9.847  37.140  1.00  0.00     0.053 C 
BRANCH   6   7
ATOM      7  C   UNL     1      12.144 -10.252  38.580  1.00  0.00     0.041 C 
ATOM      8  O   UNL     1      13.181 -10.124  39.282  1.00  0.00    -0.550 OA
ATOM      9  O   UNL     1      11.003 -10.818  39.136  1.00  0.00    -0.550 OA
ENDBRANCH   6   7
ENDBRANCH   5   6
ENDBRANCH   4   5
ENDBRANCH   3   4
ENDBRANCH   2   3
ENDBRANCH   1   2
BRANCH   1  10
ATOM     10  C   UNL     1      12.368 -14.686  37.389  1.00  0.00     0.027 C 
BRANCH  10  11
ATOM     11  C   UNL     1      11.206 -14.871  36.444  1.00  0.00    -0.031 C 
ATOM     12  C   UNL     1       9.940 -14.496  36.704  1.00  0.00    -0.031 C 
BRANCH  12  13
ATOM     13  C   UNL     1       9.502 -13.744  37.938  1.00  0.00     0.027 C 
BRANCH  13  14
ATOM     14  C   UNL     1       7.990 -13.475  37.941  1.00  0.00     0.004 C 
BRANCH  14  15
ATOM     15  C   UNL     1       7.375 -13.612  36.537  1.00  0.00     0.000 C 
BRANCH  15  16
ATOM     16  C   UNL     1       7.225 -12.260  35.823  1.00  0.00    -0.000 C 
BRANCH  16  17
ATOM     17  C   UNL     1       7.938 -12.227  34.462  1.00  0.00    -0.003 C 
ATOM     18  C   UNL     1       7.770 -13.551  33.723  1.00  0.00     0.004 C 
ENDBRANCH  16  17
ENDBRANCH  15  16
ENDBRANCH  14  15
ENDBRANCH  13  14
ENDBRANCH  12  13
ENDBRANCH  10  11
ENDBRANCH   1  10
TORSDOF 13
ENDMDL
MODEL 2
REMARK VINA RESULT:    -5.804      2.257      5.483
REMARK INTER + INTRA:         -12.475
REMARK INTER:                 -10.660
REMARK INTRA:                  -1.815
REMARK UNBOUND:                -2.260
REMARK SMILES CCCCCCC=CCCCCCCCC(=O)[O-]
REMARK SMILES IDX 10 1 11 2 12 3 13 4 14 5 15 6 16 7 17 8 18 9 9 10 8 11 7 12
REMARK SMILES IDX 6 13 5 14 4 15 3 16 2 17 1 18
REMARK H PARENT
REMARK Flexibility Score: inf
ROOT
ATOM      1  C   UNL     1      10.115 -14.571  37.836  1.00  0.00     0.004 C 
ENDROOT
BRANCH   1   2
ATOM      2  C   UNL     1       9.953 -13.083  38.198  1.00  0.00     0.000 C 
BRANCH   2   3
ATOM      3  C   UNL     1       8.507 -12.591  38.030  1.00  0.00     0.000 C 
BRANCH   3   4
ATOM      4  C   UNL     1       7.543 -13.717  37.621  1.00  0.00     0.000 C 
BRANCH   4   5
ATOM      5  C   UNL     1       6.904 -13.474  36.244  1.00  0.00     0.006 C 
BRANCH   5   6
ATOM      6  C   UNL     1       7.482 -12.242  35.535  1.00  0.00     0.053 C 
BRANCH   6   7
ATOM      7  C   UNL     1       8.248 -12.652  34.318  1.00  0.00     0.041 C 
ATOM      8  O   UNL     1       9.364 -12.127  34.064  1.00  0.00    -0.550 OA
ATOM      9  O   UNL     1       7.707 -13.578  33.435  1.00  0.00    -0.550 OA
ENDBRANCH   6   7
ENDBRANCH   5   6
ENDBRANCH   4   5
ENDBRANCH   3   4
ENDBRANCH   2   3
ENDBRANCH   1   2
BRANCH   1  10
ATOM     10  C   UNL     1      11.102 -14.779  36.679  1.00  0.00     0.027 C 
BRANCH  10  11
ATOM     11  C   UNL     1      12.512 -14.407  37.067  1.00  0.00    -0.031 C 
ATOM     12  C   UNL     1      13.199 -13.368  36.557  1.00  0.00    -0.031 C 
BRANCH  12  13
ATOM     13  C   UNL     1      12.633 -12.356  35.591  1.00  0.00     0.027 C 
BRANCH  13  14
ATOM     14  C   UNL     1      13.616 -11.206  35.323  1.00  0.00     0.004 C 
BRANCH  14  15
ATOM     15  C   UNL     1      13.722 -10.245  36.520  1.00  0.00     0.000 C 
BRANCH  15  16
ATOM     16  C   UNL     1      12.372  -9.609  36.889  1.00  0.00    -0.000 C 
BRANCH  16  17
ATOM     17  C   UNL     1      11.933  -9.944  38.322  1.00  0.00    -0.003 C 
ATOM     18  C   UNL     1      13.109 -10.452  39.151  1.00  0.00     0.004 C 
ENDBRANCH  16  17
ENDBRANCH  15  16
ENDBRANCH  14  15
ENDBRANCH  13  14
ENDBRANCH  12  13
ENDBRANCH  10  11
ENDBRANCH   1  10
TORSDOF 13
ENDMDL
MODEL 3
REMARK VINA RESULT:    -5.685      2.347      5.179
REMARK INTER + INTRA:         -12.265
REMARK INTER:                 -10.091
REMARK INTRA:                  -2.174
REMARK UNBOUND:                -2.260
REMARK SMILES CCCCCCC=CCCCCCCCC(=O)[O-]
REMARK SMILES IDX 10 1 11 2 12 3 13 4 14 5 15 6 16 7 17 8 18 9 9 10 8 11 7 12
REMARK SMILES IDX 6 13 5 14 4 15 3 16 2 17 1 18
REMARK H PARENT
REMARK Flexibility Score: inf
ROOT
ATOM      1  C   UNL     1      10.472 -15.313  37.083  1.00  0.00     0.004 C 
ENDROOT
BRANCH   1   2
ATOM      2  C   UNL     1       9.919 -14.825  38.434  1.00  0.00     0.000 C 
BRANCH   2   3
ATOM      3  C   UNL     1       8.518 -14.206  38.308  1.00  0.00     0.000 C 
BRANCH   3   4
ATOM      4  C   UNL     1       8.551 -12.668  38.279  1.00  0.00     0.000 C 
BRANCH   4   5
ATOM      5  C   UNL     1       8.065 -12.093  36.939  1.00  0.00     0.006 C 
BRANCH   5   6
ATOM      6  C   UNL     1       7.582 -13.181  35.971  1.00  0.00     0.053 C 
BRANCH   6   7
ATOM      7  C   UNL     1       8.172 -12.970  34.613  1.00  0.00     0.041 C 
ATOM      8  O   UNL     1       9.172 -12.220  34.465  1.00  0.00    -0.550 OA
ATOM      9  O   UNL     1       7.586 -13.563  33.501  1.00  0.00    -0.550 OA
ENDBRANCH   6   7
ENDBRANCH   5   6
ENDBRANCH   4   5
ENDBRANCH   3   4
ENDBRANCH   2   3
ENDBRANCH   1   2
BRANCH   1  10
ATOM     10  C   UNL     1      11.320 -14.239  36.385  1.00  0.00     0.027 C 
BRANCH  10  11
ATOM     11  C   UNL     1      12.667 -14.070  37.043  1.00  0.00    -0.031 C 
ATOM     12  C   UNL     1      13.059 -12.971  37.713  1.00  0.00    -0.031 C 
BRANCH  12  13
ATOM     13  C   UNL     1      12.180 -11.776  37.994  1.00  0.00     0.027 C 
BRANCH  13  14
ATOM     14  C   UNL     1      12.990 -10.473  38.076  1.00  0.00     0.004 C 
BRANCH  14  15
ATOM     15  C   UNL     1      13.351  -9.927  36.683  1.00  0.00     0.000 C 
BRANCH  15  16
ATOM     16  C   UNL     1      12.298 -10.278  35.620  1.00  0.00    -0.000 C 
BRANCH  16  17
ATOM     17  C   UNL     1      12.916 -10.891  34.355  1.00  0.00    -0.003 C 
ATOM     18  C   UNL     1      14.341 -11.368  34.617  1.00  0.00     0.004 C 
ENDBRANCH  16  17
ENDBRANCH  15  16
ENDBRANCH  14  15
ENDBRANCH  13  14
ENDBRANCH  12  13
ENDBRANCH  10  11
ENDBRANCH   1  10
TORSDOF 13
ENDMDL
MODEL 4
REMARK VINA RESULT:    -5.676      2.309      5.363
REMARK INTER + INTRA:         -12.250
REMARK INTER:                 -10.367
REMARK INTRA:                  -1.882
REMARK UNBOUND:                -2.260
REMARK SMILES CCCCCCC=CCCCCCCCC(=O)[O-]
REMARK SMILES IDX 10 1 11 2 12 3 13 4 14 5 15 6 16 7 17 8 18 9 9 10 8 11 7 12
REMARK SMILES IDX 6 13 5 14 4 15 3 16 2 17 1 18
REMARK H PARENT
REMARK Flexibility Score: inf
ROOT
ATOM      1  C   UNL     1      11.701 -14.726  37.031  1.00  0.00     0.004 C 
ENDROOT
BRANCH   1   2
ATOM      2  C   UNL     1      10.222 -14.437  36.719  1.00  0.00     0.000 C 
BRANCH   2   3
ATOM      3  C   UNL     1       9.661 -13.271  37.549  1.00  0.00     0.000 C 
BRANCH   3   4
ATOM      4  C   UNL     1       8.131 -13.328  37.689  1.00  0.00     0.000 C 
BRANCH   4   5
ATOM      5  C   UNL     1       7.424 -13.564  36.344  1.00  0.00     0.006 C 
BRANCH   5   6
ATOM      6  C   UNL     1       7.469 -12.332  35.430  1.00  0.00     0.053 C 
BRANCH   6   7
ATOM      7  C   UNL     1       8.123 -12.671  34.129  1.00  0.00     0.041 C 
ATOM      8  O   UNL     1       9.134 -12.029  33.741  1.00  0.00    -0.550 OA
ATOM      9  O   UNL     1       7.586 -13.664  33.318  1.00  0.00    -0.550 OA
ENDBRANCH   6   7
ENDBRANCH   5   6
ENDBRANCH   4   5
ENDBRANCH   3   4
ENDBRANCH   2   3
ENDBRANCH   1   2
BRANCH   1  10
ATOM     10  C   UNL     1      12.571 -13.466  36.919  1.00  0.00     0.027 C 
BRANCH  10  11
ATOM     11  C   UNL     1      13.351 -13.433  35.628  1.00  0.00    -0.031 C 
ATOM     12  C   UNL     1      13.691 -12.312  34.966  1.00  0.00    -0.031 C 
BRANCH  12  13
ATOM     13  C   UNL     1      13.430 -10.910  35.461  1.00  0.00     0.027 C 
BRANCH  13  14
ATOM     14  C   UNL     1      12.025 -10.418  35.083  1.00  0.00     0.004 C 
BRANCH  14  15
ATOM     15  C   UNL     1      11.168 -10.105  36.322  1.00  0.00     0.000 C 
BRANCH  15  16
ATOM     16  C   UNL     1      12.000  -9.557  37.492  1.00  0.00    -0.000 C 
BRANCH  16  17
ATOM     17  C   UNL     1      11.806 -10.363  38.785  1.00  0.00    -0.003 C 
ATOM     18  C   UNL     1      13.087 -10.387  39.613  1.00  0.00     0.004 C 
ENDBRANCH  16  17
ENDBRANCH  15  16
ENDBRANCH  14  15
ENDBRANCH  13  14
ENDBRANCH  12  13
ENDBRANCH  10  11
ENDBRANCH   1  10
TORSDOF 13
ENDMDL
MODEL 5
REMARK VINA RESULT:    -5.609      1.183      3.080
REMARK INTER + INTRA:         -12.132
REMARK INTER:                 -10.566
REMARK INTRA:                  -1.566
REMARK UNBOUND:                -2.260
REMARK SMILES CCCCCCC=CCCCCCCCC(=O)[O-]
REMARK SMILES IDX 10 1 11 2 12 3 13 4 14 5 15 6 16 7 17 8 18 9 9 10 8 11 7 12
REMARK SMILES IDX 6 13 5 14 4 15 3 16 2 17 1 18
REMARK H PARENT
REMARK Flexibility Score: inf
ROOT
ATOM      1  C   UNL     1       9.972 -11.998  35.380  1.00  0.00     0.004 C 
ENDROOT
BRANCH   1   2
ATOM      2  C   UNL     1      11.144 -11.229  34.744  1.00  0.00     0.000 C 
BRANCH   2   3
ATOM      3  C   UNL     1      12.510 -11.839  35.098  1.00  0.00     0.000 C 
BRANCH   3   4
ATOM      4  C   UNL     1      13.596 -10.770  35.312  1.00  0.00     0.000 C 
BRANCH   4   5
ATOM      5  C   UNL     1      13.730 -10.353  36.786  1.00  0.00     0.006 C 
BRANCH   5   6
ATOM      6  C   UNL     1      13.167 -11.407  37.750  1.00  0.00     0.053 C 
BRANCH   6   7
ATOM      7  C   UNL     1      12.392 -10.749  38.847  1.00  0.00     0.041 C 
ATOM      8  O   UNL     1      12.989 -10.098  39.743  1.00  0.00    -0.550 OA
ATOM      9  O   UNL     1      11.012 -10.897  38.908  1.00  0.00    -0.550 OA
ENDBRANCH   6   7
ENDBRANCH   5   6
ENDBRANCH   4   5
ENDBRANCH   3   4
ENDBRANCH   2   3
ENDBRANCH   1   2
BRANCH   1  10
ATOM     10  C   UNL     1       8.850 -12.279  34.371  1.00  0.00     0.027 C 
BRANCH  10  11
ATOM     11  C   UNL     1       8.040 -13.493  34.754  1.00  0.00    -0.031 C 
ATOM     12  C   UNL     1       7.380 -13.637  35.918  1.00  0.00    -0.031 C 
BRANCH  12  13
ATOM     13  C   UNL     1       7.265 -12.570  36.979  1.00  0.00     0.027 C 
BRANCH  13  14
ATOM     14  C   UNL     1       8.127 -12.889  38.210  1.00  0.00     0.004 C 
BRANCH  14  15
ATOM     15  C   UNL     1       7.898 -14.321  38.722  1.00  0.00     0.000 C 
BRANCH  15  16
ATOM     16  C   UNL     1       9.197 -15.138  38.796  1.00  0.00    -0.000 C 
BRANCH  16  17
ATOM     17  C   UNL     1      10.350 -14.487  38.017  1.00  0.00    -0.003 C 
ATOM     18  C   UNL     1      10.732 -15.326  36.801  1.00  0.00     0.004 C 
ENDBRANCH  16  17
ENDBRANCH  15  16
ENDBRANCH  14  15
ENDBRANCH  13  14
ENDBRANCH  12  13
ENDBRANCH  10  11
ENDBRANCH   1  10
TORSDOF 13
ENDMDL
MODEL 6
REMARK VINA RESULT:    -5.583      1.981      2.553
REMARK INTER + INTRA:         -12.086
REMARK INTER:                  -9.954
REMARK INTRA:                  -2.132
REMARK UNBOUND:                -2.260
REMARK SMILES CCCCCCC=CCCCCCCCC(=O)[O-]
REMARK SMILES IDX 10 1 11 2 12 3 13 4 14 5 15 6 16 7 17 8 18 9 9 10 8 11 7 12
REMARK SMILES IDX 6 13 5 14 4 15 3 16 2 17 1 18
REMARK H PARENT
REMARK Flexibility Score: inf
ROOT
ATOM      1  C   UNL     1      11.462 -13.853  36.249  1.00  0.00     0.004 C 
ENDROOT
BRANCH   1   2
ATOM      2  C   UNL     1      12.746 -13.954  37.091  1.00  0.00     0.000 C 
BRANCH   2   3
ATOM      3  C   UNL     1      13.093 -12.634  37.797  1.00  0.00     0.000 C 
BRANCH   3   4
ATOM      4  C   UNL     1      11.927 -11.631  37.782  1.00  0.00     0.000 C 
BRANCH   4   5
ATOM      5  C   UNL     1      12.322 -10.277  37.170  1.00  0.00     0.006 C 
BRANCH   5   6
ATOM      6  C   UNL     1      13.559 -10.377  36.267  1.00  0.00     0.053 C 
BRANCH   6   7
ATOM      7  C   UNL     1      13.163 -10.777  34.881  1.00  0.00     0.041 C 
ATOM      8  O   UNL     1      14.020 -11.244  34.087  1.00  0.00    -0.550 OA
ATOM      9  O   UNL     1      11.856 -10.587  34.450  1.00  0.00    -0.550 OA
ENDBRANCH   6   7
ENDBRANCH   5   6
ENDBRANCH   4   5
ENDBRANCH   3   4
ENDBRANCH   2   3
ENDBRANCH   1   2
BRANCH   1  10
ATOM     10  C   UNL     1      10.468 -14.977  36.573  1.00  0.00     0.027 C 
BRANCH  10  11
ATOM     11  C   UNL     1      10.294 -15.163  38.061  1.00  0.00    -0.031 C 
ATOM     12  C   UNL     1       9.269 -14.671  38.780  1.00  0.00    -0.031 C 
BRANCH  12  13
ATOM     13  C   UNL     1       8.083 -13.940  38.198  1.00  0.00     0.027 C 
BRANCH  13  14
ATOM     14  C   UNL     1       8.375 -12.447  37.987  1.00  0.00     0.004 C 
BRANCH  14  15
ATOM     15  C   UNL     1       7.788 -11.924  36.664  1.00  0.00     0.000 C 
BRANCH  15  16
ATOM     16  C   UNL     1       7.131 -13.034  35.830  1.00  0.00    -0.000 C 
BRANCH  16  17
ATOM     17  C   UNL     1       7.980 -13.445  34.617  1.00  0.00    -0.003 C 
ATOM     18  C   UNL     1       8.585 -12.224  33.933  1.00  0.00     0.004 C 
ENDBRANCH  16  17
ENDBRANCH  15  16
ENDBRANCH  14  15
ENDBRANCH  13  14
ENDBRANCH  12  13
ENDBRANCH  10  11
ENDBRANCH   1  10
TORSDOF 13
ENDMDL
MODEL 7
REMARK VINA RESULT:    -5.538      2.453      5.560
REMARK INTER + INTRA:         -12.006
REMARK INTER:                  -9.988
REMARK INTRA:                  -2.017
REMARK UNBOUND:                -2.260
REMARK SMILES CCCCCCC=CCCCCCCCC(=O)[O-]
REMARK SMILES IDX 10 1 11 2 12 3 13 4 14 5 15 6 16 7 17 8 18 9 9 10 8 11 7 12
REMARK SMILES IDX 6 13 5 14 4 15 3 16 2 17 1 18
REMARK H PARENT
REMARK Flexibility Score: inf
ROOT
ATOM      1  C   UNL     1      10.862 -10.819  39.016  1.00  0.00     0.004 C 
ENDROOT
BRANCH   1   2
ATOM      2  C   UNL     1      10.046 -11.515  37.913  1.00  0.00     0.000 C 
BRANCH   2   3
ATOM      3  C   UNL     1       8.691 -12.033  38.420  1.00  0.00     0.000 C 
BRANCH   3   4
ATOM      4  C   UNL     1       8.452 -13.510  38.064  1.00  0.00     0.000 C 
BRANCH   4   5
ATOM      5  C   UNL     1       7.504 -13.683  36.867  1.00  0.00     0.006 C 
BRANCH   5   6
ATOM      6  C   UNL     1       8.247 -13.712  35.525  1.00  0.00     0.053 C 
BRANCH   6   7
ATOM      7  C   UNL     1       7.995 -12.451  34.761  1.00  0.00     0.041 C 
ATOM      8  O   UNL     1       8.597 -12.236  33.677  1.00  0.00    -0.550 OA
ATOM      9  O   UNL     1       7.132 -11.489  35.272  1.00  0.00    -0.550 OA
ENDBRANCH   6   7
ENDBRANCH   5   6
ENDBRANCH   4   5
ENDBRANCH   3   4
ENDBRANCH   2   3
ENDBRANCH   1   2
BRANCH   1  10
ATOM     10  C   UNL     1      11.853  -9.795  38.442  1.00  0.00     0.027 C 
BRANCH  10  11
ATOM     11  C   UNL     1      13.246 -10.364  38.327  1.00  0.00    -0.031 C 
ATOM     12  C   UNL     1      13.872 -10.627  37.165  1.00  0.00    -0.031 C 
BRANCH  12  13
ATOM     13  C   UNL     1      13.320 -10.305  35.798  1.00  0.00     0.027 C 
BRANCH  13  14
ATOM     14  C   UNL     1      13.840 -11.273  34.725  1.00  0.00     0.004 C 
BRANCH  14  15
ATOM     15  C   UNL     1      13.542 -12.741  35.076  1.00  0.00     0.000 C 
BRANCH  15  16
ATOM     16  C   UNL     1      12.067 -12.973  35.439  1.00  0.00    -0.000 C 
BRANCH  16  17
ATOM     17  C   UNL     1      11.877 -14.136  36.425  1.00  0.00    -0.003 C 
ATOM     18  C   UNL     1      13.043 -14.220  37.406  1.00  0.00     0.004 C 
ENDBRANCH  16  17
ENDBRANCH  15  16
ENDBRANCH  14  15
ENDBRANCH  13  14
ENDBRANCH  12  13
ENDBRANCH  10  11
ENDBRANCH   1  10
TORSDOF 13
ENDMDL
MODEL 8
REMARK VINA RESULT:    -5.460      2.025      3.814
REMARK INTER + INTRA:         -11.869
REMARK INTER:                  -9.656
REMARK INTRA:                  -2.213
REMARK UNBOUND:                -2.260
REMARK SMILES CCCCCCC=CCCCCCCCC(=O)[O-]
REMARK SMILES IDX 10 1 11 2 12 3 13 4 14 5 15 6 16 7 17 8 18 9 9 10 8 11 7 12
REMARK SMILES IDX 6 13 5 14 4 15 3 16 2 17 1 18
REMARK H PARENT
REMARK Flexibility Score: inf
ROOT
ATOM      1  C   UNL     1      10.192 -11.936  34.926  1.00  0.00     0.004 C 
ENDROOT
BRANCH   1   2
ATOM      2  C   UNL     1      10.278 -10.779  35.938  1.00  0.00     0.000 C 
BRANCH   2   3
ATOM      3  C   UNL     1      10.618 -11.261  37.357  1.00  0.00     0.000 C 
BRANCH   3   4
ATOM      4  C   UNL     1      11.848 -10.548  37.943  1.00  0.00     0.000 C 
BRANCH   4   5
ATOM      5  C   UNL     1      13.168 -11.233  37.553  1.00  0.00     0.006 C 
BRANCH   5   6
ATOM      6  C   UNL     1      13.817 -10.599  36.315  1.00  0.00     0.053 C 
BRANCH   6   7
ATOM      7  C   UNL     1      13.817 -11.565  35.173  1.00  0.00     0.041 C 
ATOM      8  O   UNL     1      14.045 -11.163  34.003  1.00  0.00    -0.550 OA
ATOM      9  O   UNL     1      13.516 -12.903  35.395  1.00  0.00    -0.550 OA
ENDBRANCH   6   7
ENDBRANCH   5   6
ENDBRANCH   4   5
ENDBRANCH   3   4
ENDBRANCH   2   3
ENDBRANCH   1   2
BRANCH   1  10
ATOM     10  C   UNL     1       8.809 -12.022  34.264  1.00  0.00     0.027 C 
BRANCH  10  11
ATOM     11  C   UNL     1       8.204 -13.398  34.400  1.00  0.00    -0.031 C 
ATOM     12  C   UNL     1       7.566 -13.849  35.496  1.00  0.00    -0.031 C 
BRANCH  12  13
ATOM     13  C   UNL     1       7.269 -13.017  36.720  1.00  0.00     0.027 C 
BRANCH  13  14
ATOM     14  C   UNL     1       7.272 -13.862  38.003  1.00  0.00     0.004 C 
BRANCH  14  15
ATOM     15  C   UNL     1       8.604 -13.754  38.765  1.00  0.00     0.000 C 
BRANCH  15  16
ATOM     16  C   UNL     1       9.503 -14.983  38.562  1.00  0.00    -0.000 C 
BRANCH  16  17
ATOM     17  C   UNL     1      10.819 -14.643  37.846  1.00  0.00    -0.003 C 
ATOM     18  C   UNL     1      10.882 -15.303  36.471  1.00  0.00     0.004 C 
ENDBRANCH  16  17
ENDBRANCH  15  16
ENDBRANCH  14  15
ENDBRANCH  13  14
ENDBRANCH  12  13
ENDBRANCH  10  11
ENDBRANCH   1  10
TORSDOF 13
ENDMDL
MODEL 9
REMARK VINA RESULT:    -5.450      1.871      5.437
REMARK INTER + INTRA:         -11.852
REMARK INTER:                  -9.941
REMARK INTRA:                  -1.911
REMARK UNBOUND:                -2.260
REMARK SMILES CCCCCCC=CCCCCCCCC(=O)[O-]
REMARK SMILES IDX 10 1 11 2 12 3 13 4 14 5 15 6 16 7 17 8 18 9 9 10 8 11 7 12
REMARK SMILES IDX 6 13 5 14 4 15 3 16 2 17 1 18
REMARK H PARENT
REMARK Flexibility Score: inf
ROOT
ATOM      1  C   UNL     1       7.093 -13.464  36.268  1.00  0.00     0.004 C 
ENDROOT
BRANCH   1   2
ATOM      2  C   UNL     1       7.690 -13.786  37.649  1.00  0.00     0.000 C 
BRANCH   2   3
ATOM      3  C   UNL     1       8.679 -12.711  38.128  1.00  0.00     0.000 C 
BRANCH   3   4
ATOM      4  C   UNL     1      10.123 -13.233  38.216  1.00  0.00     0.000 C 
BRANCH   4   5
ATOM      5  C   UNL     1      10.235 -14.722  37.849  1.00  0.00     0.006 C 
BRANCH   5   6
ATOM      6  C   UNL     1      10.952 -14.946  36.511  1.00  0.00     0.053 C 
BRANCH   6   7
ATOM      7  C   UNL     1      12.304 -14.307  36.530  1.00  0.00     0.041 C 
ATOM      8  O   UNL     1      12.668 -13.563  35.582  1.00  0.00    -0.550 OA
ATOM      9  O   UNL     1      13.184 -14.573  37.572  1.00  0.00    -0.550 OA
ENDBRANCH   6   7
ENDBRANCH   5   6
ENDBRANCH   4   5
ENDBRANCH   3   4
ENDBRANCH   2   3
ENDBRANCH   1   2
BRANCH   1  10
ATOM     10  C   UNL     1       7.673 -12.172  35.675  1.00  0.00     0.027 C 
BRANCH  10  11
ATOM     11  C   UNL     1       8.724 -12.454  34.630  1.00  0.00    -0.031 C 
ATOM     12  C   UNL     1       9.949 -11.899  34.606  1.00  0.00    -0.031 C 
BRANCH  12  13
ATOM     13  C   UNL     1      10.498 -10.982  35.672  1.00  0.00     0.027 C 
BRANCH  13  14
ATOM     14  C   UNL     1      11.693 -10.161  35.165  1.00  0.00     0.004 C 
BRANCH  14  15
ATOM     15  C   UNL     1      12.600  -9.688  36.314  1.00  0.00     0.000 C 
BRANCH  15  16
ATOM     16  C   UNL     1      12.662 -10.697  37.471  1.00  0.00    -0.000 C 
BRANCH  16  17
ATOM     17  C   UNL     1      12.240 -10.083  38.815  1.00  0.00    -0.003 C 
ATOM     18  C   UNL     1      13.263 -10.392  39.904  1.00  0.00     0.004 C 
ENDBRANCH  16  17
ENDBRANCH  15  16
ENDBRANCH  14  15
ENDBRANCH  13  14
ENDBRANCH  12  13
ENDBRANCH  10  11
ENDBRANCH   1  10
TORSDOF 13
ENDMDL
