MODEL 1
REMARK VINA RESULT:    22.409      0.000      0.000
REMARK INTER + INTRA:          22.409
REMARK INTER:                  22.409
REMARK INTRA:                   0.000
REMARK UNBOUND:                 0.000
REMARK SMILES C=C1CCC[C@@]2(C)CC(=O)C(=C(C)C)C[C@@H]12
REMARK SMILES IDX 13 1 12 2 11 3 15 4 16 5 2 6 1 7 3 8 4 9 5 10 6 11 8 12 9 13
REMARK SMILES IDX 10 14 7 15 14 16
REMARK H PARENT
REMARK Flexibility Score: inf
ROOT
ATOM      1  C   UNL     1      92.820  10.480 121.124  1.00  0.00     0.039 C 
ATOM      2  C   UNL     1      93.940  11.446 120.814  1.00  0.00    -0.070 C 
ATOM      3  C   UNL     1      93.690  12.756 120.522  1.00  0.00    -0.006 C 
ATOM      4  C   UNL     1      94.804  13.746 120.243  1.00  0.00     0.047 C 
ATOM      5  C   UNL     1      94.494  15.179 120.746  1.00  0.00     0.025 C 
ATOM      6  C   UNL     1      95.553  16.125 120.203  1.00  0.00    -0.073 C 
ATOM      7  C   UNL     1      96.599  16.487 120.964  1.00  0.00     0.008 C 
ATOM      8  C   UNL     1      95.494  16.524 118.743  1.00  0.00     0.031 C 
ATOM      9  C   UNL     1      94.077  16.939 118.327  1.00  0.00     0.005 C 
ATOM     10  C   UNL     1      92.999  15.954 118.819  1.00  0.00     0.008 C 
ATOM     11  C   UNL     1      93.072  15.695 120.354  1.00  0.00    -0.018 C 
ATOM     12  C   UNL     1      91.991  14.663 120.772  1.00  0.00     0.088 C 
ATOM     13  C   UNL     1      92.318  13.275 120.325  1.00  0.00     0.159 C 
ATOM     14  O   UNL     1      91.422  12.570 119.788  1.00  0.00    -0.295 OA
ATOM     15  C   UNL     1      92.762  17.006 121.123  1.00  0.00     0.012 C 
ATOM     16  C   UNL     1      95.352  10.912 120.876  1.00  0.00     0.039 C 
ENDROOT
TORSDOF 0
ENDMDL
MODEL 2
REMARK VINA RESULT:    23.492      1.518      3.128
REMARK INTER + INTRA:          23.492
REMARK INTER:                  23.492
REMARK INTRA:                   0.000
REMARK UNBOUND:                 0.000
REMARK SMILES C=C1CCC[C@@]2(C)CC(=O)C(=C(C)C)C[C@@H]12
REMARK SMILES IDX 13 1 12 2 11 3 15 4 16 5 2 6 1 7 3 8 4 9 5 10 6 11 8 12 9 13
REMARK SMILES IDX 10 14 7 15 14 16
REMARK H PARENT
REMARK Flexibility Score: inf
ROOT
ATOM      1  C   UNL     1      93.212  10.024 120.483  1.00  0.00     0.039 C 
ATOM      2  C   UNL     1      92.490  11.351 120.480  1.00  0.00    -0.070 C 
ATOM      3  C   UNL     1      93.166  12.529 120.347  1.00  0.00    -0.006 C 
ATOM      4  C   UNL     1      92.454  13.867 120.306  1.00  0.00     0.047 C 
ATOM      5  C   UNL     1      93.140  14.902 119.379  1.00  0.00     0.025 C 
ATOM      6  C   UNL     1      92.494  16.260 119.602  1.00  0.00    -0.073 C 
ATOM      7  C   UNL     1      91.539  16.706 118.770  1.00  0.00     0.008 C 
ATOM      8  C   UNL     1      92.829  17.027 120.864  1.00  0.00     0.031 C 
ATOM      9  C   UNL     1      94.340  17.055 121.125  1.00  0.00     0.005 C 
ATOM     10  C   UNL     1      94.998  15.671 120.962  1.00  0.00     0.008 C 
ATOM     11  C   UNL     1      94.685  15.011 119.586  1.00  0.00    -0.018 C 
ATOM     12  C   UNL     1      95.340  13.606 119.508  1.00  0.00     0.088 C 
ATOM     13  C   UNL     1      94.644  12.600 120.367  1.00  0.00     0.159 C 
ATOM     14  O   UNL     1      95.327  11.830 121.095  1.00  0.00    -0.295 OA
ATOM     15  C   UNL     1      95.306  15.859 118.444  1.00  0.00     0.012 C 
ATOM     16  C   UNL     1      90.983  11.319 120.593  1.00  0.00     0.039 C 
ENDROOT
TORSDOF 0
ENDMDL
MODEL 3
REMARK VINA RESULT:    25.260      2.183      4.697
REMARK INTER + INTRA:          25.260
REMARK INTER:                  25.260
REMARK INTRA:                   0.000
REMARK UNBOUND:                 0.000
REMARK SMILES C=C1CCC[C@@]2(C)CC(=O)C(=C(C)C)C[C@@H]12
REMARK SMILES IDX 13 1 12 2 11 3 15 4 16 5 2 6 1 7 3 8 4 9 5 10 6 11 8 12 9 13
REMARK SMILES IDX 10 14 7 15 14 16
REMARK H PARENT
REMARK Flexibility Score: inf
ROOT
ATOM      1  C   UNL     1      89.750  18.376 118.903  1.00  0.00     0.039 C 
ATOM      2  C   UNL     1      90.918  18.119 119.825  1.00  0.00    -0.070 C 
ATOM      3  C   UNL     1      91.917  17.253 119.485  1.00  0.00    -0.006 C 
ATOM      4  C   UNL     1      93.113  17.009 120.383  1.00  0.00     0.047 C 
ATOM      5  C   UNL     1      94.425  16.742 119.602  1.00  0.00     0.025 C 
ATOM      6  C   UNL     1      95.489  16.275 120.583  1.00  0.00    -0.073 C 
ATOM      7  C   UNL     1      96.396  17.139 121.068  1.00  0.00     0.008 C 
ATOM      8  C   UNL     1      95.412  14.863 121.124  1.00  0.00     0.031 C 
ATOM      9  C   UNL     1      95.166  13.841 120.006  1.00  0.00     0.005 C 
ATOM     10  C   UNL     1      94.046  14.274 119.040  1.00  0.00     0.008 C 
ATOM     11  C   UNL     1      94.274  15.698 118.449  1.00  0.00    -0.018 C 
ATOM     12  C   UNL     1      93.090  16.085 117.523  1.00  0.00     0.088 C 
ATOM     13  C   UNL     1      91.840  16.389 118.285  1.00  0.00     0.159 C 
ATOM     14  O   UNL     1      90.744  15.906 117.894  1.00  0.00    -0.295 OA
ATOM     15  C   UNL     1      95.552  15.703 117.569  1.00  0.00     0.012 C 
ATOM     16  C   UNL     1      90.956  18.889 121.125  1.00  0.00     0.039 C 
ENDROOT
TORSDOF 0
ENDMDL
