MODEL 1
REMARK VINA RESULT:    -3.701      0.000      0.000
REMARK INTER + INTRA:          -3.949
REMARK INTER:                  -3.917
REMARK INTRA:                  -0.032
REMARK UNBOUND:                -0.032
REMARK SMILES COc1ccc2ccc(=O)oc2c1
REMARK SMILES IDX 3 1 13 2 12 3 6 4 5 5 4 6 7 7 8 8 9 9 10 10 11 11 2 12 1 13
REMARK H PARENT
REMARK Flexibility Score: inf
ROOT
ATOM      1  C   UNL     1       8.929  17.113  37.442  1.00  0.00     0.122 A 
ATOM      2  C   UNL     1       8.404  18.138  38.240  1.00  0.00     0.094 A 
ATOM      3  C   UNL     1       8.080  17.902  39.580  1.00  0.00     0.142 A 
ATOM      4  C   UNL     1       8.281  16.619  40.133  1.00  0.00     0.018 A 
ATOM      5  C   UNL     1       8.805  15.590  39.341  1.00  0.00     0.016 A 
ATOM      6  C   UNL     1       9.128  15.835  38.002  1.00  0.00     0.047 A 
ATOM      7  C   UNL     1       7.947  16.411  41.475  1.00  0.00     0.019 A 
ATOM      8  C   UNL     1       7.428  17.469  42.222  1.00  0.00     0.094 A 
ATOM      9  C   UNL     1       7.256  18.714  41.607  1.00  0.00     0.336 A 
ATOM     10  O   UNL     1       6.789  19.680  42.264  1.00  0.00    -0.246 OA
ATOM     11  O   UNL     1       7.582  18.883  40.328  1.00  0.00    -0.423 OA
ENDROOT
BRANCH   1  12
ATOM     12  O   UNL     1       9.238  17.404  36.105  1.00  0.00    -0.497 OA
ATOM     13  C   UNL     1       8.866  16.589  34.999  1.00  0.00     0.278 C 
ENDBRANCH   1  12
TORSDOF 1
ENDMDL
MODEL 2
REMARK VINA RESULT:    -3.581      0.984      4.801
REMARK INTER + INTRA:          -3.822
REMARK INTER:                  -3.788
REMARK INTRA:                  -0.034
REMARK UNBOUND:                -0.032
REMARK SMILES COc1ccc2ccc(=O)oc2c1
REMARK SMILES IDX 3 1 13 2 12 3 6 4 5 5 4 6 7 7 8 8 9 9 10 10 11 11 2 12 1 13
REMARK H PARENT
REMARK Flexibility Score: inf
ROOT
ATOM      1  C   UNL     1       7.354  18.914  41.338  1.00  0.00     0.122 A 
ATOM      2  C   UNL     1       7.660  19.030  39.975  1.00  0.00     0.094 A 
ATOM      3  C   UNL     1       8.139  17.929  39.258  1.00  0.00     0.142 A 
ATOM      4  C   UNL     1       8.316  16.690  39.912  1.00  0.00     0.018 A 
ATOM      5  C   UNL     1       8.013  16.569  41.274  1.00  0.00     0.016 A 
ATOM      6  C   UNL     1       7.534  17.675  41.984  1.00  0.00     0.047 A 
ATOM      7  C   UNL     1       8.798  15.607  39.170  1.00  0.00     0.019 A 
ATOM      8  C   UNL     1       9.085  15.779  37.817  1.00  0.00     0.094 A 
ATOM      9  C   UNL     1       8.884  17.036  37.235  1.00  0.00     0.336 A 
ATOM     10  O   UNL     1       9.138  17.212  36.015  1.00  0.00    -0.246 OA
ATOM     11  O   UNL     1       8.426  18.049  37.965  1.00  0.00    -0.423 OA
ENDROOT
BRANCH   1  12
ATOM     12  O   UNL     1       6.877  20.050  42.010  1.00  0.00    -0.497 OA
ATOM     13  C   UNL     1       5.946  20.015  43.087  1.00  0.00     0.278 C 
ENDBRANCH   1  12
TORSDOF 1
ENDMDL
MODEL 3
REMARK VINA RESULT:    -2.273      1.486      2.180
REMARK INTER + INTRA:          -2.438
REMARK INTER:                  -2.404
REMARK INTRA:                  -0.034
REMARK UNBOUND:                -0.032
REMARK SMILES COc1ccc2ccc(=O)oc2c1
REMARK SMILES IDX 3 1 13 2 12 3 6 4 5 5 4 6 7 7 8 8 9 9 10 10 11 11 2 12 1 13
REMARK H PARENT
REMARK Flexibility Score: inf
ROOT
ATOM      1  C   UNL     1       8.824  16.722  37.444  1.00  0.00     0.122 A 
ATOM      2  C   UNL     1       8.637  16.060  38.664  1.00  0.00     0.094 A 
ATOM      3  C   UNL     1       8.219  16.764  39.798  1.00  0.00     0.142 A 
ATOM      4  C   UNL     1       7.984  18.153  39.713  1.00  0.00     0.018 A 
ATOM      5  C   UNL     1       8.171  18.820  38.496  1.00  0.00     0.016 A 
ATOM      6  C   UNL     1       8.588  18.109  37.366  1.00  0.00     0.047 A 
ATOM      7  C   UNL     1       7.568  18.831  40.863  1.00  0.00     0.019 A 
ATOM      8  C   UNL     1       7.397  18.121  42.051  1.00  0.00     0.094 A 
ATOM      9  C   UNL     1       7.648  16.744  42.061  1.00  0.00     0.336 A 
ATOM     10  O   UNL     1       7.500  16.086  43.123  1.00  0.00    -0.246 OA
ATOM     11  O   UNL     1       8.043  16.125  40.952  1.00  0.00    -0.423 OA
ENDROOT
BRANCH   1  12
ATOM     12  O   UNL     1       9.244  15.968  36.337  1.00  0.00    -0.497 OA
ATOM     13  C   UNL     1       8.963  16.305  34.982  1.00  0.00     0.278 C 
ENDBRANCH   1  12
TORSDOF 1
ENDMDL
MODEL 4
REMARK VINA RESULT:    -2.112     22.746     24.457
REMARK INTER + INTRA:          -2.268
REMARK INTER:                  -2.233
REMARK INTRA:                  -0.035
REMARK UNBOUND:                -0.032
REMARK SMILES COc1ccc2ccc(=O)oc2c1
REMARK SMILES IDX 3 1 13 2 12 3 6 4 5 5 4 6 7 7 8 8 9 9 10 10 11 11 2 12 1 13
REMARK H PARENT
REMARK Flexibility Score: inf
ROOT
ATOM      1  C   UNL     1      24.995   5.716  24.504  1.00  0.00     0.122 A 
ATOM      2  C   UNL     1      24.633   6.278  25.735  1.00  0.00     0.094 A 
ATOM      3  C   UNL     1      25.008   5.664  26.934  1.00  0.00     0.142 A 
ATOM      4  C   UNL     1      25.756   4.467  26.905  1.00  0.00     0.018 A 
ATOM      5  C   UNL     1      26.120   3.901  25.677  1.00  0.00     0.016 A 
ATOM      6  C   UNL     1      25.742   4.521  24.482  1.00  0.00     0.047 A 
ATOM      7  C   UNL     1      26.116   3.875  28.120  1.00  0.00     0.019 A 
ATOM      8  C   UNL     1      25.729   4.479  29.316  1.00  0.00     0.094 A 
ATOM      9  C   UNL     1      24.988   5.666  29.269  1.00  0.00     0.336 A 
ATOM     10  O   UNL     1      24.629   6.226  30.337  1.00  0.00    -0.246 OA
ATOM     11  O   UNL     1      24.659   6.207  28.098  1.00  0.00    -0.423 OA
ENDROOT
BRANCH   1  12
ATOM     12  O   UNL     1      24.593   6.372  23.330  1.00  0.00    -0.497 OA
ATOM     13  C   UNL     1      25.081   7.643  22.913  1.00  0.00     0.278 C 
ENDBRANCH   1  12
TORSDOF 1
ENDMDL
MODEL 5
REMARK VINA RESULT:    -1.680      1.713      5.159
REMARK INTER + INTRA:          -1.810
REMARK INTER:                  -1.775
REMARK INTRA:                  -0.035
REMARK UNBOUND:                -0.032
REMARK SMILES COc1ccc2ccc(=O)oc2c1
REMARK SMILES IDX 3 1 13 2 12 3 6 4 5 5 4 6 7 7 8 8 9 9 10 10 11 11 2 12 1 13
REMARK H PARENT
REMARK Flexibility Score: inf
ROOT
ATOM      1  C   UNL     1       7.748  16.930  41.551  1.00  0.00     0.122 A 
ATOM      2  C   UNL     1       8.142  16.084  40.506  1.00  0.00     0.094 A 
ATOM      3  C   UNL     1       8.376  16.597  39.226  1.00  0.00     0.142 A 
ATOM      4  C   UNL     1       8.213  17.978  38.983  1.00  0.00     0.018 A 
ATOM      5  C   UNL     1       7.818  18.828  40.024  1.00  0.00     0.016 A 
ATOM      6  C   UNL     1       7.587  18.308  41.302  1.00  0.00     0.047 A 
ATOM      7  C   UNL     1       8.453  18.462  37.693  1.00  0.00     0.019 A 
ATOM      8  C   UNL     1       8.845  17.574  36.692  1.00  0.00     0.094 A 
ATOM      9  C   UNL     1       8.987  16.217  37.005  1.00  0.00     0.336 A 
ATOM     10  O   UNL     1       9.338  15.400  36.115  1.00  0.00    -0.246 OA
ATOM     11  O   UNL     1       8.751  15.784  38.241  1.00  0.00    -0.423 OA
ENDROOT
BRANCH   1  12
ATOM     12  O   UNL     1       7.526  16.364  42.816  1.00  0.00    -0.497 OA
ATOM     13  C   UNL     1       6.451  15.483  43.125  1.00  0.00     0.278 C 
ENDBRANCH   1  12
TORSDOF 1
ENDMDL
MODEL 6
REMARK VINA RESULT:    -1.544     22.595     24.948
REMARK INTER + INTRA:          -1.667
REMARK INTER:                  -1.632
REMARK INTRA:                  -0.035
REMARK UNBOUND:                -0.032
REMARK SMILES COc1ccc2ccc(=O)oc2c1
REMARK SMILES IDX 3 1 13 2 12 3 6 4 5 5 4 6 7 7 8 8 9 9 10 10 11 11 2 12 1 13
REMARK H PARENT
REMARK Flexibility Score: inf
ROOT
ATOM      1  C   UNL     1      24.994   5.388  28.460  1.00  0.00     0.122 A 
ATOM      2  C   UNL     1      24.627   6.201  27.380  1.00  0.00     0.094 A 
ATOM      3  C   UNL     1      25.000   5.862  26.076  1.00  0.00     0.142 A 
ATOM      4  C   UNL     1      25.754   4.691  25.845  1.00  0.00     0.018 A 
ATOM      5  C   UNL     1      26.124   3.875  26.921  1.00  0.00     0.016 A 
ATOM      6  C   UNL     1      25.747   4.221  28.223  1.00  0.00     0.047 A 
ATOM      7  C   UNL     1      26.113   4.377  24.530  1.00  0.00     0.019 A 
ATOM      8  C   UNL     1      25.719   5.223  23.493  1.00  0.00     0.094 A 
ATOM      9  C   UNL     1      24.973   6.366  23.797  1.00  0.00     0.336 A 
ATOM     10  O   UNL     1      24.608   7.142  22.875  1.00  0.00    -0.246 OA
ATOM     11  O   UNL     1      24.645   6.641  25.057  1.00  0.00    -0.423 OA
ENDROOT
BRANCH   1  12
ATOM     12  O   UNL     1      24.595   5.775  29.749  1.00  0.00    -0.497 OA
ATOM     13  C   UNL     1      25.276   5.411  30.945  1.00  0.00     0.278 C 
ENDBRANCH   1  12
TORSDOF 1
ENDMDL
