MODEL 1
REMARK VINA RESULT:    12.483      0.000      0.000
REMARK INTER + INTRA:          17.994
REMARK INTER:                  18.320
REMARK INTRA:                  -0.327
REMARK UNBOUND:                -0.327
REMARK SMILES C=C1C=C[C@@H](C(C)C)CCC(C)=CCC1
REMARK SMILES IDX 3 1 4 2 5 3 9 4 10 5 11 6 12 7 13 8 6 10 7 11 8 12 2 13 1 14
REMARK SMILES IDX 15 15 14 16
REMARK H PARENT
REMARK Flexibility Score: 70.00
ROOT
ATOM      1  C   UNL     1     145.935 143.635 163.974  1.00  0.00    -0.001 C 
ATOM      2  C   UNL     1     145.086 144.318 163.201  1.00  0.00    -0.023 C 
ENDROOT
BRANCH   2   3
ATOM      3  C   UNL     1     145.589 145.434 162.317  1.00  0.00     0.014 C 
BRANCH   3   4
ATOM      4  C   UNL     1     145.368 146.793 163.040  1.00  0.00     0.012 C 
BRANCH   4   5
ATOM      5  C   UNL     1     146.198 147.010 164.333  1.00  0.00     0.031 C 
BRANCH   5   6
ATOM      6  C   UNL     1     145.364 147.314 165.573  1.00  0.00    -0.077 C 
ATOM      7  C   UNL     1     144.591 148.610 165.622  1.00  0.00     0.039 C 
ATOM      8  C   UNL     1     145.194 146.453 166.613  1.00  0.00    -0.028 CG0
ATOM      9  G   UNL     1     145.778 145.061 166.765  1.00  0.00     0.000 G0
ENDBRANCH   5   6
ENDBRANCH   4   5
ENDBRANCH   3   4
BRANCH   3  10
ATOM     10  C   UNL     1     144.882 145.380 160.929  1.00  0.00    -0.010 C 
ATOM     11  C   UNL     1     144.653 146.784 160.344  1.00  0.00     0.008 C 
ATOM     12  C   UNL     1     145.695 144.542 159.928  1.00  0.00     0.008 C 
ENDBRANCH   3  10
ENDBRANCH   2   3
BRANCH   1  13
ATOM     13  C   UNL     1     145.495 143.045 165.249  1.00  0.00    -0.055 C 
ATOM     14  C   UNL     1     145.642 141.738 165.497  1.00  0.00     0.012 C 
BRANCH  13  15
ATOM     15  C   UNL     1     144.815 143.954 166.244  1.00  0.00     0.039 C 
BRANCH  15  16
ATOM     16  C   UNL     1     145.769 145.051 166.764  1.00  0.00     0.032 CG0
ATOM     17  G   UNL     1     145.196 146.445 166.587  1.00  0.00     0.000 G0
ENDBRANCH  15  16
ENDBRANCH  13  15
ENDBRANCH   1  13
TORSDOF 1
ENDMDL
MODEL 2
REMARK VINA RESULT:    12.530      0.790      3.509
REMARK INTER + INTRA:          18.064
REMARK INTER:                  18.405
REMARK INTRA:                  -0.340
REMARK UNBOUND:                -0.327
REMARK SMILES C=C1C=C[C@@H](C(C)C)CCC(C)=CCC1
REMARK SMILES IDX 3 1 4 2 5 3 9 4 10 5 11 6 12 7 13 8 6 10 7 11 8 12 2 13 1 14
REMARK SMILES IDX 15 15 14 16
REMARK H PARENT
REMARK Flexibility Score: 70.00
ROOT
ATOM      1  C   UNL     1     144.864 147.168 163.972  1.00  0.00    -0.001 C 
ATOM      2  C   UNL     1     145.715 146.471 163.215  1.00  0.00    -0.023 C 
ENDROOT
BRANCH   2   3
ATOM      3  C   UNL     1     145.207 145.373 162.311  1.00  0.00     0.014 C 
BRANCH   3   4
ATOM      4  C   UNL     1     145.401 144.002 163.019  1.00  0.00     0.012 C 
BRANCH   4   5
ATOM      5  C   UNL     1     144.559 143.784 164.304  1.00  0.00     0.031 C 
BRANCH   5   6
ATOM      6  C   UNL     1     145.381 143.461 165.548  1.00  0.00    -0.077 C 
ATOM      7  C   UNL     1     146.134 142.153 165.594  1.00  0.00     0.039 C 
ATOM      8  C   UNL     1     145.557 144.313 166.593  1.00  0.00    -0.028 CG0
ATOM      9  G   UNL     1     144.992 145.713 166.749  1.00  0.00     0.000 G0
ENDBRANCH   5   6
ENDBRANCH   4   5
ENDBRANCH   3   4
BRANCH   3  10
ATOM     10  C   UNL     1     145.930 145.435 160.932  1.00  0.00    -0.010 C 
ATOM     11  C   UNL     1     146.015 144.052 160.263  1.00  0.00     0.008 C 
ATOM     12  C   UNL     1     145.221 146.413 159.981  1.00  0.00     0.008 C 
ENDBRANCH   3  10
ENDBRANCH   2   3
BRANCH   1  13
ATOM     13  C   UNL     1     145.288 147.739 165.261  1.00  0.00    -0.055 C 
ATOM     14  C   UNL     1     145.132 149.041 165.530  1.00  0.00     0.012 C 
BRANCH  13  15
ATOM     15  C   UNL     1     145.961 146.816 166.249  1.00  0.00     0.039 C 
BRANCH  15  16
ATOM     16  C   UNL     1     145.000 145.720 166.756  1.00  0.00     0.032 CG0
ATOM     17  G   UNL     1     145.570 144.325 166.579  1.00  0.00     0.000 G0
ENDBRANCH  15  16
ENDBRANCH  13  15
ENDBRANCH   1  13
TORSDOF 1
ENDMDL
MODEL 3
REMARK VINA RESULT:    14.123      0.975      3.545
REMARK INTER + INTRA:          20.401
REMARK INTER:                  20.279
REMARK INTRA:                   0.122
REMARK UNBOUND:                -0.327
REMARK SMILES C=C1C=C[C@@H](C(C)C)CCC(C)=CCC1
REMARK SMILES IDX 3 1 4 2 5 3 9 4 10 5 11 6 12 7 13 8 6 10 7 11 8 12 2 13 1 14
REMARK SMILES IDX 15 15 14 16
REMARK H PARENT
REMARK Flexibility Score: 70.00
ROOT
ATOM      1  C   UNL     1     144.608 147.863 163.493  1.00  0.00    -0.001 C 
ATOM      2  C   UNL     1     145.357 146.896 162.957  1.00  0.00    -0.023 C 
ENDROOT
BRANCH   2   3
ATOM      3  C   UNL     1     144.729 145.849 162.068  1.00  0.00     0.014 C 
BRANCH   3   4
ATOM      4  C   UNL     1     144.933 144.448 162.712  1.00  0.00     0.012 C 
BRANCH   4   5
ATOM      5  C   UNL     1     146.063 144.353 163.771  1.00  0.00     0.031 C 
BRANCH   5   6
ATOM      6  C   UNL     1     145.571 144.153 165.201  1.00  0.00    -0.077 C 
ATOM      7  C   UNL     1     145.143 142.770 165.629  1.00  0.00     0.039 C 
ATOM      8  C   UNL     1     145.573 145.123 166.154  1.00  0.00    -0.028 CG0
ATOM      9  G   UNL     1     146.039 146.560 166.011  1.00  0.00     0.000 G0
ENDBRANCH   5   6
ENDBRANCH   4   5
ENDBRANCH   3   4
BRANCH   3  10
ATOM     10  C   UNL     1     145.329 145.934 160.632  1.00  0.00    -0.010 C 
ATOM     11  C   UNL     1     146.543 145.005 160.459  1.00  0.00     0.008 C 
ATOM     12  C   UNL     1     144.271 145.586 159.571  1.00  0.00     0.008 C 
ENDBRANCH   3  10
ENDBRANCH   2   3
BRANCH   1  13
ATOM     13  C   UNL     1     144.963 148.470 164.787  1.00  0.00    -0.055 C 
ATOM     14  C   UNL     1     145.367 149.743 164.871  1.00  0.00     0.012 C 
BRANCH  13  15
ATOM     15  C   UNL     1     144.914 147.587 166.012  1.00  0.00     0.039 C 
BRANCH  15  16
ATOM     16  C   UNL     1     146.061 146.555 166.020  1.00  0.00     0.032 CG0
ATOM     17  G   UNL     1     145.555 145.129 166.134  1.00  0.00     0.000 G0
ENDBRANCH  15  16
ENDBRANCH  13  15
ENDBRANCH   1  13
TORSDOF 1
ENDMDL
MODEL 4
REMARK VINA RESULT:    14.771      3.400      5.793
REMARK INTER + INTRA:          21.353
REMARK INTER:                  21.668
REMARK INTRA:                  -0.315
REMARK UNBOUND:                -0.327
REMARK SMILES C=C1C=C[C@@H](C(C)C)CCC(C)=CCC1
REMARK SMILES IDX 3 1 4 2 5 3 9 4 10 5 11 6 12 7 13 8 6 10 7 11 8 12 2 13 1 14
REMARK SMILES IDX 15 15 14 16
REMARK H PARENT
REMARK Flexibility Score: 70.00
ROOT
ATOM      1  C   UNL     1     144.769 146.216 162.260  1.00  0.00    -0.001 C 
ATOM      2  C   UNL     1     145.358 147.250 162.866  1.00  0.00    -0.023 C 
ENDROOT
BRANCH   2   3
ATOM      3  C   UNL     1     144.545 148.207 163.705  1.00  0.00     0.014 C 
BRANCH   3   4
ATOM      4  C   UNL     1     144.308 149.516 162.898  1.00  0.00     0.012 C 
BRANCH   4   5
ATOM      5  C   UNL     1     145.375 149.842 161.820  1.00  0.00     0.031 C 
BRANCH   5   6
ATOM      6  C   UNL     1     144.831 149.912 160.397  1.00  0.00    -0.077 C 
ATOM      7  C   UNL     1     144.074 151.149 159.975  1.00  0.00     0.039 C 
ATOM      8  C   UNL     1     145.056 148.970 159.443  1.00  0.00    -0.028 CG0
ATOM      9  G   UNL     1     145.859 147.690 159.579  1.00  0.00     0.000 G0
ENDBRANCH   5   6
ENDBRANCH   4   5
ENDBRANCH   3   4
BRANCH   3  10
ATOM     10  C   UNL     1     145.260 148.470 165.064  1.00  0.00    -0.010 C 
ATOM     11  C   UNL     1     144.685 149.700 165.789  1.00  0.00     0.008 C 
ATOM     12  C   UNL     1     145.157 147.245 165.988  1.00  0.00     0.008 C 
ENDBRANCH   3  10
ENDBRANCH   2   3
BRANCH   1  13
ATOM     13  C   UNL     1     145.296 145.674 160.998  1.00  0.00    -0.055 C 
ATOM     14  C   UNL     1     146.077 144.587 160.980  1.00  0.00     0.012 C 
BRANCH  13  15
ATOM     15  C   UNL     1     144.977 146.423 159.726  1.00  0.00     0.039 C 
BRANCH  15  16
ATOM     16  C   UNL     1     145.867 147.673 159.558  1.00  0.00     0.032 CG0
ATOM     17  G   UNL     1     145.054 148.950 159.449  1.00  0.00     0.000 G0
ENDBRANCH  15  16
ENDBRANCH  13  15
ENDBRANCH   1  13
TORSDOF 1
ENDMDL
MODEL 5
REMARK VINA RESULT:    15.291      1.443      4.287
REMARK INTER + INTRA:          22.116
REMARK INTER:                  21.838
REMARK INTRA:                   0.278
REMARK UNBOUND:                -0.327
REMARK SMILES C=C1C=C[C@@H](C(C)C)CCC(C)=CCC1
REMARK SMILES IDX 3 1 4 2 5 3 9 4 10 5 11 6 12 7 13 8 6 10 7 11 8 12 2 13 1 14
REMARK SMILES IDX 15 15 14 16
REMARK H PARENT
REMARK Flexibility Score: 70.00
ROOT
ATOM      1  C   UNL     1     145.400 146.918 162.427  1.00  0.00    -0.001 C 
ATOM      2  C   UNL     1     144.714 147.257 163.522  1.00  0.00    -0.023 C 
ENDROOT
BRANCH   2   3
ATOM      3  C   UNL     1     145.400 147.974 164.660  1.00  0.00     0.014 C 
BRANCH   3   4
ATOM      4  C   UNL     1     145.018 147.283 166.000  1.00  0.00     0.012 C 
BRANCH   4   5
ATOM      5  C   UNL     1     145.799 145.984 166.332  1.00  0.00     0.031 C 
BRANCH   5   6
ATOM      6  C   UNL     1     145.033 144.698 166.044  1.00  0.00    -0.077 C 
ATOM      7  C   UNL     1     144.077 144.178 167.091  1.00  0.00     0.039 C 
ATOM      8  C   UNL     1     145.082 144.024 164.863  1.00  0.00    -0.028 CG0
ATOM      9  G   UNL     1     145.882 144.386 163.626  1.00  0.00     0.000 G0
ENDBRANCH   5   6
ENDBRANCH   4   5
ENDBRANCH   3   4
BRANCH   3  10
ATOM     10  C   UNL     1     145.025 149.487 164.645  1.00  0.00    -0.010 C 
ATOM     11  C   UNL     1     144.242 149.874 163.379  1.00  0.00     0.008 C 
ATOM     12  C   UNL     1     144.196 149.862 165.885  1.00  0.00     0.008 C 
ENDBRANCH   3  10
ENDBRANCH   2   3
BRANCH   1  13
ATOM     13  C   UNL     1     145.027 145.736 161.633  1.00  0.00    -0.055 C 
ATOM     14  C   UNL     1     144.690 145.843 160.342  1.00  0.00     0.012 C 
BRANCH  13  15
ATOM     15  C   UNL     1     144.980 144.403 162.341  1.00  0.00     0.039 C 
BRANCH  15  16
ATOM     16  C   UNL     1     145.866 144.394 163.605  1.00  0.00     0.032 CG0
ATOM     17  G   UNL     1     145.086 144.030 164.855  1.00  0.00     0.000 G0
ENDBRANCH  15  16
ENDBRANCH  13  15
ENDBRANCH   1  13
TORSDOF 1
ENDMDL
MODEL 6
REMARK VINA RESULT:    15.457      1.316      4.176
REMARK INTER + INTRA:          22.359
REMARK INTER:                  22.357
REMARK INTRA:                   0.002
REMARK UNBOUND:                -0.327
REMARK SMILES C=C1C=C[C@@H](C(C)C)CCC(C)=CCC1
REMARK SMILES IDX 3 1 4 2 5 3 9 4 10 5 11 6 12 7 13 8 6 10 7 11 8 12 2 13 1 14
REMARK SMILES IDX 15 15 14 16
REMARK H PARENT
REMARK Flexibility Score: 70.00
ROOT
ATOM      1  C   UNL     1     145.275 143.925 162.503  1.00  0.00    -0.001 C 
ATOM      2  C   UNL     1     146.012 143.452 163.512  1.00  0.00    -0.023 C 
ENDROOT
BRANCH   2   3
ATOM      3  C   UNL     1     145.349 142.782 164.692  1.00  0.00     0.014 C 
BRANCH   3   4
ATOM      4  C   UNL     1     145.782 143.509 165.997  1.00  0.00     0.012 C 
BRANCH   4   5
ATOM      5  C   UNL     1     144.993 144.801 166.340  1.00  0.00     0.031 C 
BRANCH   5   6
ATOM      6  C   UNL     1     145.759 146.094 166.079  1.00  0.00    -0.077 C 
ATOM      7  C   UNL     1     146.726 146.583 167.129  1.00  0.00     0.039 C 
ATOM      8  C   UNL     1     145.698 146.799 164.918  1.00  0.00    -0.028 CG0
ATOM      9  G   UNL     1     144.884 146.473 163.680  1.00  0.00     0.000 G0
ENDBRANCH   5   6
ENDBRANCH   4   5
ENDBRANCH   3   4
BRANCH   3  10
ATOM     10  C   UNL     1     145.701 141.264 164.715  1.00  0.00    -0.010 C 
ATOM     11  C   UNL     1     146.499 140.839 163.470  1.00  0.00     0.008 C 
ATOM     12  C   UNL     1     146.502 140.902 165.976  1.00  0.00     0.008 C 
ENDBRANCH   3  10
ENDBRANCH   2   3
BRANCH   1  13
ATOM     13  C   UNL     1     145.724 145.081 161.711  1.00  0.00    -0.055 C 
ATOM     14  C   UNL     1     146.126 144.942 160.442  1.00  0.00     0.012 C 
BRANCH  13  15
ATOM     15  C   UNL     1     145.774 146.425 162.399  1.00  0.00     0.039 C 
BRANCH  15  16
ATOM     16  C   UNL     1     144.904 146.449 163.674  1.00  0.00     0.032 CG0
ATOM     17  G   UNL     1     145.704 146.806 164.912  1.00  0.00     0.000 G0
ENDBRANCH  15  16
ENDBRANCH  13  15
ENDBRANCH   1  13
TORSDOF 1
ENDMDL
MODEL 7
REMARK VINA RESULT:    15.479      3.423      6.761
REMARK INTER + INTRA:          22.392
REMARK INTER:                  22.603
REMARK INTRA:                  -0.211
REMARK UNBOUND:                -0.327
REMARK SMILES C=C1C=C[C@@H](C(C)C)CCC(C)=CCC1
REMARK SMILES IDX 3 1 4 2 5 3 9 4 10 5 11 6 12 7 13 8 6 10 7 11 8 12 2 13 1 14
REMARK SMILES IDX 15 15 14 16
REMARK H PARENT
REMARK Flexibility Score: 70.00
ROOT
ATOM      1  C   UNL     1     146.044 144.564 162.145  1.00  0.00    -0.001 C 
ATOM      2  C   UNL     1     145.419 143.556 162.760  1.00  0.00    -0.023 C 
ENDROOT
BRANCH   2   3
ATOM      3  C   UNL     1     146.194 142.598 163.632  1.00  0.00     0.014 C 
BRANCH   3   4
ATOM      4  C   UNL     1     146.479 141.297 162.829  1.00  0.00     0.012 C 
BRANCH   4   5
ATOM      5  C   UNL     1     145.374 140.869 161.827  1.00  0.00     0.031 C 
BRANCH   5   6
ATOM      6  C   UNL     1     145.839 140.777 160.378  1.00  0.00    -0.077 C 
ATOM      7  C   UNL     1     146.535 139.517 159.923  1.00  0.00     0.039 C 
ATOM      8  C   UNL     1     145.591 141.722 159.432  1.00  0.00    -0.028 CG0
ATOM      9  G   UNL     1     144.835 143.027 159.604  1.00  0.00     0.000 G0
ENDBRANCH   5   6
ENDBRANCH   4   5
ENDBRANCH   3   4
BRANCH   3  10
ATOM     10  C   UNL     1     145.412 142.320 164.951  1.00  0.00    -0.010 C 
ATOM     11  C   UNL     1     145.996 141.126 165.727  1.00  0.00     0.008 C 
ATOM     12  C   UNL     1     145.407 143.560 165.861  1.00  0.00     0.008 C 
ENDBRANCH   3  10
ENDBRANCH   2   3
BRANCH   1  13
ATOM     13  C   UNL     1     145.552 145.093 160.862  1.00  0.00    -0.055 C 
ATOM     14  C   UNL     1     144.890 146.254 160.797  1.00  0.00     0.012 C 
BRANCH  13  15
ATOM     15  C   UNL     1     145.767 144.249 159.628  1.00  0.00     0.039 C 
BRANCH  15  16
ATOM     16  C   UNL     1     144.825 143.026 159.599  1.00  0.00     0.032 CG0
ATOM     17  G   UNL     1     145.578 141.722 159.412  1.00  0.00     0.000 G0
ENDBRANCH  15  16
ENDBRANCH  13  15
ENDBRANCH   1  13
TORSDOF 1
ENDMDL
