MODEL 1
REMARK VINA RESULT:    -3.694      0.000      0.000
REMARK INTER + INTRA:          -8.428
REMARK INTER:                  -6.501
REMARK INTRA:                  -1.927
REMARK UNBOUND:                -1.927
REMARK SMILES CCCCCCCCCCCCCCC(=O)[O-]
REMARK SMILES IDX 9 1 10 2 11 3 12 4 13 5 14 6 15 7 16 8 17 9 8 10 7 11 6 12
REMARK SMILES IDX 5 13 4 14 3 15 2 16 1 17
REMARK H PARENT
REMARK Flexibility Score: inf
ROOT
ATOM      1  C   UNL     1      -3.150  21.719  -0.068  1.00  0.00     0.000 C 
ENDROOT
BRANCH   1   2
ATOM      2  C   UNL     1      -3.856  22.671  -1.054  1.00  0.00     0.000 C 
BRANCH   2   3
ATOM      3  C   UNL     1      -4.857  23.652  -0.415  1.00  0.00     0.000 C 
BRANCH   3   4
ATOM      4  C   UNL     1      -4.879  23.565   1.120  1.00  0.00     0.000 C 
BRANCH   4   5
ATOM      5  C   UNL     1      -6.192  24.090   1.727  1.00  0.00     0.006 C 
BRANCH   5   6
ATOM      6  C   UNL     1      -6.625  25.471   1.208  1.00  0.00     0.053 C 
BRANCH   6   7
ATOM      7  C   UNL     1      -7.568  26.156   2.148  1.00  0.00     0.041 C 
ATOM      8  O   UNL     1      -7.348  27.340   2.516  1.00  0.00    -0.550 OA
ATOM      9  O   UNL     1      -8.708  25.498   2.592  1.00  0.00    -0.550 OA
ENDBRANCH   6   7
ENDBRANCH   5   6
ENDBRANCH   4   5
ENDBRANCH   3   4
ENDBRANCH   2   3
ENDBRANCH   1   2
BRANCH   1  10
ATOM     10  C   UNL     1      -1.657  21.464  -0.356  1.00  0.00     0.000 C 
BRANCH  10  11
ATOM     11  C   UNL     1      -0.857  22.709  -0.782  1.00  0.00    -0.000 C 
BRANCH  11  12
ATOM     12  C   UNL     1      -0.757  23.763   0.332  1.00  0.00    -0.000 C 
BRANCH  12  13
ATOM     13  C   UNL     1      -0.798  25.181  -0.250  1.00  0.00    -0.000 C 
BRANCH  13  14
ATOM     14  C   UNL     1      -2.088  25.907   0.161  1.00  0.00    -0.000 C 
BRANCH  14  15
ATOM     15  C   UNL     1      -2.266  25.994   1.688  1.00  0.00    -0.000 C 
BRANCH  15  16
ATOM     16  C   UNL     1      -3.367  26.963   2.156  1.00  0.00    -0.003 C 
ATOM     17  C   UNL     1      -3.980  26.567   3.499  1.00  0.00     0.004 C 
ENDBRANCH  15  16
ENDBRANCH  14  15
ENDBRANCH  13  14
ENDBRANCH  12  13
ENDBRANCH  11  12
ENDBRANCH  10  11
ENDBRANCH   1  10
TORSDOF 13
ENDMDL
MODEL 2
REMARK VINA RESULT:    -3.693      1.540      4.322
REMARK INTER + INTRA:          -8.427
REMARK INTER:                  -6.411
REMARK INTRA:                  -2.016
REMARK UNBOUND:                -1.927
REMARK SMILES CCCCCCCCCCCCCCC(=O)[O-]
REMARK SMILES IDX 9 1 10 2 11 3 12 4 13 5 14 6 15 7 16 8 17 9 8 10 7 11 6 12
REMARK SMILES IDX 5 13 4 14 3 15 2 16 1 17
REMARK H PARENT
REMARK Flexibility Score: inf
ROOT
ATOM      1  C   UNL     1      -2.171  26.448   1.437  1.00  0.00     0.000 C 
ENDROOT
BRANCH   1   2
ATOM      2  C   UNL     1      -2.877  26.111   2.765  1.00  0.00     0.000 C 
BRANCH   2   3
ATOM      3  C   UNL     1      -4.408  26.283   2.755  1.00  0.00     0.000 C 
BRANCH   3   4
ATOM      4  C   UNL     1      -4.891  27.256   1.668  1.00  0.00     0.000 C 
BRANCH   4   5
ATOM      5  C   UNL     1      -6.063  26.693   0.843  1.00  0.00     0.006 C 
BRANCH   5   6
ATOM      6  C   UNL     1      -7.100  25.910   1.665  1.00  0.00     0.053 C 
BRANCH   6   7
ATOM      7  C   UNL     1      -7.277  24.511   1.161  1.00  0.00     0.041 C 
ATOM      8  O   UNL     1      -6.885  23.534   1.851  1.00  0.00    -0.550 OA
ATOM      9  O   UNL     1      -7.906  24.285  -0.057  1.00  0.00    -0.550 OA
ENDBRANCH   6   7
ENDBRANCH   5   6
ENDBRANCH   4   5
ENDBRANCH   3   4
ENDBRANCH   2   3
ENDBRANCH   1   2
BRANCH   1  10
ATOM     10  C   UNL     1      -1.849  25.237   0.538  1.00  0.00     0.000 C 
BRANCH  10  11
ATOM     11  C   UNL     1      -2.601  25.209  -0.805  1.00  0.00    -0.000 C 
BRANCH  11  12
ATOM     12  C   UNL     1      -3.861  24.331  -0.765  1.00  0.00    -0.000 C 
BRANCH  12  13
ATOM     13  C   UNL     1      -3.706  23.196   0.255  1.00  0.00    -0.000 C 
BRANCH  13  14
ATOM     14  C   UNL     1      -3.501  21.848  -0.451  1.00  0.00    -0.000 C 
BRANCH  14  15
ATOM     15  C   UNL     1      -2.163  21.178  -0.087  1.00  0.00    -0.000 C 
BRANCH  15  16
ATOM     16  C   UNL     1      -1.118  21.162  -1.217  1.00  0.00    -0.003 C 
ATOM     17  C   UNL     1      -0.221  22.400  -1.221  1.00  0.00     0.004 C 
ENDBRANCH  15  16
ENDBRANCH  14  15
ENDBRANCH  13  14
ENDBRANCH  12  13
ENDBRANCH  11  12
ENDBRANCH  10  11
ENDBRANCH   1  10
TORSDOF 13
ENDMDL
MODEL 3
REMARK VINA RESULT:    -3.668      3.072      5.437
REMARK INTER + INTRA:          -8.384
REMARK INTER:                  -6.806
REMARK INTRA:                  -1.578
REMARK UNBOUND:                -1.927
REMARK SMILES CCCCCCCCCCCCCCC(=O)[O-]
REMARK SMILES IDX 9 1 10 2 11 3 12 4 13 5 14 6 15 7 16 8 17 9 8 10 7 11 6 12
REMARK SMILES IDX 5 13 4 14 3 15 2 16 1 17
REMARK H PARENT
REMARK Flexibility Score: inf
ROOT
ATOM      1  C   UNL     1      -3.751  27.256   2.888  1.00  0.00     0.000 C 
ENDROOT
BRANCH   1   2
ATOM      2  C   UNL     1      -2.971  28.536   2.526  1.00  0.00     0.000 C 
BRANCH   2   3
ATOM      3  C   UNL     1      -3.338  29.164   1.169  1.00  0.00     0.000 C 
BRANCH   3   4
ATOM      4  C   UNL     1      -4.787  28.868   0.747  1.00  0.00     0.000 C 
BRANCH   4   5
ATOM      5  C   UNL     1      -5.329  29.884  -0.275  1.00  0.00     0.006 C 
BRANCH   5   6
ATOM      6  C   UNL     1      -5.787  31.219   0.337  1.00  0.00     0.053 C 
BRANCH   6   7
ATOM      7  C   UNL     1      -7.206  31.541  -0.014  1.00  0.00     0.041 C 
ATOM      8  O   UNL     1      -7.523  31.795  -1.206  1.00  0.00    -0.550 OA
ATOM      9  O   UNL     1      -8.186  31.528   0.971  1.00  0.00    -0.550 OA
ENDBRANCH   6   7
ENDBRANCH   5   6
ENDBRANCH   4   5
ENDBRANCH   3   4
ENDBRANCH   2   3
ENDBRANCH   1   2
BRANCH   1  10
ATOM     10  C   UNL     1      -2.979  25.937   2.685  1.00  0.00     0.000 C 
BRANCH  10  11
ATOM     11  C   UNL     1      -3.040  25.364   1.256  1.00  0.00    -0.000 C 
BRANCH  11  12
ATOM     12  C   UNL     1      -4.470  25.030   0.809  1.00  0.00    -0.000 C 
BRANCH  12  13
ATOM     13  C   UNL     1      -5.048  23.874   1.635  1.00  0.00    -0.000 C 
BRANCH  13  14
ATOM     14  C   UNL     1      -6.446  24.223   2.166  1.00  0.00    -0.000 C 
BRANCH  14  15
ATOM     15  C   UNL     1      -6.970  25.570   1.633  1.00  0.00    -0.000 C 
BRANCH  15  16
ATOM     16  C   UNL     1      -7.438  26.557   2.718  1.00  0.00    -0.003 C 
ATOM     17  C   UNL     1      -8.463  25.952   3.676  1.00  0.00     0.004 C 
ENDBRANCH  15  16
ENDBRANCH  14  15
ENDBRANCH  13  14
ENDBRANCH  12  13
ENDBRANCH  11  12
ENDBRANCH  10  11
ENDBRANCH   1  10
TORSDOF 13
ENDMDL
MODEL 4
REMARK VINA RESULT:    -3.608      3.543      5.781
REMARK INTER + INTRA:          -8.277
REMARK INTER:                  -6.829
REMARK INTRA:                  -1.448
REMARK UNBOUND:                -1.927
REMARK SMILES CCCCCCCCCCCCCCC(=O)[O-]
REMARK SMILES IDX 9 1 10 2 11 3 12 4 13 5 14 6 15 7 16 8 17 9 8 10 7 11 6 12
REMARK SMILES IDX 5 13 4 14 3 15 2 16 1 17
REMARK H PARENT
REMARK Flexibility Score: inf
ROOT
ATOM      1  C   UNL     1      -2.585  26.576   1.392  1.00  0.00     0.000 C 
ENDROOT
BRANCH   1   2
ATOM      2  C   UNL     1      -2.112  28.023   1.637  1.00  0.00     0.000 C 
BRANCH   2   3
ATOM      3  C   UNL     1      -2.693  29.074   0.673  1.00  0.00     0.000 C 
BRANCH   3   4
ATOM      4  C   UNL     1      -4.094  28.702   0.160  1.00  0.00     0.000 C 
BRANCH   4   5
ATOM      5  C   UNL     1      -5.204  29.574   0.774  1.00  0.00     0.006 C 
BRANCH   5   6
ATOM      6  C   UNL     1      -5.393  30.938   0.089  1.00  0.00     0.053 C 
BRANCH   6   7
ATOM      7  C   UNL     1      -6.831  31.216  -0.224  1.00  0.00     0.041 C 
ATOM      8  O   UNL     1      -7.263  31.076  -1.398  1.00  0.00    -0.550 OA
ATOM      9  O   UNL     1      -7.701  31.598   0.789  1.00  0.00    -0.550 OA
ENDBRANCH   6   7
ENDBRANCH   5   6
ENDBRANCH   4   5
ENDBRANCH   3   4
ENDBRANCH   2   3
ENDBRANCH   1   2
BRANCH   1  10
ATOM     10  C   UNL     1      -3.005  25.800   2.656  1.00  0.00     0.000 C 
BRANCH  10  11
ATOM     11  C   UNL     1      -4.345  26.242   3.273  1.00  0.00    -0.000 C 
BRANCH  11  12
ATOM     12  C   UNL     1      -5.555  25.550   2.628  1.00  0.00    -0.000 C 
BRANCH  12  13
ATOM     13  C   UNL     1      -6.659  26.564   2.304  1.00  0.00    -0.000 C 
BRANCH  13  14
ATOM     14  C   UNL     1      -7.608  26.744   3.498  1.00  0.00    -0.000 C 
BRANCH  14  15
ATOM     15  C   UNL     1      -7.846  25.436   4.276  1.00  0.00    -0.000 C 
BRANCH  15  16
ATOM     16  C   UNL     1      -7.621  25.537   5.796  1.00  0.00    -0.003 C 
ATOM     17  C   UNL     1      -6.576  26.584   6.179  1.00  0.00     0.004 C 
ENDBRANCH  15  16
ENDBRANCH  14  15
ENDBRANCH  13  14
ENDBRANCH  12  13
ENDBRANCH  11  12
ENDBRANCH  10  11
ENDBRANCH   1  10
TORSDOF 13
ENDMDL
MODEL 5
REMARK VINA RESULT:    -3.583      2.446      4.295
REMARK INTER + INTRA:          -8.233
REMARK INTER:                  -5.833
REMARK INTRA:                  -2.400
REMARK UNBOUND:                -1.927
REMARK SMILES CCCCCCCCCCCCCCC(=O)[O-]
REMARK SMILES IDX 9 1 10 2 11 3 12 4 13 5 14 6 15 7 16 8 17 9 8 10 7 11 6 12
REMARK SMILES IDX 5 13 4 14 3 15 2 16 1 17
REMARK H PARENT
REMARK Flexibility Score: inf
ROOT
ATOM      1  C   UNL     1      -2.694  26.820  -0.431  1.00  0.00     0.000 C 
ENDROOT
BRANCH   1   2
ATOM      2  C   UNL     1      -2.125  25.898   0.666  1.00  0.00     0.000 C 
BRANCH   2   3
ATOM      3  C   UNL     1      -3.174  25.258   1.593  1.00  0.00     0.000 C 
BRANCH   3   4
ATOM      4  C   UNL     1      -3.194  25.888   2.996  1.00  0.00     0.000 C 
BRANCH   4   5
ATOM      5  C   UNL     1      -4.621  26.081   3.541  1.00  0.00     0.006 C 
BRANCH   5   6
ATOM      6  C   UNL     1      -5.734  25.614   2.590  1.00  0.00     0.053 C 
BRANCH   6   7
ATOM      7  C   UNL     1      -7.056  26.236   2.921  1.00  0.00     0.041 C 
ATOM      8  O   UNL     1      -7.396  27.323   2.385  1.00  0.00    -0.550 OA
ATOM      9  O   UNL     1      -7.925  25.598   3.796  1.00  0.00    -0.550 OA
ENDBRANCH   6   7
ENDBRANCH   5   6
ENDBRANCH   4   5
ENDBRANCH   3   4
ENDBRANCH   2   3
ENDBRANCH   1   2
BRANCH   1  10
ATOM     10  C   UNL     1      -4.233  26.868  -0.515  1.00  0.00     0.000 C 
BRANCH  10  11
ATOM     11  C   UNL     1      -4.852  28.258  -0.276  1.00  0.00    -0.000 C 
BRANCH  11  12
ATOM     12  C   UNL     1      -4.520  28.828   1.111  1.00  0.00    -0.000 C 
BRANCH  12  13
ATOM     13  C   UNL     1      -4.084  30.295   1.012  1.00  0.00    -0.000 C 
BRANCH  13  14
ATOM     14  C   UNL     1      -3.046  30.634   2.091  1.00  0.00    -0.000 C 
BRANCH  14  15
ATOM     15  C   UNL     1      -2.674  29.423   2.967  1.00  0.00    -0.000 C 
BRANCH  15  16
ATOM     16  C   UNL     1      -1.183  29.042   2.946  1.00  0.00    -0.003 C 
ATOM     17  C   UNL     1      -0.556  29.155   1.556  1.00  0.00     0.004 C 
ENDBRANCH  15  16
ENDBRANCH  14  15
ENDBRANCH  13  14
ENDBRANCH  12  13
ENDBRANCH  11  12
ENDBRANCH  10  11
ENDBRANCH   1  10
TORSDOF 13
ENDMDL
MODEL 6
REMARK VINA RESULT:    -3.546      1.472      4.162
REMARK INTER + INTRA:          -8.168
REMARK INTER:                  -6.250
REMARK INTRA:                  -1.917
REMARK UNBOUND:                -1.927
REMARK SMILES CCCCCCCCCCCCCCC(=O)[O-]
REMARK SMILES IDX 9 1 10 2 11 3 12 4 13 5 14 6 15 7 16 8 17 9 8 10 7 11 6 12
REMARK SMILES IDX 5 13 4 14 3 15 2 16 1 17
REMARK H PARENT
REMARK Flexibility Score: inf
ROOT
ATOM      1  C   UNL     1      -2.932  27.324   1.045  1.00  0.00     0.000 C 
ENDROOT
BRANCH   1   2
ATOM      2  C   UNL     1      -3.331  27.324   2.534  1.00  0.00     0.000 C 
BRANCH   2   3
ATOM      3  C   UNL     1      -3.579  25.934   3.147  1.00  0.00     0.000 C 
BRANCH   3   4
ATOM      4  C   UNL     1      -3.653  24.821   2.088  1.00  0.00     0.000 C 
BRANCH   4   5
ATOM      5  C   UNL     1      -5.093  24.339   1.831  1.00  0.00     0.006 C 
BRANCH   5   6
ATOM      6  C   UNL     1      -5.599  24.585   0.400  1.00  0.00     0.053 C 
BRANCH   6   7
ATOM      7  C   UNL     1      -6.349  25.876   0.282  1.00  0.00     0.041 C 
ATOM      8  O   UNL     1      -6.698  26.306  -0.848  1.00  0.00    -0.550 OA
ATOM      9  O   UNL     1      -6.691  26.588   1.425  1.00  0.00    -0.550 OA
ENDBRANCH   6   7
ENDBRANCH   5   6
ENDBRANCH   4   5
ENDBRANCH   3   4
ENDBRANCH   2   3
ENDBRANCH   1   2
BRANCH   1  10
ATOM     10  C   UNL     1      -1.418  27.414   0.771  1.00  0.00     0.000 C 
BRANCH  10  11
ATOM     11  C   UNL     1      -0.957  26.761  -0.546  1.00  0.00    -0.000 C 
BRANCH  11  12
ATOM     12  C   UNL     1      -1.441  25.310  -0.691  1.00  0.00    -0.000 C 
BRANCH  12  13
ATOM     13  C   UNL     1      -0.534  24.349   0.087  1.00  0.00    -0.000 C 
BRANCH  13  14
ATOM     14  C   UNL     1      -0.924  22.888  -0.179  1.00  0.00    -0.000 C 
BRANCH  14  15
ATOM     15  C   UNL     1      -2.342  22.743  -0.762  1.00  0.00    -0.000 C 
BRANCH  15  16
ATOM     16  C   UNL     1      -3.187  21.617  -0.138  1.00  0.00    -0.003 C 
ATOM     17  C   UNL     1      -2.534  20.241  -0.260  1.00  0.00     0.004 C 
ENDBRANCH  15  16
ENDBRANCH  14  15
ENDBRANCH  13  14
ENDBRANCH  12  13
ENDBRANCH  11  12
ENDBRANCH  10  11
ENDBRANCH   1  10
TORSDOF 13
ENDMDL
MODEL 7
REMARK VINA RESULT:    -3.501      1.335      3.610
REMARK INTER + INTRA:          -8.089
REMARK INTER:                  -6.247
REMARK INTRA:                  -1.842
REMARK UNBOUND:                -1.927
REMARK SMILES CCCCCCCCCCCCCCC(=O)[O-]
REMARK SMILES IDX 9 1 10 2 11 3 12 4 13 5 14 6 15 7 16 8 17 9 8 10 7 11 6 12
REMARK SMILES IDX 5 13 4 14 3 15 2 16 1 17
REMARK H PARENT
REMARK Flexibility Score: inf
ROOT
ATOM      1  C   UNL     1      -1.454  25.888   0.623  1.00  0.00     0.000 C 
ENDROOT
BRANCH   1   2
ATOM      2  C   UNL     1      -2.786  26.649   0.470  1.00  0.00     0.000 C 
BRANCH   2   3
ATOM      3  C   UNL     1      -3.556  26.891   1.782  1.00  0.00     0.000 C 
BRANCH   3   4
ATOM      4  C   UNL     1      -3.672  25.626   2.647  1.00  0.00     0.000 C 
BRANCH   4   5
ATOM      5  C   UNL     1      -4.713  24.628   2.108  1.00  0.00     0.006 C 
BRANCH   5   6
ATOM      6  C   UNL     1      -6.174  25.057   2.323  1.00  0.00     0.053 C 
BRANCH   6   7
ATOM      7  C   UNL     1      -6.972  24.992   1.057  1.00  0.00     0.041 C 
ATOM      8  O   UNL     1      -6.941  25.947   0.238  1.00  0.00    -0.550 OA
ATOM      9  O   UNL     1      -7.723  23.860   0.766  1.00  0.00    -0.550 OA
ENDBRANCH   6   7
ENDBRANCH   5   6
ENDBRANCH   4   5
ENDBRANCH   3   4
ENDBRANCH   2   3
ENDBRANCH   1   2
BRANCH   1  10
ATOM     10  C   UNL     1      -0.752  25.522  -0.700  1.00  0.00     0.000 C 
BRANCH  10  11
ATOM     11  C   UNL     1      -0.356  24.039  -0.834  1.00  0.00    -0.000 C 
BRANCH  11  12
ATOM     12  C   UNL     1      -1.083  23.135   0.172  1.00  0.00    -0.000 C 
BRANCH  12  13
ATOM     13  C   UNL     1      -1.366  21.756  -0.435  1.00  0.00    -0.000 C 
BRANCH  13  14
ATOM     14  C   UNL     1      -2.837  21.361  -0.239  1.00  0.00    -0.000 C 
BRANCH  14  15
ATOM     15  C   UNL     1      -3.783  22.576  -0.193  1.00  0.00    -0.000 C 
BRANCH  15  16
ATOM     16  C   UNL     1      -4.436  22.939  -1.539  1.00  0.00    -0.003 C 
ATOM     17  C   UNL     1      -4.416  24.439  -1.829  1.00  0.00     0.004 C 
ENDBRANCH  15  16
ENDBRANCH  14  15
ENDBRANCH  13  14
ENDBRANCH  12  13
ENDBRANCH  11  12
ENDBRANCH  10  11
ENDBRANCH   1  10
TORSDOF 13
ENDMDL
MODEL 8
REMARK VINA RESULT:    -3.452      1.229      3.467
REMARK INTER + INTRA:          -8.002
REMARK INTER:                  -6.420
REMARK INTRA:                  -1.581
REMARK UNBOUND:                -1.927
REMARK SMILES CCCCCCCCCCCCCCC(=O)[O-]
REMARK SMILES IDX 9 1 10 2 11 3 12 4 13 5 14 6 15 7 16 8 17 9 8 10 7 11 6 12
REMARK SMILES IDX 5 13 4 14 3 15 2 16 1 17
REMARK H PARENT
REMARK Flexibility Score: inf
ROOT
ATOM      1  C   UNL     1      -3.555  24.921   0.064  1.00  0.00     0.000 C 
ENDROOT
BRANCH   1   2
ATOM      2  C   UNL     1      -2.963  25.866   1.129  1.00  0.00     0.000 C 
BRANCH   2   3
ATOM      3  C   UNL     1      -3.360  25.545   2.582  1.00  0.00     0.000 C 
BRANCH   3   4
ATOM      4  C   UNL     1      -4.292  26.604   3.192  1.00  0.00     0.000 C 
BRANCH   4   5
ATOM      5  C   UNL     1      -5.730  26.091   3.388  1.00  0.00     0.006 C 
BRANCH   5   6
ATOM      6  C   UNL     1      -6.579  26.076   2.106  1.00  0.00     0.053 C 
BRANCH   6   7
ATOM      7  C   UNL     1      -7.974  25.593   2.360  1.00  0.00     0.041 C 
ATOM      8  O   UNL     1      -8.616  25.004   1.451  1.00  0.00    -0.550 OA
ATOM      9  O   UNL     1      -8.551  25.764   3.611  1.00  0.00    -0.550 OA
ENDBRANCH   6   7
ENDBRANCH   5   6
ENDBRANCH   4   5
ENDBRANCH   3   4
ENDBRANCH   2   3
ENDBRANCH   1   2
BRANCH   1  10
ATOM     10  C   UNL     1      -4.183  23.625   0.611  1.00  0.00     0.000 C 
BRANCH  10  11
ATOM     11  C   UNL     1      -3.702  22.331  -0.072  1.00  0.00    -0.000 C 
BRANCH  11  12
ATOM     12  C   UNL     1      -2.525  22.567  -1.031  1.00  0.00    -0.000 C 
BRANCH  12  13
ATOM     13  C   UNL     1      -1.233  21.958  -0.474  1.00  0.00    -0.000 C 
BRANCH  13  14
ATOM     14  C   UNL     1      -0.004  22.741  -0.957  1.00  0.00    -0.000 C 
BRANCH  14  15
ATOM     15  C   UNL     1       0.021  24.193  -0.447  1.00  0.00    -0.000 C 
BRANCH  15  16
ATOM     16  C   UNL     1       0.126  25.265  -1.547  1.00  0.00    -0.003 C 
ATOM     17  C   UNL     1       0.016  26.690  -1.007  1.00  0.00     0.004 C 
ENDBRANCH  15  16
ENDBRANCH  14  15
ENDBRANCH  13  14
ENDBRANCH  12  13
ENDBRANCH  11  12
ENDBRANCH  10  11
ENDBRANCH   1  10
TORSDOF 13
ENDMDL
MODEL 9
REMARK VINA RESULT:    -3.418      2.485      4.489
REMARK INTER + INTRA:          -7.943
REMARK INTER:                  -5.835
REMARK INTRA:                  -2.108
REMARK UNBOUND:                -1.927
REMARK SMILES CCCCCCCCCCCCCCC(=O)[O-]
REMARK SMILES IDX 9 1 10 2 11 3 12 4 13 5 14 6 15 7 16 8 17 9 8 10 7 11 6 12
REMARK SMILES IDX 5 13 4 14 3 15 2 16 1 17
REMARK H PARENT
REMARK Flexibility Score: inf
ROOT
ATOM      1  C   UNL     1      -4.145  24.298  -0.959  1.00  0.00     0.000 C 
ENDROOT
BRANCH   1   2
ATOM      2  C   UNL     1      -4.919  23.957   0.330  1.00  0.00     0.000 C 
BRANCH   2   3
ATOM      3  C   UNL     1      -4.308  24.515   1.628  1.00  0.00     0.000 C 
BRANCH   3   4
ATOM      4  C   UNL     1      -5.159  25.630   2.256  1.00  0.00     0.000 C 
BRANCH   4   5
ATOM      5  C   UNL     1      -4.375  26.940   2.451  1.00  0.00     0.006 C 
BRANCH   5   6
ATOM      6  C   UNL     1      -2.939  26.750   2.969  1.00  0.00     0.053 C 
BRANCH   6   7
ATOM      7  C   UNL     1      -2.197  28.048   3.058  1.00  0.00     0.041 C 
ATOM      8  O   UNL     1      -2.522  28.907   3.919  1.00  0.00    -0.550 OA
ATOM      9  O   UNL     1      -1.123  28.295   2.211  1.00  0.00    -0.550 OA
ENDBRANCH   6   7
ENDBRANCH   5   6
ENDBRANCH   4   5
ENDBRANCH   3   4
ENDBRANCH   2   3
ENDBRANCH   1   2
BRANCH   1  10
ATOM     10  C   UNL     1      -3.453  25.676  -0.965  1.00  0.00     0.000 C 
BRANCH  10  11
ATOM     11  C   UNL     1      -1.945  25.643  -1.276  1.00  0.00    -0.000 C 
BRANCH  11  12
ATOM     12  C   UNL     1      -1.077  25.592  -0.010  1.00  0.00    -0.000 C 
BRANCH  12  13
ATOM     13  C   UNL     1      -0.794  24.142   0.403  1.00  0.00    -0.000 C 
BRANCH  13  14
ATOM     14  C   UNL     1      -0.098  23.374  -0.731  1.00  0.00    -0.000 C 
BRANCH  14  15
ATOM     15  C   UNL     1      -0.871  22.114  -1.162  1.00  0.00    -0.000 C 
BRANCH  15  16
ATOM     16  C   UNL     1      -1.816  21.536  -0.093  1.00  0.00    -0.003 C 
ATOM     17  C   UNL     1      -2.990  20.760  -0.688  1.00  0.00     0.004 C 
ENDBRANCH  15  16
ENDBRANCH  14  15
ENDBRANCH  13  14
ENDBRANCH  12  13
ENDBRANCH  11  12
ENDBRANCH  10  11
ENDBRANCH   1  10
TORSDOF 13
ENDMDL
