MODEL 1
REMARK VINA RESULT:    -4.224      0.000      0.000
REMARK INTER + INTRA:          -4.565
REMARK INTER:                  -4.471
REMARK INTRA:                  -0.094
REMARK UNBOUND:                -0.094
REMARK SMILES C=C(C)[C@H]1CC=C(C)C(=O)C1
REMARK SMILES IDX 8 1 7 2 6 3 5 4 4 5 11 6 9 7 10 8 2 9 1 10 3 11
REMARK H PARENT
REMARK Flexibility Score: inf
ROOT
ATOM      1  C   UNL     1      26.833  25.767  26.890  1.00  0.00     0.048 C 
ATOM      2  C   UNL     1      27.287  26.993  26.148  1.00  0.00    -0.012 C 
ATOM      3  C   UNL     1      28.342  26.930  25.317  1.00  0.00    -0.019 C 
ATOM      4  C   UNL     1      28.882  28.148  24.616  1.00  0.00     0.036 C 
ATOM      5  C   UNL     1      27.764  29.169  24.336  1.00  0.00     0.025 C 
ATOM      6  C   UNL     1      27.026  29.526  25.639  1.00  0.00     0.089 C 
ATOM      7  C   UNL     1      26.579  28.281  26.354  1.00  0.00     0.158 C 
ATOM      8  O   UNL     1      25.619  28.351  27.169  1.00  0.00    -0.295 OA
ENDROOT
BRANCH   5   9
ATOM      9  C   UNL     1      28.306  30.413  23.646  1.00  0.00    -0.077 C 
ATOM     10  C   UNL     1      29.006  30.300  22.506  1.00  0.00     0.008 C 
ATOM     11  C   UNL     1      28.076  31.793  24.214  1.00  0.00     0.039 C 
ENDBRANCH   5   9
TORSDOF 1
ENDMDL
MODEL 2
REMARK VINA RESULT:    -4.064      1.908      2.831
REMARK INTER + INTRA:          -4.395
REMARK INTER:                  -4.297
REMARK INTRA:                  -0.098
REMARK UNBOUND:                -0.094
REMARK SMILES C=C(C)[C@H]1CC=C(C)C(=O)C1
REMARK SMILES IDX 8 1 7 2 6 3 5 4 4 5 11 6 9 7 10 8 2 9 1 10 3 11
REMARK H PARENT
REMARK Flexibility Score: inf
ROOT
ATOM      1  C   UNL     1      28.485  27.849  26.041  1.00  0.00     0.048 C 
ATOM      2  C   UNL     1      28.582  29.165  25.321  1.00  0.00    -0.012 C 
ATOM      3  C   UNL     1      28.580  29.203  23.977  1.00  0.00    -0.019 C 
ATOM      4  C   UNL     1      28.756  30.488  23.213  1.00  0.00     0.036 C 
ATOM      5  C   UNL     1      28.191  31.685  24.001  1.00  0.00     0.025 C 
ATOM      6  C   UNL     1      28.823  31.749  25.403  1.00  0.00     0.089 C 
ATOM      7  C   UNL     1      28.705  30.422  26.100  1.00  0.00     0.158 C 
ATOM      8  O   UNL     1      28.756  30.382  27.360  1.00  0.00    -0.295 OA
ENDROOT
BRANCH   5   9
ATOM      9  C   UNL     1      28.385  32.992  23.244  1.00  0.00    -0.077 C 
ATOM     10  C   UNL     1      28.859  32.978  21.988  1.00  0.00     0.008 C 
ATOM     11  C   UNL     1      28.052  34.323  23.872  1.00  0.00     0.039 C 
ENDBRANCH   5   9
TORSDOF 1
ENDMDL
MODEL 3
REMARK VINA RESULT:    -3.901      3.429      5.982
REMARK INTER + INTRA:          -4.223
REMARK INTER:                  -4.125
REMARK INTRA:                  -0.098
REMARK UNBOUND:                -0.094
REMARK SMILES C=C(C)[C@H]1CC=C(C)C(=O)C1
REMARK SMILES IDX 8 1 7 2 6 3 5 4 4 5 11 6 9 7 10 8 2 9 1 10 3 11
REMARK H PARENT
REMARK Flexibility Score: inf
ROOT
ATOM      1  C   UNL     1      28.582  35.355  21.383  1.00  0.00     0.048 C 
ATOM      2  C   UNL     1      28.595  34.050  22.129  1.00  0.00    -0.012 C 
ATOM      3  C   UNL     1      29.121  32.951  21.560  1.00  0.00    -0.019 C 
ATOM      4  C   UNL     1      29.084  31.605  22.235  1.00  0.00     0.036 C 
ATOM      5  C   UNL     1      29.121  31.752  23.768  1.00  0.00     0.025 C 
ATOM      6  C   UNL     1      27.986  32.675  24.246  1.00  0.00     0.089 C 
ATOM      7  C   UNL     1      28.003  33.973  23.488  1.00  0.00     0.158 C 
ATOM      8  O   UNL     1      27.466  34.993  24.002  1.00  0.00    -0.295 OA
ENDROOT
BRANCH   5   9
ATOM      9  C   UNL     1      29.063  30.396  24.458  1.00  0.00    -0.077 C 
ATOM     10  C   UNL     1      28.988  29.271  23.728  1.00  0.00     0.008 C 
ATOM     11  C   UNL     1      29.088  30.276  25.962  1.00  0.00     0.039 C 
ENDBRANCH   5   9
TORSDOF 1
ENDMDL
MODEL 4
REMARK VINA RESULT:    -3.882      9.942     11.753
REMARK INTER + INTRA:          -4.203
REMARK INTER:                  -4.108
REMARK INTRA:                  -0.096
REMARK UNBOUND:                -0.094
REMARK SMILES C=C(C)[C@H]1CC=C(C)C(=O)C1
REMARK SMILES IDX 8 1 7 2 6 3 5 4 4 5 11 6 9 7 10 8 2 9 1 10 3 11
REMARK H PARENT
REMARK Flexibility Score: inf
ROOT
ATOM      1  C   UNL     1      24.328  36.992  21.721  1.00  0.00     0.048 C 
ATOM      2  C   UNL     1      25.190  37.871  20.859  1.00  0.00    -0.012 C 
ATOM      3  C   UNL     1      25.442  39.140  21.225  1.00  0.00    -0.019 C 
ATOM      4  C   UNL     1      26.232  40.082  20.355  1.00  0.00     0.036 C 
ATOM      5  C   UNL     1      27.273  39.321  19.514  1.00  0.00     0.025 C 
ATOM      6  C   UNL     1      26.593  38.206  18.699  1.00  0.00     0.089 C 
ATOM      7  C   UNL     1      25.745  37.340  19.589  1.00  0.00     0.158 C 
ATOM      8  O   UNL     1      25.470  36.165  19.222  1.00  0.00    -0.295 OA
ENDROOT
BRANCH   5   9
ATOM      9  C   UNL     1      28.062  40.264  18.616  1.00  0.00    -0.077 C 
ATOM     10  C   UNL     1      29.009  39.779  17.797  1.00  0.00     0.008 C 
ATOM     11  C   UNL     1      27.805  41.751  18.618  1.00  0.00     0.039 C 
ENDBRANCH   5   9
TORSDOF 1
ENDMDL
MODEL 5
REMARK VINA RESULT:    -3.788      1.823      4.349
REMARK INTER + INTRA:          -4.104
REMARK INTER:                  -4.017
REMARK INTRA:                  -0.087
REMARK UNBOUND:                -0.094
REMARK SMILES C=C(C)[C@H]1CC=C(C)C(=O)C1
REMARK SMILES IDX 8 1 7 2 6 3 5 4 4 5 11 6 9 7 10 8 2 9 1 10 3 11
REMARK H PARENT
REMARK Flexibility Score: inf
ROOT
ATOM      1  C   UNL     1      28.225  32.197  24.532  1.00  0.00     0.048 C 
ATOM      2  C   UNL     1      28.088  30.768  24.979  1.00  0.00    -0.012 C 
ATOM      3  C   UNL     1      27.501  29.862  24.178  1.00  0.00    -0.019 C 
ATOM      4  C   UNL     1      27.268  28.440  24.615  1.00  0.00     0.036 C 
ATOM      5  C   UNL     1      28.353  27.978  25.606  1.00  0.00     0.025 C 
ATOM      6  C   UNL     1      28.437  28.948  26.799  1.00  0.00     0.089 C 
ATOM      7  C   UNL     1      28.581  30.367  26.320  1.00  0.00     0.158 C 
ATOM      8  O   UNL     1      29.088  31.227  27.091  1.00  0.00    -0.295 OA
ENDROOT
BRANCH   5   9
ATOM      9  C   UNL     1      28.113  26.548  26.069  1.00  0.00    -0.077 C 
ATOM     10  C   UNL     1      29.039  25.603  25.842  1.00  0.00     0.008 C 
ATOM     11  C   UNL     1      26.846  26.156  26.788  1.00  0.00     0.039 C 
ENDBRANCH   5   9
TORSDOF 1
ENDMDL
MODEL 6
REMARK VINA RESULT:    -3.783     10.120     12.371
REMARK INTER + INTRA:          -4.098
REMARK INTER:                  -4.001
REMARK INTRA:                  -0.097
REMARK UNBOUND:                -0.094
REMARK SMILES C=C(C)[C@H]1CC=C(C)C(=O)C1
REMARK SMILES IDX 8 1 7 2 6 3 5 4 4 5 11 6 9 7 10 8 2 9 1 10 3 11
REMARK H PARENT
REMARK Flexibility Score: inf
ROOT
ATOM      1  C   UNL     1      26.501  42.198  20.865  1.00  0.00     0.048 C 
ATOM      2  C   UNL     1      26.496  40.740  20.497  1.00  0.00    -0.012 C 
ATOM      3  C   UNL     1      25.834  39.852  21.259  1.00  0.00    -0.019 C 
ATOM      4  C   UNL     1      25.867  38.373  20.977  1.00  0.00     0.036 C 
ATOM      5  C   UNL     1      26.028  38.100  19.470  1.00  0.00     0.025 C 
ATOM      6  C   UNL     1      27.271  38.826  18.923  1.00  0.00     0.089 C 
ATOM      7  C   UNL     1      27.244  40.281  19.301  1.00  0.00     0.158 C 
ATOM      8  O   UNL     1      27.904  41.107  18.613  1.00  0.00    -0.295 OA
ENDROOT
BRANCH   5   9
ATOM      9  C   UNL     1      26.084  36.607  19.178  1.00  0.00    -0.077 C 
ATOM     10  C   UNL     1      27.219  35.921  19.391  1.00  0.00     0.008 C 
ATOM     11  C   UNL     1      24.882  35.862  18.649  1.00  0.00     0.039 C 
ENDBRANCH   5   9
TORSDOF 1
ENDMDL
MODEL 7
REMARK VINA RESULT:    -3.769     10.117     11.552
REMARK INTER + INTRA:          -4.084
REMARK INTER:                  -3.985
REMARK INTRA:                  -0.098
REMARK UNBOUND:                -0.094
REMARK SMILES C=C(C)[C@H]1CC=C(C)C(=O)C1
REMARK SMILES IDX 8 1 7 2 6 3 5 4 4 5 11 6 9 7 10 8 2 9 1 10 3 11
REMARK H PARENT
REMARK Flexibility Score: inf
ROOT
ATOM      1  C   UNL     1      24.984  35.824  18.796  1.00  0.00     0.048 C 
ATOM      2  C   UNL     1      25.553  37.096  19.360  1.00  0.00    -0.012 C 
ATOM      3  C   UNL     1      26.480  37.786  18.672  1.00  0.00    -0.019 C 
ATOM      4  C   UNL     1      27.137  39.020  19.231  1.00  0.00     0.036 C 
ATOM      5  C   UNL     1      26.186  39.775  20.179  1.00  0.00     0.025 C 
ATOM      6  C   UNL     1      25.674  38.835  21.285  1.00  0.00     0.089 C 
ATOM      7  C   UNL     1      25.105  37.576  20.691  1.00  0.00     0.158 C 
ATOM      8  O   UNL     1      24.271  36.903  21.357  1.00  0.00    -0.295 OA
ENDROOT
BRANCH   5   9
ATOM      9  C   UNL     1      26.850  41.013  20.765  1.00  0.00    -0.077 C 
ATOM     10  C   UNL     1      28.111  41.325  20.424  1.00  0.00     0.008 C 
ATOM     11  C   UNL     1      26.122  41.914  21.732  1.00  0.00     0.039 C 
ENDBRANCH   5   9
TORSDOF 1
ENDMDL
MODEL 8
REMARK VINA RESULT:    -3.758      9.938     12.910
REMARK INTER + INTRA:          -4.071
REMARK INTER:                  -3.974
REMARK INTRA:                  -0.097
REMARK UNBOUND:                -0.094
REMARK SMILES C=C(C)[C@H]1CC=C(C)C(=O)C1
REMARK SMILES IDX 8 1 7 2 6 3 5 4 4 5 11 6 9 7 10 8 2 9 1 10 3 11
REMARK H PARENT
REMARK Flexibility Score: inf
ROOT
ATOM      1  C   UNL     1      27.784  42.446  18.606  1.00  0.00     0.048 C 
ATOM      2  C   UNL     1      27.256  41.267  19.374  1.00  0.00    -0.012 C 
ATOM      3  C   UNL     1      26.538  41.455  20.495  1.00  0.00    -0.019 C 
ATOM      4  C   UNL     1      26.058  40.305  21.341  1.00  0.00     0.036 C 
ATOM      5  C   UNL     1      25.797  39.055  20.480  1.00  0.00     0.025 C 
ATOM      6  C   UNL     1      27.051  38.694  19.664  1.00  0.00     0.089 C 
ATOM      7  C   UNL     1      27.551  39.891  18.903  1.00  0.00     0.158 C 
ATOM      8  O   UNL     1      28.265  39.713  17.878  1.00  0.00    -0.295 OA
ENDROOT
BRANCH   5   9
ATOM      9  C   UNL     1      25.331  37.881  21.331  1.00  0.00    -0.077 C 
ATOM     10  C   UNL     1      26.228  37.019  21.838  1.00  0.00     0.008 C 
ATOM     11  C   UNL     1      23.869  37.655  21.629  1.00  0.00     0.039 C 
ENDBRANCH   5   9
TORSDOF 1
ENDMDL
MODEL 9
REMARK VINA RESULT:    -1.451     10.761     13.759
REMARK INTER + INTRA:          -1.630
REMARK INTER:                  -1.533
REMARK INTRA:                  -0.097
REMARK UNBOUND:                -0.094
REMARK SMILES C=C(C)[C@H]1CC=C(C)C(=O)C1
REMARK SMILES IDX 8 1 7 2 6 3 5 4 4 5 11 6 9 7 10 8 2 9 1 10 3 11
REMARK H PARENT
REMARK Flexibility Score: inf
ROOT
ATOM      1  C   UNL     1      26.607  44.125  20.483  1.00  0.00     0.048 C 
ATOM      2  C   UNL     1      26.663  42.624  20.419  1.00  0.00    -0.012 C 
ATOM      3  C   UNL     1      26.232  41.886  21.456  1.00  0.00    -0.019 C 
ATOM      4  C   UNL     1      26.343  40.384  21.471  1.00  0.00     0.036 C 
ATOM      5  C   UNL     1      26.252  39.807  20.046  1.00  0.00     0.025 C 
ATOM      6  C   UNL     1      27.306  40.460  19.134  1.00  0.00     0.089 C 
ATOM      7  C   UNL     1      27.220  41.960  19.214  1.00  0.00     0.158 C 
ATOM      8  O   UNL     1      27.669  42.653  18.261  1.00  0.00    -0.295 OA
ENDROOT
BRANCH   5   9
ATOM      9  C   UNL     1      26.385  38.290  20.050  1.00  0.00    -0.077 C 
ATOM     10  C   UNL     1      26.614  37.631  18.903  1.00  0.00     0.008 C 
ATOM     11  C   UNL     1      26.268  37.493  21.326  1.00  0.00     0.039 C 
ENDBRANCH   5   9
TORSDOF 1
ENDMDL
