MODEL 1
REMARK VINA RESULT:    -3.900      0.000      0.000
REMARK INTER + INTRA:          -6.329
REMARK INTER:                  -5.495
REMARK INTRA:                  -0.834
REMARK UNBOUND:                -0.834
REMARK SMILES C=CCCCCCCC(=O)[O-]
REMARK SMILES IDX 6 1 7 2 8 3 9 4 10 5 11 6 5 7 4 8 3 9 2 10 1 11
REMARK H PARENT
REMARK Flexibility Score: inf
ROOT
ATOM      1  C   UNL     1      -8.344   2.175  -3.866  1.00  0.00     0.000 C 
ENDROOT
BRANCH   1   2
ATOM      2  C   UNL     1      -7.999   1.815  -5.320  1.00  0.00     0.006 C 
BRANCH   2   3
ATOM      3  C   UNL     1      -6.694   2.465  -5.796  1.00  0.00     0.053 C 
BRANCH   3   4
ATOM      4  C   UNL     1      -5.559   2.068  -4.906  1.00  0.00     0.041 C 
ATOM      5  O   UNL     1      -4.889   2.946  -4.302  1.00  0.00    -0.550 OA
ATOM      6  O   UNL     1      -5.207   0.729  -4.783  1.00  0.00    -0.550 OA
ENDBRANCH   3   4
ENDBRANCH   2   3
ENDBRANCH   1   2
BRANCH   1   7
ATOM      7  C   UNL     1      -9.520   3.156  -3.760  1.00  0.00     0.000 C 
BRANCH   7   8
ATOM      8  C   UNL     1      -9.098   4.446  -3.049  1.00  0.00     0.004 C 
BRANCH   8   9
ATOM      9  C   UNL     1      -7.639   4.364  -2.580  1.00  0.00     0.027 C 
BRANCH   9  10
ATOM     10  C   UNL     1      -6.879   5.608  -2.946  1.00  0.00    -0.035 C 
ATOM     11  C   UNL     1      -6.559   5.891  -4.212  1.00  0.00     0.004 C 
ENDBRANCH   9  10
ENDBRANCH   8   9
ENDBRANCH   7   8
ENDBRANCH   1   7
TORSDOF 7
ENDMDL
MODEL 2
REMARK VINA RESULT:    -3.866      1.151      1.520
REMARK INTER + INTRA:          -6.282
REMARK INTER:                  -5.550
REMARK INTRA:                  -0.732
REMARK UNBOUND:                -0.834
REMARK SMILES C=CCCCCCCC(=O)[O-]
REMARK SMILES IDX 6 1 7 2 8 3 9 4 10 5 11 6 5 7 4 8 3 9 2 10 1 11
REMARK H PARENT
REMARK Flexibility Score: inf
ROOT
ATOM      1  C   UNL     1      -8.572   1.698  -4.847  1.00  0.00     0.000 C 
ENDROOT
BRANCH   1   2
ATOM      2  C   UNL     1      -7.397   2.111  -5.748  1.00  0.00     0.006 C 
BRANCH   2   3
ATOM      3  C   UNL     1      -6.033   1.817  -5.112  1.00  0.00     0.053 C 
BRANCH   3   4
ATOM      4  C   UNL     1      -4.951   2.560  -5.830  1.00  0.00     0.041 C 
ATOM      5  O   UNL     1      -3.755   2.177  -5.746  1.00  0.00    -0.550 OA
ATOM      6  O   UNL     1      -5.256   3.709  -6.549  1.00  0.00    -0.550 OA
ENDBRANCH   3   4
ENDBRANCH   2   3
ENDBRANCH   1   2
BRANCH   1   7
ATOM      7  C   UNL     1      -8.534   2.383  -3.473  1.00  0.00     0.000 C 
BRANCH   7   8
ATOM      8  C   UNL     1      -9.382   3.659  -3.473  1.00  0.00     0.004 C 
BRANCH   8   9
ATOM      9  C   UNL     1      -8.620   4.826  -2.832  1.00  0.00     0.027 C 
BRANCH   9  10
ATOM     10  C   UNL     1      -7.149   4.748  -3.136  1.00  0.00    -0.035 C 
ATOM     11  C   UNL     1      -6.537   5.661  -3.896  1.00  0.00     0.004 C 
ENDBRANCH   9  10
ENDBRANCH   8   9
ENDBRANCH   7   8
ENDBRANCH   1   7
TORSDOF 7
ENDMDL
MODEL 3
REMARK VINA RESULT:    -3.860      1.723      3.679
REMARK INTER + INTRA:          -6.273
REMARK INTER:                  -5.520
REMARK INTRA:                  -0.753
REMARK UNBOUND:                -0.834
REMARK SMILES C=CCCCCCCC(=O)[O-]
REMARK SMILES IDX 6 1 7 2 8 3 9 4 10 5 11 6 5 7 4 8 3 9 2 10 1 11
REMARK H PARENT
REMARK Flexibility Score: inf
ROOT
ATOM      1  C   UNL     1      -9.578   3.010  -4.083  1.00  0.00     0.000 C 
ENDROOT
BRANCH   1   2
ATOM      2  C   UNL     1      -9.191   4.143  -3.119  1.00  0.00     0.006 C 
BRANCH   2   3
ATOM      3  C   UNL     1      -8.152   5.098  -3.716  1.00  0.00     0.053 C 
BRANCH   3   4
ATOM      4  C   UNL     1      -6.928   5.142  -2.857  1.00  0.00     0.041 C 
ATOM      5  O   UNL     1      -6.437   4.078  -2.398  1.00  0.00    -0.550 OA
ATOM      6  O   UNL     1      -6.357   6.364  -2.522  1.00  0.00    -0.550 OA
ENDBRANCH   3   4
ENDBRANCH   2   3
ENDBRANCH   1   2
BRANCH   1   7
ATOM      7  C   UNL     1      -8.624   1.808  -3.999  1.00  0.00     0.000 C 
BRANCH   7   8
ATOM      8  C   UNL     1      -7.870   1.613  -5.318  1.00  0.00     0.004 C 
BRANCH   8   9
ATOM      9  C   UNL     1      -6.356   1.750  -5.112  1.00  0.00     0.027 C 
BRANCH   9  10
ATOM     10  C   UNL     1      -5.753   2.693  -6.117  1.00  0.00    -0.035 C 
ATOM     11  C   UNL     1      -5.188   3.846  -5.749  1.00  0.00     0.004 C 
ENDBRANCH   9  10
ENDBRANCH   8   9
ENDBRANCH   7   8
ENDBRANCH   1   7
TORSDOF 7
ENDMDL
MODEL 4
REMARK VINA RESULT:    -3.671      1.545      2.144
REMARK INTER + INTRA:          -6.007
REMARK INTER:                  -5.264
REMARK INTRA:                  -0.743
REMARK UNBOUND:                -0.834
REMARK SMILES C=CCCCCCCC(=O)[O-]
REMARK SMILES IDX 6 1 7 2 8 3 9 4 10 5 11 6 5 7 4 8 3 9 2 10 1 11
REMARK H PARENT
REMARK Flexibility Score: inf
ROOT
ATOM      1  C   UNL     1      -7.912   3.819  -3.588  1.00  0.00     0.000 C 
ENDROOT
BRANCH   1   2
ATOM      2  C   UNL     1      -7.019   2.875  -4.408  1.00  0.00     0.006 C 
BRANCH   2   3
ATOM      3  C   UNL     1      -5.529   3.220  -4.290  1.00  0.00     0.053 C 
BRANCH   3   4
ATOM      4  C   UNL     1      -4.861   3.112  -5.624  1.00  0.00     0.041 C 
ATOM      5  O   UNL     1      -5.213   3.860  -6.573  1.00  0.00    -0.550 OA
ATOM      6  O   UNL     1      -3.882   2.147  -5.835  1.00  0.00    -0.550 OA
ENDBRANCH   3   4
ENDBRANCH   2   3
ENDBRANCH   1   2
BRANCH   1   7
ATOM      7  C   UNL     1      -7.209   4.363  -2.336  1.00  0.00     0.000 C 
BRANCH   7   8
ATOM      8  C   UNL     1      -7.278   5.893  -2.289  1.00  0.00     0.004 C 
BRANCH   8   9
ATOM      9  C   UNL     1      -7.709   6.468  -3.644  1.00  0.00     0.027 C 
BRANCH   9  10
ATOM     10  C   UNL     1      -6.634   7.340  -4.232  1.00  0.00    -0.035 C 
ATOM     11  C   UNL     1      -5.408   6.874  -4.484  1.00  0.00     0.004 C 
ENDBRANCH   9  10
ENDBRANCH   8   9
ENDBRANCH   7   8
ENDBRANCH   1   7
TORSDOF 7
ENDMDL
MODEL 5
REMARK VINA RESULT:    -3.603     14.591     16.608
REMARK INTER + INTRA:          -5.912
REMARK INTER:                  -5.635
REMARK INTRA:                  -0.277
REMARK UNBOUND:                -0.834
REMARK SMILES C=CCCCCCCC(=O)[O-]
REMARK SMILES IDX 6 1 7 2 8 3 9 4 10 5 11 6 5 7 4 8 3 9 2 10 1 11
REMARK H PARENT
REMARK Flexibility Score: inf
ROOT
ATOM      1  C   UNL     1       8.963  -0.906  -1.935  1.00  0.00     0.000 C 
ENDROOT
BRANCH   1   2
ATOM      2  C   UNL     1       7.884  -0.083  -2.658  1.00  0.00     0.006 C 
BRANCH   2   3
ATOM      3  C   UNL     1       8.471   1.079  -3.467  1.00  0.00     0.053 C 
BRANCH   3   4
ATOM      4  C   UNL     1       7.402   2.069  -3.810  1.00  0.00     0.041 C 
ATOM      5  O   UNL     1       6.194   1.715  -3.834  1.00  0.00    -0.550 OA
ATOM      6  O   UNL     1       7.745   3.371  -4.153  1.00  0.00    -0.550 OA
ENDBRANCH   3   4
ENDBRANCH   2   3
ENDBRANCH   1   2
BRANCH   1   7
ATOM      7  C   UNL     1       8.514  -1.383  -0.546  1.00  0.00     0.000 C 
BRANCH   7   8
ATOM      8  C   UNL     1       9.024  -2.799  -0.260  1.00  0.00     0.004 C 
BRANCH   8   9
ATOM      9  C   UNL     1       8.522  -3.790  -1.317  1.00  0.00     0.027 C 
BRANCH   9  10
ATOM     10  C   UNL     1       7.643  -4.844  -0.702  1.00  0.00    -0.035 C 
ATOM     11  C   UNL     1       7.796  -5.235   0.566  1.00  0.00     0.004 C 
ENDBRANCH   9  10
ENDBRANCH   8   9
ENDBRANCH   7   8
ENDBRANCH   1   7
TORSDOF 7
ENDMDL
MODEL 6
REMARK VINA RESULT:    -3.569     12.269     13.502
REMARK INTER + INTRA:          -5.864
REMARK INTER:                  -5.169
REMARK INTRA:                  -0.694
REMARK UNBOUND:                -0.834
REMARK SMILES C=CCCCCCCC(=O)[O-]
REMARK SMILES IDX 6 1 7 2 8 3 9 4 10 5 11 6 5 7 4 8 3 9 2 10 1 11
REMARK H PARENT
REMARK Flexibility Score: inf
ROOT
ATOM      1  C   UNL     1       5.574   3.404  -6.879  1.00  0.00     0.000 C 
ENDROOT
BRANCH   1   2
ATOM      2  C   UNL     1       6.076   2.219  -6.038  1.00  0.00     0.006 C 
BRANCH   2   3
ATOM      3  C   UNL     1       6.094   2.527  -4.536  1.00  0.00     0.053 C 
BRANCH   3   4
ATOM      4  C   UNL     1       7.310   1.937  -3.896  1.00  0.00     0.041 C 
ATOM      5  O   UNL     1       8.408   2.551  -3.934  1.00  0.00    -0.550 OA
ATOM      6  O   UNL     1       7.243   0.683  -3.301  1.00  0.00    -0.550 OA
ENDBRANCH   3   4
ENDBRANCH   2   3
ENDBRANCH   1   2
BRANCH   1   7
ATOM      7  C   UNL     1       4.232   3.959  -6.379  1.00  0.00     0.000 C 
BRANCH   7   8
ATOM      8  C   UNL     1       4.299   5.480  -6.202  1.00  0.00     0.004 C 
BRANCH   8   9
ATOM      9  C   UNL     1       5.743   5.944  -5.971  1.00  0.00     0.027 C 
BRANCH   9  10
ATOM     10  C   UNL     1       5.968   6.325  -4.533  1.00  0.00    -0.035 C 
ATOM     11  C   UNL     1       7.146   6.138  -3.932  1.00  0.00     0.004 C 
ENDBRANCH   9  10
ENDBRANCH   8   9
ENDBRANCH   7   8
ENDBRANCH   1   7
TORSDOF 7
ENDMDL
MODEL 7
REMARK VINA RESULT:    -3.536     12.054     13.727
REMARK INTER + INTRA:          -5.817
REMARK INTER:                  -5.181
REMARK INTRA:                  -0.636
REMARK UNBOUND:                -0.834
REMARK SMILES C=CCCCCCCC(=O)[O-]
REMARK SMILES IDX 6 1 7 2 8 3 9 4 10 5 11 6 5 7 4 8 3 9 2 10 1 11
REMARK H PARENT
REMARK Flexibility Score: inf
ROOT
ATOM      1  C   UNL     1       7.349   3.757  -6.125  1.00  0.00     0.000 C 
ENDROOT
BRANCH   1   2
ATOM      2  C   UNL     1       7.292   3.593  -4.597  1.00  0.00     0.006 C 
BRANCH   2   3
ATOM      3  C   UNL     1       8.260   2.522  -4.082  1.00  0.00     0.053 C 
BRANCH   3   4
ATOM      4  C   UNL     1       7.507   1.311  -3.630  1.00  0.00     0.041 C 
ATOM      5  O   UNL     1       6.271   1.215  -3.845  1.00  0.00    -0.550 OA
ATOM      6  O   UNL     1       8.162   0.308  -2.925  1.00  0.00    -0.550 OA
ENDBRANCH   3   4
ENDBRANCH   2   3
ENDBRANCH   1   2
BRANCH   1   7
ATOM      7  C   UNL     1       6.124   3.158  -6.832  1.00  0.00     0.000 C 
BRANCH   7   8
ATOM      8  C   UNL     1       4.826   3.586  -6.139  1.00  0.00     0.004 C 
BRANCH   8   9
ATOM      9  C   UNL     1       4.071   4.626  -6.977  1.00  0.00     0.027 C 
BRANCH   9  10
ATOM     10  C   UNL     1       3.877   5.905  -6.210  1.00  0.00    -0.035 C 
ATOM     11  C   UNL     1       4.802   6.367  -5.364  1.00  0.00     0.004 C 
ENDBRANCH   9  10
ENDBRANCH   8   9
ENDBRANCH   7   8
ENDBRANCH   1   7
TORSDOF 7
ENDMDL
MODEL 8
REMARK VINA RESULT:    -3.497     17.757     18.789
REMARK INTER + INTRA:          -5.761
REMARK INTER:                  -5.327
REMARK INTRA:                  -0.434
REMARK UNBOUND:                -0.834
REMARK SMILES C=CCCCCCCC(=O)[O-]
REMARK SMILES IDX 6 1 7 2 8 3 9 4 10 5 11 6 5 7 4 8 3 9 2 10 1 11
REMARK H PARENT
REMARK Flexibility Score: inf
ROOT
ATOM      1  C   UNL     1       8.349   3.857   8.901  1.00  0.00     0.000 C 
ENDROOT
BRANCH   1   2
ATOM      2  C   UNL     1       7.528   2.619   9.297  1.00  0.00     0.006 C 
BRANCH   2   3
ATOM      3  C   UNL     1       6.029   2.918   9.417  1.00  0.00     0.053 C 
BRANCH   3   4
ATOM      4  C   UNL     1       5.240   1.987   8.552  1.00  0.00     0.041 C 
ATOM      5  O   UNL     1       5.601   1.761   7.368  1.00  0.00    -0.550 OA
ATOM      6  O   UNL     1       4.074   1.408   9.038  1.00  0.00    -0.550 OA
ENDBRANCH   3   4
ENDBRANCH   2   3
ENDBRANCH   1   2
BRANCH   1   7
ATOM      7  C   UNL     1       7.991   4.385   7.504  1.00  0.00     0.000 C 
BRANCH   7   8
ATOM      8  C   UNL     1       8.719   3.592   6.414  1.00  0.00     0.004 C 
BRANCH   8   9
ATOM      9  C   UNL     1       8.826   4.407   5.119  1.00  0.00     0.027 C 
BRANCH   9  10
ATOM     10  C   UNL     1       8.028   5.679   5.208  1.00  0.00    -0.035 C 
ATOM     11  C   UNL     1       8.455   6.818   4.655  1.00  0.00     0.004 C 
ENDBRANCH   9  10
ENDBRANCH   8   9
ENDBRANCH   7   8
ENDBRANCH   1   7
TORSDOF 7
ENDMDL
MODEL 9
REMARK VINA RESULT:    -3.447     17.619     18.561
REMARK INTER + INTRA:          -5.691
REMARK INTER:                  -5.351
REMARK INTRA:                  -0.339
REMARK UNBOUND:                -0.834
REMARK SMILES C=CCCCCCCC(=O)[O-]
REMARK SMILES IDX 6 1 7 2 8 3 9 4 10 5 11 6 5 7 4 8 3 9 2 10 1 11
REMARK H PARENT
REMARK Flexibility Score: inf
ROOT
ATOM      1  C   UNL     1       8.205   4.770   6.204  1.00  0.00     0.000 C 
ENDROOT
BRANCH   1   2
ATOM      2  C   UNL     1       8.222   4.046   7.560  1.00  0.00     0.006 C 
BRANCH   2   3
ATOM      3  C   UNL     1       6.837   3.537   7.975  1.00  0.00     0.053 C 
BRANCH   3   4
ATOM      4  C   UNL     1       6.664   2.106   7.573  1.00  0.00     0.041 C 
ATOM      5  O   UNL     1       7.661   1.418   7.231  1.00  0.00    -0.550 OA
ATOM      6  O   UNL     1       5.393   1.546   7.527  1.00  0.00    -0.550 OA
ENDBRANCH   3   4
ENDBRANCH   2   3
ENDBRANCH   1   2
BRANCH   1   7
ATOM      7  C   UNL     1       9.426   4.433   5.336  1.00  0.00     0.000 C 
BRANCH   7   8
ATOM      8  C   UNL     1       9.702   5.546   4.320  1.00  0.00     0.004 C 
BRANCH   8   9
ATOM      9  C   UNL     1       8.743   6.726   4.521  1.00  0.00     0.027 C 
BRANCH   9  10
ATOM     10  C   UNL     1       8.266   7.272   3.203  1.00  0.00    -0.035 C 
ATOM     11  C   UNL     1       9.119   7.632   2.240  1.00  0.00     0.004 C 
ENDBRANCH   9  10
ENDBRANCH   8   9
ENDBRANCH   7   8
ENDBRANCH   1   7
TORSDOF 7
ENDMDL
