MODEL 1
REMARK VINA RESULT:    -5.931      0.000      0.000
REMARK INTER + INTRA:          -7.239
REMARK INTER:                  -6.971
REMARK INTRA:                  -0.268
REMARK UNBOUND:                -0.268
REMARK SMILES O=c1c(O)c(-c2ccc(O)cc2)oc2cc(O)cc(O)c12
REMARK SMILES IDX 5 1 3 2 2 3 1 4 21 5 19 6 18 7 16 8 15 9 14 10 13 11 6 12
REMARK SMILES IDX 7 13 8 14 9 15 12 16 11 17 10 18 4 20 20 22 17 24
REMARK H PARENT 10 19 4 21 20 23 17 25
REMARK Flexibility Score: inf
ROOT
ATOM      1  C   UNL     1      -9.183   8.255  16.546  1.00  0.00     0.180 A 
ATOM      2  C   UNL     1     -10.546   8.404  16.856  1.00  0.00     0.208 A 
ATOM      3  C   UNL     1     -10.905   8.918  18.113  1.00  0.00     0.238 A 
ATOM      4  O   UNL     1     -12.125   9.100  18.363  1.00  0.00    -0.285 OA
ATOM      5  C   UNL     1      -9.899   9.261  19.048  1.00  0.00     0.111 A 
ATOM      6  C   UNL     1     -10.151   9.752  20.364  1.00  0.00     0.134 A 
ATOM      7  C   UNL     1      -9.079  10.182  21.157  1.00  0.00     0.093 A 
ATOM      8  C   UNL     1      -7.764  10.078  20.708  1.00  0.00     0.123 A 
ATOM      9  C   UNL     1      -7.503   9.544  19.446  1.00  0.00     0.094 A 
ATOM     10  C   UNL     1      -8.553   9.140  18.617  1.00  0.00     0.146 A 
ATOM     11  O   UNL     1      -8.262   8.647  17.419  1.00  0.00    -0.452 OA
ENDROOT
BRANCH   1  12
ATOM     12  C   UNL     1      -8.725   7.697  15.253  1.00  0.00     0.021 A 
ATOM     13  C   UNL     1      -8.216   8.560  14.268  1.00  0.00     0.016 A 
ATOM     14  C   UNL     1      -7.757   8.053  13.049  1.00  0.00     0.047 A 
ATOM     15  C   UNL     1      -7.790   6.674  12.805  1.00  0.00     0.115 A 
ATOM     16  C   UNL     1      -8.736   6.312  15.007  1.00  0.00     0.016 A 
ATOM     17  C   UNL     1      -8.276   5.806  13.788  1.00  0.00     0.047 A 
BRANCH  15  18
ATOM     18  O   UNL     1      -7.336   6.155  11.594  1.00  0.00    -0.508 OA
ATOM     19  H   UNL     1      -6.531   6.546  11.119  1.00  0.00     0.293 HD
ENDBRANCH  15  18
ENDBRANCH   1  12
BRANCH   2  20
ATOM     20  O   UNL     1     -11.522   8.081  15.909  1.00  0.00    -0.502 OA
ATOM     21  H   UNL     1     -11.290   7.761  14.977  1.00  0.00     0.293 HD
ENDBRANCH   2  20
BRANCH   6  22
ATOM     22  O   UNL     1     -11.421   9.811  20.946  1.00  0.00    -0.507 OA
ATOM     23  H   UNL     1     -12.039  10.607  20.897  1.00  0.00     0.293 HD
ENDBRANCH   6  22
BRANCH   8  24
ATOM     24  O   UNL     1      -6.721  10.501  21.530  1.00  0.00    -0.508 OA
ATOM     25  H   UNL     1      -6.872  11.169  22.276  1.00  0.00     0.293 HD
ENDBRANCH   8  24
TORSDOF 5
ENDMDL
MODEL 2
REMARK VINA RESULT:    -5.521      2.803      8.491
REMARK INTER + INTRA:          -6.757
REMARK INTER:                  -6.458
REMARK INTRA:                  -0.299
REMARK UNBOUND:                -0.268
REMARK SMILES O=c1c(O)c(-c2ccc(O)cc2)oc2cc(O)cc(O)c12
REMARK SMILES IDX 5 1 3 2 2 3 1 4 21 5 19 6 18 7 16 8 15 9 14 10 13 11 6 12
REMARK SMILES IDX 7 13 8 14 9 15 12 16 11 17 10 18 4 20 20 22 17 24
REMARK H PARENT 10 19 4 21 20 23 17 25
REMARK Flexibility Score: inf
ROOT
ATOM      1  C   UNL     1      -9.212   7.154  13.346  1.00  0.00     0.180 A 
ATOM      2  C   UNL     1      -7.899   7.230  12.853  1.00  0.00     0.208 A 
ATOM      3  C   UNL     1      -7.649   6.851  11.523  1.00  0.00     0.238 A 
ATOM      4  O   UNL     1      -6.480   6.972  11.071  1.00  0.00    -0.285 OA
ATOM      5  C   UNL     1      -8.711   6.387  10.711  1.00  0.00     0.111 A 
ATOM      6  C   UNL     1      -8.565   5.939   9.363  1.00  0.00     0.134 A 
ATOM      7  C   UNL     1      -9.704   5.625   8.613  1.00  0.00     0.093 A 
ATOM      8  C   UNL     1     -10.977   5.680   9.178  1.00  0.00     0.123 A 
ATOM      9  C   UNL     1     -11.127   6.058  10.513  1.00  0.00     0.094 A 
ATOM     10  C   UNL     1     -10.012   6.413  11.278  1.00  0.00     0.146 A 
ATOM     11  O   UNL     1     -10.198   6.778  12.540  1.00  0.00    -0.452 OA
ENDROOT
BRANCH   1  12
ATOM     12  C   UNL     1      -9.551   7.511  14.743  1.00  0.00     0.021 A 
ATOM     13  C   UNL     1     -10.017   8.804  15.033  1.00  0.00     0.016 A 
ATOM     14  C   UNL     1     -10.364   9.157  16.340  1.00  0.00     0.047 A 
ATOM     15  C   UNL     1     -10.263   8.215  17.372  1.00  0.00     0.115 A 
ATOM     16  C   UNL     1      -9.471   6.566  15.782  1.00  0.00     0.016 A 
ATOM     17  C   UNL     1      -9.819   6.919  17.089  1.00  0.00     0.047 A 
BRANCH  15  18
ATOM     18  O   UNL     1     -10.605   8.553  18.680  1.00  0.00    -0.508 OA
ATOM     19  H   UNL     1     -10.892   7.849  19.351  1.00  0.00     0.293 HD
ENDBRANCH  15  18
ENDBRANCH   1  12
BRANCH   2  20
ATOM     20  O   UNL     1      -6.869   7.712  13.665  1.00  0.00    -0.502 OA
ATOM     21  H   UNL     1      -6.978   7.839  14.663  1.00  0.00     0.293 HD
ENDBRANCH   2  20
BRANCH   6  22
ATOM     22  O   UNL     1      -7.331   5.760   8.730  1.00  0.00    -0.507 OA
ATOM     23  H   UNL     1      -7.086   4.963   8.163  1.00  0.00     0.293 HD
ENDBRANCH   6  22
BRANCH   8  24
ATOM     24  O   UNL     1     -12.088   5.345   8.406  1.00  0.00    -0.508 OA
ATOM     25  H   UNL     1     -12.023   4.681   7.645  1.00  0.00     0.293 HD
ENDBRANCH   8  24
TORSDOF 5
ENDMDL
MODEL 3
REMARK VINA RESULT:    -5.512      2.124      2.763
REMARK INTER + INTRA:          -6.746
REMARK INTER:                  -6.466
REMARK INTRA:                  -0.280
REMARK UNBOUND:                -0.268
REMARK SMILES O=c1c(O)c(-c2ccc(O)cc2)oc2cc(O)cc(O)c12
REMARK SMILES IDX 5 1 3 2 2 3 1 4 21 5 19 6 18 7 16 8 15 9 14 10 13 11 6 12
REMARK SMILES IDX 7 13 8 14 9 15 12 16 11 17 10 18 4 20 20 22 17 24
REMARK H PARENT 10 19 4 21 20 23 17 25
REMARK Flexibility Score: inf
ROOT
ATOM      1  C   UNL     1      -9.348   8.867  16.798  1.00  0.00     0.180 A 
ATOM      2  C   UNL     1     -10.034   8.861  18.024  1.00  0.00     0.208 A 
ATOM      3  C   UNL     1      -9.332   9.185  19.198  1.00  0.00     0.238 A 
ATOM      4  O   UNL     1      -9.964   9.231  20.285  1.00  0.00    -0.285 OA
ATOM      5  C   UNL     1      -7.953   9.496  19.131  1.00  0.00     0.111 A 
ATOM      6  C   UNL     1      -7.135   9.799  20.261  1.00  0.00     0.134 A 
ATOM      7  C   UNL     1      -5.814  10.218  20.065  1.00  0.00     0.093 A 
ATOM      8  C   UNL     1      -5.261  10.282  18.787  1.00  0.00     0.123 A 
ATOM      9  C   UNL     1      -6.033   9.930  17.679  1.00  0.00     0.094 A 
ATOM     10  C   UNL     1      -7.366   9.543  17.840  1.00  0.00     0.146 A 
ATOM     11  O   UNL     1      -8.070   9.227  16.760  1.00  0.00    -0.452 OA
ENDROOT
BRANCH   1  12
ATOM     12  C   UNL     1     -10.011   8.513  15.522  1.00  0.00     0.021 A 
ATOM     13  C   UNL     1     -10.402   9.532  14.639  1.00  0.00     0.016 A 
ATOM     14  C   UNL     1     -11.009   9.219  13.419  1.00  0.00     0.047 A 
ATOM     15  C   UNL     1     -11.220   7.881  13.062  1.00  0.00     0.115 A 
ATOM     16  C   UNL     1     -10.208   7.171  15.147  1.00  0.00     0.016 A 
ATOM     17  C   UNL     1     -10.815   6.860  13.926  1.00  0.00     0.047 A 
BRANCH  15  18
ATOM     18  O   UNL     1     -11.825   7.556  11.849  1.00  0.00    -0.508 OA
ATOM     19  H   UNL     1     -11.409   6.884  11.214  1.00  0.00     0.293 HD
ENDBRANCH  15  18
ENDBRANCH   1  12
BRANCH   2  20
ATOM     20  O   UNL     1     -11.401   8.574  18.065  1.00  0.00    -0.502 OA
ATOM     21  H   UNL     1     -11.780   7.692  17.744  1.00  0.00     0.293 HD
ENDBRANCH   2  20
BRANCH   6  22
ATOM     22  O   UNL     1      -7.561   9.678  21.588  1.00  0.00    -0.507 OA
ATOM     23  H   UNL     1      -7.235  10.253  22.350  1.00  0.00     0.293 HD
ENDBRANCH   6  22
BRANCH   8  24
ATOM     24  O   UNL     1      -3.938  10.689  18.629  1.00  0.00    -0.508 OA
ATOM     25  H   UNL     1      -3.226  10.454  19.311  1.00  0.00     0.293 HD
ENDBRANCH   8  24
TORSDOF 5
ENDMDL
MODEL 4
REMARK VINA RESULT:    -5.339      3.219      4.844
REMARK INTER + INTRA:          -6.543
REMARK INTER:                  -6.842
REMARK INTRA:                   0.299
REMARK UNBOUND:                -0.268
REMARK SMILES O=c1c(O)c(-c2ccc(O)cc2)oc2cc(O)cc(O)c12
REMARK SMILES IDX 5 1 3 2 2 3 1 4 21 5 19 6 18 7 16 8 15 9 14 10 13 11 6 12
REMARK SMILES IDX 7 13 8 14 9 15 12 16 11 17 10 18 4 20 20 22 17 24
REMARK H PARENT 10 19 4 21 20 23 17 25
REMARK Flexibility Score: inf
ROOT
ATOM      1  C   UNL     1      -6.048  10.138  17.260  1.00  0.00     0.180 A 
ATOM      2  C   UNL     1      -5.606  10.188  18.593  1.00  0.00     0.208 A 
ATOM      3  C   UNL     1      -6.538  10.002  19.627  1.00  0.00     0.238 A 
ATOM      4  O   UNL     1      -6.127   9.994  20.816  1.00  0.00    -0.285 OA
ATOM      5  C   UNL     1      -7.902   9.786  19.315  1.00  0.00     0.111 A 
ATOM      6  C   UNL     1      -8.939   9.627  20.284  1.00  0.00     0.134 A 
ATOM      7  C   UNL     1     -10.231   9.288  19.862  1.00  0.00     0.093 A 
ATOM      8  C   UNL     1     -10.538   9.168  18.508  1.00  0.00     0.123 A 
ATOM      9  C   UNL     1      -9.546   9.381  17.550  1.00  0.00     0.094 A 
ATOM     10  C   UNL     1      -8.239   9.684  17.941  1.00  0.00     0.146 A 
ATOM     11  O   UNL     1      -7.322   9.868  16.999  1.00  0.00    -0.452 OA
ENDROOT
BRANCH   1  12
ATOM     12  C   UNL     1      -5.131  10.349  16.117  1.00  0.00     0.021 A 
ATOM     13  C   UNL     1      -3.808   9.885  16.196  1.00  0.00     0.016 A 
ATOM     14  C   UNL     1      -2.931  10.053  15.121  1.00  0.00     0.047 A 
ATOM     15  C   UNL     1      -3.372  10.676  13.946  1.00  0.00     0.115 A 
ATOM     16  C   UNL     1      -5.571  10.956  14.926  1.00  0.00     0.016 A 
ATOM     17  C   UNL     1      -4.693  11.123  13.851  1.00  0.00     0.047 A 
BRANCH  15  18
ATOM     18  O   UNL     1      -2.508  10.850  12.866  1.00  0.00    -0.508 OA
ATOM     19  H   UNL     1      -2.807  10.669  11.915  1.00  0.00     0.293 HD
ENDBRANCH  15  18
ENDBRANCH   1  12
BRANCH   2  20
ATOM     20  O   UNL     1      -4.251  10.380  18.878  1.00  0.00    -0.502 OA
ATOM     21  H   UNL     1      -3.885  11.265  19.205  1.00  0.00     0.293 HD
ENDBRANCH   2  20
BRANCH   6  22
ATOM     22  O   UNL     1      -8.760   9.816  21.658  1.00  0.00    -0.507 OA
ATOM     23  H   UNL     1      -9.473  10.148  22.289  1.00  0.00     0.293 HD
ENDBRANCH   6  22
BRANCH   8  24
ATOM     24  O   UNL     1     -11.838   8.846  18.124  1.00  0.00    -0.508 OA
ATOM     25  H   UNL     1     -12.340   9.395  17.437  1.00  0.00     0.293 HD
ENDBRANCH   8  24
TORSDOF 5
ENDMDL
MODEL 5
REMARK VINA RESULT:    -5.321      2.234      6.550
REMARK INTER + INTRA:          -6.522
REMARK INTER:                  -6.284
REMARK INTRA:                  -0.238
REMARK UNBOUND:                -0.268
REMARK SMILES O=c1c(O)c(-c2ccc(O)cc2)oc2cc(O)cc(O)c12
REMARK SMILES IDX 5 1 3 2 2 3 1 4 21 5 19 6 18 7 16 8 15 9 14 10 13 11 6 12
REMARK SMILES IDX 7 13 8 14 9 15 12 16 11 17 10 18 4 20 20 22 17 24
REMARK H PARENT 10 19 4 21 20 23 17 25
REMARK Flexibility Score: inf
ROOT
ATOM      1  C   UNL     1      -8.877   8.666  16.989  1.00  0.00     0.180 A 
ATOM      2  C   UNL     1      -9.328   7.345  16.830  1.00  0.00     0.208 A 
ATOM      3  C   UNL     1      -9.832   6.944  15.582  1.00  0.00     0.238 A 
ATOM      4  O   UNL     1     -10.185   5.745  15.430  1.00  0.00    -0.285 OA
ATOM      5  C   UNL     1      -9.893   7.872  14.515  1.00  0.00     0.111 A 
ATOM      6  C   UNL     1     -10.422   7.586  13.221  1.00  0.00     0.134 A 
ATOM      7  C   UNL     1     -10.312   8.541  12.203  1.00  0.00     0.093 A 
ATOM      8  C   UNL     1      -9.753   9.794  12.449  1.00  0.00     0.123 A 
ATOM      9  C   UNL     1      -9.287  10.107  13.726  1.00  0.00     0.094 A 
ATOM     10  C   UNL     1      -9.350   9.162  14.753  1.00  0.00     0.146 A 
ATOM     11  O   UNL     1      -8.886   9.494  15.951  1.00  0.00    -0.452 OA
ENDROOT
BRANCH   1  12
ATOM     12  C   UNL     1      -8.356   9.171  18.281  1.00  0.00     0.021 A 
ATOM     13  C   UNL     1      -6.984   9.438  18.416  1.00  0.00     0.016 A 
ATOM     14  C   UNL     1      -6.474   9.936  19.618  1.00  0.00     0.047 A 
ATOM     15  C   UNL     1      -7.333  10.187  20.696  1.00  0.00     0.115 A 
ATOM     16  C   UNL     1      -9.215   9.444  19.361  1.00  0.00     0.016 A 
ATOM     17  C   UNL     1      -8.703   9.943  20.563  1.00  0.00     0.047 A 
BRANCH  15  18
ATOM     18  O   UNL     1      -6.837  10.682  21.900  1.00  0.00    -0.508 OA
ATOM     19  H   UNL     1      -6.994  10.198  22.776  1.00  0.00     0.293 HD
ENDBRANCH  15  18
ENDBRANCH   1  12
BRANCH   2  20
ATOM     20  O   UNL     1      -9.239   6.438  17.890  1.00  0.00    -0.502 OA
ATOM     21  H   UNL     1      -8.469   5.787  17.985  1.00  0.00     0.293 HD
ENDBRANCH   2  20
BRANCH   6  22
ATOM     22  O   UNL     1     -11.085   6.398  12.893  1.00  0.00    -0.507 OA
ATOM     23  H   UNL     1     -11.566   6.230  12.023  1.00  0.00     0.293 HD
ENDBRANCH   6  22
BRANCH   8  24
ATOM     24  O   UNL     1      -9.674  10.727  11.416  1.00  0.00    -0.508 OA
ATOM     25  H   UNL     1     -10.301  10.692  10.622  1.00  0.00     0.293 HD
ENDBRANCH   8  24
TORSDOF 5
ENDMDL
MODEL 6
REMARK VINA RESULT:    -5.300      1.720      3.454
REMARK INTER + INTRA:          -6.497
REMARK INTER:                  -6.243
REMARK INTRA:                  -0.254
REMARK UNBOUND:                -0.268
REMARK SMILES O=c1c(O)c(-c2ccc(O)cc2)oc2cc(O)cc(O)c12
REMARK SMILES IDX 5 1 3 2 2 3 1 4 21 5 19 6 18 7 16 8 15 9 14 10 13 11 6 12
REMARK SMILES IDX 7 13 8 14 9 15 12 16 11 17 10 18 4 20 20 22 17 24
REMARK H PARENT 10 19 4 21 20 23 17 25
REMARK Flexibility Score: inf
ROOT
ATOM      1  C   UNL     1      -8.156   9.567  16.968  1.00  0.00     0.180 A 
ATOM      2  C   UNL     1      -6.877   9.746  17.522  1.00  0.00     0.208 A 
ATOM      3  C   UNL     1      -6.762  10.005  18.898  1.00  0.00     0.238 A 
ATOM      4  O   UNL     1      -5.611  10.111  19.398  1.00  0.00    -0.285 OA
ATOM      5  C   UNL     1      -7.926  10.097  19.698  1.00  0.00     0.111 A 
ATOM      6  C   UNL     1      -7.928  10.394  21.094  1.00  0.00     0.134 A 
ATOM      7  C   UNL     1      -9.129  10.331  21.812  1.00  0.00     0.093 A 
ATOM      8  C   UNL     1     -10.334  10.045  21.173  1.00  0.00     0.123 A 
ATOM      9  C   UNL     1     -10.353   9.812  19.798  1.00  0.00     0.094 A 
ATOM     10  C   UNL     1      -9.166   9.832  19.061  1.00  0.00     0.146 A 
ATOM     11  O   UNL     1      -9.225   9.594  17.757  1.00  0.00    -0.452 OA
ENDROOT
BRANCH   1  12
ATOM     12  C   UNL     1      -8.361   9.317  15.523  1.00  0.00     0.021 A 
ATOM     13  C   UNL     1      -8.723   8.031  15.088  1.00  0.00     0.016 A 
ATOM     14  C   UNL     1      -8.943   7.777  13.731  1.00  0.00     0.047 A 
ATOM     15  C   UNL     1      -8.819   8.811  12.794  1.00  0.00     0.115 A 
ATOM     16  C   UNL     1      -8.258  10.354  14.578  1.00  0.00     0.016 A 
ATOM     17  C   UNL     1      -8.480  10.098  13.221  1.00  0.00     0.047 A 
BRANCH  15  18
ATOM     18  O   UNL     1      -9.035   8.571  11.438  1.00  0.00    -0.508 OA
ATOM     19  H   UNL     1      -9.451   7.706  11.114  1.00  0.00     0.293 HD
ENDBRANCH  15  18
ENDBRANCH   1  12
BRANCH   2  20
ATOM     20  O   UNL     1      -5.740   9.630  16.718  1.00  0.00    -0.502 OA
ATOM     21  H   UNL     1      -5.110  10.405  16.552  1.00  0.00     0.293 HD
ENDBRANCH   2  20
BRANCH   6  22
ATOM     22  O   UNL     1      -6.792  10.782  21.812  1.00  0.00    -0.507 OA
ATOM     23  H   UNL     1      -6.507  10.385  22.694  1.00  0.00     0.293 HD
ENDBRANCH   6  22
BRANCH   8  24
ATOM     24  O   UNL     1     -11.513  10.006  21.916  1.00  0.00    -0.508 OA
ATOM     25  H   UNL     1     -11.653  10.604  22.721  1.00  0.00     0.293 HD
ENDBRANCH   8  24
TORSDOF 5
ENDMDL
MODEL 7
REMARK VINA RESULT:    -4.883      2.625      7.540
REMARK INTER + INTRA:          -6.008
REMARK INTER:                  -5.733
REMARK INTRA:                  -0.275
REMARK UNBOUND:                -0.268
REMARK SMILES O=c1c(O)c(-c2ccc(O)cc2)oc2cc(O)cc(O)c12
REMARK SMILES IDX 5 1 3 2 2 3 1 4 21 5 19 6 18 7 16 8 15 9 14 10 13 11 6 12
REMARK SMILES IDX 7 13 8 14 9 15 12 16 11 17 10 18 4 20 20 22 17 24
REMARK H PARENT 10 19 4 21 20 23 17 25
REMARK Flexibility Score: inf
ROOT
ATOM      1  C   UNL     1      -9.697   7.497  13.974  1.00  0.00     0.180 A 
ATOM      2  C   UNL     1     -10.922   7.508  13.285  1.00  0.00     0.208 A 
ATOM      3  C   UNL     1     -10.916   7.387  11.886  1.00  0.00     0.238 A 
ATOM      4  O   UNL     1     -12.018   7.343  11.279  1.00  0.00    -0.285 OA
ATOM      5  C   UNL     1      -9.686   7.271  11.193  1.00  0.00     0.111 A 
ATOM      6  C   UNL     1      -9.561   7.183   9.774  1.00  0.00     0.134 A 
ATOM      7  C   UNL     1      -8.304   6.941   9.206  1.00  0.00     0.093 A 
ATOM      8  C   UNL     1      -7.161   6.849   9.999  1.00  0.00     0.123 A 
ATOM      9  C   UNL     1      -7.264   6.994  11.383  1.00  0.00     0.094 A 
ATOM     10  C   UNL     1      -8.509   7.200  11.983  1.00  0.00     0.146 A 
ATOM     11  O   UNL     1      -8.565   7.321  13.303  1.00  0.00    -0.452 OA
ENDROOT
BRANCH   1  12
ATOM     12  C   UNL     1      -9.620   7.646  15.446  1.00  0.00     0.021 A 
ATOM     13  C   UNL     1      -9.676   8.928  16.016  1.00  0.00     0.016 A 
ATOM     14  C   UNL     1      -9.627   9.091  17.403  1.00  0.00     0.047 A 
ATOM     15  C   UNL     1      -9.536   7.971  18.239  1.00  0.00     0.115 A 
ATOM     16  C   UNL     1      -9.548   6.525  16.293  1.00  0.00     0.016 A 
ATOM     17  C   UNL     1      -9.500   6.689  17.681  1.00  0.00     0.047 A 
BRANCH  15  18
ATOM     18  O   UNL     1      -9.485   8.119  19.624  1.00  0.00    -0.508 OA
ATOM     19  H   UNL     1     -10.154   7.657  20.230  1.00  0.00     0.293 HD
ENDBRANCH  15  18
ENDBRANCH   1  12
BRANCH   2  20
ATOM     20  O   UNL     1     -12.125   7.601  13.990  1.00  0.00    -0.502 OA
ATOM     21  H   UNL     1     -12.914   6.995  13.801  1.00  0.00     0.293 HD
ENDBRANCH   2  20
BRANCH   6  22
ATOM     22  O   UNL     1     -10.626   7.353   8.884  1.00  0.00    -0.507 OA
ATOM     23  H   UNL     1     -11.231   8.159   8.859  1.00  0.00     0.293 HD
ENDBRANCH   6  22
BRANCH   8  24
ATOM     24  O   UNL     1      -5.924   6.623   9.398  1.00  0.00    -0.508 OA
ATOM     25  H   UNL     1      -5.176   6.147   9.887  1.00  0.00     0.293 HD
ENDBRANCH   8  24
TORSDOF 5
ENDMDL
MODEL 8
REMARK VINA RESULT:    -4.867      2.859      3.690
REMARK INTER + INTRA:          -5.988
REMARK INTER:                  -5.700
REMARK INTRA:                  -0.288
REMARK UNBOUND:                -0.268
REMARK SMILES O=c1c(O)c(-c2ccc(O)cc2)oc2cc(O)cc(O)c12
REMARK SMILES IDX 5 1 3 2 2 3 1 4 21 5 19 6 18 7 16 8 15 9 14 10 13 11 6 12
REMARK SMILES IDX 7 13 8 14 9 15 12 16 11 17 10 18 4 20 20 22 17 24
REMARK H PARENT 10 19 4 21 20 23 17 25
REMARK Flexibility Score: inf
ROOT
ATOM      1  C   UNL     1      -9.831   8.221  14.287  1.00  0.00     0.180 A 
ATOM      2  C   UNL     1     -10.452   7.852  15.493  1.00  0.00     0.208 A 
ATOM      3  C   UNL     1      -9.823   8.172  16.707  1.00  0.00     0.238 A 
ATOM      4  O   UNL     1     -10.410   7.887  17.784  1.00  0.00    -0.285 OA
ATOM      5  C   UNL     1      -8.575   8.840  16.700  1.00  0.00     0.111 A 
ATOM      6  C   UNL     1      -7.830   9.176  17.870  1.00  0.00     0.134 A 
ATOM      7  C   UNL     1      -6.670   9.952  17.751  1.00  0.00     0.093 A 
ATOM      8  C   UNL     1      -6.195  10.348  16.502  1.00  0.00     0.123 A 
ATOM      9  C   UNL     1      -6.883   9.974  15.347  1.00  0.00     0.094 A 
ATOM     10  C   UNL     1      -8.063   9.231  15.436  1.00  0.00     0.146 A 
ATOM     11  O   UNL     1      -8.693   8.905  14.315  1.00  0.00    -0.452 OA
ENDROOT
BRANCH   1  12
ATOM     12  C   UNL     1     -10.419   7.897  12.967  1.00  0.00     0.021 A 
ATOM     13  C   UNL     1     -10.097   6.680  12.345  1.00  0.00     0.016 A 
ATOM     14  C   UNL     1     -10.658   6.344  11.110  1.00  0.00     0.047 A 
ATOM     15  C   UNL     1     -11.559   7.216  10.486  1.00  0.00     0.115 A 
ATOM     16  C   UNL     1     -11.340   8.759  12.344  1.00  0.00     0.016 A 
ATOM     17  C   UNL     1     -11.901   8.421  11.108  1.00  0.00     0.047 A 
BRANCH  15  18
ATOM     18  O   UNL     1     -12.125   6.894   9.254  1.00  0.00    -0.508 OA
ATOM     19  H   UNL     1     -11.649   7.102   8.384  1.00  0.00     0.293 HD
ENDBRANCH  15  18
ENDBRANCH   1  12
BRANCH   2  20
ATOM     20  O   UNL     1     -11.695   7.213  15.477  1.00  0.00    -0.502 OA
ATOM     21  H   UNL     1     -11.788   6.207  15.420  1.00  0.00     0.293 HD
ENDBRANCH   2  20
BRANCH   6  22
ATOM     22  O   UNL     1      -8.167   8.752  19.160  1.00  0.00    -0.507 OA
ATOM     23  H   UNL     1      -7.512   8.383  19.833  1.00  0.00     0.293 HD
ENDBRANCH   6  22
BRANCH   8  24
ATOM     24  O   UNL     1      -5.029  11.107  16.419  1.00  0.00    -0.508 OA
ATOM     25  H   UNL     1      -4.417  11.054  15.614  1.00  0.00     0.293 HD
ENDBRANCH   8  24
TORSDOF 5
ENDMDL
