MODEL 1
REMARK VINA RESULT:    -3.757      0.000      0.000
REMARK INTER + INTRA:          -3.977
REMARK INTER:                  -3.977
REMARK INTRA:                   0.000
REMARK UNBOUND:                 0.000
REMARK SMILES O=c1ccc2cc(O)c(O)cc2o1
REMARK SMILES IDX 4 1 3 2 2 3 1 4 13 5 12 6 11 7 9 8 7 9 6 10 5 11 8 12 10 14
REMARK H PARENT 8 13 10 15
REMARK Flexibility Score: inf
ROOT
ATOM      1  C   UNL     1     105.203  99.389  92.644  1.00  0.00     0.019 A 
ATOM      2  C   UNL     1     105.405 100.696  92.203  1.00  0.00     0.094 A 
ATOM      3  C   UNL     1     104.320 101.579  92.181  1.00  0.00     0.336 A 
ATOM      4  O   UNL     1     104.480 102.763  91.786  1.00  0.00    -0.246 OA
ATOM      5  O   UNL     1     103.114 101.175  92.577  1.00  0.00    -0.423 OA
ATOM      6  C   UNL     1     102.879  99.937  93.005  1.00  0.00     0.142 A 
ATOM      7  C   UNL     1     101.592  99.570  93.408  1.00  0.00     0.098 A 
ATOM      8  C   UNL     1     101.339  98.266  93.860  1.00  0.00     0.161 A 
ATOM      9  C   UNL     1     102.379  97.326  93.910  1.00  0.00     0.158 A 
ATOM     10  C   UNL     1     103.673  97.689  93.506  1.00  0.00     0.062 A 
ATOM     11  C   UNL     1     103.927  98.992  93.054  1.00  0.00     0.022 A 
ENDROOT
BRANCH   9  12
ATOM     12  O   UNL     1     102.119  96.033  94.359  1.00  0.00    -0.504 OA
ATOM     13  H   UNL     1     102.856  95.341  94.441  1.00  0.00     0.293 HD
ENDBRANCH   9  12
BRANCH   8  14
ATOM     14  O   UNL     1     100.057  97.896  94.262  1.00  0.00    -0.504 OA
ATOM     15  H   UNL     1      99.858  97.629  95.219  1.00  0.00     0.293 HD
ENDBRANCH   8  14
TORSDOF 2
ENDMDL
MODEL 2
REMARK VINA RESULT:    -3.700      2.061      4.015
REMARK INTER + INTRA:          -3.917
REMARK INTER:                  -3.917
REMARK INTRA:                   0.000
REMARK UNBOUND:                 0.000
REMARK SMILES O=c1ccc2cc(O)c(O)cc2o1
REMARK SMILES IDX 4 1 3 2 2 3 1 4 13 5 12 6 11 7 9 8 7 9 6 10 5 11 8 12 10 14
REMARK H PARENT 8 13 10 15
REMARK Flexibility Score: inf
ROOT
ATOM      1  C   UNL     1     101.748  98.534  93.925  1.00  0.00     0.019 A 
ATOM      2  C   UNL     1     100.662  99.398  94.059  1.00  0.00     0.094 A 
ATOM      3  C   UNL     1     100.793 100.723  93.631  1.00  0.00     0.336 A 
ATOM      4  O   UNL     1      99.825 101.520  93.742  1.00  0.00    -0.246 OA
ATOM      5  O   UNL     1     101.939 101.150  93.103  1.00  0.00    -0.423 OA
ATOM      6  C   UNL     1     102.999 100.359  92.957  1.00  0.00     0.142 A 
ATOM      7  C   UNL     1     104.175 100.863  92.396  1.00  0.00     0.098 A 
ATOM      8  C   UNL     1     105.295 100.032  92.240  1.00  0.00     0.161 A 
ATOM      9  C   UNL     1     105.237  98.691  92.647  1.00  0.00     0.158 A 
ATOM     10  C   UNL     1     104.058  98.180  93.212  1.00  0.00     0.062 A 
ATOM     11  C   UNL     1     102.938  99.009  93.367  1.00  0.00     0.022 A 
ENDROOT
BRANCH   9  12
ATOM     12  O   UNL     1     106.354  97.873  92.489  1.00  0.00    -0.504 OA
ATOM     13  H   UNL     1     106.426  97.215  91.722  1.00  0.00     0.293 HD
ENDBRANCH   9  12
BRANCH   8  14
ATOM     14  O   UNL     1     106.470 100.532  91.682  1.00  0.00    -0.504 OA
ATOM     15  H   UNL     1     106.533 100.763  90.697  1.00  0.00     0.293 HD
ENDBRANCH   8  14
TORSDOF 2
ENDMDL
MODEL 3
REMARK VINA RESULT:    -3.661      7.904      9.287
REMARK INTER + INTRA:          -3.875
REMARK INTER:                  -3.875
REMARK INTRA:                   0.000
REMARK UNBOUND:                 0.000
REMARK SMILES O=c1ccc2cc(O)c(O)cc2o1
REMARK SMILES IDX 4 1 3 2 2 3 1 4 13 5 12 6 11 7 9 8 7 9 6 10 5 11 8 12 10 14
REMARK H PARENT 8 13 10 15
REMARK Flexibility Score: inf
ROOT
ATOM      1  C   UNL     1     104.871  98.818 101.310  1.00  0.00     0.019 A 
ATOM      2  C   UNL     1     104.545  97.466 101.412  1.00  0.00     0.094 A 
ATOM      3  C   UNL     1     105.359  96.523 100.776  1.00  0.00     0.336 A 
ATOM      4  O   UNL     1     105.083  95.297 100.856  1.00  0.00    -0.246 OA
ATOM      5  O   UNL     1     106.429  96.912 100.085  1.00  0.00    -0.423 OA
ATOM      6  C   UNL     1     106.776  98.191  99.964  1.00  0.00     0.142 A 
ATOM      7  C   UNL     1     107.910  98.541  99.226  1.00  0.00     0.098 A 
ATOM      8  C   UNL     1     108.279  99.887  99.094  1.00  0.00     0.161 A 
ATOM      9  C   UNL     1     107.510 100.889  99.705  1.00  0.00     0.158 A 
ATOM     10  C   UNL     1     106.370 100.544 100.447  1.00  0.00     0.062 A 
ATOM     11  C   UNL     1     106.000  99.198 100.579  1.00  0.00     0.022 A 
ENDROOT
BRANCH   9  12
ATOM     12  O   UNL     1     107.884 102.225  99.569  1.00  0.00    -0.504 OA
ATOM     13  H   UNL     1     107.848 102.869 100.351  1.00  0.00     0.293 HD
ENDBRANCH   9  12
BRANCH   8  14
ATOM     14  O   UNL     1     109.410 100.240  98.359  1.00  0.00    -0.504 OA
ATOM     15  H   UNL     1     109.824  99.604  97.687  1.00  0.00     0.293 HD
ENDBRANCH   8  14
TORSDOF 2
ENDMDL
MODEL 4
REMARK VINA RESULT:    -3.655      1.046      2.230
REMARK INTER + INTRA:          -3.869
REMARK INTER:                  -3.869
REMARK INTRA:                   0.000
REMARK UNBOUND:                 0.000
REMARK SMILES O=c1ccc2cc(O)c(O)cc2o1
REMARK SMILES IDX 4 1 3 2 2 3 1 4 13 5 12 6 11 7 9 8 7 9 6 10 5 11 8 12 10 14
REMARK H PARENT 8 13 10 15
REMARK Flexibility Score: inf
ROOT
ATOM      1  C   UNL     1     102.898 101.464  92.504  1.00  0.00     0.019 A 
ATOM      2  C   UNL     1     104.164 101.878  92.093  1.00  0.00     0.094 A 
ATOM      3  C   UNL     1     105.227 100.971  92.153  1.00  0.00     0.336 A 
ATOM      4  O   UNL     1     106.379 101.324  91.786  1.00  0.00    -0.246 OA
ATOM      5  O   UNL     1     105.030  99.730  92.595  1.00  0.00    -0.423 OA
ATOM      6  C   UNL     1     103.839  99.294  92.995  1.00  0.00     0.142 A 
ATOM      7  C   UNL     1     103.691  97.981  93.450  1.00  0.00     0.098 A 
ATOM      8  C   UNL     1     102.437  97.517  93.874  1.00  0.00     0.161 A 
ATOM      9  C   UNL     1     101.325  98.371  93.842  1.00  0.00     0.158 A 
ATOM     10  C   UNL     1     101.467  99.691  93.387  1.00  0.00     0.062 A 
ATOM     11  C   UNL     1     102.720 100.156  92.963  1.00  0.00     0.022 A 
ENDROOT
BRANCH   9  12
ATOM     12  O   UNL     1     100.083  97.902  94.265  1.00  0.00    -0.504 OA
ATOM     13  H   UNL     1      99.993  97.046  94.801  1.00  0.00     0.293 HD
ENDBRANCH   9  12
BRANCH   8  14
ATOM     14  O   UNL     1     102.287  96.208  94.328  1.00  0.00    -0.504 OA
ATOM     15  H   UNL     1     102.698  95.899  95.201  1.00  0.00     0.293 HD
ENDBRANCH   8  14
TORSDOF 2
ENDMDL
MODEL 5
REMARK VINA RESULT:    -3.595      5.656      7.058
REMARK INTER + INTRA:          -3.805
REMARK INTER:                  -3.805
REMARK INTRA:                   0.000
REMARK UNBOUND:                 0.000
REMARK SMILES O=c1ccc2cc(O)c(O)cc2o1
REMARK SMILES IDX 4 1 3 2 2 3 1 4 13 5 12 6 11 7 9 8 7 9 6 10 5 11 8 12 10 14
REMARK H PARENT 8 13 10 15
REMARK Flexibility Score: inf
ROOT
ATOM      1  C   UNL     1      98.054 104.622  92.459  1.00  0.00     0.019 A 
ATOM      2  C   UNL     1      97.604 105.940  92.387  1.00  0.00     0.094 A 
ATOM      3  C   UNL     1      98.435 106.966  92.847  1.00  0.00     0.336 A 
ATOM      4  O   UNL     1      98.049 108.163  92.791  1.00  0.00    -0.246 OA
ATOM      5  O   UNL     1      99.639 106.687  93.344  1.00  0.00    -0.423 OA
ATOM      6  C   UNL     1     100.107 105.444  93.429  1.00  0.00     0.142 A 
ATOM      7  C   UNL     1     101.378 105.211  93.961  1.00  0.00     0.098 A 
ATOM      8  C   UNL     1     101.876 103.903  94.053  1.00  0.00     0.161 A 
ATOM      9  C   UNL     1     101.097 102.822  93.612  1.00  0.00     0.158 A 
ATOM     10  C   UNL     1      99.819 103.050  93.078  1.00  0.00     0.062 A 
ATOM     11  C   UNL     1      99.321 104.358  92.985  1.00  0.00     0.022 A 
ENDROOT
BRANCH   9  12
ATOM     12  O   UNL     1     101.599 101.526  93.708  1.00  0.00    -0.504 OA
ATOM     13  H   UNL     1     101.143 100.745  93.249  1.00  0.00     0.293 HD
ENDBRANCH   9  12
BRANCH   8  14
ATOM     14  O   UNL     1     103.143 103.667  94.583  1.00  0.00    -0.504 OA
ATOM     15  H   UNL     1     103.269 103.367  95.543  1.00  0.00     0.293 HD
ENDBRANCH   8  14
TORSDOF 2
ENDMDL
MODEL 6
REMARK VINA RESULT:    -3.587      7.819      9.045
REMARK INTER + INTRA:          -3.797
REMARK INTER:                  -3.797
REMARK INTRA:                   0.000
REMARK UNBOUND:                 0.000
REMARK SMILES O=c1ccc2cc(O)c(O)cc2o1
REMARK SMILES IDX 4 1 3 2 2 3 1 4 13 5 12 6 11 7 9 8 7 9 6 10 5 11 8 12 10 14
REMARK H PARENT 8 13 10 15
REMARK Flexibility Score: inf
ROOT
ATOM      1  C   UNL     1     106.021  97.156 100.724  1.00  0.00     0.019 A 
ATOM      2  C   UNL     1     104.855  96.968 101.464  1.00  0.00     0.094 A 
ATOM      3  C   UNL     1     104.074  98.081 101.794  1.00  0.00     0.336 A 
ATOM      4  O   UNL     1     103.017  97.934 102.462  1.00  0.00    -0.246 OA
ATOM      5  O   UNL     1     104.442  99.301 101.406  1.00  0.00    -0.423 OA
ATOM      6  C   UNL     1     105.546  99.524 100.698  1.00  0.00     0.142 A 
ATOM      7  C   UNL     1     105.882 100.826 100.318  1.00  0.00     0.098 A 
ATOM      8  C   UNL     1     107.046 101.066  99.573  1.00  0.00     0.161 A 
ATOM      9  C   UNL     1     107.877  99.998  99.205  1.00  0.00     0.158 A 
ATOM     10  C   UNL     1     107.546  98.688  99.584  1.00  0.00     0.062 A 
ATOM     11  C   UNL     1     106.383  98.447 100.329  1.00  0.00     0.022 A 
ENDROOT
BRANCH   9  12
ATOM     12  O   UNL     1     109.032 100.245  98.465  1.00  0.00    -0.504 OA
ATOM     13  H   UNL     1     108.988 100.594  97.514  1.00  0.00     0.293 HD
ENDBRANCH   9  12
BRANCH   8  14
ATOM     14  O   UNL     1     107.384 102.364  99.192  1.00  0.00    -0.504 OA
ATOM     15  H   UNL     1     107.384 102.648  98.219  1.00  0.00     0.293 HD
ENDBRANCH   8  14
TORSDOF 2
ENDMDL
MODEL 7
REMARK VINA RESULT:    -3.556      7.933      8.646
REMARK INTER + INTRA:          -3.764
REMARK INTER:                  -3.764
REMARK INTRA:                   0.000
REMARK UNBOUND:                 0.000
REMARK SMILES O=c1ccc2cc(O)c(O)cc2o1
REMARK SMILES IDX 4 1 3 2 2 3 1 4 13 5 12 6 11 7 9 8 7 9 6 10 5 11 8 12 10 14
REMARK H PARENT 8 13 10 15
REMARK Flexibility Score: inf
ROOT
ATOM      1  C   UNL     1     104.530  99.072 101.345  1.00  0.00     0.019 A 
ATOM      2  C   UNL     1     103.676 100.120 101.688  1.00  0.00     0.094 A 
ATOM      3  C   UNL     1     104.000 101.419 101.280  1.00  0.00     0.336 A 
ATOM      4  O   UNL     1     103.242 102.379 101.578  1.00  0.00    -0.246 OA
ATOM      5  O   UNL     1     105.105 101.648 100.574  1.00  0.00    -0.423 OA
ATOM      6  C   UNL     1     105.946 100.677 100.226  1.00  0.00     0.142 A 
ATOM      7  C   UNL     1     107.092 100.978  99.484  1.00  0.00     0.098 A 
ATOM      8  C   UNL     1     107.982  99.958  99.116  1.00  0.00     0.161 A 
ATOM      9  C   UNL     1     107.722  98.630  99.489  1.00  0.00     0.158 A 
ATOM     10  C   UNL     1     106.573  98.323 100.234  1.00  0.00     0.062 A 
ATOM     11  C   UNL     1     105.684  99.342 100.604  1.00  0.00     0.022 A 
ENDROOT
BRANCH   9  12
ATOM     12  O   UNL     1     108.611  97.623  99.119  1.00  0.00    -0.504 OA
ATOM     13  H   UNL     1     108.509  96.673  99.458  1.00  0.00     0.293 HD
ENDBRANCH   9  12
BRANCH   8  14
ATOM     14  O   UNL     1     109.126 100.253  98.376  1.00  0.00    -0.504 OA
ATOM     15  H   UNL     1     110.046  99.960  98.684  1.00  0.00     0.293 HD
ENDBRANCH   8  14
TORSDOF 2
ENDMDL
MODEL 8
REMARK VINA RESULT:    -3.535      4.036      5.354
REMARK INTER + INTRA:          -3.741
REMARK INTER:                  -3.741
REMARK INTRA:                   0.000
REMARK UNBOUND:                 0.000
REMARK SMILES O=c1ccc2cc(O)c(O)cc2o1
REMARK SMILES IDX 4 1 3 2 2 3 1 4 13 5 12 6 11 7 9 8 7 9 6 10 5 11 8 12 10 14
REMARK H PARENT 8 13 10 15
REMARK Flexibility Score: inf
ROOT
ATOM      1  C   UNL     1     106.357 104.765  92.556  1.00  0.00     0.019 A 
ATOM      2  C   UNL     1     107.162 103.959  91.752  1.00  0.00     0.094 A 
ATOM      3  C   UNL     1     106.686 102.703  91.360  1.00  0.00     0.336 A 
ATOM      4  O   UNL     1     107.397 101.960  90.633  1.00  0.00    -0.246 OA
ATOM      5  O   UNL     1     105.483 102.286  91.749  1.00  0.00    -0.423 OA
ATOM      6  C   UNL     1     104.684 103.024  92.516  1.00  0.00     0.142 A 
ATOM      7  C   UNL     1     103.431 102.534  92.894  1.00  0.00     0.098 A 
ATOM      8  C   UNL     1     102.585 103.307  93.702  1.00  0.00     0.161 A 
ATOM      9  C   UNL     1     102.995 104.578  94.134  1.00  0.00     0.158 A 
ATOM     10  C   UNL     1     104.252 105.075  93.758  1.00  0.00     0.062 A 
ATOM     11  C   UNL     1     105.098 104.302  92.950  1.00  0.00     0.022 A 
ENDROOT
BRANCH   9  12
ATOM     12  O   UNL     1     102.148 105.340  94.937  1.00  0.00    -0.504 OA
ATOM     13  H   UNL     1     101.342 104.931  95.396  1.00  0.00     0.293 HD
ENDBRANCH   9  12
BRANCH   8  14
ATOM     14  O   UNL     1     101.335 102.822  94.081  1.00  0.00    -0.504 OA
ATOM     15  H   UNL     1     101.186 102.388  94.985  1.00  0.00     0.293 HD
ENDBRANCH   8  14
TORSDOF 2
ENDMDL
MODEL 9
REMARK VINA RESULT:    -3.501      3.476      6.207
REMARK INTER + INTRA:          -3.706
REMARK INTER:                  -3.706
REMARK INTRA:                   0.000
REMARK UNBOUND:                 0.000
REMARK SMILES O=c1ccc2cc(O)c(O)cc2o1
REMARK SMILES IDX 4 1 3 2 2 3 1 4 13 5 12 6 11 7 9 8 7 9 6 10 5 11 8 12 10 14
REMARK H PARENT 8 13 10 15
REMARK Flexibility Score: inf
ROOT
ATOM      1  C   UNL     1     100.022 101.959  93.984  1.00  0.00     0.019 A 
ATOM      2  C   UNL     1     100.347 100.698  93.488  1.00  0.00     0.094 A 
ATOM      3  C   UNL     1     101.619 100.491  92.944  1.00  0.00     0.336 A 
ATOM      4  O   UNL     1     101.934  99.359  92.491  1.00  0.00    -0.246 OA
ATOM      5  O   UNL     1     102.504 101.485  92.902  1.00  0.00    -0.423 OA
ATOM      6  C   UNL     1     102.235 102.703  93.365  1.00  0.00     0.142 A 
ATOM      7  C   UNL     1     103.204 103.708  93.294  1.00  0.00     0.098 A 
ATOM      8  C   UNL     1     102.924 104.993  93.780  1.00  0.00     0.161 A 
ATOM      9  C   UNL     1     101.669 105.275  94.340  1.00  0.00     0.158 A 
ATOM     10  C   UNL     1     100.692 104.270  94.413  1.00  0.00     0.062 A 
ATOM     11  C   UNL     1     100.970 102.985  93.928  1.00  0.00     0.022 A 
ENDROOT
BRANCH   9  12
ATOM     12  O   UNL     1     101.399 106.555  94.820  1.00  0.00    -0.504 OA
ATOM     13  H   UNL     1     102.010 107.012  95.487  1.00  0.00     0.293 HD
ENDBRANCH   9  12
BRANCH   8  14
ATOM     14  O   UNL     1     103.888 105.998  93.711  1.00  0.00    -0.504 OA
ATOM     15  H   UNL     1     104.327 106.369  94.545  1.00  0.00     0.293 HD
ENDBRANCH   8  14
TORSDOF 2
ENDMDL
