MODEL 1
REMARK VINA RESULT:    -3.050      0.000      0.000
REMARK INTER + INTRA:         -10.347
REMARK INTER:                  -6.615
REMARK INTRA:                  -3.732
REMARK UNBOUND:                -3.732
REMARK SMILES CCCCCCCCCCCCCCCCCCCCCC(=O)[O-]
REMARK SMILES IDX 12 1 11 2 10 3 9 4 8 5 7 6 6 7 5 8 4 9 3 10 2 11 1 12 13 13
REMARK SMILES IDX 14 14 15 15 16 16 17 17 18 18 19 19 20 20 21 21 22 22 23 23
REMARK SMILES IDX 24 24
REMARK H PARENT
REMARK Flexibility Score: inf
ROOT
ATOM      1  C   UNL     1      -3.595   5.614  40.107  1.00  0.00     0.000 C 
ENDROOT
BRANCH   1   2
ATOM      2  C   UNL     1      -2.095   5.295  39.957  1.00  0.00     0.000 C 
BRANCH   2   3
ATOM      3  C   UNL     1      -1.658   4.854  38.545  1.00  0.00     0.000 C 
BRANCH   3   4
ATOM      4  C   UNL     1      -2.784   4.835  37.491  1.00  0.00    -0.000 C 
BRANCH   4   5
ATOM      5  C   UNL     1      -2.396   5.402  36.114  1.00  0.00    -0.000 C 
BRANCH   5   6
ATOM      6  C   UNL     1      -1.677   6.756  36.208  1.00  0.00    -0.000 C 
BRANCH   6   7
ATOM      7  C   UNL     1      -0.365   6.736  35.414  1.00  0.00    -0.000 C 
BRANCH   7   8
ATOM      8  C   UNL     1      -0.447   5.755  34.235  1.00  0.00    -0.000 C 
BRANCH   8   9
ATOM      9  C   UNL     1       0.663   4.684  34.289  1.00  0.00    -0.000 C 
BRANCH   9  10
ATOM     10  C   UNL     1       0.130   3.244  34.351  1.00  0.00    -0.000 C 
BRANCH  10  11
ATOM     11  C   UNL     1      -0.038   2.731  35.787  1.00  0.00    -0.003 C 
ATOM     12  C   UNL     1      -0.502   1.277  35.802  1.00  0.00     0.004 C 
ENDBRANCH  10  11
ENDBRANCH   9  10
ENDBRANCH   8   9
ENDBRANCH   7   8
ENDBRANCH   6   7
ENDBRANCH   5   6
ENDBRANCH   4   5
ENDBRANCH   3   4
ENDBRANCH   2   3
ENDBRANCH   1   2
BRANCH   1  13
ATOM     13  C   UNL     1      -3.919   7.059  40.527  1.00  0.00     0.000 C 
BRANCH  13  14
ATOM     14  C   UNL     1      -2.671   7.957  40.582  1.00  0.00     0.000 C 
BRANCH  14  15
ATOM     15  C   UNL     1      -2.479   8.792  39.303  1.00  0.00     0.000 C 
BRANCH  15  16
ATOM     16  C   UNL     1      -1.014   9.058  38.900  1.00  0.00     0.000 C 
BRANCH  16  17
ATOM     17  C   UNL     1      -0.002   9.060  40.059  1.00  0.00     0.000 C 
BRANCH  17  18
ATOM     18  C   UNL     1       0.778   7.738  40.172  1.00  0.00     0.000 C 
BRANCH  18  19
ATOM     19  C   UNL     1       1.235   7.203  38.806  1.00  0.00     0.000 C 
BRANCH  19  20
ATOM     20  C   UNL     1       2.176   5.990  38.926  1.00  0.00     0.006 C 
BRANCH  20  21
ATOM     21  C   UNL     1       2.098   5.075  37.696  1.00  0.00     0.053 C 
BRANCH  21  22
ATOM     22  C   UNL     1       2.957   3.856  37.852  1.00  0.00     0.041 C 
ATOM     23  O   UNL     1       4.173   3.892  37.529  1.00  0.00    -0.550 OA
ATOM     24  O   UNL     1       2.405   2.673  38.329  1.00  0.00    -0.550 OA
ENDBRANCH  21  22
ENDBRANCH  20  21
ENDBRANCH  19  20
ENDBRANCH  18  19
ENDBRANCH  17  18
ENDBRANCH  16  17
ENDBRANCH  15  16
ENDBRANCH  14  15
ENDBRANCH  13  14
ENDBRANCH   1  13
TORSDOF 20
ENDMDL
MODEL 2
REMARK VINA RESULT:    -3.018      1.847      4.661
REMARK INTER + INTRA:         -10.280
REMARK INTER:                  -6.277
REMARK INTRA:                  -4.003
REMARK UNBOUND:                -3.732
REMARK SMILES CCCCCCCCCCCCCCCCCCCCCC(=O)[O-]
REMARK SMILES IDX 12 1 11 2 10 3 9 4 8 5 7 6 6 7 5 8 4 9 3 10 2 11 1 12 13 13
REMARK SMILES IDX 14 14 15 15 16 16 17 17 18 18 19 19 20 20 21 21 22 22 23 23
REMARK SMILES IDX 24 24
REMARK H PARENT
REMARK Flexibility Score: inf
ROOT
ATOM      1  C   UNL     1       0.260   7.716  41.801  1.00  0.00     0.000 C 
ENDROOT
BRANCH   1   2
ATOM      2  C   UNL     1      -0.703   7.337  42.943  1.00  0.00     0.000 C 
BRANCH   2   3
ATOM      3  C   UNL     1      -2.070   8.051  42.909  1.00  0.00     0.000 C 
BRANCH   3   4
ATOM      4  C   UNL     1      -3.281   7.128  42.666  1.00  0.00    -0.000 C 
BRANCH   4   5
ATOM      5  C   UNL     1      -3.900   7.224  41.261  1.00  0.00    -0.000 C 
BRANCH   5   6
ATOM      6  C   UNL     1      -3.438   6.095  40.327  1.00  0.00    -0.000 C 
BRANCH   6   7
ATOM      7  C   UNL     1      -2.842   4.931  41.129  1.00  0.00    -0.000 C 
BRANCH   7   8
ATOM      8  C   UNL     1      -1.431   4.583  40.633  1.00  0.00    -0.000 C 
BRANCH   8   9
ATOM      9  C   UNL     1      -1.102   5.262  39.286  1.00  0.00    -0.000 C 
BRANCH   9  10
ATOM     10  C   UNL     1      -0.567   4.292  38.220  1.00  0.00    -0.000 C 
BRANCH  10  11
ATOM     11  C   UNL     1       0.942   4.437  37.984  1.00  0.00    -0.003 C 
ATOM     12  C   UNL     1       1.509   5.622  38.762  1.00  0.00     0.004 C 
ENDBRANCH  10  11
ENDBRANCH   9  10
ENDBRANCH   8   9
ENDBRANCH   7   8
ENDBRANCH   6   7
ENDBRANCH   5   6
ENDBRANCH   4   5
ENDBRANCH   3   4
ENDBRANCH   2   3
ENDBRANCH   1   2
BRANCH   1  13
ATOM     13  C   UNL     1      -0.116   8.990  41.022  1.00  0.00     0.000 C 
BRANCH  13  14
ATOM     14  C   UNL     1      -0.276   8.740  39.513  1.00  0.00     0.000 C 
BRANCH  14  15
ATOM     15  C   UNL     1      -1.723   8.941  39.024  1.00  0.00     0.000 C 
BRANCH  15  16
ATOM     16  C   UNL     1      -1.888   9.125  37.501  1.00  0.00     0.000 C 
BRANCH  16  17
ATOM     17  C   UNL     1      -1.632   7.866  36.654  1.00  0.00     0.000 C 
BRANCH  17  18
ATOM     18  C   UNL     1      -0.164   7.735  36.209  1.00  0.00     0.000 C 
BRANCH  18  19
ATOM     19  C   UNL     1       0.021   6.713  35.076  1.00  0.00     0.000 C 
BRANCH  19  20
ATOM     20  C   UNL     1      -1.159   5.732  34.959  1.00  0.00     0.006 C 
BRANCH  20  21
ATOM     21  C   UNL     1      -0.893   4.628  33.927  1.00  0.00     0.053 C 
BRANCH  21  22
ATOM     22  C   UNL     1      -0.250   3.426  34.549  1.00  0.00     0.041 C 
ATOM     23  O   UNL     1      -0.951   2.568  35.147  1.00  0.00    -0.550 OA
ATOM     24  O   UNL     1       1.130   3.268  34.493  1.00  0.00    -0.550 OA
ENDBRANCH  21  22
ENDBRANCH  20  21
ENDBRANCH  19  20
ENDBRANCH  18  19
ENDBRANCH  17  18
ENDBRANCH  16  17
ENDBRANCH  15  16
ENDBRANCH  14  15
ENDBRANCH  13  14
ENDBRANCH   1  13
TORSDOF 20
ENDMDL
MODEL 3
REMARK VINA RESULT:    -2.919      2.468      4.732
REMARK INTER + INTRA:         -10.064
REMARK INTER:                  -6.607
REMARK INTRA:                  -3.456
REMARK UNBOUND:                -3.732
REMARK SMILES CCCCCCCCCCCCCCCCCCCCCC(=O)[O-]
REMARK SMILES IDX 12 1 11 2 10 3 9 4 8 5 7 6 6 7 5 8 4 9 3 10 2 11 1 12 13 13
REMARK SMILES IDX 14 14 15 15 16 16 17 17 18 18 19 19 20 20 21 21 22 22 23 23
REMARK SMILES IDX 24 24
REMARK H PARENT
REMARK Flexibility Score: inf
ROOT
ATOM      1  C   UNL     1      -1.377   4.403  41.709  1.00  0.00     0.000 C 
ENDROOT
BRANCH   1   2
ATOM      2  C   UNL     1      -2.229   5.192  42.723  1.00  0.00     0.000 C 
BRANCH   2   3
ATOM      3  C   UNL     1      -2.489   6.666  42.352  1.00  0.00     0.000 C 
BRANCH   3   4
ATOM      4  C   UNL     1      -3.864   6.943  41.711  1.00  0.00    -0.000 C 
BRANCH   4   5
ATOM      5  C   UNL     1      -3.831   7.856  40.471  1.00  0.00    -0.000 C 
BRANCH   5   6
ATOM      6  C   UNL     1      -2.414   8.332  40.119  1.00  0.00    -0.000 C 
BRANCH   6   7
ATOM      7  C   UNL     1      -2.382   8.975  38.727  1.00  0.00    -0.000 C 
BRANCH   7   8
ATOM      8  C   UNL     1      -1.031   8.734  38.038  1.00  0.00    -0.000 C 
BRANCH   8   9
ATOM      9  C   UNL     1      -1.149   7.755  36.850  1.00  0.00    -0.000 C 
BRANCH   9  10
ATOM     10  C   UNL     1      -1.612   6.346  37.255  1.00  0.00    -0.000 C 
BRANCH  10  11
ATOM     11  C   UNL     1      -2.508   5.686  36.199  1.00  0.00    -0.003 C 
ATOM     12  C   UNL     1      -2.466   4.165  36.315  1.00  0.00     0.004 C 
ENDBRANCH  10  11
ENDBRANCH   9  10
ENDBRANCH   8   9
ENDBRANCH   7   8
ENDBRANCH   6   7
ENDBRANCH   5   6
ENDBRANCH   4   5
ENDBRANCH   3   4
ENDBRANCH   2   3
ENDBRANCH   1   2
BRANCH   1  13
ATOM     13  C   UNL     1      -0.798   5.238  40.552  1.00  0.00     0.000 C 
BRANCH  13  14
ATOM     14  C   UNL     1       0.721   5.448  40.669  1.00  0.00     0.000 C 
BRANCH  14  15
ATOM     15  C   UNL     1       1.231   6.617  39.807  1.00  0.00     0.000 C 
BRANCH  15  16
ATOM     16  C   UNL     1       2.013   6.212  38.540  1.00  0.00     0.000 C 
BRANCH  16  17
ATOM     17  C   UNL     1       2.097   4.699  38.271  1.00  0.00     0.000 C 
BRANCH  17  18
ATOM     18  C   UNL     1       1.382   4.283  36.974  1.00  0.00     0.000 C 
BRANCH  18  19
ATOM     19  C   UNL     1       1.711   5.211  35.794  1.00  0.00     0.000 C 
BRANCH  19  20
ATOM     20  C   UNL     1       0.769   5.007  34.594  1.00  0.00     0.006 C 
BRANCH  20  21
ATOM     21  C   UNL     1       0.387   6.335  33.927  1.00  0.00     0.053 C 
BRANCH  21  22
ATOM     22  C   UNL     1       0.786   6.369  32.482  1.00  0.00     0.041 C 
ATOM     23  O   UNL     1      -0.080   6.225  31.581  1.00  0.00    -0.550 OA
ATOM     24  O   UNL     1       2.122   6.532  32.134  1.00  0.00    -0.550 OA
ENDBRANCH  21  22
ENDBRANCH  20  21
ENDBRANCH  19  20
ENDBRANCH  18  19
ENDBRANCH  17  18
ENDBRANCH  16  17
ENDBRANCH  15  16
ENDBRANCH  14  15
ENDBRANCH  13  14
ENDBRANCH   1  13
TORSDOF 20
ENDMDL
MODEL 4
REMARK VINA RESULT:    -2.895      2.041      4.874
REMARK INTER + INTRA:         -10.013
REMARK INTER:                  -6.164
REMARK INTRA:                  -3.849
REMARK UNBOUND:                -3.732
REMARK SMILES CCCCCCCCCCCCCCCCCCCCCC(=O)[O-]
REMARK SMILES IDX 12 1 11 2 10 3 9 4 8 5 7 6 6 7 5 8 4 9 3 10 2 11 1 12 13 13
REMARK SMILES IDX 14 14 15 15 16 16 17 17 18 18 19 19 20 20 21 21 22 22 23 23
REMARK SMILES IDX 24 24
REMARK H PARENT
REMARK Flexibility Score: inf
ROOT
ATOM      1  C   UNL     1      -2.675   6.518  39.337  1.00  0.00     0.000 C 
ENDROOT
BRANCH   1   2
ATOM      2  C   UNL     1      -3.533   6.078  40.540  1.00  0.00     0.000 C 
BRANCH   2   3
ATOM      3  C   UNL     1      -3.649   7.117  41.674  1.00  0.00     0.000 C 
BRANCH   3   4
ATOM      4  C   UNL     1      -2.614   6.965  42.806  1.00  0.00    -0.000 C 
BRANCH   4   5
ATOM      5  C   UNL     1      -1.521   8.049  42.839  1.00  0.00    -0.000 C 
BRANCH   5   6
ATOM      6  C   UNL     1      -0.213   7.596  42.173  1.00  0.00    -0.000 C 
BRANCH   6   7
ATOM      7  C   UNL     1      -0.115   6.066  42.142  1.00  0.00    -0.000 C 
BRANCH   7   8
ATOM      8  C   UNL     1       0.501   5.578  40.822  1.00  0.00    -0.000 C 
BRANCH   8   9
ATOM      9  C   UNL     1       1.269   6.698  40.088  1.00  0.00    -0.000 C 
BRANCH   9  10
ATOM     10  C   UNL     1       2.561   6.217  39.407  1.00  0.00    -0.000 C 
BRANCH  10  11
ATOM     11  C   UNL     1       2.919   4.768  39.762  1.00  0.00    -0.003 C 
ATOM     12  C   UNL     1       4.430   4.553  39.737  1.00  0.00     0.004 C 
ENDBRANCH  10  11
ENDBRANCH   9  10
ENDBRANCH   8   9
ENDBRANCH   7   8
ENDBRANCH   6   7
ENDBRANCH   5   6
ENDBRANCH   4   5
ENDBRANCH   3   4
ENDBRANCH   2   3
ENDBRANCH   1   2
BRANCH   1  13
ATOM     13  C   UNL     1      -2.436   8.034  39.222  1.00  0.00     0.000 C 
BRANCH  13  14
ATOM     14  C   UNL     1      -1.342   8.390  38.201  1.00  0.00     0.000 C 
BRANCH  14  15
ATOM     15  C   UNL     1      -1.713   7.988  36.762  1.00  0.00     0.000 C 
BRANCH  15  16
ATOM     16  C   UNL     1      -0.574   7.353  35.937  1.00  0.00     0.000 C 
BRANCH  16  17
ATOM     17  C   UNL     1      -0.935   6.043  35.215  1.00  0.00     0.000 C 
BRANCH  17  18
ATOM     18  C   UNL     1      -1.092   4.854  36.179  1.00  0.00     0.000 C 
BRANCH  18  19
ATOM     19  C   UNL     1       0.094   4.716  37.146  1.00  0.00     0.000 C 
BRANCH  19  20
ATOM     20  C   UNL     1       1.228   3.843  36.579  1.00  0.00     0.006 C 
BRANCH  20  21
ATOM     21  C   UNL     1       2.374   4.687  36.004  1.00  0.00     0.053 C 
BRANCH  21  22
ATOM     22  C   UNL     1       2.577   4.428  34.541  1.00  0.00     0.041 C 
ATOM     23  O   UNL     1       1.616   4.043  33.826  1.00  0.00    -0.550 OA
ATOM     24  O   UNL     1       3.837   4.584  33.976  1.00  0.00    -0.550 OA
ENDBRANCH  21  22
ENDBRANCH  20  21
ENDBRANCH  19  20
ENDBRANCH  18  19
ENDBRANCH  17  18
ENDBRANCH  16  17
ENDBRANCH  15  16
ENDBRANCH  14  15
ENDBRANCH  13  14
ENDBRANCH   1  13
TORSDOF 20
ENDMDL
MODEL 5
REMARK VINA RESULT:    -2.875      1.413      5.564
REMARK INTER + INTRA:          -9.968
REMARK INTER:                  -6.370
REMARK INTRA:                  -3.598
REMARK UNBOUND:                -3.732
REMARK SMILES CCCCCCCCCCCCCCCCCCCCCC(=O)[O-]
REMARK SMILES IDX 12 1 11 2 10 3 9 4 8 5 7 6 6 7 5 8 4 9 3 10 2 11 1 12 13 13
REMARK SMILES IDX 14 14 15 15 16 16 17 17 18 18 19 19 20 20 21 21 22 22 23 23
REMARK SMILES IDX 24 24
REMARK H PARENT
REMARK Flexibility Score: inf
ROOT
ATOM      1  C   UNL     1      -1.651   8.148  36.931  1.00  0.00     0.000 C 
ENDROOT
BRANCH   1   2
ATOM      2  C   UNL     1      -1.354   8.487  38.405  1.00  0.00     0.000 C 
BRANCH   2   3
ATOM      3  C   UNL     1       0.098   8.230  38.855  1.00  0.00     0.000 C 
BRANCH   3   4
ATOM      4  C   UNL     1       0.302   8.145  40.382  1.00  0.00    -0.000 C 
BRANCH   4   5
ATOM      5  C   UNL     1      -0.961   8.404  41.222  1.00  0.00    -0.000 C 
BRANCH   5   6
ATOM      6  C   UNL     1      -1.115   7.416  42.388  1.00  0.00    -0.000 C 
BRANCH   6   7
ATOM      7  C   UNL     1      -2.537   6.844  42.436  1.00  0.00    -0.000 C 
BRANCH   7   8
ATOM      8  C   UNL     1      -3.490   7.655  41.546  1.00  0.00    -0.000 C 
BRANCH   8   9
ATOM      9  C   UNL     1      -4.236   6.766  40.529  1.00  0.00    -0.000 C 
BRANCH   9  10
ATOM     10  C   UNL     1      -3.573   5.398  40.301  1.00  0.00    -0.000 C 
BRANCH  10  11
ATOM     11  C   UNL     1      -2.702   5.358  39.039  1.00  0.00    -0.003 C 
ATOM     12  C   UNL     1      -1.315   4.800  39.344  1.00  0.00     0.004 C 
ENDBRANCH  10  11
ENDBRANCH   9  10
ENDBRANCH   8   9
ENDBRANCH   7   8
ENDBRANCH   6   7
ENDBRANCH   5   6
ENDBRANCH   4   5
ENDBRANCH   3   4
ENDBRANCH   2   3
ENDBRANCH   1   2
BRANCH   1  13
ATOM     13  C   UNL     1      -0.660   7.172  36.271  1.00  0.00     0.000 C 
BRANCH  13  14
ATOM     14  C   UNL     1      -1.359   5.990  35.578  1.00  0.00     0.000 C 
BRANCH  14  15
ATOM     15  C   UNL     1      -0.823   5.728  34.158  1.00  0.00     0.000 C 
BRANCH  15  16
ATOM     16  C   UNL     1       0.572   6.316  33.858  1.00  0.00     0.000 C 
BRANCH  16  17
ATOM     17  C   UNL     1       1.715   5.290  33.771  1.00  0.00     0.000 C 
BRANCH  17  18
ATOM     18  C   UNL     1       1.233   3.841  33.966  1.00  0.00     0.000 C 
BRANCH  18  19
ATOM     19  C   UNL     1       1.464   3.329  35.396  1.00  0.00     0.000 C 
BRANCH  19  20
ATOM     20  C   UNL     1       2.473   4.186  36.181  1.00  0.00     0.006 C 
BRANCH  20  21
ATOM     21  C   UNL     1       1.926   4.614  37.550  1.00  0.00     0.053 C 
BRANCH  21  22
ATOM     22  C   UNL     1       3.026   4.979  38.501  1.00  0.00     0.041 C 
ATOM     23  O   UNL     1       3.978   4.181  38.705  1.00  0.00    -0.550 OA
ATOM     24  O   UNL     1       2.983   6.189  39.182  1.00  0.00    -0.550 OA
ENDBRANCH  21  22
ENDBRANCH  20  21
ENDBRANCH  19  20
ENDBRANCH  18  19
ENDBRANCH  17  18
ENDBRANCH  16  17
ENDBRANCH  15  16
ENDBRANCH  14  15
ENDBRANCH  13  14
ENDBRANCH   1  13
TORSDOF 20
ENDMDL
MODEL 6
REMARK VINA RESULT:    -2.834      1.352      2.288
REMARK INTER + INTRA:          -9.879
REMARK INTER:                  -6.879
REMARK INTRA:                  -3.000
REMARK UNBOUND:                -3.732
REMARK SMILES CCCCCCCCCCCCCCCCCCCCCC(=O)[O-]
REMARK SMILES IDX 12 1 11 2 10 3 9 4 8 5 7 6 6 7 5 8 4 9 3 10 2 11 1 12 13 13
REMARK SMILES IDX 14 14 15 15 16 16 17 17 18 18 19 19 20 20 21 21 22 22 23 23
REMARK SMILES IDX 24 24
REMARK H PARENT
REMARK Flexibility Score: inf
ROOT
ATOM      1  C   UNL     1      -3.514   6.135  40.044  1.00  0.00     0.000 C 
ENDROOT
BRANCH   1   2
ATOM      2  C   UNL     1      -2.245   5.312  40.341  1.00  0.00     0.000 C 
BRANCH   2   3
ATOM      3  C   UNL     1      -1.462   4.846  39.096  1.00  0.00     0.000 C 
BRANCH   3   4
ATOM      4  C   UNL     1      -1.894   5.507  37.770  1.00  0.00    -0.000 C 
BRANCH   4   5
ATOM      5  C   UNL     1      -2.510   4.548  36.737  1.00  0.00    -0.000 C 
BRANCH   5   6
ATOM      6  C   UNL     1      -1.610   4.334  35.510  1.00  0.00    -0.000 C 
BRANCH   6   7
ATOM      7  C   UNL     1      -0.132   4.503  35.881  1.00  0.00    -0.000 C 
BRANCH   7   8
ATOM      8  C   UNL     1       0.666   5.102  34.713  1.00  0.00    -0.000 C 
BRANCH   8   9
ATOM      9  C   UNL     1       0.230   6.547  34.389  1.00  0.00    -0.000 C 
BRANCH   9  10
ATOM     10  C   UNL     1       0.757   7.063  33.040  1.00  0.00    -0.000 C 
BRANCH  10  11
ATOM     11  C   UNL     1       1.593   6.020  32.286  1.00  0.00    -0.003 C 
ATOM     12  C   UNL     1       0.892   5.572  31.007  1.00  0.00     0.004 C 
ENDBRANCH  10  11
ENDBRANCH   9  10
ENDBRANCH   8   9
ENDBRANCH   7   8
ENDBRANCH   6   7
ENDBRANCH   5   6
ENDBRANCH   4   5
ENDBRANCH   3   4
ENDBRANCH   2   3
ENDBRANCH   1   2
BRANCH   1  13
ATOM     13  C   UNL     1      -3.511   7.569  40.604  1.00  0.00     0.000 C 
BRANCH  13  14
ATOM     14  C   UNL     1      -2.347   8.418  40.062  1.00  0.00     0.000 C 
BRANCH  14  15
ATOM     15  C   UNL     1      -2.654   9.046  38.690  1.00  0.00     0.000 C 
BRANCH  15  16
ATOM     16  C   UNL     1      -1.460   9.121  37.715  1.00  0.00     0.000 C 
BRANCH  16  17
ATOM     17  C   UNL     1      -0.069   9.092  38.373  1.00  0.00     0.000 C 
BRANCH  17  18
ATOM     18  C   UNL     1       0.833   7.978  37.812  1.00  0.00     0.000 C 
BRANCH  18  19
ATOM     19  C   UNL     1       1.463   7.116  38.917  1.00  0.00     0.000 C 
BRANCH  19  20
ATOM     20  C   UNL     1       2.132   5.842  38.370  1.00  0.00     0.006 C 
BRANCH  20  21
ATOM     21  C   UNL     1       3.113   5.226  39.377  1.00  0.00     0.053 C 
BRANCH  21  22
ATOM     22  C   UNL     1       3.612   3.888  38.922  1.00  0.00     0.041 C 
ATOM     23  O   UNL     1       4.825   3.731  38.624  1.00  0.00    -0.550 OA
ATOM     24  O   UNL     1       2.730   2.821  38.800  1.00  0.00    -0.550 OA
ENDBRANCH  21  22
ENDBRANCH  20  21
ENDBRANCH  19  20
ENDBRANCH  18  19
ENDBRANCH  17  18
ENDBRANCH  16  17
ENDBRANCH  15  16
ENDBRANCH  14  15
ENDBRANCH  13  14
ENDBRANCH   1  13
TORSDOF 20
ENDMDL
MODEL 7
REMARK VINA RESULT:    -2.820      2.965      6.198
REMARK INTER + INTRA:          -9.849
REMARK INTER:                  -6.590
REMARK INTRA:                  -3.259
REMARK UNBOUND:                -3.732
REMARK SMILES CCCCCCCCCCCCCCCCCCCCCC(=O)[O-]
REMARK SMILES IDX 12 1 11 2 10 3 9 4 8 5 7 6 6 7 5 8 4 9 3 10 2 11 1 12 13 13
REMARK SMILES IDX 14 14 15 15 16 16 17 17 18 18 19 19 20 20 21 21 22 22 23 23
REMARK SMILES IDX 24 24
REMARK H PARENT
REMARK Flexibility Score: inf
ROOT
ATOM      1  C   UNL     1       1.441   6.158  39.377  1.00  0.00     0.000 C 
ENDROOT
BRANCH   1   2
ATOM      2  C   UNL     1       1.264   7.683  39.239  1.00  0.00     0.000 C 
BRANCH   2   3
ATOM      3  C   UNL     1       0.888   8.171  37.825  1.00  0.00     0.000 C 
BRANCH   3   4
ATOM      4  C   UNL     1      -0.447   8.939  37.734  1.00  0.00    -0.000 C 
BRANCH   4   5
ATOM      5  C   UNL     1      -1.253   8.999  39.044  1.00  0.00    -0.000 C 
BRANCH   5   6
ATOM      6  C   UNL     1      -2.423   8.004  39.070  1.00  0.00    -0.000 C 
BRANCH   6   7
ATOM      7  C   UNL     1      -2.317   7.065  40.278  1.00  0.00    -0.000 C 
BRANCH   7   8
ATOM      8  C   UNL     1      -2.214   5.599  39.832  1.00  0.00    -0.000 C 
BRANCH   8   9
ATOM      9  C   UNL     1      -2.434   5.435  38.313  1.00  0.00    -0.000 C 
BRANCH   9  10
ATOM     10  C   UNL     1      -1.305   4.670  37.605  1.00  0.00    -0.000 C 
BRANCH  10  11
ATOM     11  C   UNL     1      -1.296   4.890  36.086  1.00  0.00    -0.003 C 
ATOM     12  C   UNL     1      -1.868   6.258  35.725  1.00  0.00     0.004 C 
ENDBRANCH  10  11
ENDBRANCH   9  10
ENDBRANCH   8   9
ENDBRANCH   7   8
ENDBRANCH   6   7
ENDBRANCH   5   6
ENDBRANCH   4   5
ENDBRANCH   3   4
ENDBRANCH   2   3
ENDBRANCH   1   2
BRANCH   1  13
ATOM     13  C   UNL     1       2.898   5.662  39.342  1.00  0.00     0.000 C 
BRANCH  13  14
ATOM     14  C   UNL     1       3.150   4.628  38.231  1.00  0.00     0.000 C 
BRANCH  14  15
ATOM     15  C   UNL     1       2.377   4.942  36.937  1.00  0.00     0.000 C 
BRANCH  15  16
ATOM     16  C   UNL     1       2.208   3.757  35.963  1.00  0.00     0.000 C 
BRANCH  16  17
ATOM     17  C   UNL     1       2.631   4.032  34.510  1.00  0.00     0.000 C 
BRANCH  17  18
ATOM     18  C   UNL     1       1.891   3.143  33.495  1.00  0.00     0.000 C 
BRANCH  18  19
ATOM     19  C   UNL     1       1.197   3.957  32.391  1.00  0.00     0.000 C 
BRANCH  19  20
ATOM     20  C   UNL     1       0.883   5.401  32.823  1.00  0.00     0.006 C 
BRANCH  20  21
ATOM     21  C   UNL     1       1.776   6.425  32.111  1.00  0.00     0.053 C 
BRANCH  21  22
ATOM     22  C   UNL     1       1.092   7.031  30.923  1.00  0.00     0.041 C 
ATOM     23  O   UNL     1       0.807   8.257  30.912  1.00  0.00    -0.550 OA
ATOM     24  O   UNL     1       0.745   6.234  29.839  1.00  0.00    -0.550 OA
ENDBRANCH  21  22
ENDBRANCH  20  21
ENDBRANCH  19  20
ENDBRANCH  18  19
ENDBRANCH  17  18
ENDBRANCH  16  17
ENDBRANCH  15  16
ENDBRANCH  14  15
ENDBRANCH  13  14
ENDBRANCH   1  13
TORSDOF 20
ENDMDL
MODEL 8
REMARK VINA RESULT:    -2.803      2.695      5.453
REMARK INTER + INTRA:          -9.813
REMARK INTER:                  -6.937
REMARK INTRA:                  -2.876
REMARK UNBOUND:                -3.732
REMARK SMILES CCCCCCCCCCCCCCCCCCCCCC(=O)[O-]
REMARK SMILES IDX 12 1 11 2 10 3 9 4 8 5 7 6 6 7 5 8 4 9 3 10 2 11 1 12 13 13
REMARK SMILES IDX 14 14 15 15 16 16 17 17 18 18 19 19 20 20 21 21 22 22 23 23
REMARK SMILES IDX 24 24
REMARK H PARENT
REMARK Flexibility Score: inf
ROOT
ATOM      1  C   UNL     1      -2.268   5.376  39.295  1.00  0.00     0.000 C 
ENDROOT
BRANCH   1   2
ATOM      2  C   UNL     1      -3.531   5.755  40.093  1.00  0.00     0.000 C 
BRANCH   2   3
ATOM      3  C   UNL     1      -3.766   7.270  40.266  1.00  0.00     0.000 C 
BRANCH   3   4
ATOM      4  C   UNL     1      -2.493   8.138  40.200  1.00  0.00    -0.000 C 
BRANCH   4   5
ATOM      5  C   UNL     1      -2.421   9.097  38.999  1.00  0.00    -0.000 C 
BRANCH   5   6
ATOM      6  C   UNL     1      -1.033   9.125  38.340  1.00  0.00    -0.000 C 
BRANCH   6   7
ATOM      7  C   UNL     1       0.074   8.967  39.389  1.00  0.00    -0.000 C 
BRANCH   7   8
ATOM      8  C   UNL     1       1.011   7.803  39.033  1.00  0.00    -0.000 C 
BRANCH   8   9
ATOM      9  C   UNL     1       0.983   6.685  40.097  1.00  0.00    -0.000 C 
BRANCH   9  10
ATOM     10  C   UNL     1       1.600   5.361  39.618  1.00  0.00    -0.000 C 
BRANCH  10  11
ATOM     11  C   UNL     1       3.098   5.479  39.305  1.00  0.00    -0.003 C 
ATOM     12  C   UNL     1       3.865   4.264  39.820  1.00  0.00     0.004 C 
ENDBRANCH  10  11
ENDBRANCH   9  10
ENDBRANCH   8   9
ENDBRANCH   7   8
ENDBRANCH   6   7
ENDBRANCH   5   6
ENDBRANCH   4   5
ENDBRANCH   3   4
ENDBRANCH   2   3
ENDBRANCH   1   2
BRANCH   1  13
ATOM     13  C   UNL     1      -2.313   5.722  37.795  1.00  0.00     0.000 C 
BRANCH  13  14
ATOM     14  C   UNL     1      -2.929   4.600  36.943  1.00  0.00     0.000 C 
BRANCH  14  15
ATOM     15  C   UNL     1      -1.894   3.893  36.048  1.00  0.00     0.000 C 
BRANCH  15  16
ATOM     16  C   UNL     1      -0.552   3.554  36.729  1.00  0.00     0.000 C 
BRANCH  16  17
ATOM     17  C   UNL     1       0.707   4.003  35.966  1.00  0.00     0.000 C 
BRANCH  17  18
ATOM     18  C   UNL     1       0.923   5.526  36.017  1.00  0.00     0.000 C 
BRANCH  18  19
ATOM     19  C   UNL     1       1.167   6.135  34.627  1.00  0.00     0.000 C 
BRANCH  19  20
ATOM     20  C   UNL     1      -0.094   6.128  33.743  1.00  0.00     0.006 C 
BRANCH  20  21
ATOM     21  C   UNL     1       0.199   5.630  32.322  1.00  0.00     0.053 C 
BRANCH  21  22
ATOM     22  C   UNL     1       0.758   6.717  31.454  1.00  0.00     0.041 C 
ATOM     23  O   UNL     1       1.366   6.429  30.390  1.00  0.00    -0.550 OA
ATOM     24  O   UNL     1       0.631   8.046  31.837  1.00  0.00    -0.550 OA
ENDBRANCH  21  22
ENDBRANCH  20  21
ENDBRANCH  19  20
ENDBRANCH  18  19
ENDBRANCH  17  18
ENDBRANCH  16  17
ENDBRANCH  15  16
ENDBRANCH  14  15
ENDBRANCH  13  14
ENDBRANCH   1  13
TORSDOF 20
ENDMDL
MODEL 9
REMARK VINA RESULT:    -2.763      1.756      3.804
REMARK INTER + INTRA:          -9.725
REMARK INTER:                  -5.667
REMARK INTRA:                  -4.058
REMARK UNBOUND:                -3.732
REMARK SMILES CCCCCCCCCCCCCCCCCCCCCC(=O)[O-]
REMARK SMILES IDX 12 1 11 2 10 3 9 4 8 5 7 6 6 7 5 8 4 9 3 10 2 11 1 12 13 13
REMARK SMILES IDX 14 14 15 15 16 16 17 17 18 18 19 19 20 20 21 21 22 22 23 23
REMARK SMILES IDX 24 24
REMARK H PARENT
REMARK Flexibility Score: inf
ROOT
ATOM      1  C   UNL     1      -3.833   5.004  41.711  1.00  0.00     0.000 C 
ENDROOT
BRANCH   1   2
ATOM      2  C   UNL     1      -4.120   5.911  40.498  1.00  0.00     0.000 C 
BRANCH   2   3
ATOM      3  C   UNL     1      -2.870   6.413  39.747  1.00  0.00     0.000 C 
BRANCH   3   4
ATOM      4  C   UNL     1      -2.594   7.924  39.878  1.00  0.00    -0.000 C 
BRANCH   4   5
ATOM      5  C   UNL     1      -1.417   8.293  40.799  1.00  0.00    -0.000 C 
BRANCH   5   6
ATOM      6  C   UNL     1      -0.282   9.015  40.058  1.00  0.00    -0.000 C 
BRANCH   6   7
ATOM      7  C   UNL     1      -0.587   9.119  38.559  1.00  0.00    -0.000 C 
BRANCH   7   8
ATOM      8  C   UNL     1       0.531   8.480  37.721  1.00  0.00    -0.000 C 
BRANCH   8   9
ATOM      9  C   UNL     1      -0.006   7.842  36.422  1.00  0.00    -0.000 C 
BRANCH   9  10
ATOM     10  C   UNL     1      -1.536   7.697  36.392  1.00  0.00    -0.000 C 
BRANCH  10  11
ATOM     11  C   UNL     1      -1.994   6.273  36.047  1.00  0.00    -0.003 C 
ATOM     12  C   UNL     1      -1.251   5.736  34.827  1.00  0.00     0.004 C 
ENDBRANCH  10  11
ENDBRANCH   9  10
ENDBRANCH   8   9
ENDBRANCH   7   8
ENDBRANCH   6   7
ENDBRANCH   5   6
ENDBRANCH   4   5
ENDBRANCH   3   4
ENDBRANCH   2   3
ENDBRANCH   1   2
BRANCH   1  13
ATOM     13  C   UNL     1      -2.403   5.095  42.273  1.00  0.00     0.000 C 
BRANCH  13  14
ATOM     14  C   UNL     1      -1.679   3.738  42.283  1.00  0.00     0.000 C 
BRANCH  14  15
ATOM     15  C   UNL     1      -0.506   3.678  41.287  1.00  0.00     0.000 C 
BRANCH  15  16
ATOM     16  C   UNL     1       0.287   4.991  41.119  1.00  0.00     0.000 C 
BRANCH  16  17
ATOM     17  C   UNL     1       0.556   5.418  39.666  1.00  0.00     0.000 C 
BRANCH  17  18
ATOM     18  C   UNL     1       0.040   4.395  38.639  1.00  0.00     0.000 C 
BRANCH  18  19
ATOM     19  C   UNL     1       0.909   4.337  37.373  1.00  0.00     0.000 C 
BRANCH  19  20
ATOM     20  C   UNL     1       2.286   4.999  37.565  1.00  0.00     0.006 C 
BRANCH  20  21
ATOM     21  C   UNL     1       3.421   3.968  37.617  1.00  0.00     0.053 C 
BRANCH  21  22
ATOM     22  C   UNL     1       4.211   4.072  38.887  1.00  0.00     0.041 C 
ATOM     23  O   UNL     1       3.910   4.935  39.752  1.00  0.00    -0.550 OA
ATOM     24  O   UNL     1       5.298   3.233  39.100  1.00  0.00    -0.550 OA
ENDBRANCH  21  22
ENDBRANCH  20  21
ENDBRANCH  19  20
ENDBRANCH  18  19
ENDBRANCH  17  18
ENDBRANCH  16  17
ENDBRANCH  15  16
ENDBRANCH  14  15
ENDBRANCH  13  14
ENDBRANCH   1  13
TORSDOF 20
ENDMDL
