MODEL 1
REMARK VINA RESULT:    -2.483      0.000      0.000
REMARK INTER + INTRA:          -2.982
REMARK INTER:                  -2.774
REMARK INTRA:                  -0.209
REMARK UNBOUND:                -0.209
REMARK SMILES CC(C)c1ccc(C(=O)[O-])cc1
REMARK SMILES IDX 7 1 6 2 11 3 5 4 12 5 4 6 8 7 9 8 10 9 2 10 1 11 3 12
REMARK H PARENT
REMARK Flexibility Score: inf
ROOT
ATOM      1  C   UNL     1      34.711  -2.024  22.886  1.00  0.00    -0.003 A 
ATOM      2  C   UNL     1      33.428  -1.455  22.800  1.00  0.00     0.010 A 
ATOM      3  C   UNL     1      35.058  -2.748  24.038  1.00  0.00     0.010 A 
ATOM      4  C   UNL     1      32.513  -1.608  23.844  1.00  0.00     0.004 A 
ATOM      5  C   UNL     1      34.142  -2.900  25.084  1.00  0.00     0.004 A 
ATOM      6  C   UNL     1      32.859  -2.332  24.998  1.00  0.00    -0.045 A 
ENDROOT
BRANCH   1   7
ATOM      7  C   UNL     1      35.683  -1.865  21.781  1.00  0.00     0.071 C 
ATOM      8  O   UNL     1      35.881  -0.736  21.259  1.00  0.00    -0.545 OA
ATOM      9  O   UNL     1      36.393  -2.962  21.304  1.00  0.00    -0.545 OA
ENDBRANCH   1   7
BRANCH   6  10
ATOM     10  C   UNL     1      31.855  -2.490  26.125  1.00  0.00     0.013 C 
ATOM     11  C   UNL     1      30.770  -1.409  26.055  1.00  0.00     0.012 C 
ATOM     12  C   UNL     1      31.237  -3.893  26.122  1.00  0.00     0.012 C 
ENDBRANCH   6  10
TORSDOF 2
ENDMDL
MODEL 2
REMARK VINA RESULT:    -2.137      2.955      5.227
REMARK INTER + INTRA:          -2.595
REMARK INTER:                  -2.387
REMARK INTRA:                  -0.208
REMARK UNBOUND:                -0.209
REMARK SMILES CC(C)c1ccc(C(=O)[O-])cc1
REMARK SMILES IDX 7 1 6 2 11 3 5 4 12 5 4 6 8 7 9 8 10 9 2 10 1 11 3 12
REMARK H PARENT
REMARK Flexibility Score: inf
ROOT
ATOM      1  C   UNL     1      32.675  -2.342  24.738  1.00  0.00    -0.003 A 
ATOM      2  C   UNL     1      33.946  -2.883  24.998  1.00  0.00     0.010 A 
ATOM      3  C   UNL     1      32.478  -1.608  23.557  1.00  0.00     0.010 A 
ATOM      4  C   UNL     1      34.996  -2.694  24.096  1.00  0.00     0.004 A 
ATOM      5  C   UNL     1      33.528  -1.418  22.655  1.00  0.00     0.004 A 
ATOM      6  C   UNL     1      34.800  -1.960  22.914  1.00  0.00    -0.045 A 
ENDROOT
BRANCH   1   7
ATOM      7  C   UNL     1      31.561  -2.540  25.690  1.00  0.00     0.071 C 
ATOM      8  O   UNL     1      30.902  -1.557  26.121  1.00  0.00    -0.545 OA
ATOM      9  O   UNL     1      31.224  -3.818  26.125  1.00  0.00    -0.545 OA
ENDBRANCH   1   7
BRANCH   6  10
ATOM     10  C   UNL     1      35.949  -1.762  21.943  1.00  0.00     0.013 C 
ATOM     11  C   UNL     1      36.329  -3.081  21.260  1.00  0.00     0.012 C 
ATOM     12  C   UNL     1      35.619  -0.679  20.909  1.00  0.00     0.012 C 
ENDBRANCH   6  10
TORSDOF 2
ENDMDL
MODEL 3
REMARK VINA RESULT:    -1.422     22.417     23.781
REMARK INTER + INTRA:          -1.796
REMARK INTER:                  -1.585
REMARK INTRA:                  -0.211
REMARK UNBOUND:                -0.209
REMARK SMILES CC(C)c1ccc(C(=O)[O-])cc1
REMARK SMILES IDX 7 1 6 2 11 3 5 4 12 5 4 6 8 7 9 8 10 9 2 10 1 11 3 12
REMARK H PARENT
REMARK Flexibility Score: inf
ROOT
ATOM      1  C   UNL     1      19.941   8.120   6.744  1.00  0.00    -0.003 A 
ATOM      2  C   UNL     1      19.528   7.163   7.687  1.00  0.00     0.010 A 
ATOM      3  C   UNL     1      21.006   7.810   5.882  1.00  0.00     0.010 A 
ATOM      4  C   UNL     1      20.165   5.922   7.765  1.00  0.00     0.004 A 
ATOM      5  C   UNL     1      21.644   6.568   5.961  1.00  0.00     0.004 A 
ATOM      6  C   UNL     1      21.230   5.610   6.903  1.00  0.00    -0.045 A 
ENDROOT
BRANCH   1   7
ATOM      7  C   UNL     1      19.269   9.435   6.658  1.00  0.00     0.071 C 
ATOM      8  O   UNL     1      18.082   9.523   6.244  1.00  0.00    -0.545 OA
ATOM      9  O   UNL     1      19.939  10.595   7.034  1.00  0.00    -0.545 OA
ENDBRANCH   1   7
BRANCH   6  10
ATOM     10  C   UNL     1      21.914   4.259   6.999  1.00  0.00     0.013 C 
ATOM     11  C   UNL     1      20.888   3.119   6.998  1.00  0.00     0.012 C 
ATOM     12  C   UNL     1      22.941   4.078   5.875  1.00  0.00     0.012 C 
ENDBRANCH   6  10
TORSDOF 2
ENDMDL
MODEL 4
REMARK VINA RESULT:    -1.165     22.585     23.870
REMARK INTER + INTRA:          -1.510
REMARK INTER:                  -1.297
REMARK INTRA:                  -0.213
REMARK UNBOUND:                -0.209
REMARK SMILES CC(C)c1ccc(C(=O)[O-])cc1
REMARK SMILES IDX 7 1 6 2 11 3 5 4 12 5 4 6 8 7 9 8 10 9 2 10 1 11 3 12
REMARK H PARENT
REMARK Flexibility Score: inf
ROOT
ATOM      1  C   UNL     1      21.133   5.925   6.696  1.00  0.00    -0.003 A 
ATOM      2  C   UNL     1      20.068   6.178   7.578  1.00  0.00     0.010 A 
ATOM      3  C   UNL     1      21.599   6.965   5.875  1.00  0.00     0.010 A 
ATOM      4  C   UNL     1      19.483   7.445   7.639  1.00  0.00     0.004 A 
ATOM      5  C   UNL     1      21.013   8.233   5.935  1.00  0.00     0.004 A 
ATOM      6  C   UNL     1      19.948   8.488   6.818  1.00  0.00    -0.045 A 
ENDROOT
BRANCH   1   7
ATOM      7  C   UNL     1      21.756   4.584   6.629  1.00  0.00     0.071 C 
ATOM      8  O   UNL     1      22.752   4.376   5.888  1.00  0.00    -0.545 OA
ATOM      9  O   UNL     1      21.248   3.533   7.385  1.00  0.00    -0.545 OA
ENDBRANCH   1   7
BRANCH   6  10
ATOM     10  C   UNL     1      19.304   9.859   6.894  1.00  0.00     0.013 C 
ATOM     11  C   UNL     1      20.212  10.932   6.282  1.00  0.00     0.012 C 
ATOM     12  C   UNL     1      17.923   9.858   6.227  1.00  0.00     0.012 C 
ENDBRANCH   6  10
TORSDOF 2
ENDMDL
MODEL 5
REMARK VINA RESULT:    -0.987      1.506      2.358
REMARK INTER + INTRA:          -1.311
REMARK INTER:                  -1.108
REMARK INTRA:                  -0.203
REMARK UNBOUND:                -0.209
REMARK SMILES CC(C)c1ccc(C(=O)[O-])cc1
REMARK SMILES IDX 7 1 6 2 11 3 5 4 12 5 4 6 8 7 9 8 10 9 2 10 1 11 3 12
REMARK H PARENT
REMARK Flexibility Score: inf
ROOT
ATOM      1  C   UNL     1      35.568  -2.287  22.022  1.00  0.00    -0.003 A 
ATOM      2  C   UNL     1      36.381  -2.305  23.169  1.00  0.00     0.010 A 
ATOM      3  C   UNL     1      34.215  -1.937  22.154  1.00  0.00     0.010 A 
ATOM      4  C   UNL     1      35.851  -1.979  24.420  1.00  0.00     0.004 A 
ATOM      5  C   UNL     1      33.684  -1.611  23.405  1.00  0.00     0.004 A 
ATOM      6  C   UNL     1      34.497  -1.628  24.553  1.00  0.00    -0.045 A 
ENDROOT
BRANCH   1   7
ATOM      7  C   UNL     1      36.126  -2.632  20.696  1.00  0.00     0.071 C 
ATOM      8  O   UNL     1      36.123  -1.789  19.760  1.00  0.00    -0.545 OA
ATOM      9  O   UNL     1      36.664  -3.894  20.464  1.00  0.00    -0.545 OA
ENDBRANCH   1   7
BRANCH   6  10
ATOM     10  C   UNL     1      33.934  -1.276  25.917  1.00  0.00     0.013 C 
ATOM     11  C   UNL     1      33.887   0.243  26.121  1.00  0.00     0.012 C 
ATOM     12  C   UNL     1      32.550  -1.904  26.123  1.00  0.00     0.012 C 
ENDBRANCH   6  10
TORSDOF 2
ENDMDL
MODEL 6
REMARK VINA RESULT:    -0.123     21.118     22.395
REMARK INTER + INTRA:          -0.346
REMARK INTER:                  -0.136
REMARK INTRA:                  -0.210
REMARK UNBOUND:                -0.209
REMARK SMILES CC(C)c1ccc(C(=O)[O-])cc1
REMARK SMILES IDX 7 1 6 2 11 3 5 4 12 5 4 6 8 7 9 8 10 9 2 10 1 11 3 12
REMARK H PARENT
REMARK Flexibility Score: inf
ROOT
ATOM      1  C   UNL     1      22.026   3.624   6.819  1.00  0.00    -0.003 A 
ATOM      2  C   UNL     1      20.999   4.052   7.677  1.00  0.00     0.010 A 
ATOM      3  C   UNL     1      22.587   4.543   5.918  1.00  0.00     0.010 A 
ATOM      4  C   UNL     1      20.543   5.372   7.636  1.00  0.00     0.004 A 
ATOM      5  C   UNL     1      22.131   5.864   5.875  1.00  0.00     0.004 A 
ATOM      6  C   UNL     1      21.104   6.294   6.734  1.00  0.00    -0.045 A 
ENDROOT
BRANCH   1   7
ATOM      7  C   UNL     1      22.511   2.226   6.860  1.00  0.00     0.071 C 
ATOM      8  O   UNL     1      23.213   1.763   5.923  1.00  0.00    -0.545 OA
ATOM      9  O   UNL     1      22.198   1.404   7.937  1.00  0.00    -0.545 OA
ENDBRANCH   1   7
BRANCH   6  10
ATOM     10  C   UNL     1      20.600   7.724   6.699  1.00  0.00     0.013 C 
ATOM     11  C   UNL     1      19.179   7.797   6.128  1.00  0.00     0.012 C 
ATOM     12  C   UNL     1      20.669   8.369   8.089  1.00  0.00     0.012 C 
ENDBRANCH   6  10
TORSDOF 2
ENDMDL
