MODEL 1
REMARK VINA RESULT:    -3.370      0.000      0.000
REMARK INTER + INTRA:         -10.959
REMARK INTER:                  -7.704
REMARK INTRA:                  -3.255
REMARK UNBOUND:                -3.255
REMARK SMILES CCCCCCCCCCCCCCCCCCCCCCCC(=O)[O-]
REMARK SMILES IDX 13 1 14 2 15 3 16 4 17 5 18 6 19 7 20 8 21 9 22 10 23 11
REMARK SMILES IDX 24 12 25 13 26 14 12 15 11 16 10 17 9 18 8 19 7 20 6 21 5 22
REMARK SMILES IDX 4 23 3 24 2 25 1 26
REMARK H PARENT
REMARK Flexibility Score: inf
ROOT
ATOM      1  C   UNL     1      24.759 -13.771  -0.982  1.00  0.00     0.000 C 
ENDROOT
BRANCH   1   2
ATOM      2  C   UNL     1      24.060 -13.323  -2.275  1.00  0.00     0.000 C 
BRANCH   2   3
ATOM      3  C   UNL     1      23.120 -14.398  -2.844  1.00  0.00     0.000 C 
BRANCH   3   4
ATOM      4  C   UNL     1      23.611 -15.828  -2.568  1.00  0.00     0.000 C 
BRANCH   4   5
ATOM      5  C   UNL     1      24.122 -16.558  -3.829  1.00  0.00     0.000 C 
BRANCH   5   6
ATOM      6  C   UNL     1      25.624 -16.879  -3.745  1.00  0.00     0.000 C 
BRANCH   6   7
ATOM      7  C   UNL     1      26.517 -15.684  -4.123  1.00  0.00     0.000 C 
BRANCH   7   8
ATOM      8  C   UNL     1      28.032 -15.955  -4.050  1.00  0.00     0.000 C 
BRANCH   8   9
ATOM      9  C   UNL     1      28.496 -16.389  -2.652  1.00  0.00     0.000 C 
BRANCH   9  10
ATOM     10  C   UNL     1      29.986 -16.765  -2.661  1.00  0.00     0.006 C 
BRANCH  10  11
ATOM     11  C   UNL     1      30.689 -16.383  -1.352  1.00  0.00     0.053 C 
BRANCH  11  12
ATOM     12  C   UNL     1      30.749 -17.535  -0.396  1.00  0.00     0.041 C 
ATOM     13  O   UNL     1      30.583 -18.711  -0.812  1.00  0.00    -0.550 OA
ATOM     14  O   UNL     1      31.028 -17.312   0.946  1.00  0.00    -0.550 OA
ENDBRANCH  11  12
ENDBRANCH  10  11
ENDBRANCH   9  10
ENDBRANCH   8   9
ENDBRANCH   7   8
ENDBRANCH   6   7
ENDBRANCH   5   6
ENDBRANCH   4   5
ENDBRANCH   3   4
ENDBRANCH   2   3
ENDBRANCH   1   2
BRANCH   1  15
ATOM     15  C   UNL     1      26.286 -13.838  -1.127  1.00  0.00     0.000 C 
BRANCH  15  16
ATOM     16  C   UNL     1      26.976 -13.561   0.216  1.00  0.00     0.000 C 
BRANCH  16  17
ATOM     17  C   UNL     1      27.964 -14.670   0.623  1.00  0.00     0.000 C 
BRANCH  17  18
ATOM     18  C   UNL     1      29.320 -14.170   1.161  1.00  0.00    -0.000 C 
BRANCH  18  19
ATOM     19  C   UNL     1      29.266 -13.487   2.544  1.00  0.00    -0.000 C 
BRANCH  19  20
ATOM     20  C   UNL     1      30.130 -12.220   2.677  1.00  0.00    -0.000 C 
BRANCH  20  21
ATOM     21  C   UNL     1      30.872 -11.865   1.380  1.00  0.00    -0.000 C 
BRANCH  21  22
ATOM     22  C   UNL     1      30.014 -10.954   0.491  1.00  0.00    -0.000 C 
BRANCH  22  23
ATOM     23  C   UNL     1      30.798 -10.365  -0.696  1.00  0.00    -0.000 C 
BRANCH  23  24
ATOM     24  C   UNL     1      31.125 -11.363  -1.825  1.00  0.00    -0.000 C 
BRANCH  24  25
ATOM     25  C   UNL     1      30.091 -12.486  -2.019  1.00  0.00    -0.003 C 
ATOM     26  C   UNL     1      30.267 -13.235  -3.338  1.00  0.00     0.004 C 
ENDBRANCH  24  25
ENDBRANCH  23  24
ENDBRANCH  22  23
ENDBRANCH  21  22
ENDBRANCH  20  21
ENDBRANCH  19  20
ENDBRANCH  18  19
ENDBRANCH  17  18
ENDBRANCH  16  17
ENDBRANCH  15  16
ENDBRANCH   1  15
TORSDOF 22
ENDMDL
MODEL 2
REMARK VINA RESULT:    -3.084      2.238      4.762
REMARK INTER + INTRA:         -10.307
REMARK INTER:                  -7.291
REMARK INTRA:                  -3.016
REMARK UNBOUND:                -3.255
REMARK SMILES CCCCCCCCCCCCCCCCCCCCCCCC(=O)[O-]
REMARK SMILES IDX 13 1 14 2 15 3 16 4 17 5 18 6 19 7 20 8 21 9 22 10 23 11
REMARK SMILES IDX 24 12 25 13 26 14 12 15 11 16 10 17 9 18 8 19 7 20 6 21 5 22
REMARK SMILES IDX 4 23 3 24 2 25 1 26
REMARK H PARENT
REMARK Flexibility Score: inf
ROOT
ATOM      1  C   UNL     1      23.421 -16.575  -2.941  1.00  0.00     0.000 C 
ENDROOT
BRANCH   1   2
ATOM      2  C   UNL     1      24.673 -16.390  -3.814  1.00  0.00     0.000 C 
BRANCH   2   3
ATOM      3  C   UNL     1      25.852 -17.260  -3.349  1.00  0.00     0.000 C 
BRANCH   3   4
ATOM      4  C   UNL     1      27.143 -16.453  -3.138  1.00  0.00     0.000 C 
BRANCH   4   5
ATOM      5  C   UNL     1      27.165 -15.114  -3.905  1.00  0.00     0.000 C 
BRANCH   5   6
ATOM      6  C   UNL     1      28.333 -14.214  -3.467  1.00  0.00     0.000 C 
BRANCH   6   7
ATOM      7  C   UNL     1      29.710 -14.865  -3.687  1.00  0.00     0.000 C 
BRANCH   7   8
ATOM      8  C   UNL     1      30.916 -13.964  -3.361  1.00  0.00     0.000 C 
BRANCH   8   9
ATOM      9  C   UNL     1      30.626 -12.471  -3.583  1.00  0.00     0.000 C 
BRANCH   9  10
ATOM     10  C   UNL     1      31.124 -11.633  -2.397  1.00  0.00     0.006 C 
BRANCH  10  11
ATOM     11  C   UNL     1      30.713 -12.235  -1.047  1.00  0.00     0.053 C 
BRANCH  11  12
ATOM     12  C   UNL     1      30.549 -11.182   0.006  1.00  0.00     0.041 C 
ATOM     13  O   UNL     1      30.975 -10.014  -0.196  1.00  0.00    -0.550 OA
ATOM     14  O   UNL     1      29.890 -11.478   1.192  1.00  0.00    -0.550 OA
ENDBRANCH  11  12
ENDBRANCH  10  11
ENDBRANCH   9  10
ENDBRANCH   8   9
ENDBRANCH   7   8
ENDBRANCH   6   7
ENDBRANCH   5   6
ENDBRANCH   4   5
ENDBRANCH   3   4
ENDBRANCH   2   3
ENDBRANCH   1   2
BRANCH   1  15
ATOM     15  C   UNL     1      23.209 -15.415  -1.957  1.00  0.00     0.000 C 
BRANCH  15  16
ATOM     16  C   UNL     1      24.207 -14.279  -2.227  1.00  0.00     0.000 C 
BRANCH  16  17
ATOM     17  C   UNL     1      24.408 -13.356  -1.011  1.00  0.00     0.000 C 
BRANCH  17  18
ATOM     18  C   UNL     1      25.869 -12.944  -0.740  1.00  0.00    -0.000 C 
BRANCH  18  19
ATOM     19  C   UNL     1      26.646 -13.871   0.219  1.00  0.00    -0.000 C 
BRANCH  19  20
ATOM     20  C   UNL     1      28.118 -14.110  -0.158  1.00  0.00    -0.000 C 
BRANCH  20  21
ATOM     21  C   UNL     1      28.696 -15.386   0.472  1.00  0.00    -0.000 C 
BRANCH  21  22
ATOM     22  C   UNL     1      30.108 -15.135   1.021  1.00  0.00    -0.000 C 
BRANCH  22  23
ATOM     23  C   UNL     1      31.062 -16.320   0.785  1.00  0.00    -0.000 C 
BRANCH  23  24
ATOM     24  C   UNL     1      30.405 -17.582   0.191  1.00  0.00    -0.000 C 
BRANCH  24  25
ATOM     25  C   UNL     1      30.328 -17.614  -1.345  1.00  0.00    -0.003 C 
ATOM     26  C   UNL     1      30.764 -18.953  -1.936  1.00  0.00     0.004 C 
ENDBRANCH  24  25
ENDBRANCH  23  24
ENDBRANCH  22  23
ENDBRANCH  21  22
ENDBRANCH  20  21
ENDBRANCH  19  20
ENDBRANCH  18  19
ENDBRANCH  17  18
ENDBRANCH  16  17
ENDBRANCH  15  16
ENDBRANCH   1  15
TORSDOF 22
ENDMDL
MODEL 3
REMARK VINA RESULT:    -2.330      2.017      3.258
REMARK INTER + INTRA:          -8.582
REMARK INTER:                  -5.832
REMARK INTRA:                  -2.750
REMARK UNBOUND:                -3.255
REMARK SMILES CCCCCCCCCCCCCCCCCCCCCCCC(=O)[O-]
REMARK SMILES IDX 13 1 14 2 15 3 16 4 17 5 18 6 19 7 20 8 21 9 22 10 23 11
REMARK SMILES IDX 24 12 25 13 26 14 12 15 11 16 10 17 9 18 8 19 7 20 6 21 5 22
REMARK SMILES IDX 4 23 3 24 2 25 1 26
REMARK H PARENT
REMARK Flexibility Score: inf
ROOT
ATOM      1  C   UNL     1      23.861 -15.115  -1.385  1.00  0.00     0.000 C 
ENDROOT
BRANCH   1   2
ATOM      2  C   UNL     1      22.808 -15.740  -2.314  1.00  0.00     0.000 C 
BRANCH   2   3
ATOM      3  C   UNL     1      23.435 -16.478  -3.508  1.00  0.00     0.000 C 
BRANCH   3   4
ATOM      4  C   UNL     1      24.926 -16.789  -3.302  1.00  0.00     0.000 C 
BRANCH   4   5
ATOM      5  C   UNL     1      25.865 -15.881  -4.125  1.00  0.00     0.000 C 
BRANCH   5   6
ATOM      6  C   UNL     1      27.347 -16.229  -3.906  1.00  0.00     0.000 C 
BRANCH   6   7
ATOM      7  C   UNL     1      27.758 -16.208  -2.423  1.00  0.00     0.000 C 
BRANCH   7   8
ATOM      8  C   UNL     1      28.917 -17.152  -2.055  1.00  0.00     0.000 C 
BRANCH   8   9
ATOM      9  C   UNL     1      30.111 -16.419  -1.426  1.00  0.00     0.000 C 
BRANCH   9  10
ATOM     10  C   UNL     1      30.893 -15.632  -2.488  1.00  0.00     0.006 C 
BRANCH  10  11
ATOM     11  C   UNL     1      30.956 -14.132  -2.170  1.00  0.00     0.053 C 
BRANCH  11  12
ATOM     12  C   UNL     1      30.427 -13.302  -3.299  1.00  0.00     0.041 C 
ATOM     13  O   UNL     1      30.914 -12.163  -3.528  1.00  0.00    -0.550 OA
ATOM     14  O   UNL     1      29.426 -13.800  -4.122  1.00  0.00    -0.550 OA
ENDBRANCH  11  12
ENDBRANCH  10  11
ENDBRANCH   9  10
ENDBRANCH   8   9
ENDBRANCH   7   8
ENDBRANCH   6   7
ENDBRANCH   5   6
ENDBRANCH   4   5
ENDBRANCH   3   4
ENDBRANCH   2   3
ENDBRANCH   1   2
BRANCH   1  15
ATOM     15  C   UNL     1      24.146 -13.643  -1.720  1.00  0.00     0.000 C 
BRANCH  15  16
ATOM     16  C   UNL     1      25.657 -13.368  -1.736  1.00  0.00     0.000 C 
BRANCH  16  17
ATOM     17  C   UNL     1      26.202 -12.931  -0.364  1.00  0.00     0.000 C 
BRANCH  17  18
ATOM     18  C   UNL     1      27.649 -13.375  -0.067  1.00  0.00    -0.000 C 
BRANCH  18  19
ATOM     19  C   UNL     1      27.782 -14.716   0.686  1.00  0.00    -0.000 C 
BRANCH  19  20
ATOM     20  C   UNL     1      28.930 -14.776   1.709  1.00  0.00    -0.000 C 
BRANCH  20  21
ATOM     21  C   UNL     1      29.724 -13.464   1.792  1.00  0.00    -0.000 C 
BRANCH  21  22
ATOM     22  C   UNL     1      28.984 -12.431   2.656  1.00  0.00    -0.000 C 
BRANCH  22  23
ATOM     23  C   UNL     1      29.790 -11.136   2.864  1.00  0.00    -0.000 C 
BRANCH  23  24
ATOM     24  C   UNL     1      31.125 -11.065   2.095  1.00  0.00    -0.000 C 
BRANCH  24  25
ATOM     25  C   UNL     1      31.121 -10.130   0.872  1.00  0.00    -0.003 C 
ATOM     26  C   UNL     1      30.463 -10.757  -0.355  1.00  0.00     0.004 C 
ENDBRANCH  24  25
ENDBRANCH  23  24
ENDBRANCH  22  23
ENDBRANCH  21  22
ENDBRANCH  20  21
ENDBRANCH  19  20
ENDBRANCH  18  19
ENDBRANCH  17  18
ENDBRANCH  16  17
ENDBRANCH  15  16
ENDBRANCH   1  15
TORSDOF 22
ENDMDL
MODEL 4
REMARK VINA RESULT:    -2.309      1.387      2.170
REMARK INTER + INTRA:          -8.534
REMARK INTER:                  -6.937
REMARK INTRA:                  -1.596
REMARK UNBOUND:                -3.255
REMARK SMILES CCCCCCCCCCCCCCCCCCCCCCCC(=O)[O-]
REMARK SMILES IDX 13 1 14 2 15 3 16 4 17 5 18 6 19 7 20 8 21 9 22 10 23 11
REMARK SMILES IDX 24 12 25 13 26 14 12 15 11 16 10 17 9 18 8 19 7 20 6 21 5 22
REMARK SMILES IDX 4 23 3 24 2 25 1 26
REMARK H PARENT
REMARK Flexibility Score: inf
ROOT
ATOM      1  C   UNL     1      23.894 -14.188  -2.183  1.00  0.00     0.000 C 
ENDROOT
BRANCH   1   2
ATOM      2  C   UNL     1      23.352 -15.561  -1.755  1.00  0.00     0.000 C 
BRANCH   2   3
ATOM      3  C   UNL     1      23.396 -16.596  -2.891  1.00  0.00     0.000 C 
BRANCH   3   4
ATOM      4  C   UNL     1      24.386 -16.219  -4.005  1.00  0.00     0.000 C 
BRANCH   4   5
ATOM      5  C   UNL     1      25.865 -16.317  -3.574  1.00  0.00     0.000 C 
BRANCH   5   6
ATOM      6  C   UNL     1      26.650 -15.035  -3.900  1.00  0.00     0.000 C 
BRANCH   6   7
ATOM      7  C   UNL     1      28.097 -15.066  -3.375  1.00  0.00     0.000 C 
BRANCH   7   8
ATOM      8  C   UNL     1      28.756 -16.458  -3.363  1.00  0.00     0.000 C 
BRANCH   8   9
ATOM      9  C   UNL     1      28.646 -17.160  -2.001  1.00  0.00     0.000 C 
BRANCH   9  10
ATOM     10  C   UNL     1      29.994 -17.771  -1.589  1.00  0.00     0.006 C 
BRANCH  10  11
ATOM     11  C   UNL     1      31.123 -16.731  -1.576  1.00  0.00     0.053 C 
BRANCH  11  12
ATOM     12  C   UNL     1      30.940 -15.725  -0.482  1.00  0.00     0.041 C 
ATOM     13  O   UNL     1      30.911 -14.495  -0.751  1.00  0.00    -0.550 OA
ATOM     14  O   UNL     1      30.760 -16.146   0.829  1.00  0.00    -0.550 OA
ENDBRANCH  11  12
ENDBRANCH  10  11
ENDBRANCH   9  10
ENDBRANCH   8   9
ENDBRANCH   7   8
ENDBRANCH   6   7
ENDBRANCH   5   6
ENDBRANCH   4   5
ENDBRANCH   3   4
ENDBRANCH   2   3
ENDBRANCH   1   2
BRANCH   1  15
ATOM     15  C   UNL     1      24.550 -13.423  -1.025  1.00  0.00     0.000 C 
BRANCH  15  16
ATOM     16  C   UNL     1      26.066 -13.668  -0.996  1.00  0.00     0.000 C 
BRANCH  16  17
ATOM     17  C   UNL     1      26.597 -13.976   0.416  1.00  0.00     0.000 C 
BRANCH  17  18
ATOM     18  C   UNL     1      27.823 -13.146   0.846  1.00  0.00    -0.000 C 
BRANCH  18  19
ATOM     19  C   UNL     1      28.730 -13.813   1.902  1.00  0.00    -0.000 C 
BRANCH  19  20
ATOM     20  C   UNL     1      29.571 -12.839   2.746  1.00  0.00    -0.000 C 
BRANCH  20  21
ATOM     21  C   UNL     1      29.312 -11.367   2.392  1.00  0.00    -0.000 C 
BRANCH  21  22
ATOM     22  C   UNL     1      30.564 -10.515   2.647  1.00  0.00    -0.000 C 
BRANCH  22  23
ATOM     23  C   UNL     1      31.117  -9.864   1.365  1.00  0.00    -0.000 C 
BRANCH  23  24
ATOM     24  C   UNL     1      30.788 -10.611   0.057  1.00  0.00    -0.000 C 
BRANCH  24  25
ATOM     25  C   UNL     1      31.116  -9.837  -1.232  1.00  0.00    -0.003 C 
ATOM     26  C   UNL     1      30.761  -8.355  -1.144  1.00  0.00     0.004 C 
ENDBRANCH  24  25
ENDBRANCH  23  24
ENDBRANCH  22  23
ENDBRANCH  21  22
ENDBRANCH  20  21
ENDBRANCH  19  20
ENDBRANCH  18  19
ENDBRANCH  17  18
ENDBRANCH  16  17
ENDBRANCH  15  16
ENDBRANCH   1  15
TORSDOF 22
ENDMDL
MODEL 5
REMARK VINA RESULT:    -1.918      1.110      2.650
REMARK INTER + INTRA:          -7.639
REMARK INTER:                  -6.033
REMARK INTRA:                  -1.606
REMARK UNBOUND:                -3.255
REMARK SMILES CCCCCCCCCCCCCCCCCCCCCCCC(=O)[O-]
REMARK SMILES IDX 13 1 14 2 15 3 16 4 17 5 18 6 19 7 20 8 21 9 22 10 23 11
REMARK SMILES IDX 24 12 25 13 26 14 12 15 11 16 10 17 9 18 8 19 7 20 6 21 5 22
REMARK SMILES IDX 4 23 3 24 2 25 1 26
REMARK H PARENT
REMARK Flexibility Score: inf
ROOT
ATOM      1  C   UNL     1      23.814 -14.861  -1.516  1.00  0.00     0.000 C 
ENDROOT
BRANCH   1   2
ATOM      2  C   UNL     1      23.318 -14.980  -2.966  1.00  0.00     0.000 C 
BRANCH   2   3
ATOM      3  C   UNL     1      24.367 -15.604  -3.901  1.00  0.00     0.000 C 
BRANCH   3   4
ATOM      4  C   UNL     1      25.151 -16.749  -3.241  1.00  0.00     0.000 C 
BRANCH   4   5
ATOM      5  C   UNL     1      26.654 -16.751  -3.594  1.00  0.00     0.000 C 
BRANCH   5   6
ATOM      6  C   UNL     1      27.189 -15.333  -3.858  1.00  0.00     0.000 C 
BRANCH   6   7
ATOM      7  C   UNL     1      28.424 -14.987  -3.008  1.00  0.00     0.000 C 
BRANCH   7   8
ATOM      8  C   UNL     1      29.779 -15.266  -3.685  1.00  0.00     0.000 C 
BRANCH   8   9
ATOM      9  C   UNL     1      29.978 -16.747  -4.040  1.00  0.00     0.000 C 
BRANCH   9  10
ATOM     10  C   UNL     1      30.306 -17.573  -2.787  1.00  0.00     0.006 C 
BRANCH  10  11
ATOM     11  C   UNL     1      31.125 -16.775  -1.764  1.00  0.00     0.053 C 
BRANCH  11  12
ATOM     12  C   UNL     1      30.787 -17.163  -0.357  1.00  0.00     0.041 C 
ATOM     13  O   UNL     1      30.697 -16.281   0.538  1.00  0.00    -0.550 OA
ATOM     14  O   UNL     1      30.533 -18.491  -0.042  1.00  0.00    -0.550 OA
ENDBRANCH  11  12
ENDBRANCH  10  11
ENDBRANCH   9  10
ENDBRANCH   8   9
ENDBRANCH   7   8
ENDBRANCH   6   7
ENDBRANCH   5   6
ENDBRANCH   4   5
ENDBRANCH   3   4
ENDBRANCH   2   3
ENDBRANCH   1   2
BRANCH   1  15
ATOM     15  C   UNL     1      24.285 -13.442  -1.166  1.00  0.00     0.000 C 
BRANCH  15  16
ATOM     16  C   UNL     1      25.814 -13.332  -1.268  1.00  0.00     0.000 C 
BRANCH  16  17
ATOM     17  C   UNL     1      26.506 -13.298   0.107  1.00  0.00     0.000 C 
BRANCH  17  18
ATOM     18  C   UNL     1      27.513 -14.439   0.358  1.00  0.00    -0.000 C 
BRANCH  18  19
ATOM     19  C   UNL     1      28.994 -14.009   0.406  1.00  0.00    -0.000 C 
BRANCH  19  20
ATOM     20  C   UNL     1      29.419 -13.018  -0.692  1.00  0.00    -0.000 C 
BRANCH  20  21
ATOM     21  C   UNL     1      30.789 -12.378  -0.421  1.00  0.00    -0.000 C 
BRANCH  21  22
ATOM     22  C   UNL     1      30.703 -10.847  -0.503  1.00  0.00    -0.000 C 
BRANCH  22  23
ATOM     23  C   UNL     1      31.089 -10.154   0.817  1.00  0.00    -0.000 C 
BRANCH  23  24
ATOM     24  C   UNL     1      31.125 -11.074   2.054  1.00  0.00    -0.000 C 
BRANCH  24  25
ATOM     25  C   UNL     1      29.757 -11.625   2.494  1.00  0.00    -0.003 C 
ATOM     26  C   UNL     1      29.080 -10.760   3.555  1.00  0.00     0.004 C 
ENDBRANCH  24  25
ENDBRANCH  23  24
ENDBRANCH  22  23
ENDBRANCH  21  22
ENDBRANCH  20  21
ENDBRANCH  19  20
ENDBRANCH  18  19
ENDBRANCH  17  18
ENDBRANCH  16  17
ENDBRANCH  15  16
ENDBRANCH   1  15
TORSDOF 22
ENDMDL
MODEL 6
REMARK VINA RESULT:    -1.866      1.257      3.115
REMARK INTER + INTRA:          -7.522
REMARK INTER:                  -5.864
REMARK INTRA:                  -1.658
REMARK UNBOUND:                -3.255
REMARK SMILES CCCCCCCCCCCCCCCCCCCCCCCC(=O)[O-]
REMARK SMILES IDX 13 1 14 2 15 3 16 4 17 5 18 6 19 7 20 8 21 9 22 10 23 11
REMARK SMILES IDX 24 12 25 13 26 14 12 15 11 16 10 17 9 18 8 19 7 20 6 21 5 22
REMARK SMILES IDX 4 23 3 24 2 25 1 26
REMARK H PARENT
REMARK Flexibility Score: inf
ROOT
ATOM      1  C   UNL     1      26.746 -14.065  -1.774  1.00  0.00     0.000 C 
ENDROOT
BRANCH   1   2
ATOM      2  C   UNL     1      25.537 -13.494  -1.017  1.00  0.00     0.000 C 
BRANCH   2   3
ATOM      3  C   UNL     1      24.457 -12.938  -1.960  1.00  0.00     0.000 C 
BRANCH   3   4
ATOM      4  C   UNL     1      23.824 -14.022  -2.848  1.00  0.00     0.000 C 
BRANCH   4   5
ATOM      5  C   UNL     1      23.303 -15.240  -2.057  1.00  0.00     0.000 C 
BRANCH   5   6
ATOM      6  C   UNL     1      23.477 -16.555  -2.835  1.00  0.00     0.000 C 
BRANCH   6   7
ATOM      7  C   UNL     1      24.302 -16.387  -4.124  1.00  0.00     0.000 C 
BRANCH   7   8
ATOM      8  C   UNL     1      25.688 -17.056  -4.102  1.00  0.00     0.000 C 
BRANCH   8   9
ATOM      9  C   UNL     1      26.519 -16.671  -2.868  1.00  0.00     0.000 C 
BRANCH   9  10
ATOM     10  C   UNL     1      28.017 -16.893  -3.125  1.00  0.00     0.006 C 
BRANCH  10  11
ATOM     11  C   UNL     1      28.769 -17.309  -1.854  1.00  0.00     0.053 C 
BRANCH  11  12
ATOM     12  C   UNL     1      30.195 -17.667  -2.143  1.00  0.00     0.041 C 
ATOM     13  O   UNL     1      31.013 -16.776  -2.491  1.00  0.00    -0.550 OA
ATOM     14  O   UNL     1      30.629 -18.977  -1.989  1.00  0.00    -0.550 OA
ENDBRANCH  11  12
ENDBRANCH  10  11
ENDBRANCH   9  10
ENDBRANCH   8   9
ENDBRANCH   7   8
ENDBRANCH   6   7
ENDBRANCH   5   6
ENDBRANCH   4   5
ENDBRANCH   3   4
ENDBRANCH   2   3
ENDBRANCH   1   2
BRANCH   1  15
ATOM     15  C   UNL     1      28.054 -13.335  -1.436  1.00  0.00     0.000 C 
BRANCH  15  16
ATOM     16  C   UNL     1      29.256 -14.034  -2.088  1.00  0.00     0.000 C 
BRANCH  16  17
ATOM     17  C   UNL     1      30.045 -13.113  -3.036  1.00  0.00     0.000 C 
BRANCH  17  18
ATOM     18  C   UNL     1      30.723 -11.905  -2.356  1.00  0.00    -0.000 C 
BRANCH  18  19
ATOM     19  C   UNL     1      31.013 -12.077  -0.850  1.00  0.00    -0.000 C 
BRANCH  19  20
ATOM     20  C   UNL     1      30.938 -10.782  -0.022  1.00  0.00    -0.000 C 
BRANCH  20  21
ATOM     21  C   UNL     1      30.501 -11.027   1.430  1.00  0.00    -0.000 C 
BRANCH  21  22
ATOM     22  C   UNL     1      30.593 -12.519   1.784  1.00  0.00    -0.000 C 
BRANCH  22  23
ATOM     23  C   UNL     1      29.213 -13.185   1.930  1.00  0.00    -0.000 C 
BRANCH  23  24
ATOM     24  C   UNL     1      29.213 -14.723   1.823  1.00  0.00    -0.000 C 
BRANCH  24  25
ATOM     25  C   UNL     1      30.105 -15.297   0.708  1.00  0.00    -0.003 C 
ATOM     26  C   UNL     1      30.747 -16.629   1.086  1.00  0.00     0.004 C 
ENDBRANCH  24  25
ENDBRANCH  23  24
ENDBRANCH  22  23
ENDBRANCH  21  22
ENDBRANCH  20  21
ENDBRANCH  19  20
ENDBRANCH  18  19
ENDBRANCH  17  18
ENDBRANCH  16  17
ENDBRANCH  15  16
ENDBRANCH   1  15
TORSDOF 22
ENDMDL
MODEL 7
REMARK VINA RESULT:    -1.847      2.279      6.228
REMARK INTER + INTRA:          -7.477
REMARK INTER:                  -5.871
REMARK INTRA:                  -1.606
REMARK UNBOUND:                -3.255
REMARK SMILES CCCCCCCCCCCCCCCCCCCCCCCC(=O)[O-]
REMARK SMILES IDX 13 1 14 2 15 3 16 4 17 5 18 6 19 7 20 8 21 9 22 10 23 11
REMARK SMILES IDX 24 12 25 13 26 14 12 15 11 16 10 17 9 18 8 19 7 20 6 21 5 22
REMARK SMILES IDX 4 23 3 24 2 25 1 26
REMARK H PARENT
REMARK Flexibility Score: inf
ROOT
ATOM      1  C   UNL     1      24.911 -12.959  -0.161  1.00  0.00     0.000 C 
ENDROOT
BRANCH   1   2
ATOM      2  C   UNL     1      26.443 -12.895  -0.060  1.00  0.00     0.000 C 
BRANCH   2   3
ATOM      3  C   UNL     1      27.083 -14.281   0.118  1.00  0.00     0.000 C 
BRANCH   3   4
ATOM      4  C   UNL     1      28.579 -14.298  -0.234  1.00  0.00     0.000 C 
BRANCH   4   5
ATOM      5  C   UNL     1      29.494 -14.577   0.978  1.00  0.00     0.000 C 
BRANCH   5   6
ATOM      6  C   UNL     1      28.848 -14.140   2.304  1.00  0.00     0.000 C 
BRANCH   6   7
ATOM      7  C   UNL     1      28.858 -12.614   2.505  1.00  0.00     0.000 C 
BRANCH   7   8
ATOM      8  C   UNL     1      30.176 -12.039   3.055  1.00  0.00     0.000 C 
BRANCH   8   9
ATOM      9  C   UNL     1      30.266 -10.511   2.919  1.00  0.00     0.000 C 
BRANCH   9  10
ATOM     10  C   UNL     1      31.068 -10.118   1.669  1.00  0.00     0.006 C 
BRANCH  10  11
ATOM     11  C   UNL     1      31.122 -11.249   0.634  1.00  0.00     0.053 C 
BRANCH  11  12
ATOM     12  C   UNL     1      30.802 -10.758  -0.744  1.00  0.00     0.041 C 
ATOM     13  O   UNL     1      30.646  -9.527  -0.956  1.00  0.00    -0.550 OA
ATOM     14  O   UNL     1      30.717 -11.655  -1.802  1.00  0.00    -0.550 OA
ENDBRANCH  11  12
ENDBRANCH  10  11
ENDBRANCH   9  10
ENDBRANCH   8   9
ENDBRANCH   7   8
ENDBRANCH   6   7
ENDBRANCH   5   6
ENDBRANCH   4   5
ENDBRANCH   3   4
ENDBRANCH   2   3
ENDBRANCH   1   2
BRANCH   1  15
ATOM     15  C   UNL     1      24.426 -13.322  -1.572  1.00  0.00     0.000 C 
BRANCH  15  16
ATOM     16  C   UNL     1      25.405 -14.287  -2.256  1.00  0.00     0.000 C 
BRANCH  16  17
ATOM     17  C   UNL     1      24.716 -15.228  -3.262  1.00  0.00     0.000 C 
BRANCH  17  18
ATOM     18  C   UNL     1      25.575 -16.420  -3.732  1.00  0.00    -0.000 C 
BRANCH  18  19
ATOM     19  C   UNL     1      27.020 -16.442  -3.192  1.00  0.00    -0.000 C 
BRANCH  19  20
ATOM     20  C   UNL     1      28.072 -15.816  -4.125  1.00  0.00    -0.000 C 
BRANCH  20  21
ATOM     21  C   UNL     1      28.749 -14.579  -3.516  1.00  0.00    -0.000 C 
BRANCH  21  22
ATOM     22  C   UNL     1      30.257 -14.582  -3.805  1.00  0.00    -0.000 C 
BRANCH  22  23
ATOM     23  C   UNL     1      30.983 -15.790  -3.185  1.00  0.00    -0.000 C 
BRANCH  23  24
ATOM     24  C   UNL     1      31.061 -15.788  -1.646  1.00  0.00    -0.000 C 
BRANCH  24  25
ATOM     25  C   UNL     1      31.107 -17.183  -0.996  1.00  0.00    -0.003 C 
ATOM     26  C   UNL     1      30.425 -18.256  -1.842  1.00  0.00     0.004 C 
ENDBRANCH  24  25
ENDBRANCH  23  24
ENDBRANCH  22  23
ENDBRANCH  21  22
ENDBRANCH  20  21
ENDBRANCH  19  20
ENDBRANCH  18  19
ENDBRANCH  17  18
ENDBRANCH  16  17
ENDBRANCH  15  16
ENDBRANCH   1  15
TORSDOF 22
ENDMDL
MODEL 8
REMARK VINA RESULT:    -1.801      2.506      5.908
REMARK INTER + INTRA:          -7.372
REMARK INTER:                  -5.534
REMARK INTRA:                  -1.838
REMARK UNBOUND:                -3.255
REMARK SMILES CCCCCCCCCCCCCCCCCCCCCCCC(=O)[O-]
REMARK SMILES IDX 13 1 14 2 15 3 16 4 17 5 18 6 19 7 20 8 21 9 22 10 23 11
REMARK SMILES IDX 24 12 25 13 26 14 12 15 11 16 10 17 9 18 8 19 7 20 6 21 5 22
REMARK SMILES IDX 4 23 3 24 2 25 1 26
REMARK H PARENT
REMARK Flexibility Score: inf
ROOT
ATOM      1  C   UNL     1      23.994 -14.850  -1.908  1.00  0.00     0.000 C 
ENDROOT
BRANCH   1   2
ATOM      2  C   UNL     1      24.458 -13.385  -1.957  1.00  0.00     0.000 C 
BRANCH   2   3
ATOM      3  C   UNL     1      25.374 -13.015  -0.778  1.00  0.00     0.000 C 
BRANCH   3   4
ATOM      4  C   UNL     1      26.584 -13.952  -0.644  1.00  0.00     0.000 C 
BRANCH   4   5
ATOM      5  C   UNL     1      27.942 -13.224  -0.744  1.00  0.00     0.000 C 
BRANCH   5   6
ATOM      6  C   UNL     1      28.573 -13.363  -2.140  1.00  0.00     0.000 C 
BRANCH   6   7
ATOM      7  C   UNL     1      30.107 -13.243  -2.121  1.00  0.00     0.000 C 
BRANCH   7   8
ATOM      8  C   UNL     1      30.688 -12.515  -0.895  1.00  0.00     0.000 C 
BRANCH   8   9
ATOM      9  C   UNL     1      30.820 -10.999  -1.104  1.00  0.00     0.000 C 
BRANCH   9  10
ATOM     10  C   UNL     1      31.121 -10.287   0.223  1.00  0.00     0.006 C 
BRANCH  10  11
ATOM     11  C   UNL     1      30.891 -11.198   1.437  1.00  0.00     0.053 C 
BRANCH  11  12
ATOM     12  C   UNL     1      30.471 -10.419   2.646  1.00  0.00     0.041 C 
ATOM     13  O   UNL     1      30.816  -9.214   2.773  1.00  0.00    -0.550 OA
ATOM     14  O   UNL     1      29.667 -11.010   3.611  1.00  0.00    -0.550 OA
ENDBRANCH  11  12
ENDBRANCH  10  11
ENDBRANCH   9  10
ENDBRANCH   8   9
ENDBRANCH   7   8
ENDBRANCH   6   7
ENDBRANCH   5   6
ENDBRANCH   4   5
ENDBRANCH   3   4
ENDBRANCH   2   3
ENDBRANCH   1   2
BRANCH   1  15
ATOM     15  C   UNL     1      23.709 -15.427  -3.302  1.00  0.00     0.000 C 
BRANCH  15  16
ATOM     16  C   UNL     1      24.886 -16.284  -3.791  1.00  0.00     0.000 C 
BRANCH  16  17
ATOM     17  C   UNL     1      26.257 -15.671  -3.453  1.00  0.00     0.000 C 
BRANCH  17  18
ATOM     18  C   UNL     1      27.468 -16.575  -3.757  1.00  0.00    -0.000 C 
BRANCH  18  19
ATOM     19  C   UNL     1      28.822 -16.060  -3.225  1.00  0.00    -0.000 C 
BRANCH  19  20
ATOM     20  C   UNL     1      30.052 -16.852  -3.703  1.00  0.00    -0.000 C 
BRANCH  20  21
ATOM     21  C   UNL     1      31.121 -17.009  -2.612  1.00  0.00    -0.000 C 
BRANCH  21  22
ATOM     22  C   UNL     1      30.834 -18.239  -1.737  1.00  0.00    -0.000 C 
BRANCH  22  23
ATOM     23  C   UNL     1      30.909 -17.932  -0.231  1.00  0.00    -0.000 C 
BRANCH  23  24
ATOM     24  C   UNL     1      31.118 -16.447   0.127  1.00  0.00    -0.000 C 
BRANCH  24  25
ATOM     25  C   UNL     1      29.996 -15.818   0.971  1.00  0.00    -0.003 C 
ATOM     26  C   UNL     1      28.600 -16.162   0.457  1.00  0.00     0.004 C 
ENDBRANCH  24  25
ENDBRANCH  23  24
ENDBRANCH  22  23
ENDBRANCH  21  22
ENDBRANCH  20  21
ENDBRANCH  19  20
ENDBRANCH  18  19
ENDBRANCH  17  18
ENDBRANCH  16  17
ENDBRANCH  15  16
ENDBRANCH   1  15
TORSDOF 22
ENDMDL
MODEL 9
REMARK VINA RESULT:    -0.459      1.196      2.731
REMARK INTER + INTRA:          -4.304
REMARK INTER:                  -1.858
REMARK INTRA:                  -2.446
REMARK UNBOUND:                -3.255
REMARK SMILES CCCCCCCCCCCCCCCCCCCCCCCC(=O)[O-]
REMARK SMILES IDX 13 1 14 2 15 3 16 4 17 5 18 6 19 7 20 8 21 9 22 10 23 11
REMARK SMILES IDX 24 12 25 13 26 14 12 15 11 16 10 17 9 18 8 19 7 20 6 21 5 22
REMARK SMILES IDX 4 23 3 24 2 25 1 26
REMARK H PARENT
REMARK Flexibility Score: inf
ROOT
ATOM      1  C   UNL     1      24.113 -14.052  -1.097  1.00  0.00     0.000 C 
ENDROOT
BRANCH   1   2
ATOM      2  C   UNL     1      23.319 -14.495  -2.336  1.00  0.00     0.000 C 
BRANCH   2   3
ATOM      3  C   UNL     1      22.835 -15.951  -2.240  1.00  0.00     0.000 C 
BRANCH   3   4
ATOM      4  C   UNL     1      23.554 -16.887  -3.225  1.00  0.00     0.000 C 
BRANCH   4   5
ATOM      5  C   UNL     1      24.579 -16.163  -4.125  1.00  0.00     0.000 C 
BRANCH   5   6
ATOM      6  C   UNL     1      25.999 -16.728  -3.956  1.00  0.00     0.000 C 
BRANCH   6   7
ATOM      7  C   UNL     1      27.051 -15.639  -3.676  1.00  0.00     0.000 C 
BRANCH   7   8
ATOM      8  C   UNL     1      28.504 -16.142  -3.598  1.00  0.00     0.000 C 
BRANCH   8   9
ATOM      9  C   UNL     1      28.928 -16.531  -2.173  1.00  0.00     0.000 C 
BRANCH   9  10
ATOM     10  C   UNL     1      30.452 -16.430  -2.008  1.00  0.00     0.006 C 
BRANCH  10  11
ATOM     11  C   UNL     1      31.038 -17.646  -1.278  1.00  0.00     0.053 C 
BRANCH  11  12
ATOM     12  C   UNL     1      30.930 -18.894  -2.100  1.00  0.00     0.041 C 
ATOM     13  O   UNL     1      30.625 -19.986  -1.553  1.00  0.00    -0.550 OA
ATOM     14  O   UNL     1      31.125 -18.843  -3.473  1.00  0.00    -0.550 OA
ENDBRANCH  11  12
ENDBRANCH  10  11
ENDBRANCH   9  10
ENDBRANCH   8   9
ENDBRANCH   7   8
ENDBRANCH   6   7
ENDBRANCH   5   6
ENDBRANCH   4   5
ENDBRANCH   3   4
ENDBRANCH   2   3
ENDBRANCH   1   2
BRANCH   1  15
ATOM     15  C   UNL     1      25.481 -13.454  -1.453  1.00  0.00     0.000 C 
BRANCH  15  16
ATOM     16  C   UNL     1      26.417 -13.463  -0.236  1.00  0.00     0.000 C 
BRANCH  16  17
ATOM     17  C   UNL     1      27.875 -13.797  -0.601  1.00  0.00     0.000 C 
BRANCH  17  18
ATOM     18  C   UNL     1      28.571 -12.767  -1.514  1.00  0.00    -0.000 C 
BRANCH  18  19
ATOM     19  C   UNL     1      29.904 -13.234  -2.134  1.00  0.00    -0.000 C 
BRANCH  19  20
ATOM     20  C   UNL     1      31.125 -12.367  -1.780  1.00  0.00    -0.000 C 
BRANCH  20  21
ATOM     21  C   UNL     1      30.813 -10.863  -1.797  1.00  0.00    -0.000 C 
BRANCH  21  22
ATOM     22  C   UNL     1      31.125 -10.224  -0.435  1.00  0.00    -0.000 C 
BRANCH  22  23
ATOM     23  C   UNL     1      30.995 -11.216   0.735  1.00  0.00    -0.000 C 
BRANCH  23  24
ATOM     24  C   UNL     1      30.541 -10.597   2.072  1.00  0.00    -0.000 C 
BRANCH  24  25
ATOM     25  C   UNL     1      30.130 -11.613   3.153  1.00  0.00    -0.003 C 
ATOM     26  C   UNL     1      29.215 -12.712   2.618  1.00  0.00     0.004 C 
ENDBRANCH  24  25
ENDBRANCH  23  24
ENDBRANCH  22  23
ENDBRANCH  21  22
ENDBRANCH  20  21
ENDBRANCH  19  20
ENDBRANCH  18  19
ENDBRANCH  17  18
ENDBRANCH  16  17
ENDBRANCH  15  16
ENDBRANCH   1  15
TORSDOF 22
ENDMDL
