MODEL 1
REMARK VINA RESULT:    43.354      0.000      0.000
REMARK INTER + INTRA:          57.156
REMARK INTER:                  57.293
REMARK INTRA:                  -0.137
REMARK UNBOUND:                -0.137
REMARK SMILES CC[C@@H](C=C[C@H](C)[C@@H]1CC[C@H]2C3=CC[C@@H]4C[C@H](O)CC[C@]4(C)[C@@H]3CC[C@@]21C)C(C)C
REMARK SMILES IDX 6 1 7 2 5 3 4 4 3 5 2 6 1 7 28 8 29 9 30 10 8 11 9 12 26 13
REMARK SMILES IDX 10 14 11 15 25 16 27 17 12 18 24 19 23 20 13 21 21 22 14 23
REMARK SMILES IDX 15 24 20 25 22 26 16 27 19 28 17 29 18 30
REMARK H PARENT 18 31
REMARK Flexibility Score: inf
ROOT
ATOM      1  C   UNL     1     -36.862  20.471   6.882  1.00  0.00     0.012 C 
ATOM      2  C   UNL     1     -38.028  19.715   7.552  1.00  0.00     0.012 C 
ENDROOT
BRANCH   1   3
ATOM      3  C   UNL     1     -37.422  21.211   5.678  1.00  0.00    -0.028 C 
ATOM      4  C   UNL     1     -36.814  22.276   5.120  1.00  0.00    -0.027 C 
BRANCH   4   5
ATOM      5  C   UNL     1     -37.473  23.117   4.041  1.00  0.00     0.014 C 
BRANCH   5   6
ATOM      6  C   UNL     1     -36.440  23.409   2.913  1.00  0.00     0.004 C 
ATOM      7  C   UNL     1     -35.223  22.484   2.974  1.00  0.00     0.004 C 
ENDBRANCH   5   6
BRANCH   5   8
ATOM      8  C   UNL     1     -38.124  24.414   4.625  1.00  0.00    -0.011 C 
ATOM      9  C   UNL     1     -37.403  25.679   4.127  1.00  0.00     0.008 C 
ATOM     10  C   UNL     1     -38.125  24.422   6.164  1.00  0.00     0.008 C 
ENDBRANCH   5   8
ENDBRANCH   4   5
ENDBRANCH   1   3
BRANCH   1  11
ATOM     11  C   UNL     1     -36.119  21.402   7.898  1.00  0.00     0.002 C 
ATOM     12  C   UNL     1     -36.755  22.818   7.998  1.00  0.00     0.005 C 
ATOM     13  C   UNL     1     -34.573  21.662   7.671  1.00  0.00    -0.023 C 
ATOM     14  C   UNL     1     -35.620  23.831   8.004  1.00  0.00     0.009 C 
ATOM     15  C   UNL     1     -34.536  23.128   7.210  1.00  0.00     0.021 C 
ATOM     16  C   UNL     1     -33.782  20.811   6.615  1.00  0.00     0.008 C 
ATOM     17  C   UNL     1     -33.873  21.467   9.055  1.00  0.00     0.012 C 
ATOM     18  C   UNL     1     -33.121  23.656   7.256  1.00  0.00    -0.067 C 
ATOM     19  C   UNL     1     -32.660  21.583   5.851  1.00  0.00     0.009 C 
ATOM     20  C   UNL     1     -32.042  22.808   6.600  1.00  0.00     0.021 C 
ATOM     21  C   UNL     1     -32.804  24.869   7.742  1.00  0.00    -0.027 C 
ATOM     22  C   UNL     1     -31.122  23.727   5.709  1.00  0.00    -0.023 C 
ATOM     23  C   UNL     1     -31.370  25.310   7.827  1.00  0.00     0.031 C 
ATOM     24  C   UNL     1     -30.467  24.818   6.650  1.00  0.00     0.002 C 
ATOM     25  C   UNL     1     -31.956  24.390   4.556  1.00  0.00     0.010 C 
ATOM     26  C   UNL     1     -29.992  22.865   5.084  1.00  0.00     0.012 C 
ATOM     27  C   UNL     1     -29.840  26.007   5.875  1.00  0.00     0.036 C 
ATOM     28  C   UNL     1     -31.233  25.538   3.848  1.00  0.00     0.032 C 
ATOM     29  C   UNL     1     -30.791  26.616   4.842  1.00  0.00     0.114 C 
BRANCH  29  30
ATOM     30  O   UNL     1     -31.894  27.192   5.489  1.00  0.00    -0.393 OA
ATOM     31  H   UNL     1     -31.609  27.427   6.411  1.00  0.00     0.210 HD
ENDBRANCH  29  30
ENDBRANCH   1  11
TORSDOF 6
ENDMDL
