MODEL 1
REMARK VINA RESULT:    -3.676      0.000      0.000
REMARK INTER + INTRA:          -8.270
REMARK INTER:                  -6.685
REMARK INTRA:                  -1.586
REMARK UNBOUND:                -1.586
REMARK SMILES CCCCCCCCCCCCCCCC(=O)[O-]
REMARK SMILES IDX 9 1 10 2 11 3 12 4 13 5 14 6 15 7 16 8 17 9 18 10 8 11 7 12
REMARK SMILES IDX 6 13 5 14 4 15 3 16 2 17 1 18
REMARK H PARENT
REMARK Flexibility Score: inf
ROOT
ATOM      1  C   UNL     1      57.939   2.336  95.699  1.00  0.00     0.000 C 
ENDROOT
BRANCH   1   2
ATOM      2  C   UNL     1      57.505   3.797  95.491  1.00  0.00     0.000 C 
BRANCH   2   3
ATOM      3  C   UNL     1      57.647   4.638  96.772  1.00  0.00     0.000 C 
BRANCH   3   4
ATOM      4  C   UNL     1      58.555   5.866  96.584  1.00  0.00     0.000 C 
BRANCH   4   5
ATOM      5  C   UNL     1      60.053   5.552  96.417  1.00  0.00     0.000 C 
BRANCH   5   6
ATOM      6  C   UNL     1      60.889   6.791  96.062  1.00  0.00     0.006 C 
BRANCH   6   7
ATOM      7  C   UNL     1      60.018   7.876  95.423  1.00  0.00     0.053 C 
BRANCH   7   8
ATOM      8  C   UNL     1      60.533   8.228  94.063  1.00  0.00     0.041 C 
ATOM      9  O   UNL     1      61.075   7.349  93.344  1.00  0.00    -0.550 OA
ATOM     10  O   UNL     1      60.373   9.517  93.572  1.00  0.00    -0.550 OA
ENDBRANCH   7   8
ENDBRANCH   6   7
ENDBRANCH   5   6
ENDBRANCH   4   5
ENDBRANCH   3   4
ENDBRANCH   2   3
ENDBRANCH   1   2
BRANCH   1  11
ATOM     11  C   UNL     1      58.622   2.114  97.059  1.00  0.00     0.000 C 
BRANCH  11  12
ATOM     12  C   UNL     1      60.113   1.746  96.932  1.00  0.00    -0.000 C 
BRANCH  12  13
ATOM     13  C   UNL     1      60.415   0.238  96.852  1.00  0.00    -0.000 C 
BRANCH  13  14
ATOM     14  C   UNL     1      60.481  -0.285  95.407  1.00  0.00    -0.000 C 
BRANCH  14  15
ATOM     15  C   UNL     1      59.214  -1.057  94.991  1.00  0.00    -0.000 C 
BRANCH  15  16
ATOM     16  C   UNL     1      58.215  -1.341  96.127  1.00  0.00    -0.000 C 
BRANCH  16  17
ATOM     17  C   UNL     1      56.752  -1.309  95.661  1.00  0.00    -0.003 C 
ATOM     18  C   UNL     1      55.872  -0.569  96.664  1.00  0.00     0.004 C 
ENDBRANCH  16  17
ENDBRANCH  15  16
ENDBRANCH  14  15
ENDBRANCH  13  14
ENDBRANCH  12  13
ENDBRANCH  11  12
ENDBRANCH   1  11
TORSDOF 14
ENDMDL
MODEL 2
REMARK VINA RESULT:    -3.592      3.360      7.393
REMARK INTER + INTRA:          -8.117
REMARK INTER:                  -6.848
REMARK INTRA:                  -1.269
REMARK UNBOUND:                -1.586
REMARK SMILES CCCCCCCCCCCCCCCC(=O)[O-]
REMARK SMILES IDX 9 1 10 2 11 3 12 4 13 5 14 6 15 7 16 8 17 9 18 10 8 11 7 12
REMARK SMILES IDX 6 13 5 14 4 15 3 16 2 17 1 18
REMARK H PARENT
REMARK Flexibility Score: inf
ROOT
ATOM      1  C   UNL     1      57.159   2.458  96.749  1.00  0.00     0.000 C 
ENDROOT
BRANCH   1   2
ATOM      2  C   UNL     1      58.241   1.447  96.333  1.00  0.00     0.000 C 
BRANCH   2   3
ATOM      3  C   UNL     1      59.589   1.713  97.027  1.00  0.00     0.000 C 
BRANCH   3   4
ATOM      4  C   UNL     1      60.599   0.568  96.831  1.00  0.00     0.000 C 
BRANCH   4   5
ATOM      5  C   UNL     1      60.128  -0.568  95.905  1.00  0.00     0.000 C 
BRANCH   5   6
ATOM      6  C   UNL     1      61.024  -0.745  94.670  1.00  0.00     0.006 C 
BRANCH   6   7
ATOM      7  C   UNL     1      60.679  -2.037  93.923  1.00  0.00     0.053 C 
BRANCH   7   8
ATOM      8  C   UNL     1      60.056  -1.726  92.599  1.00  0.00     0.041 C 
ATOM      9  O   UNL     1      60.028  -0.541  92.175  1.00  0.00    -0.550 OA
ATOM     10  O   UNL     1      59.548  -2.751  91.812  1.00  0.00    -0.550 OA
ENDBRANCH   7   8
ENDBRANCH   6   7
ENDBRANCH   5   6
ENDBRANCH   4   5
ENDBRANCH   3   4
ENDBRANCH   2   3
ENDBRANCH   1   2
BRANCH   1  11
ATOM     11  C   UNL     1      56.733   3.372  95.587  1.00  0.00     0.000 C 
BRANCH  11  12
ATOM     12  C   UNL     1      57.779   4.454  95.258  1.00  0.00    -0.000 C 
BRANCH  12  13
ATOM     13  C   UNL     1      58.158   5.382  96.427  1.00  0.00    -0.000 C 
BRANCH  13  14
ATOM     14  C   UNL     1      59.673   5.443  96.679  1.00  0.00    -0.000 C 
BRANCH  14  15
ATOM     15  C   UNL     1      60.293   6.799  96.293  1.00  0.00    -0.000 C 
BRANCH  15  16
ATOM     16  C   UNL     1      61.109   6.800  94.988  1.00  0.00    -0.000 C 
BRANCH  16  17
ATOM     17  C   UNL     1      60.279   7.208  93.762  1.00  0.00    -0.003 C 
ATOM     18  C   UNL     1      59.170   8.181  94.148  1.00  0.00     0.004 C 
ENDBRANCH  16  17
ENDBRANCH  15  16
ENDBRANCH  14  15
ENDBRANCH  13  14
ENDBRANCH  12  13
ENDBRANCH  11  12
ENDBRANCH   1  11
TORSDOF 14
ENDMDL
MODEL 3
REMARK VINA RESULT:    -3.571      2.158      3.389
REMARK INTER + INTRA:          -8.080
REMARK INTER:                  -7.007
REMARK INTRA:                  -1.072
REMARK UNBOUND:                -1.586
REMARK SMILES CCCCCCCCCCCCCCCC(=O)[O-]
REMARK SMILES IDX 9 1 10 2 11 3 12 4 13 5 14 6 15 7 16 8 17 9 18 10 8 11 7 12
REMARK SMILES IDX 6 13 5 14 4 15 3 16 2 17 1 18
REMARK H PARENT
REMARK Flexibility Score: inf
ROOT
ATOM      1  C   UNL     1      60.738   0.403  96.817  1.00  0.00     0.000 C 
ENDROOT
BRANCH   1   2
ATOM      2  C   UNL     1      59.949   1.702  97.051  1.00  0.00     0.000 C 
BRANCH   2   3
ATOM      3  C   UNL     1      58.615   1.723  96.284  1.00  0.00     0.000 C 
BRANCH   3   4
ATOM      4  C   UNL     1      57.741   2.939  96.637  1.00  0.00     0.000 C 
BRANCH   4   5
ATOM      5  C   UNL     1      58.156   4.260  95.963  1.00  0.00     0.000 C 
BRANCH   5   6
ATOM      6  C   UNL     1      58.906   5.207  96.912  1.00  0.00     0.006 C 
BRANCH   6   7
ATOM      7  C   UNL     1      58.938   6.632  96.352  1.00  0.00     0.053 C 
BRANCH   7   8
ATOM      8  C   UNL     1      60.310   6.972  95.862  1.00  0.00     0.041 C 
ATOM      9  O   UNL     1      60.715   6.530  94.755  1.00  0.00    -0.550 OA
ATOM     10  O   UNL     1      61.125   7.815  96.606  1.00  0.00    -0.550 OA
ENDBRANCH   7   8
ENDBRANCH   6   7
ENDBRANCH   5   6
ENDBRANCH   4   5
ENDBRANCH   3   4
ENDBRANCH   2   3
ENDBRANCH   1   2
BRANCH   1  11
ATOM     11  C   UNL     1      60.015  -0.560  95.860  1.00  0.00     0.000 C 
BRANCH  11  12
ATOM     12  C   UNL     1      60.921  -1.074  94.725  1.00  0.00    -0.000 C 
BRANCH  12  13
ATOM     13  C   UNL     1      60.291  -2.141  93.811  1.00  0.00    -0.000 C 
BRANCH  13  14
ATOM     14  C   UNL     1      60.205  -1.699  92.341  1.00  0.00    -0.000 C 
BRANCH  14  15
ATOM     15  C   UNL     1      59.715  -0.247  92.179  1.00  0.00    -0.000 C 
BRANCH  15  16
ATOM     16  C   UNL     1      58.451  -0.073  91.317  1.00  0.00    -0.000 C 
BRANCH  16  17
ATOM     17  C   UNL     1      57.697   1.232  91.615  1.00  0.00    -0.003 C 
ATOM     18  C   UNL     1      57.030   1.181  92.986  1.00  0.00     0.004 C 
ENDBRANCH  16  17
ENDBRANCH  15  16
ENDBRANCH  14  15
ENDBRANCH  13  14
ENDBRANCH  12  13
ENDBRANCH  11  12
ENDBRANCH   1  11
TORSDOF 14
ENDMDL
MODEL 4
REMARK VINA RESULT:    -3.562      4.154      7.899
REMARK INTER + INTRA:          -8.063
REMARK INTER:                  -6.933
REMARK INTRA:                  -1.130
REMARK UNBOUND:                -1.586
REMARK SMILES CCCCCCCCCCCCCCCC(=O)[O-]
REMARK SMILES IDX 9 1 10 2 11 3 12 4 13 5 14 6 15 7 16 8 17 9 18 10 8 11 7 12
REMARK SMILES IDX 6 13 5 14 4 15 3 16 2 17 1 18
REMARK H PARENT
REMARK Flexibility Score: inf
ROOT
ATOM      1  C   UNL     1      60.378   1.299  96.859  1.00  0.00     0.000 C 
ENDROOT
BRANCH   1   2
ATOM      2  C   UNL     1      60.570  -0.223  96.747  1.00  0.00     0.000 C 
BRANCH   2   3
ATOM      3  C   UNL     1      59.793  -0.826  95.564  1.00  0.00     0.000 C 
BRANCH   3   4
ATOM      4  C   UNL     1      60.669  -1.031  94.315  1.00  0.00     0.000 C 
BRANCH   4   5
ATOM      5  C   UNL     1      60.017  -0.612  92.984  1.00  0.00     0.000 C 
BRANCH   5   6
ATOM      6  C   UNL     1      58.576  -0.108  93.155  1.00  0.00     0.006 C 
BRANCH   6   7
ATOM      7  C   UNL     1      57.591  -0.996  92.390  1.00  0.00     0.053 C 
BRANCH   7   8
ATOM      8  C   UNL     1      57.437  -2.318  93.074  1.00  0.00     0.041 C 
ATOM      9  O   UNL     1      57.896  -3.363  92.543  1.00  0.00    -0.550 OA
ATOM     10  O   UNL     1      56.828  -2.389  94.320  1.00  0.00    -0.550 OA
ENDBRANCH   7   8
ENDBRANCH   6   7
ENDBRANCH   5   6
ENDBRANCH   4   5
ENDBRANCH   3   4
ENDBRANCH   2   3
ENDBRANCH   1   2
BRANCH   1  11
ATOM     11  C   UNL     1      58.911   1.722  96.672  1.00  0.00     0.000 C 
BRANCH  11  12
ATOM     12  C   UNL     1      58.680   3.223  96.930  1.00  0.00    -0.000 C 
BRANCH  12  13
ATOM     13  C   UNL     1      57.976   3.986  95.792  1.00  0.00    -0.000 C 
BRANCH  13  14
ATOM     14  C   UNL     1      58.081   5.513  95.938  1.00  0.00    -0.000 C 
BRANCH  14  15
ATOM     15  C   UNL     1      59.332   5.957  96.720  1.00  0.00    -0.000 C 
BRANCH  15  16
ATOM     16  C   UNL     1      60.511   6.437  95.855  1.00  0.00    -0.000 C 
BRANCH  16  17
ATOM     17  C   UNL     1      61.120   7.758  96.351  1.00  0.00    -0.003 C 
ATOM     18  C   UNL     1      60.071   8.617  97.052  1.00  0.00     0.004 C 
ENDBRANCH  16  17
ENDBRANCH  15  16
ENDBRANCH  14  15
ENDBRANCH  13  14
ENDBRANCH  12  13
ENDBRANCH  11  12
ENDBRANCH   1  11
TORSDOF 14
ENDMDL
MODEL 5
REMARK VINA RESULT:    -3.558      1.492      2.188
REMARK INTER + INTRA:          -8.057
REMARK INTER:                  -6.585
REMARK INTRA:                  -1.472
REMARK UNBOUND:                -1.586
REMARK SMILES CCCCCCCCCCCCCCCC(=O)[O-]
REMARK SMILES IDX 9 1 10 2 11 3 12 4 13 5 14 6 15 7 16 8 17 9 18 10 8 11 7 12
REMARK SMILES IDX 6 13 5 14 4 15 3 16 2 17 1 18
REMARK H PARENT
REMARK Flexibility Score: inf
ROOT
ATOM      1  C   UNL     1      57.384   3.086  94.875  1.00  0.00     0.000 C 
ENDROOT
BRANCH   1   2
ATOM      2  C   UNL     1      56.416   4.149  95.421  1.00  0.00     0.000 C 
BRANCH   2   3
ATOM      3  C   UNL     1      57.135   5.225  96.253  1.00  0.00     0.000 C 
BRANCH   3   4
ATOM      4  C   UNL     1      58.550   5.537  95.734  1.00  0.00     0.000 C 
BRANCH   4   5
ATOM      5  C   UNL     1      59.474   6.244  96.743  1.00  0.00     0.000 C 
BRANCH   5   6
ATOM      6  C   UNL     1      58.982   7.648  97.125  1.00  0.00     0.006 C 
BRANCH   6   7
ATOM      7  C   UNL     1      60.028   8.710  96.773  1.00  0.00     0.053 C 
BRANCH   7   8
ATOM      8  C   UNL     1      59.803   9.228  95.388  1.00  0.00     0.041 C 
ATOM      9  O   UNL     1      58.657   9.175  94.870  1.00  0.00    -0.550 OA
ATOM     10  O   UNL     1      60.849   9.812  94.685  1.00  0.00    -0.550 OA
ENDBRANCH   7   8
ENDBRANCH   6   7
ENDBRANCH   5   6
ENDBRANCH   4   5
ENDBRANCH   3   4
ENDBRANCH   2   3
ENDBRANCH   1   2
BRANCH   1  11
ATOM     11  C   UNL     1      56.992   1.660  95.301  1.00  0.00     0.000 C 
BRANCH  11  12
ATOM     12  C   UNL     1      57.741   1.181  96.559  1.00  0.00    -0.000 C 
BRANCH  12  13
ATOM     13  C   UNL     1      59.029   1.956  96.894  1.00  0.00    -0.000 C 
BRANCH  13  14
ATOM     14  C   UNL     1      60.297   1.092  96.782  1.00  0.00    -0.000 C 
BRANCH  14  15
ATOM     15  C   UNL     1      60.016  -0.316  96.223  1.00  0.00    -0.000 C 
BRANCH  15  16
ATOM     16  C   UNL     1      60.553  -0.579  94.805  1.00  0.00    -0.000 C 
BRANCH  16  17
ATOM     17  C   UNL     1      59.862  -1.762  94.111  1.00  0.00    -0.003 C 
ATOM     18  C   UNL     1      58.364  -1.771  94.403  1.00  0.00     0.004 C 
ENDBRANCH  16  17
ENDBRANCH  15  16
ENDBRANCH  14  15
ENDBRANCH  13  14
ENDBRANCH  12  13
ENDBRANCH  11  12
ENDBRANCH   1  11
TORSDOF 14
ENDMDL
MODEL 6
REMARK VINA RESULT:    -3.550      1.795      2.817
REMARK INTER + INTRA:          -8.042
REMARK INTER:                  -6.572
REMARK INTRA:                  -1.470
REMARK UNBOUND:                -1.586
REMARK SMILES CCCCCCCCCCCCCCCC(=O)[O-]
REMARK SMILES IDX 9 1 10 2 11 3 12 4 13 5 14 6 15 7 16 8 17 9 18 10 8 11 7 12
REMARK SMILES IDX 6 13 5 14 4 15 3 16 2 17 1 18
REMARK H PARENT
REMARK Flexibility Score: inf
ROOT
ATOM      1  C   UNL     1      56.953   0.810  94.968  1.00  0.00     0.000 C 
ENDROOT
BRANCH   1   2
ATOM      2  C   UNL     1      57.431   2.192  94.492  1.00  0.00     0.000 C 
BRANCH   2   3
ATOM      3  C   UNL     1      56.361   3.282  94.689  1.00  0.00     0.000 C 
BRANCH   3   4
ATOM      4  C   UNL     1      56.804   4.386  95.666  1.00  0.00     0.000 C 
BRANCH   4   5
ATOM      5  C   UNL     1      58.327   4.550  95.818  1.00  0.00     0.000 C 
BRANCH   5   6
ATOM      6  C   UNL     1      58.715   5.727  96.727  1.00  0.00     0.006 C 
BRANCH   6   7
ATOM      7  C   UNL     1      60.009   6.388  96.245  1.00  0.00     0.053 C 
BRANCH   7   8
ATOM      8  C   UNL     1      59.973   7.861  96.506  1.00  0.00     0.041 C 
ATOM      9  O   UNL     1      58.891   8.497  96.401  1.00  0.00    -0.550 OA
ATOM     10  O   UNL     1      61.124   8.524  96.910  1.00  0.00    -0.550 OA
ENDBRANCH   7   8
ENDBRANCH   6   7
ENDBRANCH   5   6
ENDBRANCH   4   5
ENDBRANCH   3   4
ENDBRANCH   2   3
ENDBRANCH   1   2
BRANCH   1  11
ATOM     11  C   UNL     1      57.888   0.198  96.025  1.00  0.00     0.000 C 
BRANCH  11  12
ATOM     12  C   UNL     1      58.815   1.237  96.683  1.00  0.00    -0.000 C 
BRANCH  12  13
ATOM     13  C   UNL     1      60.315   0.887  96.665  1.00  0.00    -0.000 C 
BRANCH  13  14
ATOM     14  C   UNL     1      60.584  -0.583  96.303  1.00  0.00    -0.000 C 
BRANCH  14  15
ATOM     15  C   UNL     1      61.118  -0.760  94.869  1.00  0.00    -0.000 C 
BRANCH  15  16
ATOM     16  C   UNL     1      60.751  -2.092  94.191  1.00  0.00    -0.000 C 
BRANCH  16  17
ATOM     17  C   UNL     1      60.000  -1.902  92.864  1.00  0.00    -0.003 C 
ATOM     18  C   UNL     1      59.733  -0.426  92.590  1.00  0.00     0.004 C 
ENDBRANCH  16  17
ENDBRANCH  15  16
ENDBRANCH  14  15
ENDBRANCH  13  14
ENDBRANCH  12  13
ENDBRANCH  11  12
ENDBRANCH   1  11
TORSDOF 14
ENDMDL
MODEL 7
REMARK VINA RESULT:    -3.532      4.285      6.285
REMARK INTER + INTRA:          -8.009
REMARK INTER:                  -6.078
REMARK INTRA:                  -1.931
REMARK UNBOUND:                -1.586
REMARK SMILES CCCCCCCCCCCCCCCC(=O)[O-]
REMARK SMILES IDX 9 1 10 2 11 3 12 4 13 5 14 6 15 7 16 8 17 9 18 10 8 11 7 12
REMARK SMILES IDX 6 13 5 14 4 15 3 16 2 17 1 18
REMARK H PARENT
REMARK Flexibility Score: inf
ROOT
ATOM      1  C   UNL     1      58.440   1.500  96.786  1.00  0.00     0.000 C 
ENDROOT
BRANCH   1   2
ATOM      2  C   UNL     1      59.960   1.605  96.995  1.00  0.00     0.000 C 
BRANCH   2   3
ATOM      3  C   UNL     1      60.667   0.245  96.855  1.00  0.00     0.000 C 
BRANCH   3   4
ATOM      4  C   UNL     1      60.055  -0.637  95.752  1.00  0.00     0.000 C 
BRANCH   4   5
ATOM      5  C   UNL     1      61.036  -1.082  94.652  1.00  0.00     0.000 C 
BRANCH   5   6
ATOM      6  C   UNL     1      60.335  -1.742  93.455  1.00  0.00     0.006 C 
BRANCH   6   7
ATOM      7  C   UNL     1      59.890  -0.692  92.433  1.00  0.00     0.053 C 
BRANCH   7   8
ATOM      8  C   UNL     1      58.936  -1.291  91.448  1.00  0.00     0.041 C 
ATOM      9  O   UNL     1      57.845  -0.717  91.193  1.00  0.00    -0.550 OA
ATOM     10  O   UNL     1      59.273  -2.459  90.776  1.00  0.00    -0.550 OA
ENDBRANCH   7   8
ENDBRANCH   6   7
ENDBRANCH   5   6
ENDBRANCH   4   5
ENDBRANCH   3   4
ENDBRANCH   2   3
ENDBRANCH   1   2
BRANCH   1  11
ATOM     11  C   UNL     1      57.824   2.817  96.284  1.00  0.00     0.000 C 
BRANCH  11  12
ATOM     12  C   UNL     1      57.288   2.720  94.842  1.00  0.00    -0.000 C 
BRANCH  12  13
ATOM     13  C   UNL     1      57.454   1.344  94.169  1.00  0.00    -0.000 C 
BRANCH  13  14
ATOM     14  C   UNL     1      56.114   0.636  93.911  1.00  0.00    -0.000 C 
BRANCH  14  15
ATOM     15  C   UNL     1      56.025  -0.745  94.588  1.00  0.00    -0.000 C 
BRANCH  15  16
ATOM     16  C   UNL     1      55.779  -0.717  96.107  1.00  0.00    -0.000 C 
BRANCH  16  17
ATOM     17  C   UNL     1      56.638  -1.734  96.873  1.00  0.00    -0.003 C 
ATOM     18  C   UNL     1      55.962  -3.102  96.917  1.00  0.00     0.004 C 
ENDBRANCH  16  17
ENDBRANCH  15  16
ENDBRANCH  14  15
ENDBRANCH  13  14
ENDBRANCH  12  13
ENDBRANCH  11  12
ENDBRANCH   1  11
TORSDOF 14
ENDMDL
MODEL 8
REMARK VINA RESULT:    -3.499      4.380      6.106
REMARK INTER + INTRA:          -7.948
REMARK INTER:                  -5.569
REMARK INTRA:                  -2.380
REMARK UNBOUND:                -1.586
REMARK SMILES CCCCCCCCCCCCCCCC(=O)[O-]
REMARK SMILES IDX 9 1 10 2 11 3 12 4 13 5 14 6 15 7 16 8 17 9 18 10 8 11 7 12
REMARK SMILES IDX 6 13 5 14 4 15 3 16 2 17 1 18
REMARK H PARENT
REMARK Flexibility Score: inf
ROOT
ATOM      1  C   UNL     1      56.764   1.463  95.505  1.00  0.00     0.000 C 
ENDROOT
BRANCH   1   2
ATOM      2  C   UNL     1      58.262   1.810  95.480  1.00  0.00     0.000 C 
BRANCH   2   3
ATOM      3  C   UNL     1      58.931   1.618  96.853  1.00  0.00     0.000 C 
BRANCH   3   4
ATOM      4  C   UNL     1      60.288   0.897  96.763  1.00  0.00     0.000 C 
BRANCH   4   5
ATOM      5  C   UNL     1      60.234  -0.525  96.173  1.00  0.00     0.000 C 
BRANCH   5   6
ATOM      6  C   UNL     1      60.974  -0.645  94.832  1.00  0.00     0.006 C 
BRANCH   6   7
ATOM      7  C   UNL     1      60.590  -1.940  94.109  1.00  0.00     0.053 C 
BRANCH   7   8
ATOM      8  C   UNL     1      60.399  -1.686  92.646  1.00  0.00     0.041 C 
ATOM      9  O   UNL     1      60.044  -0.547  92.242  1.00  0.00    -0.550 OA
ATOM     10  O   UNL     1      60.657  -2.693  91.726  1.00  0.00    -0.550 OA
ENDBRANCH   7   8
ENDBRANCH   6   7
ENDBRANCH   5   6
ENDBRANCH   4   5
ENDBRANCH   3   4
ENDBRANCH   2   3
ENDBRANCH   1   2
BRANCH   1  11
ATOM     11  C   UNL     1      56.337   0.795  96.824  1.00  0.00     0.000 C 
BRANCH  11  12
ATOM     12  C   UNL     1      55.825  -0.645  96.631  1.00  0.00    -0.000 C 
BRANCH  12  13
ATOM     13  C   UNL     1      56.912  -1.735  96.627  1.00  0.00    -0.000 C 
BRANCH  13  14
ATOM     14  C   UNL     1      57.017  -2.474  95.282  1.00  0.00    -0.000 C 
BRANCH  14  15
ATOM     15  C   UNL     1      56.043  -1.929  94.221  1.00  0.00    -0.000 C 
BRANCH  15  16
ATOM     16  C   UNL     1      56.701  -1.176  93.050  1.00  0.00    -0.000 C 
BRANCH  16  17
ATOM     17  C   UNL     1      55.730  -0.236  92.320  1.00  0.00    -0.003 C 
ATOM     18  C   UNL     1      54.392  -0.154  93.049  1.00  0.00     0.004 C 
ENDBRANCH  16  17
ENDBRANCH  15  16
ENDBRANCH  14  15
ENDBRANCH  13  14
ENDBRANCH  12  13
ENDBRANCH  11  12
ENDBRANCH   1  11
TORSDOF 14
ENDMDL
MODEL 9
REMARK VINA RESULT:    -3.474      2.067      3.834
REMARK INTER + INTRA:          -7.904
REMARK INTER:                  -6.112
REMARK INTRA:                  -1.792
REMARK UNBOUND:                -1.586
REMARK SMILES CCCCCCCCCCCCCCCC(=O)[O-]
REMARK SMILES IDX 9 1 10 2 11 3 12 4 13 5 14 6 15 7 16 8 17 9 18 10 8 11 7 12
REMARK SMILES IDX 6 13 5 14 4 15 3 16 2 17 1 18
REMARK H PARENT
REMARK Flexibility Score: inf
ROOT
ATOM      1  C   UNL     1      60.097  -0.738  95.715  1.00  0.00     0.000 C 
ENDROOT
BRANCH   1   2
ATOM      2  C   UNL     1      60.736   0.198  96.755  1.00  0.00     0.000 C 
BRANCH   2   3
ATOM      3  C   UNL     1      59.899   1.468  96.993  1.00  0.00     0.000 C 
BRANCH   3   4
ATOM      4  C   UNL     1      58.520   1.413  96.312  1.00  0.00     0.000 C 
BRANCH   4   5
ATOM      5  C   UNL     1      58.002   2.760  95.777  1.00  0.00     0.000 C 
BRANCH   5   6
ATOM      6  C   UNL     1      58.004   3.868  96.841  1.00  0.00     0.006 C 
BRANCH   6   7
ATOM      7  C   UNL     1      57.990   5.254  96.189  1.00  0.00     0.053 C 
BRANCH   7   8
ATOM      8  C   UNL     1      59.244   6.000  96.520  1.00  0.00     0.041 C 
ATOM      9  O   UNL     1      60.337   5.385  96.632  1.00  0.00    -0.550 OA
ATOM     10  O   UNL     1      59.215   7.382  96.658  1.00  0.00    -0.550 OA
ENDBRANCH   7   8
ENDBRANCH   6   7
ENDBRANCH   5   6
ENDBRANCH   4   5
ENDBRANCH   3   4
ENDBRANCH   2   3
ENDBRANCH   1   2
BRANCH   1  11
ATOM     11  C   UNL     1      61.024  -1.002  94.516  1.00  0.00     0.000 C 
BRANCH  11  12
ATOM     12  C   UNL     1      60.260  -1.421  93.246  1.00  0.00    -0.000 C 
BRANCH  12  13
ATOM     13  C   UNL     1      59.703  -0.261  92.400  1.00  0.00    -0.000 C 
BRANCH  13  14
ATOM     14  C   UNL     1      58.276   0.146  92.804  1.00  0.00    -0.000 C 
BRANCH  14  15
ATOM     15  C   UNL     1      57.396  -1.057  93.191  1.00  0.00    -0.000 C 
BRANCH  15  16
ATOM     16  C   UNL     1      56.317  -0.768  94.250  1.00  0.00    -0.000 C 
BRANCH  16  17
ATOM     17  C   UNL     1      55.481   0.480  93.930  1.00  0.00    -0.003 C 
ATOM     18  C   UNL     1      54.819   1.037  95.187  1.00  0.00     0.004 C 
ENDBRANCH  16  17
ENDBRANCH  15  16
ENDBRANCH  14  15
ENDBRANCH  13  14
ENDBRANCH  12  13
ENDBRANCH  11  12
ENDBRANCH   1  11
TORSDOF 14
ENDMDL
