MODEL 1
REMARK VINA RESULT:     6.318      0.000      0.000
REMARK INTER + INTRA:           9.497
REMARK INTER:                  10.011
REMARK INTRA:                  -0.514
REMARK UNBOUND:                -0.514
REMARK SMILES CCCCCCCCCCCC(=O)[O-]
REMARK SMILES IDX 7 1 8 2 9 3 10 4 11 5 12 6 13 7 14 8 6 9 5 10 4 11 3 12 2 13
REMARK SMILES IDX 1 14
REMARK H PARENT
REMARK Flexibility Score: inf
ROOT
ATOM      1  C   UNL     1      18.040 -59.671  -3.043  1.00  0.00     0.000 C 
ENDROOT
BRANCH   1   2
ATOM      2  C   UNL     1      18.785 -58.382  -2.655  1.00  0.00     0.000 C 
BRANCH   2   3
ATOM      3  C   UNL     1      18.105 -57.633  -1.497  1.00  0.00     0.000 C 
BRANCH   3   4
ATOM      4  C   UNL     1      17.855 -56.149  -1.816  1.00  0.00     0.006 C 
BRANCH   4   5
ATOM      5  C   UNL     1      16.999 -55.963  -3.076  1.00  0.00     0.053 C 
BRANCH   5   6
ATOM      6  C   UNL     1      17.578 -54.929  -3.994  1.00  0.00     0.041 C 
ATOM      7  O   UNL     1      18.014 -53.843  -3.531  1.00  0.00    -0.550 OA
ATOM      8  O   UNL     1      17.662 -55.180  -5.358  1.00  0.00    -0.550 OA
ENDBRANCH   5   6
ENDBRANCH   4   5
ENDBRANCH   3   4
ENDBRANCH   2   3
ENDBRANCH   1   2
BRANCH   1   9
ATOM      9  C   UNL     1      16.579 -59.678  -2.561  1.00  0.00     0.000 C 
BRANCH   9  10
ATOM     10  C   UNL     1      15.575 -59.525  -3.717  1.00  0.00    -0.000 C 
BRANCH  10  11
ATOM     11  C   UNL     1      14.938 -58.125  -3.764  1.00  0.00    -0.000 C 
BRANCH  11  12
ATOM     12  C   UNL     1      13.435 -58.169  -4.091  1.00  0.00    -0.000 C 
BRANCH  12  13
ATOM     13  C   UNL     1      12.649 -57.046  -3.397  1.00  0.00    -0.003 C 
ATOM     14  C   UNL     1      11.242 -57.475  -2.983  1.00  0.00     0.004 C 
ENDBRANCH  12  13
ENDBRANCH  11  12
ENDBRANCH  10  11
ENDBRANCH   9  10
ENDBRANCH   1   9
TORSDOF 10
ENDMDL
MODEL 2
REMARK VINA RESULT:     7.110      2.657      4.876
REMARK INTER + INTRA:          10.752
REMARK INTER:                  11.702
REMARK INTRA:                  -0.951
REMARK UNBOUND:                -0.514
REMARK SMILES CCCCCCCCCCCC(=O)[O-]
REMARK SMILES IDX 7 1 8 2 9 3 10 4 11 5 12 6 13 7 14 8 6 9 5 10 4 11 3 12 2 13
REMARK SMILES IDX 1 14
REMARK H PARENT
REMARK Flexibility Score: inf
ROOT
ATOM      1  C   UNL     1      17.955 -59.764  -3.048  1.00  0.00     0.000 C 
ENDROOT
BRANCH   1   2
ATOM      2  C   UNL     1      16.463 -59.671  -2.683  1.00  0.00     0.000 C 
BRANCH   2   3
ATOM      3  C   UNL     1      15.597 -59.186  -3.857  1.00  0.00     0.000 C 
BRANCH   3   4
ATOM      4  C   UNL     1      14.128 -58.966  -3.460  1.00  0.00     0.006 C 
BRANCH   4   5
ATOM      5  C   UNL     1      13.596 -57.607  -3.936  1.00  0.00     0.053 C 
BRANCH   5   6
ATOM      6  C   UNL     1      12.197 -57.359  -3.457  1.00  0.00     0.041 C 
ATOM      7  O   UNL     1      11.604 -56.291  -3.758  1.00  0.00    -0.550 OA
ATOM      8  O   UNL     1      11.540 -58.323  -2.703  1.00  0.00    -0.550 OA
ENDBRANCH   5   6
ENDBRANCH   4   5
ENDBRANCH   3   4
ENDBRANCH   2   3
ENDBRANCH   1   2
BRANCH   1   9
ATOM      9  C   UNL     1      18.748 -58.518  -2.616  1.00  0.00     0.000 C 
BRANCH   9  10
ATOM     10  C   UNL     1      18.044 -57.729  -1.497  1.00  0.00    -0.000 C 
BRANCH  10  11
ATOM     11  C   UNL     1      17.959 -56.224  -1.801  1.00  0.00    -0.000 C 
BRANCH  11  12
ATOM     12  C   UNL     1      16.904 -55.894  -2.871  1.00  0.00    -0.000 C 
BRANCH  12  13
ATOM     13  C   UNL     1      17.287 -54.670  -3.717  1.00  0.00    -0.003 C 
ATOM     14  C   UNL     1      17.709 -55.042  -5.139  1.00  0.00     0.004 C 
ENDBRANCH  12  13
ENDBRANCH  11  12
ENDBRANCH  10  11
ENDBRANCH   9  10
ENDBRANCH   1   9
TORSDOF 10
ENDMDL
MODEL 3
REMARK VINA RESULT:     7.315      1.033      2.051
REMARK INTER + INTRA:          11.077
REMARK INTER:                  11.779
REMARK INTRA:                  -0.701
REMARK UNBOUND:                -0.514
REMARK SMILES CCCCCCCCCCCC(=O)[O-]
REMARK SMILES IDX 7 1 8 2 9 3 10 4 11 5 12 6 13 7 14 8 6 9 5 10 4 11 3 12 2 13
REMARK SMILES IDX 1 14
REMARK H PARENT
REMARK Flexibility Score: inf
ROOT
ATOM      1  C   UNL     1      19.024 -58.174  -3.081  1.00  0.00     0.000 C 
ENDROOT
BRANCH   1   2
ATOM      2  C   UNL     1      19.067 -57.346  -1.785  1.00  0.00     0.000 C 
BRANCH   2   3
ATOM      3  C   UNL     1      17.666 -56.949  -1.290  1.00  0.00     0.000 C 
BRANCH   3   4
ATOM      4  C   UNL     1      16.817 -56.281  -2.385  1.00  0.00     0.006 C 
BRANCH   4   5
ATOM      5  C   UNL     1      17.346 -54.890  -2.760  1.00  0.00     0.053 C 
BRANCH   5   6
ATOM      6  C   UNL     1      17.542 -54.751  -4.239  1.00  0.00     0.041 C 
ATOM      7  O   UNL     1      17.407 -55.749  -4.994  1.00  0.00    -0.550 OA
ATOM      8  O   UNL     1      17.845 -53.510  -4.786  1.00  0.00    -0.550 OA
ENDBRANCH   5   6
ENDBRANCH   4   5
ENDBRANCH   3   4
ENDBRANCH   2   3
ENDBRANCH   1   2
BRANCH   1   9
ATOM      9  C   UNL     1      19.125 -59.686  -2.820  1.00  0.00     0.000 C 
BRANCH   9  10
ATOM     10  C   UNL     1      17.824 -60.433  -3.164  1.00  0.00    -0.000 C 
BRANCH  10  11
ATOM     11  C   UNL     1      16.570 -59.690  -2.672  1.00  0.00    -0.000 C 
BRANCH  11  12
ATOM     12  C   UNL     1      15.388 -59.809  -3.650  1.00  0.00    -0.000 C 
BRANCH  12  13
ATOM     13  C   UNL     1      15.015 -58.462  -4.288  1.00  0.00    -0.003 C 
ATOM     14  C   UNL     1      13.637 -57.962  -3.852  1.00  0.00     0.004 C 
ENDBRANCH  12  13
ENDBRANCH  11  12
ENDBRANCH  10  11
ENDBRANCH   9  10
ENDBRANCH   1   9
TORSDOF 10
ENDMDL
MODEL 4
REMARK VINA RESULT:     7.832      2.137      2.543
REMARK INTER + INTRA:          11.897
REMARK INTER:                  12.306
REMARK INTRA:                  -0.409
REMARK UNBOUND:                -0.514
REMARK SMILES CCCCCCCCCCCC(=O)[O-]
REMARK SMILES IDX 7 1 8 2 9 3 10 4 11 5 12 6 13 7 14 8 6 9 5 10 4 11 3 12 2 13
REMARK SMILES IDX 1 14
REMARK H PARENT
REMARK Flexibility Score: inf
ROOT
ATOM      1  C   UNL     1      17.639 -60.626  -2.904  1.00  0.00     0.000 C 
ENDROOT
BRANCH   1   2
ATOM      2  C   UNL     1      19.044 -60.007  -2.999  1.00  0.00     0.000 C 
BRANCH   2   3
ATOM      3  C   UNL     1      19.005 -58.482  -3.192  1.00  0.00     0.000 C 
BRANCH   3   4
ATOM      4  C   UNL     1      19.125 -57.712  -1.866  1.00  0.00     0.006 C 
BRANCH   4   5
ATOM      5  C   UNL     1      18.049 -56.627  -1.726  1.00  0.00     0.053 C 
BRANCH   5   6
ATOM      6  C   UNL     1      17.323 -56.729  -0.419  1.00  0.00     0.041 C 
ATOM      7  O   UNL     1      17.852 -57.325   0.555  1.00  0.00    -0.550 OA
ATOM      8  O   UNL     1      16.074 -56.138  -0.270  1.00  0.00    -0.550 OA
ENDBRANCH   5   6
ENDBRANCH   4   5
ENDBRANCH   3   4
ENDBRANCH   2   3
ENDBRANCH   1   2
BRANCH   1   9
ATOM      9  C   UNL     1      16.550 -59.581  -2.607  1.00  0.00     0.000 C 
BRANCH   9  10
ATOM     10  C   UNL     1      15.464 -59.534  -3.696  1.00  0.00    -0.000 C 
BRANCH  10  11
ATOM     11  C   UNL     1      15.061 -58.096  -4.066  1.00  0.00    -0.000 C 
BRANCH  11  12
ATOM     12  C   UNL     1      13.547 -57.947  -4.298  1.00  0.00    -0.000 C 
BRANCH  12  13
ATOM     13  C   UNL     1      12.835 -57.271  -3.116  1.00  0.00    -0.003 C 
ATOM     14  C   UNL     1      11.316 -57.229  -3.285  1.00  0.00     0.004 C 
ENDBRANCH  12  13
ENDBRANCH  11  12
ENDBRANCH  10  11
ENDBRANCH   9  10
ENDBRANCH   1   9
TORSDOF 10
ENDMDL
