MODEL 1
REMARK VINA RESULT:    -3.168      0.000      0.000
REMARK INTER + INTRA:          -3.676
REMARK INTER:                  -3.632
REMARK INTRA:                  -0.045
REMARK UNBOUND:                -0.045
REMARK SMILES O=C([O-])c1cc(O)c(O)c(O)c1
REMARK SMILES IDX 4 1 5 2 12 3 6 4 10 5 8 6 2 7 1 8 3 9 7 10 11 12 9 14
REMARK H PARENT 7 11 11 13 9 15
REMARK Flexibility Score: inf
ROOT
ATOM      1  C   UNL     1      -4.041   4.392   2.378  1.00  0.00     0.005 A 
ATOM      2  C   UNL     1      -3.139   5.468   2.391  1.00  0.00     0.060 A 
ATOM      3  C   UNL     1      -5.215   4.495   1.613  1.00  0.00     0.060 A 
ATOM      4  C   UNL     1      -3.402   6.629   1.652  1.00  0.00     0.162 A 
ATOM      5  C   UNL     1      -5.485   5.651   0.873  1.00  0.00     0.162 A 
ATOM      6  C   UNL     1      -4.579   6.724   0.891  1.00  0.00     0.200 A 
ENDROOT
BRANCH   1   7
ATOM      7  C   UNL     1      -3.755   3.169   3.160  1.00  0.00     0.072 C 
ATOM      8  O   UNL     1      -3.960   3.140   4.403  1.00  0.00    -0.545 OA
ATOM      9  O   UNL     1      -3.256   2.032   2.536  1.00  0.00    -0.545 OA
ENDBRANCH   1   7
BRANCH   4  10
ATOM     10  O   UNL     1      -2.498   7.691   1.673  1.00  0.00    -0.504 OA
ATOM     11  H   UNL     1      -2.500   8.406   0.955  1.00  0.00     0.293 HD
ENDBRANCH   4  10
BRANCH   5  12
ATOM     12  O   UNL     1      -6.662   5.714   0.127  1.00  0.00    -0.504 OA
ATOM     13  H   UNL     1      -6.747   5.277  -0.783  1.00  0.00     0.293 HD
ENDBRANCH   5  12
BRANCH   6  14
ATOM     14  O   UNL     1      -4.857   7.873   0.150  1.00  0.00    -0.502 OA
ATOM     15  H   UNL     1      -4.406   8.067  -0.737  1.00  0.00     0.293 HD
ENDBRANCH   6  14
TORSDOF 4
ENDMDL
MODEL 2
REMARK VINA RESULT:    -3.159      0.111      2.430
REMARK INTER + INTRA:          -3.666
REMARK INTER:                  -3.621
REMARK INTRA:                  -0.045
REMARK UNBOUND:                -0.045
REMARK SMILES O=C([O-])c1cc(O)c(O)c(O)c1
REMARK SMILES IDX 4 1 5 2 12 3 6 4 10 5 8 6 2 7 1 8 3 9 7 10 11 12 9 14
REMARK H PARENT 7 11 11 13 9 15
REMARK Flexibility Score: inf
ROOT
ATOM      1  C   UNL     1      -3.998   4.384   2.389  1.00  0.00     0.005 A 
ATOM      2  C   UNL     1      -5.129   4.480   1.564  1.00  0.00     0.060 A 
ATOM      3  C   UNL     1      -3.105   5.467   2.454  1.00  0.00     0.060 A 
ATOM      4  C   UNL     1      -5.369   5.640   0.814  1.00  0.00     0.162 A 
ATOM      5  C   UNL     1      -3.337   6.628   1.708  1.00  0.00     0.162 A 
ATOM      6  C   UNL     1      -4.470   6.718   0.884  1.00  0.00     0.200 A 
ENDROOT
BRANCH   1   7
ATOM      7  C   UNL     1      -3.752   3.156   3.178  1.00  0.00     0.072 C 
ATOM      8  O   UNL     1      -3.966   3.139   4.420  1.00  0.00    -0.545 OA
ATOM      9  O   UNL     1      -3.282   2.003   2.561  1.00  0.00    -0.545 OA
ENDBRANCH   1   7
BRANCH   4  10
ATOM     10  O   UNL     1      -6.497   5.724  -0.002  1.00  0.00    -0.504 OA
ATOM     11  H   UNL     1      -7.405   5.404   0.313  1.00  0.00     0.293 HD
ENDBRANCH   4  10
BRANCH   5  12
ATOM     12  O   UNL     1      -2.426   7.680   1.799  1.00  0.00    -0.504 OA
ATOM     13  H   UNL     1      -2.579   8.567   1.333  1.00  0.00     0.293 HD
ENDBRANCH   5  12
BRANCH   6  14
ATOM     14  O   UNL     1      -4.694   7.880   0.144  1.00  0.00    -0.502 OA
ATOM     15  H   UNL     1      -4.093   8.693   0.217  1.00  0.00     0.293 HD
ENDBRANCH   6  14
TORSDOF 4
ENDMDL
MODEL 3
REMARK VINA RESULT:    -2.726      8.139      9.560
REMARK INTER + INTRA:          -3.169
REMARK INTER:                  -3.124
REMARK INTRA:                  -0.046
REMARK UNBOUND:                -0.045
REMARK SMILES O=C([O-])c1cc(O)c(O)c(O)c1
REMARK SMILES IDX 4 1 5 2 12 3 6 4 10 5 8 6 2 7 1 8 3 9 7 10 11 12 9 14
REMARK H PARENT 7 11 11 13 9 15
REMARK Flexibility Score: inf
ROOT
ATOM      1  C   UNL     1       2.999   3.663  -1.893  1.00  0.00     0.005 A 
ATOM      2  C   UNL     1       2.399   2.454  -2.279  1.00  0.00     0.060 A 
ATOM      3  C   UNL     1       3.697   3.720  -0.674  1.00  0.00     0.060 A 
ATOM      4  C   UNL     1       2.494   1.317  -1.464  1.00  0.00     0.162 A 
ATOM      5  C   UNL     1       3.796   2.590   0.145  1.00  0.00     0.162 A 
ATOM      6  C   UNL     1       3.193   1.383  -0.247  1.00  0.00     0.200 A 
ENDROOT
BRANCH   1   7
ATOM      7  C   UNL     1       2.895   4.858  -2.759  1.00  0.00     0.072 C 
ATOM      8  O   UNL     1       1.777   5.395  -2.978  1.00  0.00    -0.545 OA
ATOM      9  O   UNL     1       4.030   5.407  -3.343  1.00  0.00    -0.545 OA
ENDBRANCH   1   7
BRANCH   4  10
ATOM     10  O   UNL     1       1.894   0.122  -1.860  1.00  0.00    -0.504 OA
ATOM     11  H   UNL     1       1.603  -0.035  -2.817  1.00  0.00     0.293 HD
ENDBRANCH   4  10
BRANCH   5  12
ATOM     12  O   UNL     1       4.497   2.688   1.347  1.00  0.00    -0.504 OA
ATOM     13  H   UNL     1       4.061   2.501   2.242  1.00  0.00     0.293 HD
ENDBRANCH   5  12
BRANCH   6  14
ATOM     14  O   UNL     1       3.297   0.261   0.576  1.00  0.00    -0.502 OA
ATOM     15  H   UNL     1       3.037  -0.666   0.261  1.00  0.00     0.293 HD
ENDBRANCH   6  14
TORSDOF 4
ENDMDL
MODEL 4
REMARK VINA RESULT:    -2.714      8.141      9.285
REMARK INTER + INTRA:          -3.156
REMARK INTER:                  -3.110
REMARK INTRA:                  -0.046
REMARK UNBOUND:                -0.045
REMARK SMILES O=C([O-])c1cc(O)c(O)c(O)c1
REMARK SMILES IDX 4 1 5 2 12 3 6 4 10 5 8 6 2 7 1 8 3 9 7 10 11 12 9 14
REMARK H PARENT 7 11 11 13 9 15
REMARK Flexibility Score: inf
ROOT
ATOM      1  C   UNL     1       2.999   3.669  -1.892  1.00  0.00     0.005 A 
ATOM      2  C   UNL     1       3.684   3.723  -0.668  1.00  0.00     0.060 A 
ATOM      3  C   UNL     1       2.412   2.457  -2.293  1.00  0.00     0.060 A 
ATOM      4  C   UNL     1       3.782   2.586   0.146  1.00  0.00     0.162 A 
ATOM      5  C   UNL     1       2.506   1.318  -1.486  1.00  0.00     0.162 A 
ATOM      6  C   UNL     1       3.193   1.378  -0.262  1.00  0.00     0.200 A 
ENDROOT
BRANCH   1   7
ATOM      7  C   UNL     1       2.900   4.874  -2.745  1.00  0.00     0.072 C 
ATOM      8  O   UNL     1       1.787   5.431  -2.940  1.00  0.00    -0.545 OA
ATOM      9  O   UNL     1       4.033   5.409  -3.346  1.00  0.00    -0.545 OA
ENDBRANCH   1   7
BRANCH   4  10
ATOM     10  O   UNL     1       4.465   2.653   1.361  1.00  0.00    -0.504 OA
ATOM     11  H   UNL     1       5.211   3.321   1.515  1.00  0.00     0.293 HD
ENDBRANCH   4  10
BRANCH   5  12
ATOM     12  O   UNL     1       1.910   0.133  -1.920  1.00  0.00    -0.504 OA
ATOM     13  H   UNL     1       2.223  -0.776  -1.601  1.00  0.00     0.293 HD
ENDBRANCH   5  12
BRANCH   6  14
ATOM     14  O   UNL     1       3.281   0.237   0.536  1.00  0.00    -0.502 OA
ATOM     15  H   UNL     1       3.015  -0.681   0.199  1.00  0.00     0.293 HD
ENDBRANCH   6  14
TORSDOF 4
ENDMDL
MODEL 5
REMARK VINA RESULT:    -2.677      6.919      8.181
REMARK INTER + INTRA:          -3.114
REMARK INTER:                  -3.068
REMARK INTRA:                  -0.046
REMARK UNBOUND:                -0.045
REMARK SMILES O=C([O-])c1cc(O)c(O)c(O)c1
REMARK SMILES IDX 4 1 5 2 12 3 6 4 10 5 8 6 2 7 1 8 3 9 7 10 11 12 9 14
REMARK H PARENT 7 11 11 13 9 15
REMARK Flexibility Score: inf
ROOT
ATOM      1  C   UNL     1      -0.223   5.354   9.494  1.00  0.00     0.005 A 
ATOM      2  C   UNL     1      -0.187   6.617   8.882  1.00  0.00     0.060 A 
ATOM      3  C   UNL     1      -1.429   4.633   9.503  1.00  0.00     0.060 A 
ATOM      4  C   UNL     1      -1.336   7.154   8.284  1.00  0.00     0.162 A 
ATOM      5  C   UNL     1      -2.580   5.162   8.909  1.00  0.00     0.162 A 
ATOM      6  C   UNL     1      -2.538   6.426   8.297  1.00  0.00     0.200 A 
ENDROOT
BRANCH   1   7
ATOM      7  C   UNL     1       0.994   4.794  10.122  1.00  0.00     0.072 C 
ATOM      8  O   UNL     1       1.550   3.770   9.643  1.00  0.00    -0.545 OA
ATOM      9  O   UNL     1       1.544   5.390  11.251  1.00  0.00    -0.545 OA
ENDBRANCH   1   7
BRANCH   4  10
ATOM     10  O   UNL     1      -1.287   8.409   7.678  1.00  0.00    -0.504 OA
ATOM     11  H   UNL     1      -1.808   8.612   6.833  1.00  0.00     0.293 HD
ENDBRANCH   4  10
BRANCH   5  12
ATOM     12  O   UNL     1      -3.758   4.415   8.938  1.00  0.00    -0.504 OA
ATOM     13  H   UNL     1      -3.881   3.627   9.562  1.00  0.00     0.293 HD
ENDBRANCH   5  12
BRANCH   6  14
ATOM     14  O   UNL     1      -3.691   6.946   7.708  1.00  0.00    -0.502 OA
ATOM     15  H   UNL     1      -4.210   7.713   8.119  1.00  0.00     0.293 HD
ENDBRANCH   6  14
TORSDOF 4
ENDMDL
MODEL 6
REMARK VINA RESULT:    -2.675      6.945      8.447
REMARK INTER + INTRA:          -3.111
REMARK INTER:                  -3.065
REMARK INTRA:                  -0.046
REMARK UNBOUND:                -0.045
REMARK SMILES O=C([O-])c1cc(O)c(O)c(O)c1
REMARK SMILES IDX 4 1 5 2 12 3 6 4 10 5 8 6 2 7 1 8 3 9 7 10 11 12 9 14
REMARK H PARENT 7 11 11 13 9 15
REMARK Flexibility Score: inf
ROOT
ATOM      1  C   UNL     1      -0.201   5.284   9.508  1.00  0.00     0.005 A 
ATOM      2  C   UNL     1      -1.406   4.565   9.512  1.00  0.00     0.060 A 
ATOM      3  C   UNL     1      -0.165   6.554   8.907  1.00  0.00     0.060 A 
ATOM      4  C   UNL     1      -2.561   5.103   8.928  1.00  0.00     0.162 A 
ATOM      5  C   UNL     1      -1.313   7.098   8.322  1.00  0.00     0.162 A 
ATOM      6  C   UNL     1      -2.517   6.374   8.329  1.00  0.00     0.200 A 
ENDROOT
BRANCH   1   7
ATOM      7  C   UNL     1       1.014   4.709  10.128  1.00  0.00     0.072 C 
ATOM      8  O   UNL     1       1.585   3.710   9.613  1.00  0.00    -0.545 OA
ATOM      9  O   UNL     1       1.544   5.262  11.288  1.00  0.00    -0.545 OA
ENDBRANCH   1   7
BRANCH   4  10
ATOM     10  O   UNL     1      -3.753   4.379   8.939  1.00  0.00    -0.504 OA
ATOM     11  H   UNL     1      -4.629   4.793   8.645  1.00  0.00     0.293 HD
ENDBRANCH   4  10
BRANCH   5  12
ATOM     12  O   UNL     1      -1.237   8.362   7.736  1.00  0.00    -0.504 OA
ATOM     13  H   UNL     1      -2.041   8.973   7.667  1.00  0.00     0.293 HD
ENDBRANCH   5  12
BRANCH   6  14
ATOM     14  O   UNL     1      -3.657   6.924   7.743  1.00  0.00    -0.502 OA
ATOM     15  H   UNL     1      -4.115   7.746   8.118  1.00  0.00     0.293 HD
ENDBRANCH   6  14
TORSDOF 4
ENDMDL
MODEL 7
REMARK VINA RESULT:    -2.591      7.427      9.285
REMARK INTER + INTRA:          -3.014
REMARK INTER:                  -2.962
REMARK INTRA:                  -0.052
REMARK UNBOUND:                -0.045
REMARK SMILES O=C([O-])c1cc(O)c(O)c(O)c1
REMARK SMILES IDX 4 1 5 2 12 3 6 4 10 5 8 6 2 7 1 8 3 9 7 10 11 12 9 14
REMARK H PARENT 7 11 11 13 9 15
REMARK Flexibility Score: inf
ROOT
ATOM      1  C   UNL     1      -1.252   5.691   8.953  1.00  0.00     0.005 A 
ATOM      2  C   UNL     1      -0.606   4.611   9.575  1.00  0.00     0.060 A 
ATOM      3  C   UNL     1      -0.545   6.891   8.760  1.00  0.00     0.060 A 
ATOM      4  C   UNL     1       0.726   4.724   9.999  1.00  0.00     0.162 A 
ATOM      5  C   UNL     1       0.784   7.011   9.181  1.00  0.00     0.162 A 
ATOM      6  C   UNL     1       1.425   5.927   9.803  1.00  0.00     0.200 A 
ENDROOT
BRANCH   1   7
ATOM      7  C   UNL     1      -2.657   5.564   8.508  1.00  0.00     0.072 C 
ATOM      8  O   UNL     1      -3.405   4.672   8.992  1.00  0.00    -0.545 OA
ATOM      9  O   UNL     1      -3.175   6.427   7.550  1.00  0.00    -0.545 OA
ENDBRANCH   1   7
BRANCH   4  10
ATOM     10  O   UNL     1       1.357   3.643  10.616  1.00  0.00    -0.504 OA
ATOM     11  H   UNL     1       0.938   2.721  10.630  1.00  0.00     0.293 HD
ENDBRANCH   4  10
BRANCH   5  12
ATOM     12  O   UNL     1       1.450   8.218   8.971  1.00  0.00    -0.504 OA
ATOM     13  H   UNL     1       2.432   8.256   8.727  1.00  0.00     0.293 HD
ENDBRANCH   5  12
BRANCH   6  14
ATOM     14  O   UNL     1       2.751   6.056  10.219  1.00  0.00    -0.502 OA
ATOM     15  H   UNL     1       3.002   6.185  11.192  1.00  0.00     0.293 HD
ENDBRANCH   6  14
TORSDOF 4
ENDMDL
MODEL 8
REMARK VINA RESULT:    -2.585      7.412      8.867
REMARK INTER + INTRA:          -3.008
REMARK INTER:                  -2.955
REMARK INTRA:                  -0.052
REMARK UNBOUND:                -0.045
REMARK SMILES O=C([O-])c1cc(O)c(O)c(O)c1
REMARK SMILES IDX 4 1 5 2 12 3 6 4 10 5 8 6 2 7 1 8 3 9 7 10 11 12 9 14
REMARK H PARENT 7 11 11 13 9 15
REMARK Flexibility Score: inf
ROOT
ATOM      1  C   UNL     1       1.050   3.266  -3.439  1.00  0.00     0.005 A 
ATOM      2  C   UNL     1      -0.239   2.854  -3.812  1.00  0.00     0.060 A 
ATOM      3  C   UNL     1       1.858   2.392  -2.692  1.00  0.00     0.060 A 
ATOM      4  C   UNL     1      -0.717   1.587  -3.448  1.00  0.00     0.162 A 
ATOM      5  C   UNL     1       1.387   1.126  -2.324  1.00  0.00     0.162 A 
ATOM      6  C   UNL     1       0.097   0.719  -2.701  1.00  0.00     0.200 A 
ENDROOT
BRANCH   1   7
ATOM      7  C   UNL     1       1.548   4.605  -3.828  1.00  0.00     0.072 C 
ATOM      8  O   UNL     1       0.755   5.482  -4.263  1.00  0.00    -0.545 OA
ATOM      9  O   UNL     1       2.899   4.914  -3.719  1.00  0.00    -0.545 OA
ENDBRANCH   1   7
BRANCH   4  10
ATOM     10  O   UNL     1      -1.999   1.190  -3.826  1.00  0.00    -0.504 OA
ATOM     11  H   UNL     1      -2.783   1.831  -3.804  1.00  0.00     0.293 HD
ENDBRANCH   4  10
BRANCH   5  12
ATOM     12  O   UNL     1       2.219   0.287  -1.582  1.00  0.00    -0.504 OA
ATOM     13  H   UNL     1       3.070  -0.106  -1.967  1.00  0.00     0.293 HD
ENDBRANCH   5  12
BRANCH   6  14
ATOM     14  O   UNL     1      -0.364  -0.544  -2.330  1.00  0.00    -0.502 OA
ATOM     15  H   UNL     1      -0.134  -1.380  -2.855  1.00  0.00     0.293 HD
ENDBRANCH   6  14
TORSDOF 4
ENDMDL
MODEL 9
REMARK VINA RESULT:    -2.579      7.415      8.613
REMARK INTER + INTRA:          -3.001
REMARK INTER:                  -2.949
REMARK INTRA:                  -0.052
REMARK UNBOUND:                -0.045
REMARK SMILES O=C([O-])c1cc(O)c(O)c(O)c1
REMARK SMILES IDX 4 1 5 2 12 3 6 4 10 5 8 6 2 7 1 8 3 9 7 10 11 12 9 14
REMARK H PARENT 7 11 11 13 9 15
REMARK Flexibility Score: inf
ROOT
ATOM      1  C   UNL     1       1.054   3.266  -3.485  1.00  0.00     0.005 A 
ATOM      2  C   UNL     1       1.876   2.410  -2.735  1.00  0.00     0.060 A 
ATOM      3  C   UNL     1      -0.239   2.839  -3.834  1.00  0.00     0.060 A 
ATOM      4  C   UNL     1       1.417   1.146  -2.338  1.00  0.00     0.162 A 
ATOM      5  C   UNL     1      -0.704   1.580  -3.441  1.00  0.00     0.162 A 
ATOM      6  C   UNL     1       0.123   0.728  -2.691  1.00  0.00     0.200 A 
ENDROOT
BRANCH   1   7
ATOM      7  C   UNL     1       1.546   4.598  -3.901  1.00  0.00     0.072 C 
ATOM      8  O   UNL     1       0.739   5.491  -4.275  1.00  0.00    -0.545 OA
ATOM      9  O   UNL     1       2.906   4.885  -3.884  1.00  0.00    -0.545 OA
ENDBRANCH   1   7
BRANCH   4  10
ATOM     10  O   UNL     1       2.243   0.305  -1.593  1.00  0.00    -0.504 OA
ATOM     11  H   UNL     1       1.966  -0.042  -0.682  1.00  0.00     0.293 HD
ENDBRANCH   4  10
BRANCH   5  12
ATOM     12  O   UNL     1      -1.994   1.193  -3.807  1.00  0.00    -0.504 OA
ATOM     13  H   UNL     1      -2.776   1.251  -3.166  1.00  0.00     0.293 HD
ENDBRANCH   5  12
BRANCH   6  14
ATOM     14  O   UNL     1      -0.350  -0.527  -2.303  1.00  0.00    -0.502 OA
ATOM     15  H   UNL     1       0.027  -1.024  -1.504  1.00  0.00     0.293 HD
ENDBRANCH   6  14
TORSDOF 4
ENDMDL
