MODEL 1
REMARK VINA RESULT:    -4.260      0.000      0.000
REMARK INTER + INTRA:          -5.894
REMARK INTER:                  -6.003
REMARK INTRA:                   0.109
REMARK UNBOUND:                 0.109
REMARK SMILES CC1=CCC(=C(C)C)C(=O)CC(C)=CCC1
REMARK SMILES IDX 12 1 14 2 13 3 15 4 16 5 2 6 1 7 3 8 11 10 9 11 10 12 5 13
REMARK SMILES IDX 6 14 7 15 8 16 4 17
REMARK H PARENT
REMARK Flexibility Score: 60.00
ROOT
ATOM      1  C   UNL     1     -13.584  15.559 -30.605  1.00  0.00    -0.070 C 
ATOM      2  C   UNL     1     -12.404  15.536 -29.922  1.00  0.00    -0.027 C 
ATOM      3  C   UNL     1     -13.955  16.861 -31.274  1.00  0.00     0.039 C 
ENDROOT
BRANCH   2   4
ATOM      4  C   UNL     1     -11.686  14.412 -29.183  1.00  0.00     0.032 C 
BRANCH   4   5
ATOM      5  C   UNL     1     -12.442  13.729 -28.038  1.00  0.00     0.034 C 
BRANCH   5   6
ATOM      6  C   UNL     1     -13.048  12.342 -28.291  1.00  0.00    -0.077 C 
ATOM      7  C   UNL     1     -12.050  11.234 -28.551  1.00  0.00     0.039 C 
ATOM      8  C   UNL     1     -14.357  11.951 -28.232  1.00  0.00    -0.023 CG0
ATOM      9  G   UNL     1     -15.617  12.742 -27.939  1.00  0.00     0.000 G0
ENDBRANCH   5   6
ENDBRANCH   4   5
ENDBRANCH   2   4
BRANCH   1  10
ATOM     10  C   UNL     1     -14.572  14.412 -30.756  1.00  0.00     0.111 C 
BRANCH  10  11
ATOM     11  C   UNL     1     -15.689  14.503 -29.761  1.00  0.00     0.163 C 
ATOM     12  O   UNL     1     -16.143  15.639 -29.454  1.00  0.00    -0.294 OA
BRANCH  11  13
ATOM     13  C   UNL     1     -16.289  13.276 -29.178  1.00  0.00    -0.002 C 
ATOM     14  C   UNL     1     -17.365  12.665 -29.754  1.00  0.00    -0.069 C 
ATOM     15  C   UNL     1     -17.912  11.358 -29.226  1.00  0.00     0.039 C 
ATOM     16  C   UNL     1     -18.070  13.282 -30.941  1.00  0.00     0.039 C 
BRANCH  13  17
ATOM     17  C   UNL     1     -15.625  12.741 -27.927  1.00  0.00     0.066 CG0
ATOM     18  G   UNL     1     -14.360  11.967 -28.242  1.00  0.00     0.000 G0
ENDBRANCH  13  17
ENDBRANCH  11  13
ENDBRANCH  10  11
ENDBRANCH   1  10
TORSDOF 0
ENDMDL
MODEL 2
REMARK VINA RESULT:    -4.086      1.982      4.871
REMARK INTER + INTRA:          -5.648
REMARK INTER:                  -5.547
REMARK INTRA:                  -0.101
REMARK UNBOUND:                 0.109
REMARK SMILES CC1=CCC(=C(C)C)C(=O)CC(C)=CCC1
REMARK SMILES IDX 12 1 14 2 13 3 15 4 16 5 2 6 1 7 3 8 11 10 9 11 10 12 5 13
REMARK SMILES IDX 6 14 7 15 8 16 4 17
REMARK H PARENT
REMARK Flexibility Score: 60.00
ROOT
ATOM      1  C   UNL     1     -13.893  12.360 -27.484  1.00  0.00    -0.070 C 
ATOM      2  C   UNL     1     -15.165  12.348 -26.991  1.00  0.00    -0.027 C 
ATOM      3  C   UNL     1     -12.777  12.156 -26.487  1.00  0.00     0.039 C 
ENDROOT
BRANCH   2   4
ATOM      4  C   UNL     1     -16.518  12.462 -27.683  1.00  0.00     0.032 C 
BRANCH   4   5
ATOM      5  C   UNL     1     -16.842  13.790 -28.378  1.00  0.00     0.034 C 
BRANCH   5   6
ATOM      6  C   UNL     1     -16.889  13.817 -29.912  1.00  0.00    -0.077 C 
ATOM      7  C   UNL     1     -18.045  13.067 -30.539  1.00  0.00     0.039 C 
ATOM      8  C   UNL     1     -16.083  14.491 -30.785  1.00  0.00    -0.023 CG0
ATOM      9  G   UNL     1     -14.883  15.385 -30.541  1.00  0.00     0.000 G0
ENDBRANCH   5   6
ENDBRANCH   4   5
ENDBRANCH   2   4
BRANCH   1  10
ATOM     10  C   UNL     1     -13.480  12.567 -28.933  1.00  0.00     0.111 C 
BRANCH  10  11
ATOM     11  C   UNL     1     -13.180  14.005 -29.228  1.00  0.00     0.163 C 
ATOM     12  O   UNL     1     -12.561  14.689 -28.369  1.00  0.00    -0.294 OA
BRANCH  11  13
ATOM     13  C   UNL     1     -13.562  14.610 -30.531  1.00  0.00    -0.002 C 
ATOM     14  C   UNL     1     -12.787  14.453 -31.644  1.00  0.00    -0.069 C 
ATOM     15  C   UNL     1     -13.225  14.975 -32.994  1.00  0.00     0.039 C 
ATOM     16  C   UNL     1     -11.445  13.763 -31.569  1.00  0.00     0.039 C 
BRANCH  13  17
ATOM     17  C   UNL     1     -14.862  15.386 -30.548  1.00  0.00     0.066 CG0
ATOM     18  G   UNL     1     -16.059  14.484 -30.773  1.00  0.00     0.000 G0
ENDBRANCH  13  17
ENDBRANCH  11  13
ENDBRANCH  10  11
ENDBRANCH   1  10
TORSDOF 0
ENDMDL
MODEL 3
REMARK VINA RESULT:    -4.025      1.324      4.049
REMARK INTER + INTRA:          -5.563
REMARK INTER:                  -5.958
REMARK INTRA:                   0.395
REMARK UNBOUND:                 0.109
REMARK SMILES CC1=CCC(=C(C)C)C(=O)CC(C)=CCC1
REMARK SMILES IDX 12 1 14 2 13 3 15 4 16 5 2 6 1 7 3 8 11 10 9 11 10 12 5 13
REMARK SMILES IDX 6 14 7 15 8 16 4 17
REMARK H PARENT
REMARK Flexibility Score: 60.00
ROOT
ATOM      1  C   UNL     1     -17.687  13.145 -29.396  1.00  0.00    -0.070 C 
ATOM      2  C   UNL     1     -17.398  11.822 -29.229  1.00  0.00    -0.027 C 
ATOM      3  C   UNL     1     -19.119  13.488 -29.733  1.00  0.00     0.039 C 
ENDROOT
BRANCH   2   4
ATOM      4  C   UNL     1     -16.107  11.112 -28.838  1.00  0.00     0.032 C 
BRANCH   4   5
ATOM      5  C   UNL     1     -15.334  11.669 -27.637  1.00  0.00     0.034 C 
BRANCH   5   6
ATOM      6  C   UNL     1     -13.880  12.112 -27.848  1.00  0.00    -0.077 C 
ATOM      7  C   UNL     1     -12.952  11.876 -26.676  1.00  0.00     0.039 C 
ATOM      8  C   UNL     1     -13.289  12.611 -28.975  1.00  0.00    -0.023 CG0
ATOM      9  G   UNL     1     -13.862  12.921 -30.344  1.00  0.00     0.000 G0
ENDBRANCH   5   6
ENDBRANCH   4   5
ENDBRANCH   2   4
BRANCH   1  10
ATOM     10  C   UNL     1     -16.716  14.310 -29.286  1.00  0.00     0.111 C 
BRANCH  10  11
ATOM     11  C   UNL     1     -15.876  14.455 -30.519  1.00  0.00     0.163 C 
ATOM     12  O   UNL     1     -16.439  14.729 -31.613  1.00  0.00    -0.294 OA
BRANCH  11  13
ATOM     13  C   UNL     1     -14.398  14.325 -30.451  1.00  0.00    -0.002 C 
ATOM     14  C   UNL     1     -13.585  15.422 -30.457  1.00  0.00    -0.069 C 
ATOM     15  C   UNL     1     -12.089  15.301 -30.280  1.00  0.00     0.039 C 
ATOM     16  C   UNL     1     -14.149  16.810 -30.657  1.00  0.00     0.039 C 
BRANCH  13  17
ATOM     17  C   UNL     1     -13.858  12.915 -30.357  1.00  0.00     0.066 CG0
ATOM     18  G   UNL     1     -13.268  12.621 -28.991  1.00  0.00     0.000 G0
ENDBRANCH  13  17
ENDBRANCH  11  13
ENDBRANCH  10  11
ENDBRANCH   1  10
TORSDOF 0
ENDMDL
MODEL 4
REMARK VINA RESULT:    -4.014      1.621      4.072
REMARK INTER + INTRA:          -5.547
REMARK INTER:                  -5.746
REMARK INTRA:                   0.199
REMARK UNBOUND:                 0.109
REMARK SMILES CC1=CCC(=C(C)C)C(=O)CC(C)=CCC1
REMARK SMILES IDX 12 1 14 2 13 3 15 4 16 5 2 6 1 7 3 8 11 10 9 11 10 12 5 13
REMARK SMILES IDX 6 14 7 15 8 16 4 17
REMARK H PARENT
REMARK Flexibility Score: 60.00
ROOT
ATOM      1  C   UNL     1     -16.129  14.244 -30.545  1.00  0.00    -0.070 C 
ATOM      2  C   UNL     1     -17.202  13.900 -29.777  1.00  0.00    -0.027 C 
ATOM      3  C   UNL     1     -15.667  15.680 -30.460  1.00  0.00     0.039 C 
ENDROOT
BRANCH   2   4
ATOM      4  C   UNL     1     -17.903  12.563 -29.561  1.00  0.00     0.032 C 
BRANCH   4   5
ATOM      5  C   UNL     1     -17.025  11.358 -29.208  1.00  0.00     0.034 C 
BRANCH   5   6
ATOM      6  C   UNL     1     -15.995  11.513 -28.080  1.00  0.00    -0.077 C 
ATOM      7  C   UNL     1     -16.560  11.475 -26.676  1.00  0.00     0.039 C 
ATOM      8  C   UNL     1     -14.634  11.596 -28.163  1.00  0.00    -0.023 CG0
ATOM      9  G   UNL     1     -13.711  11.598 -29.366  1.00  0.00     0.000 G0
ENDBRANCH   5   6
ENDBRANCH   4   5
ENDBRANCH   2   4
BRANCH   1  10
ATOM     10  C   UNL     1     -15.353  13.335 -31.486  1.00  0.00     0.111 C 
BRANCH  10  11
ATOM     11  C   UNL     1     -13.882  13.360 -31.198  1.00  0.00     0.163 C 
ATOM     12  O   UNL     1     -13.089  13.743 -32.100  1.00  0.00    -0.294 OA
BRANCH  11  13
ATOM     13  C   UNL     1     -13.364  12.984 -29.857  1.00  0.00    -0.002 C 
ATOM     14  C   UNL     1     -12.633  13.858 -29.105  1.00  0.00    -0.069 C 
ATOM     15  C   UNL     1     -12.195  13.518 -27.698  1.00  0.00     0.039 C 
ATOM     16  C   UNL     1     -12.215  15.201 -29.656  1.00  0.00     0.039 C 
BRANCH  13  17
ATOM     17  C   UNL     1     -13.711  11.591 -29.377  1.00  0.00     0.066 CG0
ATOM     18  G   UNL     1     -14.644  11.618 -28.182  1.00  0.00     0.000 G0
ENDBRANCH  13  17
ENDBRANCH  11  13
ENDBRANCH  10  11
ENDBRANCH   1  10
TORSDOF 0
ENDMDL
MODEL 5
REMARK VINA RESULT:    -3.893      1.919      3.512
REMARK INTER + INTRA:          -5.377
REMARK INTER:                  -5.361
REMARK INTRA:                  -0.016
REMARK UNBOUND:                 0.109
REMARK SMILES CC1=CCC(=C(C)C)C(=O)CC(C)=CCC1
REMARK SMILES IDX 12 1 14 2 13 3 15 4 16 5 2 6 1 7 3 8 11 10 9 11 10 12 5 13
REMARK SMILES IDX 6 14 7 15 8 16 4 17
REMARK H PARENT
REMARK Flexibility Score: 60.00
ROOT
ATOM      1  C   UNL     1     -15.971  14.395 -30.208  1.00  0.00    -0.070 C 
ATOM      2  C   UNL     1     -15.177  15.443 -30.573  1.00  0.00    -0.027 C 
ATOM      3  C   UNL     1     -16.976  14.656 -29.111  1.00  0.00     0.039 C 
ENDROOT
BRANCH   2   4
ATOM      4  C   UNL     1     -14.110  15.573 -31.654  1.00  0.00     0.032 C 
BRANCH   4   5
ATOM      5  C   UNL     1     -12.960  14.559 -31.633  1.00  0.00     0.034 C 
BRANCH   5   6
ATOM      6  C   UNL     1     -12.273  14.265 -30.292  1.00  0.00    -0.077 C 
ATOM      7  C   UNL     1     -11.411  15.383 -29.746  1.00  0.00     0.039 C 
ATOM      8  C   UNL     1     -12.398  13.170 -29.484  1.00  0.00    -0.023 CG0
ATOM      9  G   UNL     1     -13.206  11.899 -29.653  1.00  0.00     0.000 G0
ENDBRANCH   5   6
ENDBRANCH   4   5
ENDBRANCH   2   4
BRANCH   1  10
ATOM     10  C   UNL     1     -15.944  12.988 -30.785  1.00  0.00     0.111 C 
BRANCH  10  11
ATOM     11  C   UNL     1     -15.749  11.952 -29.719  1.00  0.00     0.163 C 
ATOM     12  O   UNL     1     -16.629  11.064 -29.562  1.00  0.00    -0.294 OA
BRANCH  11  13
ATOM     13  C   UNL     1     -14.517  11.940 -28.889  1.00  0.00    -0.002 C 
ATOM     14  C   UNL     1     -14.577  11.957 -27.525  1.00  0.00    -0.069 C 
ATOM     15  C   UNL     1     -13.332  11.837 -26.675  1.00  0.00     0.039 C 
ATOM     16  C   UNL     1     -15.896  12.114 -26.803  1.00  0.00     0.039 C 
BRANCH  13  17
ATOM     17  C   UNL     1     -13.206  11.888 -29.643  1.00  0.00     0.066 CG0
ATOM     18  G   UNL     1     -12.402  13.162 -29.473  1.00  0.00     0.000 G0
ENDBRANCH  13  17
ENDBRANCH  11  13
ENDBRANCH  10  11
ENDBRANCH   1  10
TORSDOF 0
ENDMDL
MODEL 6
REMARK VINA RESULT:    -3.789      1.659      2.372
REMARK INTER + INTRA:          -5.230
REMARK INTER:                  -5.444
REMARK INTRA:                   0.213
REMARK UNBOUND:                 0.109
REMARK SMILES CC1=CCC(=C(C)C)C(=O)CC(C)=CCC1
REMARK SMILES IDX 12 1 14 2 13 3 15 4 16 5 2 6 1 7 3 8 11 10 9 11 10 12 5 13
REMARK SMILES IDX 6 14 7 15 8 16 4 17
REMARK H PARENT
REMARK Flexibility Score: 60.00
ROOT
ATOM      1  C   UNL     1     -14.777  14.923 -31.819  1.00  0.00    -0.070 C 
ATOM      2  C   UNL     1     -13.609  14.849 -32.521  1.00  0.00    -0.027 C 
ATOM      3  C   UNL     1     -15.990  14.287 -32.455  1.00  0.00     0.039 C 
ENDROOT
BRANCH   2   4
ATOM      4  C   UNL     1     -12.197  15.316 -32.184  1.00  0.00     0.032 C 
BRANCH   4   5
ATOM      5  C   UNL     1     -11.567  14.775 -30.896  1.00  0.00     0.034 C 
BRANCH   5   6
ATOM      6  C   UNL     1     -11.812  13.305 -30.526  1.00  0.00    -0.077 C 
ATOM      7  C   UNL     1     -10.929  12.302 -31.236  1.00  0.00     0.039 C 
ATOM      8  C   UNL     1     -12.656  12.784 -29.586  1.00  0.00    -0.023 CG0
ATOM      9  G   UNL     1     -13.632  13.461 -28.644  1.00  0.00     0.000 G0
ENDBRANCH   5   6
ENDBRANCH   4   5
ENDBRANCH   2   4
BRANCH   1  10
ATOM     10  C   UNL     1     -14.986  15.585 -30.466  1.00  0.00     0.111 C 
BRANCH  10  11
ATOM     11  C   UNL     1     -15.682  14.673 -29.501  1.00  0.00     0.163 C 
ATOM     12  O   UNL     1     -16.817  15.002 -29.060  1.00  0.00    -0.294 OA
BRANCH  11  13
ATOM     13  C   UNL     1     -15.070  13.380 -29.102  1.00  0.00    -0.002 C 
ATOM     14  C   UNL     1     -15.766  12.208 -29.181  1.00  0.00    -0.069 C 
ATOM     15  C   UNL     1     -15.115  10.877 -28.878  1.00  0.00     0.039 C 
ATOM     16  C   UNL     1     -17.229  12.192 -29.562  1.00  0.00     0.039 C 
BRANCH  13  17
ATOM     17  C   UNL     1     -13.636  13.442 -28.624  1.00  0.00     0.066 CG0
ATOM     18  G   UNL     1     -12.681  12.786 -29.603  1.00  0.00     0.000 G0
ENDBRANCH  13  17
ENDBRANCH  11  13
ENDBRANCH  10  11
ENDBRANCH   1  10
TORSDOF 0
ENDMDL
MODEL 7
REMARK VINA RESULT:    -3.763      1.355      3.889
REMARK INTER + INTRA:          -5.193
REMARK INTER:                  -5.170
REMARK INTRA:                  -0.023
REMARK UNBOUND:                 0.109
REMARK SMILES CC1=CCC(=C(C)C)C(=O)CC(C)=CCC1
REMARK SMILES IDX 12 1 14 2 13 3 15 4 16 5 2 6 1 7 3 8 11 10 9 11 10 12 5 13
REMARK SMILES IDX 6 14 7 15 8 16 4 17
REMARK H PARENT
REMARK Flexibility Score: 60.00
ROOT
ATOM      1  C   UNL     1     -14.505  15.071 -31.141  1.00  0.00    -0.070 C 
ATOM      2  C   UNL     1     -15.863  15.189 -31.088  1.00  0.00    -0.027 C 
ATOM      3  C   UNL     1     -13.742  16.258 -31.678  1.00  0.00     0.039 C 
ENDROOT
BRANCH   2   4
ATOM      4  C   UNL     1     -16.940  14.245 -30.567  1.00  0.00     0.032 C 
BRANCH   4   5
ATOM      5  C   UNL     1     -16.883  13.864 -29.083  1.00  0.00     0.034 C 
BRANCH   5   6
ATOM      6  C   UNL     1     -16.477  12.430 -28.715  1.00  0.00    -0.077 C 
ATOM      7  C   UNL     1     -17.392  11.342 -29.234  1.00  0.00     0.039 C 
ATOM      8  C   UNL     1     -15.361  11.994 -28.056  1.00  0.00    -0.023 CG0
ATOM      9  G   UNL     1     -14.201  12.762 -27.454  1.00  0.00     0.000 G0
ENDBRANCH   5   6
ENDBRANCH   4   5
ENDBRANCH   2   4
BRANCH   1  10
ATOM     10  C   UNL     1     -13.679  13.864 -30.723  1.00  0.00     0.111 C 
BRANCH  10  11
ATOM     11  C   UNL     1     -13.093  14.036 -29.354  1.00  0.00     0.163 C 
ATOM     12  O   UNL     1     -12.689  15.177 -29.001  1.00  0.00    -0.294 OA
BRANCH  11  13
ATOM     13  C   UNL     1     -13.029  12.894 -28.407  1.00  0.00    -0.002 C 
ATOM     14  C   UNL     1     -11.971  12.031 -28.402  1.00  0.00    -0.069 C 
ATOM     15  C   UNL     1     -11.850  10.932 -27.370  1.00  0.00     0.039 C 
ATOM     16  C   UNL     1     -10.879  12.128 -29.442  1.00  0.00     0.039 C 
BRANCH  13  17
ATOM     17  C   UNL     1     -14.190  12.761 -27.445  1.00  0.00     0.066 CG0
ATOM     18  G   UNL     1     -15.356  12.012 -28.061  1.00  0.00     0.000 G0
ENDBRANCH  13  17
ENDBRANCH  11  13
ENDBRANCH  10  11
ENDBRANCH   1  10
TORSDOF 0
ENDMDL
MODEL 8
REMARK VINA RESULT:    -3.546      2.141      4.285
REMARK INTER + INTRA:          -4.888
REMARK INTER:                  -5.359
REMARK INTRA:                   0.471
REMARK UNBOUND:                 0.109
REMARK SMILES CC1=CCC(=C(C)C)C(=O)CC(C)=CCC1
REMARK SMILES IDX 12 1 14 2 13 3 15 4 16 5 2 6 1 7 3 8 11 10 9 11 10 12 5 13
REMARK SMILES IDX 6 14 7 15 8 16 4 17
REMARK H PARENT
REMARK Flexibility Score: 60.00
ROOT
ATOM      1  C   UNL     1     -15.838  13.153 -28.821  1.00  0.00    -0.070 C 
ATOM      2  C   UNL     1     -15.425  12.003 -28.214  1.00  0.00    -0.027 C 
ATOM      3  C   UNL     1     -17.249  13.605 -28.528  1.00  0.00     0.039 C 
ENDROOT
BRANCH   2   4
ATOM      4  C   UNL     1     -14.082  11.281 -28.224  1.00  0.00     0.032 C 
BRANCH   4   5
ATOM      5  C   UNL     1     -13.065  11.674 -27.146  1.00  0.00     0.034 C 
BRANCH   5   6
ATOM      6  C   UNL     1     -12.163  12.889 -27.404  1.00  0.00    -0.077 C 
ATOM      7  C   UNL     1     -11.746  13.660 -26.171  1.00  0.00     0.039 C 
ATOM      8  C   UNL     1     -11.618  13.320 -28.580  1.00  0.00    -0.023 CG0
ATOM      9  G   UNL     1     -11.745  12.780 -29.991  1.00  0.00     0.000 G0
ENDBRANCH   5   6
ENDBRANCH   4   5
ENDBRANCH   2   4
BRANCH   1  10
ATOM     10  C   UNL     1     -15.028  14.024 -29.768  1.00  0.00     0.111 C 
BRANCH  10  11
ATOM     11  C   UNL     1     -14.152  13.205 -30.668  1.00  0.00     0.163 C 
ATOM     12  O   UNL     1     -14.659  12.240 -31.301  1.00  0.00    -0.294 OA
BRANCH  11  13
ATOM     13  C   UNL     1     -12.718  13.548 -30.850  1.00  0.00    -0.002 C 
ATOM     14  C   UNL     1     -12.324  14.525 -31.720  1.00  0.00    -0.069 C 
ATOM     15  C   UNL     1     -10.878  14.951 -31.830  1.00  0.00     0.039 C 
ATOM     16  C   UNL     1     -13.321  15.213 -32.624  1.00  0.00     0.039 C 
BRANCH  13  17
ATOM     17  C   UNL     1     -11.734  12.767 -30.006  1.00  0.00     0.066 CG0
ATOM     18  G   UNL     1     -11.630  13.320 -28.598  1.00  0.00     0.000 G0
ENDBRANCH  13  17
ENDBRANCH  11  13
ENDBRANCH  10  11
ENDBRANCH   1  10
TORSDOF 0
ENDMDL
MODEL 9
REMARK VINA RESULT:    -3.381      2.044      4.117
REMARK INTER + INTRA:          -4.656
REMARK INTER:                  -5.153
REMARK INTRA:                   0.497
REMARK UNBOUND:                 0.109
REMARK SMILES CC1=CCC(=C(C)C)C(=O)CC(C)=CCC1
REMARK SMILES IDX 12 1 14 2 13 3 15 4 16 5 2 6 1 7 3 8 11 10 9 11 10 12 5 13
REMARK SMILES IDX 6 14 7 15 8 16 4 17
REMARK H PARENT
REMARK Flexibility Score: 60.00
ROOT
ATOM      1  C   UNL     1     -15.412  14.157 -30.916  1.00  0.00    -0.070 C 
ATOM      2  C   UNL     1     -15.724  13.138 -30.065  1.00  0.00    -0.027 C 
ATOM      3  C   UNL     1     -15.707  13.932 -32.380  1.00  0.00     0.039 C 
ENDROOT
BRANCH   2   4
ATOM      4  C   UNL     1     -15.624  13.023 -28.548  1.00  0.00     0.032 C 
BRANCH   4   5
ATOM      5  C   UNL     1     -14.466  12.194 -27.981  1.00  0.00     0.034 C 
BRANCH   5   6
ATOM      6  C   UNL     1     -13.079  12.845 -27.892  1.00  0.00    -0.077 C 
ATOM      7  C   UNL     1     -12.559  13.076 -26.490  1.00  0.00     0.039 C 
ATOM      8  C   UNL     1     -12.215  13.168 -28.900  1.00  0.00    -0.023 CG0
ATOM      9  G   UNL     1     -12.346  13.028 -30.404  1.00  0.00     0.000 G0
ENDBRANCH   5   6
ENDBRANCH   4   5
ENDBRANCH   2   4
BRANCH   1  10
ATOM     10  C   UNL     1     -14.791  15.495 -30.547  1.00  0.00     0.111 C 
BRANCH  10  11
ATOM     11  C   UNL     1     -13.309  15.387 -30.350  1.00  0.00     0.163 C 
ATOM     12  O   UNL     1     -12.747  16.146 -29.515  1.00  0.00    -0.294 OA
BRANCH  11  13
ATOM     13  C   UNL     1     -12.516  14.372 -31.090  1.00  0.00    -0.002 C 
ATOM     14  C   UNL     1     -11.962  14.649 -32.307  1.00  0.00    -0.069 C 
ATOM     15  C   UNL     1     -11.067  13.657 -33.015  1.00  0.00     0.039 C 
ATOM     16  C   UNL     1     -12.236  15.960 -33.009  1.00  0.00     0.039 C 
BRANCH  13  17
ATOM     17  C   UNL     1     -12.349  13.032 -30.408  1.00  0.00     0.066 CG0
ATOM     18  G   UNL     1     -12.217  13.172 -28.904  1.00  0.00     0.000 G0
ENDBRANCH  13  17
ENDBRANCH  11  13
ENDBRANCH  10  11
ENDBRANCH   1  10
TORSDOF 0
ENDMDL
