MODEL 1
REMARK VINA RESULT:    -5.892      0.000      0.000
REMARK INTER + INTRA:          -9.079
REMARK INTER:                  -7.959
REMARK INTRA:                  -1.120
REMARK UNBOUND:                -1.120
REMARK SMILES O=c1c(-c2ccc(O)cc2)coc2c([C@@H]3O[C@H](CO)[C@H](O)[C@H](O)[C@@H]3O)c(O)ccc12
REMARK SMILES IDX 3 1 11 2 12 3 13 4 30 5 2 6 1 7 29 8 28 9 26 10 14 11 4 12
REMARK SMILES IDX 5 13 6 14 7 15 10 16 9 17 8 18 15 20 24 21 16 22 22 23 17 24
REMARK SMILES IDX 20 25 25 26 23 28 18 30 19 31 21 33 27 35
REMARK H PARENT 8 19 25 27 23 29 19 32 21 34 27 36
REMARK Flexibility Score: inf
ROOT
ATOM      1  C   UNL     1      -5.342  91.466 -17.200  1.00  0.00     0.065 A 
ATOM      2  C   UNL     1      -6.093  91.746 -18.373  1.00  0.00     0.208 A 
ATOM      3  O   UNL     1      -5.476  92.002 -19.536  1.00  0.00    -0.463 OA
ATOM      4  C   UNL     1      -4.187  91.777 -19.753  1.00  0.00     0.147 A 
ATOM      5  C   UNL     1      -3.397  91.362 -18.632  1.00  0.00     0.066 A 
ATOM      6  C   UNL     1      -3.951  91.496 -17.356  1.00  0.00     0.200 A 
ATOM      7  O   UNL     1      -3.205  91.831 -16.373  1.00  0.00    -0.288 OA
ATOM      8  C   UNL     1      -2.224  90.631 -18.821  1.00  0.00     0.020 A 
ATOM      9  C   UNL     1      -1.875  90.265 -20.084  1.00  0.00     0.047 A 
ATOM     10  C   UNL     1      -2.483  90.893 -21.211  1.00  0.00     0.125 A 
ATOM     11  C   UNL     1      -3.535  91.849 -21.038  1.00  0.00     0.069 A 
ENDROOT
BRANCH   1  12
ATOM     12  C   UNL     1      -5.914  91.056 -15.862  1.00  0.00    -0.011 A 
ATOM     13  C   UNL     1      -7.013  91.820 -15.327  1.00  0.00     0.013 A 
ATOM     14  C   UNL     1      -7.676  91.410 -14.173  1.00  0.00     0.047 A 
ATOM     15  C   UNL     1      -7.335  90.219 -13.517  1.00  0.00     0.115 A 
ATOM     16  C   UNL     1      -5.670  89.799 -15.250  1.00  0.00     0.013 A 
ATOM     17  C   UNL     1      -6.374  89.390 -14.085  1.00  0.00     0.047 A 
BRANCH  15  18
ATOM     18  O   UNL     1      -8.083  89.795 -12.401  1.00  0.00    -0.508 OA
ATOM     19  H   UNL     1      -7.611  89.554 -11.534  1.00  0.00     0.293 HD
ENDBRANCH  15  18
ENDBRANCH   1  12
BRANCH  11  20
ATOM     20  C   UNL     1      -3.982  92.909 -22.138  1.00  0.00     0.188 C 
ATOM     21  C   UNL     1      -3.269  94.285 -22.056  1.00  0.00     0.179 C 
ATOM     22  O   UNL     1      -3.705  92.422 -23.421  1.00  0.00    -0.362 OA
ATOM     23  C   UNL     1      -4.115  95.299 -22.882  1.00  0.00     0.177 C 
ATOM     24  C   UNL     1      -4.392  93.095 -24.479  1.00  0.00     0.176 C 
ATOM     25  C   UNL     1      -4.527  94.699 -24.320  1.00  0.00     0.177 C 
BRANCH  21  26
ATOM     26  O   UNL     1      -1.976  94.161 -22.608  1.00  0.00    -0.387 OA
ATOM     27  H   UNL     1      -1.309  94.474 -21.936  1.00  0.00     0.211 HD
ENDBRANCH  21  26
BRANCH  23  28
ATOM     28  O   UNL     1      -3.469  96.581 -23.027  1.00  0.00    -0.387 OA
ATOM     29  H   UNL     1      -4.118  97.331 -22.777  1.00  0.00     0.211 HD
ENDBRANCH  23  28
BRANCH  24  30
ATOM     30  C   UNL     1      -3.648  92.648 -25.758  1.00  0.00     0.191 C 
BRANCH  30  31
ATOM     31  O   UNL     1      -2.658  91.674 -25.504  1.00  0.00    -0.394 OA
ATOM     32  H   UNL     1      -2.965  90.874 -26.045  1.00  0.00     0.210 HD
ENDBRANCH  30  31
ENDBRANCH  24  30
BRANCH  25  33
ATOM     33  O   UNL     1      -3.986  95.385 -25.454  1.00  0.00    -0.388 OA
ATOM     34  H   UNL     1      -3.452  96.155 -25.100  1.00  0.00     0.211 HD
ENDBRANCH  25  33
ENDBRANCH  11  20
BRANCH  10  35
ATOM     35  O   UNL     1      -1.993  90.531 -22.469  1.00  0.00    -0.507 OA
ATOM     36  H   UNL     1      -1.528  89.621 -22.560  1.00  0.00     0.293 HD
ENDBRANCH  10  35
TORSDOF 9
ENDMDL
MODEL 2
REMARK VINA RESULT:    -5.809     13.689     16.603
REMARK INTER + INTRA:          -8.967
REMARK INTER:                  -7.751
REMARK INTRA:                  -1.216
REMARK UNBOUND:                -1.120
REMARK SMILES O=c1c(-c2ccc(O)cc2)coc2c([C@@H]3O[C@H](CO)[C@H](O)[C@H](O)[C@@H]3O)c(O)ccc12
REMARK SMILES IDX 3 1 11 2 12 3 13 4 30 5 2 6 1 7 29 8 28 9 26 10 14 11 4 12
REMARK SMILES IDX 5 13 6 14 7 15 10 16 9 17 8 18 15 20 24 21 16 22 22 23 17 24
REMARK SMILES IDX 20 25 25 26 23 28 18 30 19 31 21 33 27 35
REMARK H PARENT 8 19 25 27 23 29 19 32 21 34 27 36
REMARK Flexibility Score: inf
ROOT
ATOM      1  C   UNL     1     -11.961  81.402  -7.916  1.00  0.00     0.065 A 
ATOM      2  C   UNL     1     -10.743  81.214  -7.208  1.00  0.00     0.208 A 
ATOM      3  O   UNL     1      -9.679  81.993  -7.458  1.00  0.00    -0.463 OA
ATOM      4  C   UNL     1      -9.735  83.116  -8.161  1.00  0.00     0.147 A 
ATOM      5  C   UNL     1     -10.982  83.431  -8.794  1.00  0.00     0.066 A 
ATOM      6  C   UNL     1     -11.948  82.424  -8.874  1.00  0.00     0.200 A 
ATOM      7  O   UNL     1     -12.688  82.335  -9.912  1.00  0.00    -0.288 OA
ATOM      8  C   UNL     1     -11.310  84.752  -9.101  1.00  0.00     0.020 A 
ATOM      9  C   UNL     1     -10.454  85.743  -8.733  1.00  0.00     0.047 A 
ATOM     10  C   UNL     1      -9.112  85.436  -8.362  1.00  0.00     0.125 A 
ATOM     11  C   UNL     1      -8.666  84.078  -8.280  1.00  0.00     0.069 A 
ENDROOT
BRANCH   1  12
ATOM     12  C   UNL     1     -13.256  80.668  -7.654  1.00  0.00    -0.011 A 
ATOM     13  C   UNL     1     -13.188  79.345  -7.089  1.00  0.00     0.013 A 
ATOM     14  C   UNL     1     -14.343  78.674  -6.691  1.00  0.00     0.047 A 
ATOM     15  C   UNL     1     -15.605  79.277  -6.781  1.00  0.00     0.115 A 
ATOM     16  C   UNL     1     -14.528  81.298  -7.621  1.00  0.00     0.013 A 
ATOM     17  C   UNL     1     -15.691  80.602  -7.191  1.00  0.00     0.047 A 
BRANCH  15  18
ATOM     18  O   UNL     1     -16.740  78.600  -6.292  1.00  0.00    -0.508 OA
ATOM     19  H   UNL     1     -16.876  77.616  -6.504  1.00  0.00     0.293 HD
ENDBRANCH  15  18
ENDBRANCH   1  12
BRANCH  11  20
ATOM     20  C   UNL     1      -7.141  83.623  -8.307  1.00  0.00     0.188 C 
ATOM     21  C   UNL     1      -6.471  83.646  -9.708  1.00  0.00     0.179 C 
ATOM     22  O   UNL     1      -6.367  84.477  -7.511  1.00  0.00    -0.362 OA
ATOM     23  C   UNL     1      -5.179  82.780  -9.620  1.00  0.00     0.177 C 
ATOM     24  C   UNL     1      -5.082  83.961  -7.154  1.00  0.00     0.176 C 
ATOM     25  C   UNL     1      -4.308  83.142  -8.313  1.00  0.00     0.177 C 
BRANCH  21  26
ATOM     26  O   UNL     1      -6.148  84.979 -10.036  1.00  0.00    -0.387 OA
ATOM     27  H   UNL     1      -6.315  85.120 -11.009  1.00  0.00     0.211 HD
ENDBRANCH  21  26
BRANCH  23  28
ATOM     28  O   UNL     1      -4.371  82.857 -10.814  1.00  0.00    -0.387 OA
ATOM     29  H   UNL     1      -3.387  82.972 -10.563  1.00  0.00     0.211 HD
ENDBRANCH  23  28
BRANCH  24  30
ATOM     30  C   UNL     1      -4.312  85.195  -6.631  1.00  0.00     0.191 C 
BRANCH  30  31
ATOM     31  O   UNL     1      -4.204  86.222  -7.594  1.00  0.00    -0.394 OA
ATOM     32  H   UNL     1      -5.139  86.287  -7.981  1.00  0.00     0.210 HD
ENDBRANCH  30  31
ENDBRANCH  24  30
BRANCH  25  33
ATOM     33  O   UNL     1      -3.012  83.694  -8.569  1.00  0.00    -0.388 OA
ATOM     34  H   UNL     1      -2.728  83.366  -9.471  1.00  0.00     0.211 HD
ENDBRANCH  25  33
ENDBRANCH  11  20
BRANCH  10  35
ATOM     35  O   UNL     1      -8.272  86.522  -8.098  1.00  0.00    -0.507 OA
ATOM     36  H   UNL     1      -8.706  87.407  -7.814  1.00  0.00     0.293 HD
ENDBRANCH  10  35
TORSDOF 9
ENDMDL
MODEL 3
REMARK VINA RESULT:    -5.700      2.228      4.346
REMARK INTER + INTRA:          -8.819
REMARK INTER:                  -7.642
REMARK INTRA:                  -1.177
REMARK UNBOUND:                -1.120
REMARK SMILES O=c1c(-c2ccc(O)cc2)coc2c([C@@H]3O[C@H](CO)[C@H](O)[C@H](O)[C@@H]3O)c(O)ccc12
REMARK SMILES IDX 3 1 11 2 12 3 13 4 30 5 2 6 1 7 29 8 28 9 26 10 14 11 4 12
REMARK SMILES IDX 5 13 6 14 7 15 10 16 9 17 8 18 15 20 24 21 16 22 22 23 17 24
REMARK SMILES IDX 20 25 25 26 23 28 18 30 19 31 21 33 27 35
REMARK H PARENT 8 19 25 27 23 29 19 32 21 34 27 36
REMARK Flexibility Score: inf
ROOT
ATOM      1  C   UNL     1      -4.973  90.988 -14.438  1.00  0.00     0.065 A 
ATOM      2  C   UNL     1      -3.709  90.929 -15.085  1.00  0.00     0.208 A 
ATOM      3  O   UNL     1      -3.496  91.587 -16.235  1.00  0.00    -0.463 OA
ATOM      4  C   UNL     1      -4.314  92.513 -16.717  1.00  0.00     0.147 A 
ATOM      5  C   UNL     1      -5.555  92.715 -16.028  1.00  0.00     0.066 A 
ATOM      6  C   UNL     1      -5.947  91.753 -15.092  1.00  0.00     0.200 A 
ATOM      7  O   UNL     1      -7.182  91.449 -14.975  1.00  0.00    -0.288 OA
ATOM      8  C   UNL     1      -6.223  93.936 -16.110  1.00  0.00     0.020 A 
ATOM      9  C   UNL     1      -5.647  94.954 -16.804  1.00  0.00     0.047 A 
ATOM     10  C   UNL     1      -4.576  94.695 -17.709  1.00  0.00     0.125 A 
ATOM     11  C   UNL     1      -4.025  93.380 -17.834  1.00  0.00     0.069 A 
ENDROOT
BRANCH   1  12
ATOM     12  C   UNL     1      -5.305  90.386 -13.092  1.00  0.00    -0.011 A 
ATOM     13  C   UNL     1      -5.244  91.237 -11.931  1.00  0.00     0.013 A 
ATOM     14  C   UNL     1      -5.675  90.783 -10.686  1.00  0.00     0.047 A 
ATOM     15  C   UNL     1      -6.226  89.504 -10.525  1.00  0.00     0.115 A 
ATOM     16  C   UNL     1      -5.976  89.146 -12.925  1.00  0.00     0.013 A 
ATOM     17  C   UNL     1      -6.427  88.712 -11.649  1.00  0.00     0.047 A 
BRANCH  15  18
ATOM     18  O   UNL     1      -6.728  89.111  -9.268  1.00  0.00    -0.508 OA
ATOM     19  H   UNL     1      -6.882  88.128  -9.067  1.00  0.00     0.293 HD
ENDBRANCH  15  18
ENDBRANCH   1  12
BRANCH  11  20
ATOM     20  C   UNL     1      -3.160  92.875 -19.072  1.00  0.00     0.188 C 
ATOM     21  C   UNL     1      -3.330  91.374 -19.427  1.00  0.00     0.179 C 
ATOM     22  O   UNL     1      -3.520  93.575 -20.230  1.00  0.00    -0.362 OA
ATOM     23  C   UNL     1      -2.127  90.969 -20.330  1.00  0.00     0.177 C 
ATOM     24  C   UNL     1      -2.576  93.488 -21.300  1.00  0.00     0.176 C 
ATOM     25  C   UNL     1      -1.878  92.044 -21.506  1.00  0.00     0.177 C 
BRANCH  21  26
ATOM     26  O   UNL     1      -4.545  91.205 -20.123  1.00  0.00    -0.387 OA
ATOM     27  H   UNL     1      -5.244  90.899 -19.481  1.00  0.00     0.211 HD
ENDBRANCH  21  26
BRANCH  23  28
ATOM     28  O   UNL     1      -2.255  89.637 -20.870  1.00  0.00    -0.387 OA
ATOM     29  H   UNL     1      -3.206  89.488 -21.212  1.00  0.00     0.211 HD
ENDBRANCH  23  28
BRANCH  24  30
ATOM     30  C   UNL     1      -3.355  93.994 -22.535  1.00  0.00     0.191 C 
BRANCH  30  31
ATOM     31  O   UNL     1      -4.486  93.203 -22.831  1.00  0.00    -0.394 OA
ATOM     32  H   UNL     1      -4.180  92.626 -23.606  1.00  0.00     0.210 HD
ENDBRANCH  30  31
ENDBRANCH  24  30
BRANCH  25  33
ATOM     33  O   UNL     1      -2.066  91.556 -22.838  1.00  0.00    -0.388 OA
ATOM     34  H   UNL     1      -2.585  92.254 -23.334  1.00  0.00     0.211 HD
ENDBRANCH  25  33
ENDBRANCH  11  20
BRANCH  10  35
ATOM     35  O   UNL     1      -4.111  95.781 -18.456  1.00  0.00    -0.507 OA
ATOM     36  H   UNL     1      -3.099  95.947 -18.484  1.00  0.00     0.293 HD
ENDBRANCH  10  35
TORSDOF 9
ENDMDL
MODEL 4
REMARK VINA RESULT:    -5.678      4.462     12.308
REMARK INTER + INTRA:          -8.789
REMARK INTER:                  -7.379
REMARK INTRA:                  -1.410
REMARK UNBOUND:                -1.120
REMARK SMILES O=c1c(-c2ccc(O)cc2)coc2c([C@@H]3O[C@H](CO)[C@H](O)[C@H](O)[C@@H]3O)c(O)ccc12
REMARK SMILES IDX 3 1 11 2 12 3 13 4 30 5 2 6 1 7 29 8 28 9 26 10 14 11 4 12
REMARK SMILES IDX 5 13 6 14 7 15 10 16 9 17 8 18 15 20 24 21 16 22 22 23 17 24
REMARK SMILES IDX 20 25 25 26 23 28 18 30 19 31 21 33 27 35
REMARK H PARENT 8 19 25 27 23 29 19 32 21 34 27 36
REMARK Flexibility Score: inf
ROOT
ATOM      1  C   UNL     1      -6.149  90.325 -14.335  1.00  0.00     0.065 A 
ATOM      2  C   UNL     1      -7.015  89.227 -14.081  1.00  0.00     0.208 A 
ATOM      3  O   UNL     1      -6.965  88.572 -12.912  1.00  0.00    -0.463 OA
ATOM      4  C   UNL     1      -6.323  89.020 -11.841  1.00  0.00     0.147 A 
ATOM      5  C   UNL     1      -5.534  90.206 -12.000  1.00  0.00     0.066 A 
ATOM      6  C   UNL     1      -5.260  90.640 -13.300  1.00  0.00     0.200 A 
ATOM      7  O   UNL     1      -4.122  91.155 -13.570  1.00  0.00    -0.288 OA
ATOM      8  C   UNL     1      -5.254  91.026 -10.906  1.00  0.00     0.020 A 
ATOM      9  C   UNL     1      -5.796  90.715  -9.698  1.00  0.00     0.047 A 
ATOM     10  C   UNL     1      -6.340  89.418  -9.463  1.00  0.00     0.125 A 
ATOM     11  C   UNL     1      -6.413  88.452 -10.518  1.00  0.00     0.069 A 
ENDROOT
BRANCH   1  12
ATOM     12  C   UNL     1      -6.180  91.209 -15.561  1.00  0.00    -0.011 A 
ATOM     13  C   UNL     1      -5.623  90.695 -16.786  1.00  0.00     0.013 A 
ATOM     14  C   UNL     1      -5.748  91.400 -17.982  1.00  0.00     0.047 A 
ATOM     15  C   UNL     1      -6.459  92.606 -18.048  1.00  0.00     0.115 A 
ATOM     16  C   UNL     1      -6.994  92.366 -15.680  1.00  0.00     0.013 A 
ATOM     17  C   UNL     1      -7.126  93.057 -16.915  1.00  0.00     0.047 A 
BRANCH  15  18
ATOM     18  O   UNL     1      -6.635  93.247 -19.290  1.00  0.00    -0.508 OA
ATOM     19  H   UNL     1      -7.323  93.989 -19.387  1.00  0.00     0.293 HD
ENDBRANCH  15  18
ENDBRANCH   1  12
BRANCH  11  20
ATOM     20  C   UNL     1      -6.583  86.884 -10.298  1.00  0.00     0.188 C 
ATOM     21  C   UNL     1      -5.293  86.135  -9.870  1.00  0.00     0.179 C 
ATOM     22  O   UNL     1      -7.512  86.636  -9.281  1.00  0.00    -0.362 OA
ATOM     23  C   UNL     1      -5.527  84.617 -10.130  1.00  0.00     0.177 C 
ATOM     24  C   UNL     1      -8.026  85.303  -9.251  1.00  0.00     0.176 C 
ATOM     25  C   UNL     1      -6.957  84.131  -9.566  1.00  0.00     0.177 C 
BRANCH  21  26
ATOM     26  O   UNL     1      -5.065  86.369  -8.498  1.00  0.00    -0.387 OA
ATOM     27  H   UNL     1      -4.677  87.281  -8.387  1.00  0.00     0.211 HD
ENDBRANCH  21  26
BRANCH  23  28
ATOM     28  O   UNL     1      -4.463  83.789  -9.615  1.00  0.00    -0.387 OA
ATOM     29  H   UNL     1      -4.424  82.908 -10.131  1.00  0.00     0.211 HD
ENDBRANCH  23  28
BRANCH  24  30
ATOM     30  C   UNL     1      -8.699  85.187  -7.865  1.00  0.00     0.191 C 
BRANCH  30  31
ATOM     31  O   UNL     1      -7.812  85.459  -6.801  1.00  0.00    -0.394 OA
ATOM     32  H   UNL     1      -6.898  85.436  -7.238  1.00  0.00     0.210 HD
ENDBRANCH  30  31
ENDBRANCH  24  30
BRANCH  25  33
ATOM     33  O   UNL     1      -6.907  83.168  -8.507  1.00  0.00    -0.388 OA
ATOM     34  H   UNL     1      -6.491  82.340  -8.885  1.00  0.00     0.211 HD
ENDBRANCH  25  33
ENDBRANCH  11  20
BRANCH  10  35
ATOM     35  O   UNL     1      -6.782  89.150  -8.165  1.00  0.00    -0.507 OA
ATOM     36  H   UNL     1      -7.792  89.186  -7.984  1.00  0.00     0.293 HD
ENDBRANCH  10  35
TORSDOF 9
ENDMDL
MODEL 5
REMARK VINA RESULT:    -5.652      8.106     12.595
REMARK INTER + INTRA:          -8.754
REMARK INTER:                  -7.280
REMARK INTRA:                  -1.474
REMARK UNBOUND:                -1.120
REMARK SMILES O=c1c(-c2ccc(O)cc2)coc2c([C@@H]3O[C@H](CO)[C@H](O)[C@H](O)[C@@H]3O)c(O)ccc12
REMARK SMILES IDX 3 1 11 2 12 3 13 4 30 5 2 6 1 7 29 8 28 9 26 10 14 11 4 12
REMARK SMILES IDX 5 13 6 14 7 15 10 16 9 17 8 18 15 20 24 21 16 22 22 23 17 24
REMARK SMILES IDX 20 25 25 26 23 28 18 30 19 31 21 33 27 35
REMARK H PARENT 8 19 25 27 23 29 19 32 21 34 27 36
REMARK Flexibility Score: inf
ROOT
ATOM      1  C   UNL     1      -4.989  83.983  -8.747  1.00  0.00     0.065 A 
ATOM      2  C   UNL     1      -4.308  85.217  -8.924  1.00  0.00     0.208 A 
ATOM      3  O   UNL     1      -4.932  86.271  -9.473  1.00  0.00    -0.463 OA
ATOM      4  C   UNL     1      -6.244  86.340  -9.654  1.00  0.00     0.147 A 
ATOM      5  C   UNL     1      -7.008  85.162  -9.365  1.00  0.00     0.066 A 
ATOM      6  C   UNL     1      -6.316  83.959  -9.194  1.00  0.00     0.200 A 
ATOM      7  O   UNL     1      -6.827  82.868  -9.621  1.00  0.00    -0.288 OA
ATOM      8  C   UNL     1      -8.359  85.255  -9.028  1.00  0.00     0.020 A 
ATOM      9  C   UNL     1      -8.923  86.487  -8.918  1.00  0.00     0.047 A 
ATOM     10  C   UNL     1      -8.270  87.632  -9.462  1.00  0.00     0.125 A 
ATOM     11  C   UNL     1      -6.969  87.523 -10.049  1.00  0.00     0.069 A 
ENDROOT
BRANCH   1  12
ATOM     12  C   UNL     1      -4.437  82.762  -8.047  1.00  0.00    -0.011 A 
ATOM     13  C   UNL     1      -3.316  82.082  -8.645  1.00  0.00     0.013 A 
ATOM     14  C   UNL     1      -2.671  81.041  -7.981  1.00  0.00     0.047 A 
ATOM     15  C   UNL     1      -3.055  80.648  -6.691  1.00  0.00     0.115 A 
ATOM     16  C   UNL     1      -4.725  82.427  -6.698  1.00  0.00     0.013 A 
ATOM     17  C   UNL     1      -4.039  81.375  -6.031  1.00  0.00     0.047 A 
BRANCH  15  18
ATOM     18  O   UNL     1      -2.326  79.648  -6.018  1.00  0.00    -0.508 OA
ATOM     19  H   UNL     1      -1.768  79.887  -5.203  1.00  0.00     0.293 HD
ENDBRANCH  15  18
ENDBRANCH   1  12
BRANCH  11  20
ATOM     20  C   UNL     1      -6.335  88.588 -11.048  1.00  0.00     0.188 C 
ATOM     21  C   UNL     1      -7.052  88.713 -12.420  1.00  0.00     0.179 C 
ATOM     22  O   UNL     1      -6.385  89.869 -10.485  1.00  0.00    -0.362 OA
ATOM     23  C   UNL     1      -6.073  89.436 -13.393  1.00  0.00     0.177 C 
ATOM     24  C   UNL     1      -5.524  90.829 -11.102  1.00  0.00     0.176 C 
ATOM     25  C   UNL     1      -5.417  90.743 -12.713  1.00  0.00     0.177 C 
BRANCH  21  26
ATOM     26  O   UNL     1      -8.228  89.473 -12.252  1.00  0.00    -0.387 OA
ATOM     27  H   UNL     1      -8.368  89.637 -11.278  1.00  0.00     0.211 HD
ENDBRANCH  21  26
BRANCH  23  28
ATOM     28  O   UNL     1      -6.683  89.767 -14.658  1.00  0.00    -0.387 OA
ATOM     29  H   UNL     1      -7.304  90.571 -14.548  1.00  0.00     0.211 HD
ENDBRANCH  23  28
BRANCH  24  30
ATOM     30  C   UNL     1      -6.033  92.189 -10.575  1.00  0.00     0.191 C 
BRANCH  30  31
ATOM     31  O   UNL     1      -7.393  92.420 -10.878  1.00  0.00    -0.394 OA
ATOM     32  H   UNL     1      -7.505  92.015 -11.800  1.00  0.00     0.210 HD
ENDBRANCH  30  31
ENDBRANCH  24  30
BRANCH  25  33
ATOM     33  O   UNL     1      -5.752  91.992 -13.328  1.00  0.00    -0.388 OA
ATOM     34  H   UNL     1      -4.992  92.231 -13.934  1.00  0.00     0.211 HD
ENDBRANCH  25  33
ENDBRANCH  11  20
BRANCH  10  35
ATOM     35  O   UNL     1      -8.967  88.842  -9.395  1.00  0.00    -0.507 OA
ATOM     36  H   UNL     1      -9.868  88.904  -9.882  1.00  0.00     0.293 HD
ENDBRANCH  10  35
TORSDOF 9
ENDMDL
MODEL 6
REMARK VINA RESULT:    -5.631      3.330     11.526
REMARK INTER + INTRA:          -8.726
REMARK INTER:                  -7.366
REMARK INTRA:                  -1.360
REMARK UNBOUND:                -1.120
REMARK SMILES O=c1c(-c2ccc(O)cc2)coc2c([C@@H]3O[C@H](CO)[C@H](O)[C@H](O)[C@@H]3O)c(O)ccc12
REMARK SMILES IDX 3 1 11 2 12 3 13 4 30 5 2 6 1 7 29 8 28 9 26 10 14 11 4 12
REMARK SMILES IDX 5 13 6 14 7 15 10 16 9 17 8 18 15 20 24 21 16 22 22 23 17 24
REMARK SMILES IDX 20 25 25 26 23 28 18 30 19 31 21 33 27 35
REMARK H PARENT 8 19 25 27 23 29 19 32 21 34 27 36
REMARK Flexibility Score: inf
ROOT
ATOM      1  C   UNL     1      -5.539  90.741 -15.653  1.00  0.00     0.065 A 
ATOM      2  C   UNL     1      -5.090  89.528 -15.066  1.00  0.00     0.208 A 
ATOM      3  O   UNL     1      -5.622  89.085 -13.916  1.00  0.00    -0.463 OA
ATOM      4  C   UNL     1      -6.734  89.572 -13.381  1.00  0.00     0.147 A 
ATOM      5  C   UNL     1      -7.313  90.723 -14.010  1.00  0.00     0.066 A 
ATOM      6  C   UNL     1      -6.538  91.419 -14.943  1.00  0.00     0.200 A 
ATOM      7  O   UNL     1      -6.616  92.693 -15.008  1.00  0.00    -0.288 OA
ATOM      8  C   UNL     1      -8.675  90.996 -13.877  1.00  0.00     0.020 A 
ATOM      9  C   UNL     1      -9.456  90.117 -13.193  1.00  0.00     0.047 A 
ATOM     10  C   UNL     1      -8.865  89.137 -12.343  1.00  0.00     0.125 A 
ATOM     11  C   UNL     1      -7.443  88.996 -12.265  1.00  0.00     0.069 A 
ENDROOT
BRANCH   1  12
ATOM     12  C   UNL     1      -5.102  91.289 -16.992  1.00  0.00    -0.011 A 
ATOM     13  C   UNL     1      -3.693  91.306 -17.294  1.00  0.00     0.013 A 
ATOM     14  C   UNL     1      -3.235  91.663 -18.561  1.00  0.00     0.047 A 
ATOM     15  C   UNL     1      -4.125  91.971 -19.599  1.00  0.00     0.115 A 
ATOM     16  C   UNL     1      -5.979  91.487 -18.090  1.00  0.00     0.013 A 
ATOM     17  C   UNL     1      -5.490  91.829 -19.380  1.00  0.00     0.047 A 
BRANCH  15  18
ATOM     18  O   UNL     1      -3.628  92.246 -20.889  1.00  0.00    -0.508 OA
ATOM     19  H   UNL     1      -3.650  91.527 -21.606  1.00  0.00     0.293 HD
ENDBRANCH  15  18
ENDBRANCH   1  12
BRANCH  11  20
ATOM     20  C   UNL     1      -6.669  88.272 -11.076  1.00  0.00     0.188 C 
ATOM     21  C   UNL     1      -6.793  88.963  -9.692  1.00  0.00     0.179 C 
ATOM     22  O   UNL     1      -7.170  86.977 -10.891  1.00  0.00    -0.362 OA
ATOM     23  C   UNL     1      -5.658  88.399  -8.786  1.00  0.00     0.177 C 
ATOM     24  C   UNL     1      -6.324  86.111 -10.131  1.00  0.00     0.176 C 
ATOM     25  C   UNL     1      -5.574  86.792  -8.871  1.00  0.00     0.177 C 
BRANCH  21  26
ATOM     26  O   UNL     1      -8.056  88.660  -9.142  1.00  0.00    -0.387 OA
ATOM     27  H   UNL     1      -8.333  89.407  -8.542  1.00  0.00     0.211 HD
ENDBRANCH  21  26
BRANCH  23  28
ATOM     28  O   UNL     1      -5.765  88.837  -7.415  1.00  0.00    -0.387 OA
ATOM     29  H   UNL     1      -6.277  88.144  -6.866  1.00  0.00     0.211 HD
ENDBRANCH  23  28
BRANCH  24  30
ATOM     30  C   UNL     1      -7.238  84.923  -9.755  1.00  0.00     0.191 C 
BRANCH  30  31
ATOM     31  O   UNL     1      -8.515  85.333  -9.313  1.00  0.00    -0.394 OA
ATOM     32  H   UNL     1      -9.120  84.568  -9.587  1.00  0.00     0.210 HD
ENDBRANCH  30  31
ENDBRANCH  24  30
BRANCH  25  33
ATOM     33  O   UNL     1      -5.857  86.094  -7.653  1.00  0.00    -0.388 OA
ATOM     34  H   UNL     1      -4.989  85.724  -7.320  1.00  0.00     0.211 HD
ENDBRANCH  25  33
ENDBRANCH  11  20
BRANCH  10  35
ATOM     35  O   UNL     1      -9.743  88.343 -11.599  1.00  0.00    -0.507 OA
ATOM     36  H   UNL     1     -10.727  88.630 -11.550  1.00  0.00     0.293 HD
ENDBRANCH  10  35
TORSDOF 9
ENDMDL
MODEL 7
REMARK VINA RESULT:    -5.600      6.450     10.017
REMARK INTER + INTRA:          -8.684
REMARK INTER:                  -7.480
REMARK INTRA:                  -1.204
REMARK UNBOUND:                -1.120
REMARK SMILES O=c1c(-c2ccc(O)cc2)coc2c([C@@H]3O[C@H](CO)[C@H](O)[C@H](O)[C@@H]3O)c(O)ccc12
REMARK SMILES IDX 3 1 11 2 12 3 13 4 30 5 2 6 1 7 29 8 28 9 26 10 14 11 4 12
REMARK SMILES IDX 5 13 6 14 7 15 10 16 9 17 8 18 15 20 24 21 16 22 22 23 17 24
REMARK SMILES IDX 20 25 25 26 23 28 18 30 19 31 21 33 27 35
REMARK H PARENT 8 19 25 27 23 29 19 32 21 34 27 36
REMARK Flexibility Score: inf
ROOT
ATOM      1  C   UNL     1     -11.666  88.818 -11.449  1.00  0.00     0.065 A 
ATOM      2  C   UNL     1     -10.307  88.827 -11.035  1.00  0.00     0.208 A 
ATOM      3  O   UNL     1      -9.373  89.458 -11.763  1.00  0.00    -0.463 OA
ATOM      4  C   UNL     1      -9.651  90.306 -12.744  1.00  0.00     0.147 A 
ATOM      5  C   UNL     1     -11.027  90.442 -13.122  1.00  0.00     0.066 A 
ATOM      6  C   UNL     1     -11.933  89.488 -12.649  1.00  0.00     0.200 A 
ATOM      7  O   UNL     1     -12.894  89.101 -13.397  1.00  0.00    -0.288 OA
ATOM      8  C   UNL     1     -11.484  91.609 -13.735  1.00  0.00     0.020 A 
ATOM      9  C   UNL     1     -10.615  92.641 -13.911  1.00  0.00     0.047 A 
ATOM     10  C   UNL     1      -9.210  92.427 -13.800  1.00  0.00     0.125 A 
ATOM     11  C   UNL     1      -8.691  91.151 -13.411  1.00  0.00     0.069 A 
ENDROOT
BRANCH   1  12
ATOM     12  C   UNL     1     -12.824  88.241 -10.667  1.00  0.00    -0.011 A 
ATOM     13  C   UNL     1     -14.021  89.032 -10.537  1.00  0.00     0.013 A 
ATOM     14  C   UNL     1     -15.171  88.503  -9.954  1.00  0.00     0.047 A 
ATOM     15  C   UNL     1     -15.222  87.172  -9.517  1.00  0.00     0.115 A 
ATOM     16  C   UNL     1     -12.942  86.867 -10.327  1.00  0.00     0.013 A 
ATOM     17  C   UNL     1     -14.132  86.343  -9.754  1.00  0.00     0.047 A 
BRANCH  15  18
ATOM     18  O   UNL     1     -16.428  86.648  -9.009  1.00  0.00    -0.508 OA
ATOM     19  H   UNL     1     -16.409  85.969  -8.254  1.00  0.00     0.293 HD
ENDBRANCH  15  18
ENDBRANCH   1  12
BRANCH  11  20
ATOM     20  C   UNL     1      -7.195  90.667 -13.665  1.00  0.00     0.188 C 
ATOM     21  C   UNL     1      -6.762  90.619 -15.154  1.00  0.00     0.179 C 
ATOM     22  O   UNL     1      -6.293  91.539 -13.043  1.00  0.00    -0.362 OA
ATOM     23  C   UNL     1      -5.483  89.733 -15.239  1.00  0.00     0.177 C 
ATOM     24  C   UNL     1      -4.973  91.015 -12.876  1.00  0.00     0.176 C 
ATOM     25  C   UNL     1      -4.407  90.134 -14.107  1.00  0.00     0.177 C 
BRANCH  21  26
ATOM     26  O   UNL     1      -6.480  91.931 -15.589  1.00  0.00    -0.387 OA
ATOM     27  H   UNL     1      -5.924  91.883 -16.416  1.00  0.00     0.211 HD
ENDBRANCH  21  26
BRANCH  23  28
ATOM     28  O   UNL     1      -4.879  89.746 -16.549  1.00  0.00    -0.387 OA
ATOM     29  H   UNL     1      -5.146  88.906 -17.066  1.00  0.00     0.211 HD
ENDBRANCH  23  28
BRANCH  24  30
ATOM     30  C   UNL     1      -4.114  92.255 -12.539  1.00  0.00     0.191 C 
BRANCH  30  31
ATOM     31  O   UNL     1      -4.128  93.226 -13.565  1.00  0.00    -0.394 OA
ATOM     32  H   UNL     1      -4.408  94.075 -13.087  1.00  0.00     0.210 HD
ENDBRANCH  30  31
ENDBRANCH  24  30
BRANCH  25  33
ATOM     33  O   UNL     1      -3.163  90.650 -14.594  1.00  0.00    -0.388 OA
ATOM     34  H   UNL     1      -3.179  91.639 -14.440  1.00  0.00     0.211 HD
ENDBRANCH  25  33
ENDBRANCH  11  20
BRANCH  10  35
ATOM     35  O   UNL     1      -8.386  93.517 -14.097  1.00  0.00    -0.507 OA
ATOM     36  H   UNL     1      -8.169  94.175 -13.340  1.00  0.00     0.293 HD
ENDBRANCH  10  35
TORSDOF 9
ENDMDL
MODEL 8
REMARK VINA RESULT:    -5.556      7.854     12.380
REMARK INTER + INTRA:          -8.624
REMARK INTER:                  -7.474
REMARK INTRA:                  -1.150
REMARK UNBOUND:                -1.120
REMARK SMILES O=c1c(-c2ccc(O)cc2)coc2c([C@@H]3O[C@H](CO)[C@H](O)[C@H](O)[C@@H]3O)c(O)ccc12
REMARK SMILES IDX 3 1 11 2 12 3 13 4 30 5 2 6 1 7 29 8 28 9 26 10 14 11 4 12
REMARK SMILES IDX 5 13 6 14 7 15 10 16 9 17 8 18 15 20 24 21 16 22 22 23 17 24
REMARK SMILES IDX 20 25 25 26 23 28 18 30 19 31 21 33 27 35
REMARK H PARENT 8 19 25 27 23 29 19 32 21 34 27 36
REMARK Flexibility Score: inf
ROOT
ATOM      1  C   UNL     1      -5.173  84.520  -8.915  1.00  0.00     0.065 A 
ATOM      2  C   UNL     1      -4.769  85.873  -9.080  1.00  0.00     0.208 A 
ATOM      3  O   UNL     1      -5.632  86.794  -9.535  1.00  0.00    -0.463 OA
ATOM      4  C   UNL     1      -6.941  86.600  -9.623  1.00  0.00     0.147 A 
ATOM      5  C   UNL     1      -7.428  85.282  -9.338  1.00  0.00     0.066 A 
ATOM      6  C   UNL     1      -6.498  84.241  -9.272  1.00  0.00     0.200 A 
ATOM      7  O   UNL     1      -6.810  83.083  -9.713  1.00  0.00    -0.288 OA
ATOM      8  C   UNL     1      -8.741  85.087  -8.907  1.00  0.00     0.020 A 
ATOM      9  C   UNL     1      -9.532  86.174  -8.701  1.00  0.00     0.047 A 
ATOM     10  C   UNL     1      -9.165  87.445  -9.234  1.00  0.00     0.125 A 
ATOM     11  C   UNL     1      -7.917  87.622  -9.912  1.00  0.00     0.069 A 
ENDROOT
BRANCH   1  12
ATOM     12  C   UNL     1      -4.335  83.416  -8.312  1.00  0.00    -0.011 A 
ATOM     13  C   UNL     1      -4.743  82.866  -7.044  1.00  0.00     0.013 A 
ATOM     14  C   UNL     1      -4.099  81.754  -6.505  1.00  0.00     0.047 A 
ATOM     15  C   UNL     1      -3.068  81.101  -7.194  1.00  0.00     0.115 A 
ATOM     16  C   UNL     1      -3.374  82.666  -9.040  1.00  0.00     0.013 A 
ATOM     17  C   UNL     1      -2.746  81.521  -8.479  1.00  0.00     0.047 A 
BRANCH  15  18
ATOM     18  O   UNL     1      -2.498  79.930  -6.655  1.00  0.00    -0.508 OA
ATOM     19  H   UNL     1      -1.835  79.389  -7.202  1.00  0.00     0.293 HD
ENDBRANCH  15  18
ENDBRANCH   1  12
BRANCH  11  20
ATOM     20  C   UNL     1      -7.588  88.826 -10.901  1.00  0.00     0.188 C 
ATOM     21  C   UNL     1      -6.967  90.080 -10.229  1.00  0.00     0.179 C 
ATOM     22  O   UNL     1      -6.656  88.420 -11.864  1.00  0.00    -0.362 OA
ATOM     23  C   UNL     1      -7.124  91.268 -11.225  1.00  0.00     0.177 C 
ATOM     24  C   UNL     1      -6.571  89.270 -13.010  1.00  0.00     0.176 C 
ATOM     25  C   UNL     1      -6.674  90.857 -12.717  1.00  0.00     0.177 C 
BRANCH  21  26
ATOM     26  O   UNL     1      -5.602  89.831  -9.974  1.00  0.00    -0.387 OA
ATOM     27  H   UNL     1      -5.359  90.244  -9.099  1.00  0.00     0.211 HD
ENDBRANCH  21  26
BRANCH  23  28
ATOM     28  O   UNL     1      -6.435  92.459 -10.790  1.00  0.00    -0.387 OA
ATOM     29  H   UNL     1      -7.107  93.147 -10.446  1.00  0.00     0.211 HD
ENDBRANCH  23  28
BRANCH  24  30
ATOM     30  C   UNL     1      -5.258  88.841 -13.703  1.00  0.00     0.191 C 
BRANCH  30  31
ATOM     31  O   UNL     1      -5.240  89.147 -15.081  1.00  0.00    -0.394 OA
ATOM     32  H   UNL     1      -6.108  89.650 -15.226  1.00  0.00     0.210 HD
ENDBRANCH  30  31
ENDBRANCH  24  30
BRANCH  25  33
ATOM     33  O   UNL     1      -5.540  91.561 -13.236  1.00  0.00    -0.388 OA
ATOM     34  H   UNL     1      -4.923  90.874 -13.623  1.00  0.00     0.211 HD
ENDBRANCH  25  33
ENDBRANCH  11  20
BRANCH  10  35
ATOM     35  O   UNL     1     -10.084  88.484  -9.063  1.00  0.00    -0.507 OA
ATOM     36  H   UNL     1     -11.082  88.263  -9.155  1.00  0.00     0.293 HD
ENDBRANCH  10  35
TORSDOF 9
ENDMDL
MODEL 9
REMARK VINA RESULT:    -5.548     12.843     15.997
REMARK INTER + INTRA:          -8.613
REMARK INTER:                  -7.300
REMARK INTRA:                  -1.313
REMARK UNBOUND:                -1.120
REMARK SMILES O=c1c(-c2ccc(O)cc2)coc2c([C@@H]3O[C@H](CO)[C@H](O)[C@H](O)[C@@H]3O)c(O)ccc12
REMARK SMILES IDX 3 1 11 2 12 3 13 4 30 5 2 6 1 7 29 8 28 9 26 10 14 11 4 12
REMARK SMILES IDX 5 13 6 14 7 15 10 16 9 17 8 18 15 20 24 21 16 22 22 23 17 24
REMARK SMILES IDX 20 25 25 26 23 28 18 30 19 31 21 33 27 35
REMARK H PARENT 8 19 25 27 23 29 19 32 21 34 27 36
REMARK Flexibility Score: inf
ROOT
ATOM      1  C   UNL     1      -7.238  86.968  -7.948  1.00  0.00     0.065 A 
ATOM      2  C   UNL     1      -8.293  86.729  -7.026  1.00  0.00     0.208 A 
ATOM      3  O   UNL     1      -9.245  85.823  -7.294  1.00  0.00    -0.463 OA
ATOM      4  C   UNL     1      -9.159  84.928  -8.269  1.00  0.00     0.147 A 
ATOM      5  C   UNL     1      -8.040  85.034  -9.158  1.00  0.00     0.066 A 
ATOM      6  C   UNL     1      -7.288  86.212  -9.126  1.00  0.00     0.200 A 
ATOM      7  O   UNL     1      -6.808  86.689 -10.210  1.00  0.00    -0.288 OA
ATOM      8  C   UNL     1      -7.575  83.917  -9.853  1.00  0.00     0.020 A 
ATOM      9  C   UNL     1      -8.163  82.712  -9.625  1.00  0.00     0.047 A 
ATOM     10  C   UNL     1      -9.428  82.638  -8.972  1.00  0.00     0.125 A 
ATOM     11  C   UNL     1     -10.059  83.817  -8.461  1.00  0.00     0.069 A 
ENDROOT
BRANCH   1  12
ATOM     12  C   UNL     1      -6.052  87.876  -7.717  1.00  0.00    -0.011 A 
ATOM     13  C   UNL     1      -6.260  89.300  -7.790  1.00  0.00     0.013 A 
ATOM     14  C   UNL     1      -5.245  90.192  -7.447  1.00  0.00     0.047 A 
ATOM     15  C   UNL     1      -4.005  89.741  -6.975  1.00  0.00     0.115 A 
ATOM     16  C   UNL     1      -4.835  87.452  -7.123  1.00  0.00     0.013 A 
ATOM     17  C   UNL     1      -3.821  88.379  -6.761  1.00  0.00     0.047 A 
BRANCH  15  18
ATOM     18  O   UNL     1      -3.033  90.672  -6.560  1.00  0.00    -0.508 OA
ATOM     19  H   UNL     1      -3.064  91.054  -5.619  1.00  0.00     0.293 HD
ENDBRANCH  15  18
ENDBRANCH   1  12
BRANCH  11  20
ATOM     20  C   UNL     1     -11.609  83.937  -8.117  1.00  0.00     0.188 C 
ATOM     21  C   UNL     1     -12.499  84.483  -9.265  1.00  0.00     0.179 C 
ATOM     22  O   UNL     1     -12.134  82.676  -7.806  1.00  0.00    -0.362 OA
ATOM     23  C   UNL     1     -13.848  84.939  -8.633  1.00  0.00     0.177 C 
ATOM     24  C   UNL     1     -13.390  82.702  -7.124  1.00  0.00     0.176 C 
ATOM     25  C   UNL     1     -14.438  83.827  -7.626  1.00  0.00     0.177 C 
BRANCH  21  26
ATOM     26  O   UNL     1     -12.720  83.450 -10.201  1.00  0.00    -0.387 OA
ATOM     27  H   UNL     1     -12.523  82.575  -9.766  1.00  0.00     0.211 HD
ENDBRANCH  21  26
BRANCH  23  28
ATOM     28  O   UNL     1     -14.832  85.311  -9.620  1.00  0.00    -0.387 OA
ATOM     29  H   UNL     1     -14.577  84.926 -10.532  1.00  0.00     0.211 HD
ENDBRANCH  23  28
BRANCH  24  30
ATOM     30  C   UNL     1     -13.915  81.254  -7.242  1.00  0.00     0.191 C 
BRANCH  30  31
ATOM     31  O   UNL     1     -14.153  80.864  -8.578  1.00  0.00    -0.394 OA
ATOM     32  H   UNL     1     -14.317  81.741  -9.058  1.00  0.00     0.210 HD
ENDBRANCH  30  31
ENDBRANCH  24  30
BRANCH  25  33
ATOM     33  O   UNL     1     -15.687  83.244  -8.013  1.00  0.00    -0.388 OA
ATOM     34  H   UNL     1     -16.199  83.952  -8.501  1.00  0.00     0.211 HD
ENDBRANCH  25  33
ENDBRANCH  11  20
BRANCH  10  35
ATOM     35  O   UNL     1     -10.007  81.370  -8.870  1.00  0.00    -0.507 OA
ATOM     36  H   UNL     1     -10.472  80.986  -9.700  1.00  0.00     0.293 HD
ENDBRANCH  10  35
TORSDOF 9
ENDMDL
