MODEL 1
REMARK VINA RESULT:    -3.899      0.000      0.000
REMARK INTER + INTRA:          -7.104
REMARK INTER:                  -5.950
REMARK INTRA:                  -1.154
REMARK UNBOUND:                -1.154
REMARK SMILES CCCCCCCCCCC(=O)[O-]
REMARK SMILES IDX 7 1 8 2 9 3 10 4 11 5 12 6 13 7 6 8 5 9 4 10 3 11 2 12 1 13
REMARK H PARENT
REMARK Flexibility Score: inf
ROOT
ATOM      1  C   UNL     1     112.235 109.970 121.986  1.00  0.00     0.000 C 
ENDROOT
BRANCH   1   2
ATOM      2  C   UNL     1     111.885 111.345 122.570  1.00  0.00     0.000 C 
BRANCH   2   3
ATOM      3  C   UNL     1     112.041 112.448 121.513  1.00  0.00     0.006 C 
BRANCH   3   4
ATOM      4  C   UNL     1     110.688 112.989 121.034  1.00  0.00     0.053 C 
BRANCH   4   5
ATOM      5  C   UNL     1     110.389 112.569 119.628  1.00  0.00     0.041 C 
ATOM      6  O   UNL     1     111.243 112.741 118.718  1.00  0.00    -0.550 OA
ATOM      7  O   UNL     1     109.178 111.958 119.327  1.00  0.00    -0.550 OA
ENDBRANCH   4   5
ENDBRANCH   3   4
ENDBRANCH   2   3
ENDBRANCH   1   2
BRANCH   1   8
ATOM      8  C   UNL     1     112.973 110.115 120.648  1.00  0.00     0.000 C 
BRANCH   8   9
ATOM      9  C   UNL     1     114.252 109.264 120.578  1.00  0.00    -0.000 C 
BRANCH   9  10
ATOM     10  C   UNL     1     115.562 110.041 120.806  1.00  0.00    -0.000 C 
BRANCH  10  11
ATOM     11  C   UNL     1     116.005 110.093 122.284  1.00  0.00    -0.000 C 
BRANCH  11  12
ATOM     12  C   UNL     1     115.630 111.421 122.959  1.00  0.00    -0.003 C 
ATOM     13  C   UNL     1     115.836 112.599 122.011  1.00  0.00     0.004 C 
ENDBRANCH  11  12
ENDBRANCH  10  11
ENDBRANCH   9  10
ENDBRANCH   8   9
ENDBRANCH   1   8
TORSDOF 9
ENDMDL
MODEL 2
REMARK VINA RESULT:    -3.863      3.173      5.264
REMARK INTER + INTRA:          -7.049
REMARK INTER:                  -5.950
REMARK INTRA:                  -1.099
REMARK UNBOUND:                -1.154
REMARK SMILES CCCCCCCCCCC(=O)[O-]
REMARK SMILES IDX 7 1 8 2 9 3 10 4 11 5 12 6 13 7 6 8 5 9 4 10 3 11 2 12 1 13
REMARK H PARENT
REMARK Flexibility Score: inf
ROOT
ATOM      1  C   UNL     1     114.268 109.736 120.398  1.00  0.00     0.000 C 
ENDROOT
BRANCH   1   2
ATOM      2  C   UNL     1     115.609 110.364 120.797  1.00  0.00     0.000 C 
BRANCH   2   3
ATOM      3  C   UNL     1     115.889 110.161 122.294  1.00  0.00     0.006 C 
BRANCH   3   4
ATOM      4  C   UNL     1     116.007 111.492 123.048  1.00  0.00     0.053 C 
BRANCH   4   5
ATOM      5  C   UNL     1     117.246 112.239 122.665  1.00  0.00     0.041 C 
ATOM      6  O   UNL     1     117.163 113.325 122.032  1.00  0.00    -0.550 OA
ATOM      7  O   UNL     1     118.494 111.752 123.034  1.00  0.00    -0.550 OA
ENDBRANCH   4   5
ENDBRANCH   3   4
ENDBRANCH   2   3
ENDBRANCH   1   2
BRANCH   1   8
ATOM      8  C   UNL     1     113.439 109.379 121.640  1.00  0.00     0.000 C 
BRANCH   8   9
ATOM      9  C   UNL     1     112.042 110.022 121.629  1.00  0.00    -0.000 C 
BRANCH   9  10
ATOM     10  C   UNL     1     111.912 111.308 122.467  1.00  0.00    -0.000 C 
BRANCH  10  11
ATOM     11  C   UNL     1     111.430 112.532 121.658  1.00  0.00    -0.000 C 
BRANCH  11  12
ATOM     12  C   UNL     1     112.343 113.753 121.849  1.00  0.00    -0.003 C 
ATOM     13  C   UNL     1     113.691 113.545 121.166  1.00  0.00     0.004 C 
ENDBRANCH  11  12
ENDBRANCH  10  11
ENDBRANCH   9  10
ENDBRANCH   8   9
ENDBRANCH   1   8
TORSDOF 9
ENDMDL
MODEL 3
REMARK VINA RESULT:    -3.813      1.514      2.485
REMARK INTER + INTRA:          -6.974
REMARK INTER:                  -5.814
REMARK INTRA:                  -1.160
REMARK UNBOUND:                -1.154
REMARK SMILES CCCCCCCCCCC(=O)[O-]
REMARK SMILES IDX 7 1 8 2 9 3 10 4 11 5 12 6 13 7 6 8 5 9 4 10 3 11 2 12 1 13
REMARK H PARENT
REMARK Flexibility Score: inf
ROOT
ATOM      1  C   UNL     1     113.836 109.989 120.370  1.00  0.00     0.000 C 
ENDROOT
BRANCH   1   2
ATOM      2  C   UNL     1     113.037 109.714 121.650  1.00  0.00     0.000 C 
BRANCH   2   3
ATOM      3  C   UNL     1     111.833 110.661 121.762  1.00  0.00     0.006 C 
BRANCH   3   4
ATOM      4  C   UNL     1     112.180 111.955 122.510  1.00  0.00     0.053 C 
BRANCH   4   5
ATOM      5  C   UNL     1     111.764 113.170 121.740  1.00  0.00     0.041 C 
ATOM      6  O   UNL     1     112.263 114.294 122.009  1.00  0.00    -0.550 OA
ATOM      7  O   UNL     1     110.847 113.055 120.702  1.00  0.00    -0.550 OA
ENDBRANCH   4   5
ENDBRANCH   3   4
ENDBRANCH   2   3
ENDBRANCH   1   2
BRANCH   1   8
ATOM      8  C   UNL     1     115.346 109.903 120.637  1.00  0.00     0.000 C 
BRANCH   8   9
ATOM      9  C   UNL     1     115.690 109.960 122.135  1.00  0.00    -0.000 C 
BRANCH   9  10
ATOM     10  C   UNL     1     116.477 111.210 122.573  1.00  0.00    -0.000 C 
BRANCH  10  11
ATOM     11  C   UNL     1     115.734 112.537 122.307  1.00  0.00    -0.000 C 
BRANCH  11  12
ATOM     12  C   UNL     1     116.325 113.307 121.116  1.00  0.00    -0.003 C 
ATOM     13  C   UNL     1     115.228 113.772 120.162  1.00  0.00     0.004 C 
ENDBRANCH  11  12
ENDBRANCH  10  11
ENDBRANCH   9  10
ENDBRANCH   8   9
ENDBRANCH   1   8
TORSDOF 9
ENDMDL
MODEL 4
REMARK VINA RESULT:    -3.787      3.310      5.106
REMARK INTER + INTRA:          -6.934
REMARK INTER:                  -5.731
REMARK INTRA:                  -1.203
REMARK UNBOUND:                -1.154
REMARK SMILES CCCCCCCCCCC(=O)[O-]
REMARK SMILES IDX 7 1 8 2 9 3 10 4 11 5 12 6 13 7 6 8 5 9 4 10 3 11 2 12 1 13
REMARK H PARENT
REMARK Flexibility Score: inf
ROOT
ATOM      1  C   UNL     1     113.223 109.853 120.794  1.00  0.00     0.000 C 
ENDROOT
BRANCH   1   2
ATOM      2  C   UNL     1     114.358 109.274 121.648  1.00  0.00     0.000 C 
BRANCH   2   3
ATOM      3  C   UNL     1     115.617 110.149 121.558  1.00  0.00     0.006 C 
BRANCH   3   4
ATOM      4  C   UNL     1     115.911 110.881 122.873  1.00  0.00     0.053 C 
BRANCH   4   5
ATOM      5  C   UNL     1     117.158 111.706 122.783  1.00  0.00     0.041 C 
ATOM      6  O   UNL     1     118.286 111.148 122.726  1.00  0.00    -0.550 OA
ATOM      7  O   UNL     1     117.073 113.092 122.730  1.00  0.00    -0.550 OA
ENDBRANCH   4   5
ENDBRANCH   3   4
ENDBRANCH   2   3
ENDBRANCH   1   2
BRANCH   1   8
ATOM      8  C   UNL     1     112.029 110.256 121.670  1.00  0.00     0.000 C 
BRANCH   8   9
ATOM      9  C   UNL     1     112.201 111.645 122.309  1.00  0.00    -0.000 C 
BRANCH   9  10
ATOM     10  C   UNL     1     112.366 112.804 121.308  1.00  0.00    -0.000 C 
BRANCH  10  11
ATOM     11  C   UNL     1     113.742 113.501 121.385  1.00  0.00    -0.000 C 
BRANCH  11  12
ATOM     12  C   UNL     1     114.547 113.350 120.085  1.00  0.00    -0.003 C 
ATOM     13  C   UNL     1     115.462 114.550 119.861  1.00  0.00     0.004 C 
ENDBRANCH  11  12
ENDBRANCH  10  11
ENDBRANCH   9  10
ENDBRANCH   8   9
ENDBRANCH   1   8
TORSDOF 9
ENDMDL
MODEL 5
REMARK VINA RESULT:    -3.651      2.503      4.508
REMARK INTER + INTRA:          -6.727
REMARK INTER:                  -5.404
REMARK INTRA:                  -1.322
REMARK UNBOUND:                -1.154
REMARK SMILES CCCCCCCCCCC(=O)[O-]
REMARK SMILES IDX 7 1 8 2 9 3 10 4 11 5 12 6 13 7 6 8 5 9 4 10 3 11 2 12 1 13
REMARK H PARENT
REMARK Flexibility Score: inf
ROOT
ATOM      1  C   UNL     1     115.881 110.170 121.705  1.00  0.00     0.000 C 
ENDROOT
BRANCH   1   2
ATOM      2  C   UNL     1     115.767 111.219 122.819  1.00  0.00     0.000 C 
BRANCH   2   3
ATOM      3  C   UNL     1     116.051 112.629 122.281  1.00  0.00     0.006 C 
BRANCH   3   4
ATOM      4  C   UNL     1     116.084 112.669 120.748  1.00  0.00     0.053 C 
BRANCH   4   5
ATOM      5  C   UNL     1     116.211 114.069 120.232  1.00  0.00     0.041 C 
ATOM      6  O   UNL     1     115.235 114.629 119.667  1.00  0.00    -0.550 OA
ATOM      7  O   UNL     1     117.400 114.768 120.404  1.00  0.00    -0.550 OA
ENDBRANCH   4   5
ENDBRANCH   3   4
ENDBRANCH   2   3
ENDBRANCH   1   2
BRANCH   1   8
ATOM      8  C   UNL     1     114.585 109.356 121.585  1.00  0.00     0.000 C 
BRANCH   8   9
ATOM      9  C   UNL     1     113.811 109.654 120.290  1.00  0.00    -0.000 C 
BRANCH   9  10
ATOM     10  C   UNL     1     112.831 110.839 120.377  1.00  0.00    -0.000 C 
BRANCH  10  11
ATOM     11  C   UNL     1     111.894 110.782 121.604  1.00  0.00    -0.000 C 
BRANCH  11  12
ATOM     12  C   UNL     1     112.091 111.981 122.544  1.00  0.00    -0.003 C 
ATOM     13  C   UNL     1     112.374 113.257 121.758  1.00  0.00     0.004 C 
ENDBRANCH  11  12
ENDBRANCH  10  11
ENDBRANCH   9  10
ENDBRANCH   8   9
ENDBRANCH   1   8
TORSDOF 9
ENDMDL
MODEL 6
REMARK VINA RESULT:    -3.600      1.932      2.823
REMARK INTER + INTRA:          -6.648
REMARK INTER:                  -5.254
REMARK INTRA:                  -1.394
REMARK UNBOUND:                -1.154
REMARK SMILES CCCCCCCCCCC(=O)[O-]
REMARK SMILES IDX 7 1 8 2 9 3 10 4 11 5 12 6 13 7 6 8 5 9 4 10 3 11 2 12 1 13
REMARK H PARENT
REMARK Flexibility Score: inf
ROOT
ATOM      1  C   UNL     1     114.833 109.817 119.861  1.00  0.00     0.000 C 
ENDROOT
BRANCH   1   2
ATOM      2  C   UNL     1     113.624 110.438 119.150  1.00  0.00     0.000 C 
BRANCH   2   3
ATOM      3  C   UNL     1     112.525 110.809 120.155  1.00  0.00     0.006 C 
BRANCH   3   4
ATOM      4  C   UNL     1     112.307 112.325 120.244  1.00  0.00     0.053 C 
BRANCH   4   5
ATOM      5  C   UNL     1     112.076 112.770 121.655  1.00  0.00     0.041 C 
ATOM      6  O   UNL     1     112.017 113.998 121.932  1.00  0.00    -0.550 OA
ATOM      7  O   UNL     1     111.893 111.829 122.660  1.00  0.00    -0.550 OA
ENDBRANCH   4   5
ENDBRANCH   3   4
ENDBRANCH   2   3
ENDBRANCH   1   2
BRANCH   1   8
ATOM      8  C   UNL     1     114.481 109.430 121.304  1.00  0.00     0.000 C 
BRANCH   8   9
ATOM      9  C   UNL     1     115.552 109.868 122.317  1.00  0.00    -0.000 C 
BRANCH   9  10
ATOM     10  C   UNL     1     115.375 111.293 122.874  1.00  0.00    -0.000 C 
BRANCH  10  11
ATOM     11  C   UNL     1     116.399 112.308 122.323  1.00  0.00    -0.000 C 
BRANCH  11  12
ATOM     12  C   UNL     1     115.763 113.301 121.338  1.00  0.00    -0.003 C 
ATOM     13  C   UNL     1     116.405 113.196 119.957  1.00  0.00     0.004 C 
ENDBRANCH  11  12
ENDBRANCH  10  11
ENDBRANCH   9  10
ENDBRANCH   8   9
ENDBRANCH   1   8
TORSDOF 9
ENDMDL
MODEL 7
REMARK VINA RESULT:    -3.575      2.977      4.952
REMARK INTER + INTRA:          -6.610
REMARK INTER:                  -5.318
REMARK INTRA:                  -1.292
REMARK UNBOUND:                -1.154
REMARK SMILES CCCCCCCCCCC(=O)[O-]
REMARK SMILES IDX 7 1 8 2 9 3 10 4 11 5 12 6 13 7 6 8 5 9 4 10 3 11 2 12 1 13
REMARK H PARENT
REMARK Flexibility Score: inf
ROOT
ATOM      1  C   UNL     1     114.516 109.075 120.082  1.00  0.00     0.000 C 
ENDROOT
BRANCH   1   2
ATOM      2  C   UNL     1     114.459 109.393 121.581  1.00  0.00     0.000 C 
BRANCH   2   3
ATOM      3  C   UNL     1     115.798 109.959 122.076  1.00  0.00     0.006 C 
BRANCH   3   4
ATOM      4  C   UNL     1     115.612 111.181 122.984  1.00  0.00     0.053 C 
BRANCH   4   5
ATOM      5  C   UNL     1     116.516 112.308 122.589  1.00  0.00     0.041 C 
ATOM      6  O   UNL     1     116.160 113.125 121.699  1.00  0.00    -0.550 OA
ATOM      7  O   UNL     1     117.739 112.475 123.227  1.00  0.00    -0.550 OA
ENDBRANCH   4   5
ENDBRANCH   3   4
ENDBRANCH   2   3
ENDBRANCH   1   2
BRANCH   1   8
ATOM      8  C   UNL     1     113.673 110.076 119.278  1.00  0.00     0.000 C 
BRANCH   8   9
ATOM      9  C   UNL     1     114.371 111.435 119.101  1.00  0.00    -0.000 C 
BRANCH   9  10
ATOM     10  C   UNL     1     113.495 112.661 119.421  1.00  0.00    -0.000 C 
BRANCH  10  11
ATOM     11  C   UNL     1     112.232 112.325 120.244  1.00  0.00    -0.000 C 
BRANCH  11  12
ATOM     12  C   UNL     1     112.430 112.582 121.746  1.00  0.00    -0.003 C 
ATOM     13  C   UNL     1     111.678 111.552 122.585  1.00  0.00     0.004 C 
ENDBRANCH  11  12
ENDBRANCH  10  11
ENDBRANCH   9  10
ENDBRANCH   8   9
ENDBRANCH   1   8
TORSDOF 9
ENDMDL
MODEL 8
REMARK VINA RESULT:    -3.513      2.506      5.067
REMARK INTER + INTRA:          -6.515
REMARK INTER:                  -5.334
REMARK INTRA:                  -1.181
REMARK UNBOUND:                -1.154
REMARK SMILES CCCCCCCCCCC(=O)[O-]
REMARK SMILES IDX 7 1 8 2 9 3 10 4 11 5 12 6 13 7 6 8 5 9 4 10 3 11 2 12 1 13
REMARK H PARENT
REMARK Flexibility Score: inf
ROOT
ATOM      1  C   UNL     1     113.557 109.569 121.669  1.00  0.00     0.000 C 
ENDROOT
BRANCH   1   2
ATOM      2  C   UNL     1     114.110 109.765 120.252  1.00  0.00     0.000 C 
BRANCH   2   3
ATOM      3  C   UNL     1     115.238 110.807 120.240  1.00  0.00     0.006 C 
BRANCH   3   4
ATOM      4  C   UNL     1     115.858 111.007 121.628  1.00  0.00     0.053 C 
BRANCH   4   5
ATOM      5  C   UNL     1     115.965 112.458 121.984  1.00  0.00     0.041 C 
ATOM      6  O   UNL     1     116.751 112.833 122.894  1.00  0.00    -0.550 OA
ATOM      7  O   UNL     1     115.218 113.402 121.289  1.00  0.00    -0.550 OA
ENDBRANCH   4   5
ENDBRANCH   3   4
ENDBRANCH   2   3
ENDBRANCH   1   2
BRANCH   1   8
ATOM      8  C   UNL     1     112.115 110.087 121.770  1.00  0.00     0.000 C 
BRANCH   8   9
ATOM      9  C   UNL     1     112.026 111.475 122.428  1.00  0.00    -0.000 C 
BRANCH   9  10
ATOM     10  C   UNL     1     111.817 112.645 121.448  1.00  0.00    -0.000 C 
BRANCH  10  11
ATOM     11  C   UNL     1     110.692 112.402 120.419  1.00  0.00    -0.000 C 
BRANCH  11  12
ATOM     12  C   UNL     1     111.192 112.513 118.970  1.00  0.00    -0.003 C 
ATOM     13  C   UNL     1     111.308 111.138 118.320  1.00  0.00     0.004 C 
ENDBRANCH  11  12
ENDBRANCH  10  11
ENDBRANCH   9  10
ENDBRANCH   8   9
ENDBRANCH   1   8
TORSDOF 9
ENDMDL
MODEL 9
REMARK VINA RESULT:    -3.480      1.932      2.852
REMARK INTER + INTRA:          -6.465
REMARK INTER:                  -5.613
REMARK INTRA:                  -0.851
REMARK UNBOUND:                -1.154
REMARK SMILES CCCCCCCCCCC(=O)[O-]
REMARK SMILES IDX 7 1 8 2 9 3 10 4 11 5 12 6 13 7 6 8 5 9 4 10 3 11 2 12 1 13
REMARK H PARENT
REMARK Flexibility Score: inf
ROOT
ATOM      1  C   UNL     1     114.409 109.249 121.622  1.00  0.00     0.000 C 
ENDROOT
BRANCH   1   2
ATOM      2  C   UNL     1     113.394 110.148 120.906  1.00  0.00     0.000 C 
BRANCH   2   3
ATOM      3  C   UNL     1     112.044 110.148 121.639  1.00  0.00     0.006 C 
BRANCH   3   4
ATOM      4  C   UNL     1     111.871 111.379 122.537  1.00  0.00     0.053 C 
BRANCH   4   5
ATOM      5  C   UNL     1     111.648 112.624 121.735  1.00  0.00     0.041 C 
ATOM      6  O   UNL     1     112.363 113.642 121.932  1.00  0.00    -0.550 OA
ATOM      7  O   UNL     1     110.671 112.650 120.748  1.00  0.00    -0.550 OA
ENDBRANCH   4   5
ENDBRANCH   3   4
ENDBRANCH   2   3
ENDBRANCH   1   2
BRANCH   1   8
ATOM      8  C   UNL     1     115.472 110.090 122.344  1.00  0.00     0.000 C 
BRANCH   8   9
ATOM      9  C   UNL     1     115.595 111.513 121.772  1.00  0.00    -0.000 C 
BRANCH   9  10
ATOM     10  C   UNL     1     116.981 111.864 121.197  1.00  0.00    -0.000 C 
BRANCH  10  11
ATOM     11  C   UNL     1     117.677 110.683 120.487  1.00  0.00    -0.000 C 
BRANCH  11  12
ATOM     12  C   UNL     1     119.012 110.309 121.149  1.00  0.00    -0.003 C 
ATOM     13  C   UNL     1     119.122 110.912 122.547  1.00  0.00     0.004 C 
ENDBRANCH  11  12
ENDBRANCH  10  11
ENDBRANCH   9  10
ENDBRANCH   8   9
ENDBRANCH   1   8
TORSDOF 9
ENDMDL
