MODEL 1
REMARK VINA RESULT:    -4.550      0.000      0.000
REMARK INTER + INTRA:          -6.853
REMARK INTER:                  -6.411
REMARK INTRA:                  -0.442
REMARK UNBOUND:                -0.442
REMARK SMILES CCCCCCCCC(=O)[O-]
REMARK SMILES IDX 6 1 7 2 8 3 9 4 10 5 11 6 5 7 4 8 3 9 2 10 1 11
REMARK H PARENT
REMARK Flexibility Score: inf
ROOT
ATOM      1  C   UNL     1      14.826  -5.689  16.039  1.00  0.00     0.000 C 
ENDROOT
BRANCH   1   2
ATOM      2  C   UNL     1      15.897  -6.646  15.496  1.00  0.00     0.006 C 
BRANCH   2   3
ATOM      3  C   UNL     1      15.346  -7.579  14.410  1.00  0.00     0.053 C 
BRANCH   3   4
ATOM      4  C   UNL     1      14.806  -6.812  13.242  1.00  0.00     0.041 C 
ATOM      5  O   UNL     1      13.599  -6.935  12.905  1.00  0.00    -0.550 OA
ATOM      6  O   UNL     1      15.645  -5.987  12.506  1.00  0.00    -0.550 OA
ENDBRANCH   3   4
ENDBRANCH   2   3
ENDBRANCH   1   2
BRANCH   1   7
ATOM      7  C   UNL     1      15.275  -4.228  15.907  1.00  0.00     0.000 C 
BRANCH   7   8
ATOM      8  C   UNL     1      14.526  -3.330  16.898  1.00  0.00    -0.000 C 
BRANCH   8   9
ATOM      9  C   UNL     1      15.498  -2.660  17.876  1.00  0.00    -0.000 C 
BRANCH   9  10
ATOM     10  C   UNL     1      16.949  -3.042  17.557  1.00  0.00    -0.003 C 
ATOM     11  C   UNL     1      17.799  -3.081  18.824  1.00  0.00     0.004 C 
ENDBRANCH   9  10
ENDBRANCH   8   9
ENDBRANCH   7   8
ENDBRANCH   1   7
TORSDOF 7
ENDMDL
MODEL 2
REMARK VINA RESULT:    -4.541      3.050      5.048
REMARK INTER + INTRA:          -6.841
REMARK INTER:                  -6.338
REMARK INTRA:                  -0.503
REMARK UNBOUND:                -0.442
REMARK SMILES CCCCCCCCC(=O)[O-]
REMARK SMILES IDX 6 1 7 2 8 3 9 4 10 5 11 6 5 7 4 8 3 9 2 10 1 11
REMARK H PARENT
REMARK Flexibility Score: inf
ROOT
ATOM      1  C   UNL     1      16.196  -2.681  18.124  1.00  0.00     0.000 C 
ENDROOT
BRANCH   1   2
ATOM      2  C   UNL     1      17.693  -3.021  18.192  1.00  0.00     0.006 C 
BRANCH   2   3
ATOM      3  C   UNL     1      18.180  -3.745  16.929  1.00  0.00     0.053 C 
BRANCH   3   4
ATOM      4  C   UNL     1      19.340  -3.038  16.298  1.00  0.00     0.041 C 
ATOM      5  O   UNL     1      20.354  -2.743  16.984  1.00  0.00    -0.550 OA
ATOM      6  O   UNL     1      19.287  -2.676  14.958  1.00  0.00    -0.550 OA
ENDBRANCH   3   4
ENDBRANCH   2   3
ENDBRANCH   1   2
BRANCH   1   7
ATOM      7  C   UNL     1      15.629  -2.971  16.728  1.00  0.00     0.000 C 
BRANCH   7   8
ATOM      8  C   UNL     1      14.170  -3.435  16.812  1.00  0.00    -0.000 C 
BRANCH   8   9
ATOM      9  C   UNL     1      13.928  -4.651  15.911  1.00  0.00    -0.000 C 
BRANCH   9  10
ATOM     10  C   UNL     1      15.141  -5.589  15.915  1.00  0.00    -0.003 C 
ATOM     11  C   UNL     1      14.711  -7.045  16.064  1.00  0.00     0.004 C 
ENDBRANCH   9  10
ENDBRANCH   8   9
ENDBRANCH   7   8
ENDBRANCH   1   7
TORSDOF 7
ENDMDL
MODEL 3
REMARK VINA RESULT:    -4.531      2.905      3.777
REMARK INTER + INTRA:          -6.828
REMARK INTER:                  -6.536
REMARK INTRA:                  -0.291
REMARK UNBOUND:                -0.442
REMARK SMILES CCCCCCCCC(=O)[O-]
REMARK SMILES IDX 6 1 7 2 8 3 9 4 10 5 11 6 5 7 4 8 3 9 2 10 1 11
REMARK H PARENT
REMARK Flexibility Score: inf
ROOT
ATOM      1  C   UNL     1      13.437  -3.772  15.167  1.00  0.00     0.000 C 
ENDROOT
BRANCH   1   2
ATOM      2  C   UNL     1      12.126  -3.047  14.828  1.00  0.00     0.006 C 
BRANCH   2   3
ATOM      3  C   UNL     1      12.358  -1.806  13.956  1.00  0.00     0.053 C 
BRANCH   3   4
ATOM      4  C   UNL     1      13.019  -2.156  12.658  1.00  0.00     0.041 C 
ATOM      5  O   UNL     1      14.102  -1.604  12.328  1.00  0.00    -0.550 OA
ATOM      6  O   UNL     1      12.422  -3.068  11.798  1.00  0.00    -0.550 OA
ENDBRANCH   3   4
ENDBRANCH   2   3
ENDBRANCH   1   2
BRANCH   1   7
ATOM      7  C   UNL     1      13.834  -3.537  16.630  1.00  0.00     0.000 C 
BRANCH   7   8
ATOM      8  C   UNL     1      15.353  -3.388  16.771  1.00  0.00    -0.000 C 
BRANCH   8   9
ATOM      9  C   UNL     1      15.709  -2.469  17.946  1.00  0.00    -0.000 C 
BRANCH   9  10
ATOM     10  C   UNL     1      17.068  -2.847  18.547  1.00  0.00    -0.003 C 
ATOM     11  C   UNL     1      18.057  -3.253  17.459  1.00  0.00     0.004 C 
ENDBRANCH   9  10
ENDBRANCH   8   9
ENDBRANCH   7   8
ENDBRANCH   1   7
TORSDOF 7
ENDMDL
MODEL 4
REMARK VINA RESULT:    -4.527      2.676      4.333
REMARK INTER + INTRA:          -6.821
REMARK INTER:                  -6.161
REMARK INTRA:                  -0.660
REMARK UNBOUND:                -0.442
REMARK SMILES CCCCCCCCC(=O)[O-]
REMARK SMILES IDX 6 1 7 2 8 3 9 4 10 5 11 6 5 7 4 8 3 9 2 10 1 11
REMARK H PARENT
REMARK Flexibility Score: inf
ROOT
ATOM      1  C   UNL     1      15.177  -3.391  16.961  1.00  0.00     0.000 C 
ENDROOT
BRANCH   1   2
ATOM      2  C   UNL     1      13.727  -3.391  16.455  1.00  0.00     0.006 C 
BRANCH   2   3
ATOM      3  C   UNL     1      13.647  -3.375  14.923  1.00  0.00     0.053 C 
BRANCH   3   4
ATOM      4  C   UNL     1      12.382  -2.737  14.440  1.00  0.00     0.041 C 
ATOM      5  O   UNL     1      12.408  -1.591  13.918  1.00  0.00    -0.550 OA
ATOM      6  O   UNL     1      11.168  -3.393  14.597  1.00  0.00    -0.550 OA
ENDBRANCH   3   4
ENDBRANCH   2   3
ENDBRANCH   1   2
BRANCH   1   7
ATOM      7  C   UNL     1      16.165  -3.559  15.800  1.00  0.00     0.000 C 
BRANCH   7   8
ATOM      8  C   UNL     1      17.347  -4.446  16.206  1.00  0.00    -0.000 C 
BRANCH   8   9
ATOM      9  C   UNL     1      16.896  -5.894  16.432  1.00  0.00    -0.000 C 
BRANCH   9  10
ATOM     10  C   UNL     1      15.990  -6.372  15.291  1.00  0.00    -0.003 C 
ATOM     11  C   UNL     1      14.791  -7.147  15.829  1.00  0.00     0.004 C 
ENDBRANCH   9  10
ENDBRANCH   8   9
ENDBRANCH   7   8
ENDBRANCH   1   7
TORSDOF 7
ENDMDL
MODEL 5
REMARK VINA RESULT:    -4.524      3.421      4.331
REMARK INTER + INTRA:          -6.817
REMARK INTER:                  -6.377
REMARK INTRA:                  -0.440
REMARK UNBOUND:                -0.442
REMARK SMILES CCCCCCCCC(=O)[O-]
REMARK SMILES IDX 6 1 7 2 8 3 9 4 10 5 11 6 5 7 4 8 3 9 2 10 1 11
REMARK H PARENT
REMARK Flexibility Score: inf
ROOT
ATOM      1  C   UNL     1      18.999  -3.253  16.981  1.00  0.00     0.000 C 
ENDROOT
BRANCH   1   2
ATOM      2  C   UNL     1      19.035  -2.971  15.472  1.00  0.00     0.006 C 
BRANCH   2   3
ATOM      3  C   UNL     1      18.636  -4.199  14.643  1.00  0.00     0.053 C 
BRANCH   3   4
ATOM      4  C   UNL     1      19.320  -4.214  13.311  1.00  0.00     0.041 C 
ATOM      5  O   UNL     1      19.287  -3.199  12.567  1.00  0.00    -0.550 OA
ATOM      6  O   UNL     1      19.969  -5.363  12.876  1.00  0.00    -0.550 OA
ENDBRANCH   3   4
ENDBRANCH   2   3
ENDBRANCH   1   2
BRANCH   1   7
ATOM      7  C   UNL     1      17.612  -3.744  17.416  1.00  0.00     0.000 C 
BRANCH   7   8
ATOM      8  C   UNL     1      16.905  -2.698  18.285  1.00  0.00    -0.000 C 
BRANCH   8   9
ATOM      9  C   UNL     1      15.413  -2.614  17.939  1.00  0.00    -0.000 C 
BRANCH   9  10
ATOM     10  C   UNL     1      15.103  -3.385  16.651  1.00  0.00    -0.003 C 
ATOM     11  C   UNL     1      13.603  -3.621  16.497  1.00  0.00     0.004 C 
ENDBRANCH   9  10
ENDBRANCH   8   9
ENDBRANCH   7   8
ENDBRANCH   1   7
TORSDOF 7
ENDMDL
MODEL 6
REMARK VINA RESULT:    -4.509      3.785      5.332
REMARK INTER + INTRA:          -6.797
REMARK INTER:                  -6.360
REMARK INTRA:                  -0.437
REMARK UNBOUND:                -0.442
REMARK SMILES CCCCCCCCC(=O)[O-]
REMARK SMILES IDX 6 1 7 2 8 3 9 4 10 5 11 6 5 7 4 8 3 9 2 10 1 11
REMARK H PARENT
REMARK Flexibility Score: inf
ROOT
ATOM      1  C   UNL     1      14.678  -3.253  17.012  1.00  0.00     0.000 C 
ENDROOT
BRANCH   1   2
ATOM      2  C   UNL     1      15.873  -3.561  16.098  1.00  0.00     0.006 C 
BRANCH   2   3
ATOM      3  C   UNL     1      17.008  -4.272  16.847  1.00  0.00     0.053 C 
BRANCH   3   4
ATOM      4  C   UNL     1      17.904  -3.298  17.548  1.00  0.00     0.041 C 
ATOM      5  O   UNL     1      18.965  -2.900  16.997  1.00  0.00    -0.550 OA
ATOM      6  O   UNL     1      17.585  -2.854  18.825  1.00  0.00    -0.550 OA
ENDBRANCH   3   4
ENDBRANCH   2   3
ENDBRANCH   1   2
BRANCH   1   7
ATOM      7  C   UNL     1      13.363  -3.719  16.375  1.00  0.00     0.000 C 
BRANCH   7   8
ATOM      8  C   UNL     1      13.352  -3.440  14.868  1.00  0.00    -0.000 C 
BRANCH   8   9
ATOM      9  C   UNL     1      12.253  -2.434  14.503  1.00  0.00    -0.000 C 
BRANCH   9  10
ATOM     10  C   UNL     1      12.637  -1.630  13.255  1.00  0.00    -0.003 C 
ATOM     11  C   UNL     1      14.126  -1.765  12.949  1.00  0.00     0.004 C 
ENDBRANCH   9  10
ENDBRANCH   8   9
ENDBRANCH   7   8
ENDBRANCH   1   7
TORSDOF 7
ENDMDL
MODEL 7
REMARK VINA RESULT:    -4.488      2.857      3.866
REMARK INTER + INTRA:          -6.766
REMARK INTER:                  -6.345
REMARK INTRA:                  -0.421
REMARK UNBOUND:                -0.442
REMARK SMILES CCCCCCCCC(=O)[O-]
REMARK SMILES IDX 6 1 7 2 8 3 9 4 10 5 11 6 5 7 4 8 3 9 2 10 1 11
REMARK H PARENT
REMARK Flexibility Score: inf
ROOT
ATOM      1  C   UNL     1      15.556  -2.515  17.918  1.00  0.00     0.000 C 
ENDROOT
BRANCH   1   2
ATOM      2  C   UNL     1      15.206  -3.441  16.743  1.00  0.00     0.006 C 
BRANCH   2   3
ATOM      3  C   UNL     1      13.691  -3.610  16.569  1.00  0.00     0.053 C 
BRANCH   3   4
ATOM      4  C   UNL     1      13.253  -3.273  15.177  1.00  0.00     0.041 C 
ATOM      5  O   UNL     1      12.048  -2.991  14.942  1.00  0.00    -0.550 OA
ATOM      6  O   UNL     1      14.168  -3.302  14.133  1.00  0.00    -0.550 OA
ENDBRANCH   3   4
ENDBRANCH   2   3
ENDBRANCH   1   2
BRANCH   1   7
ATOM      7  C   UNL     1      16.935  -2.856  18.496  1.00  0.00     0.000 C 
BRANCH   7   8
ATOM      8  C   UNL     1      17.753  -3.697  17.510  1.00  0.00    -0.000 C 
BRANCH   8   9
ATOM      9  C   UNL     1      19.049  -2.977  17.117  1.00  0.00    -0.000 C 
BRANCH   9  10
ATOM     10  C   UNL     1      19.373  -3.200  15.634  1.00  0.00    -0.003 C 
ATOM     11  C   UNL     1      18.928  -4.586  15.176  1.00  0.00     0.004 C 
ENDBRANCH   9  10
ENDBRANCH   8   9
ENDBRANCH   7   8
ENDBRANCH   1   7
TORSDOF 7
ENDMDL
MODEL 8
REMARK VINA RESULT:    -4.472      3.526      5.340
REMARK INTER + INTRA:          -6.745
REMARK INTER:                  -6.458
REMARK INTRA:                  -0.287
REMARK UNBOUND:                -0.442
REMARK SMILES CCCCCCCCC(=O)[O-]
REMARK SMILES IDX 6 1 7 2 8 3 9 4 10 5 11 6 5 7 4 8 3 9 2 10 1 11
REMARK H PARENT
REMARK Flexibility Score: inf
ROOT
ATOM      1  C   UNL     1      16.019  -2.536  17.794  1.00  0.00     0.000 C 
ENDROOT
BRANCH   1   2
ATOM      2  C   UNL     1      17.428  -3.002  18.192  1.00  0.00     0.006 C 
BRANCH   2   3
ATOM      3  C   UNL     1      18.104  -3.816  17.081  1.00  0.00     0.053 C 
BRANCH   3   4
ATOM      4  C   UNL     1      19.137  -3.012  16.354  1.00  0.00     0.041 C 
ATOM      5  O   UNL     1      18.961  -2.693  15.148  1.00  0.00    -0.550 OA
ATOM      6  O   UNL     1      20.310  -2.641  16.999  1.00  0.00    -0.550 OA
ENDBRANCH   3   4
ENDBRANCH   2   3
ENDBRANCH   1   2
BRANCH   1   7
ATOM      7  C   UNL     1      15.460  -3.389  16.648  1.00  0.00     0.000 C 
BRANCH   7   8
ATOM      8  C   UNL     1      13.928  -3.421  16.682  1.00  0.00    -0.000 C 
BRANCH   8   9
ATOM      9  C   UNL     1      13.355  -3.775  15.304  1.00  0.00    -0.000 C 
BRANCH   9  10
ATOM     10  C   UNL     1      12.052  -3.012  15.039  1.00  0.00    -0.003 C 
ATOM     11  C   UNL     1      12.262  -1.900  14.016  1.00  0.00     0.004 C 
ENDBRANCH   9  10
ENDBRANCH   8   9
ENDBRANCH   7   8
ENDBRANCH   1   7
TORSDOF 7
ENDMDL
MODEL 9
REMARK VINA RESULT:    -4.471      4.214      5.376
REMARK INTER + INTRA:          -6.743
REMARK INTER:                  -6.039
REMARK INTRA:                  -0.704
REMARK UNBOUND:                -0.442
REMARK SMILES CCCCCCCCC(=O)[O-]
REMARK SMILES IDX 6 1 7 2 8 3 9 4 10 5 11 6 5 7 4 8 3 9 2 10 1 11
REMARK H PARENT
REMARK Flexibility Score: inf
ROOT
ATOM      1  C   UNL     1      16.067  -5.618  10.830  1.00  0.00     0.000 C 
ENDROOT
BRANCH   1   2
ATOM      2  C   UNL     1      17.386  -5.965  11.537  1.00  0.00     0.006 C 
BRANCH   2   3
ATOM      3  C   UNL     1      17.682  -5.019  12.709  1.00  0.00     0.053 C 
BRANCH   3   4
ATOM      4  C   UNL     1      19.103  -4.547  12.695  1.00  0.00     0.041 C 
ATOM      5  O   UNL     1      19.365  -3.323  12.557  1.00  0.00    -0.550 OA
ATOM      6  O   UNL     1      20.141  -5.465  12.802  1.00  0.00    -0.550 OA
ENDBRANCH   3   4
ENDBRANCH   2   3
ENDBRANCH   1   2
BRANCH   1   7
ATOM      7  C   UNL     1      15.117  -4.870  11.774  1.00  0.00     0.000 C 
BRANCH   7   8
ATOM      8  C   UNL     1      13.757  -5.572  11.858  1.00  0.00    -0.000 C 
BRANCH   8   9
ATOM      9  C   UNL     1      13.808  -6.754  12.834  1.00  0.00    -0.000 C 
BRANCH   9  10
ATOM     10  C   UNL     1      14.492  -6.353  14.147  1.00  0.00    -0.003 C 
ATOM     11  C   UNL     1      15.240  -7.532  14.760  1.00  0.00     0.004 C 
ENDBRANCH   9  10
ENDBRANCH   8   9
ENDBRANCH   7   8
ENDBRANCH   1   7
TORSDOF 7
ENDMDL
