MODEL 1
REMARK VINA RESULT:    -8.164      0.000      0.000
REMARK INTER + INTRA:         -23.852
REMARK INTER:                 -19.381
REMARK INTRA:                  -4.471
REMARK UNBOUND:                -4.471
REMARK SMILES O=C(OC[C@@H]1O[C@@H](OC(=O)c2cc(O)c(O)c(O)c2)[C@@H](OC(=O)c2cc(O)c(O)c(O)c2)[C@H](OC(=O)c2cc(O)c(O)c(O)c2)[C@@H]1OC(=O)c1cc(O)c(O)c(O)c1)c1cc(O)c(O)c(O)c1
REMARK SMILES IDX 5 1 46 2 33 3 20 4 7 5 6 6 4 7 3 8 2 9 1 10 59 11 60 12
REMARK SMILES IDX 61 13 67 14 63 15 65 16 62 17 64 19 66 21 47 23 48 24 49 25
REMARK SMILES IDX 50 26 58 27 51 28 56 29 52 30 54 31 57 32 53 34 55 36 34 38
REMARK SMILES IDX 35 39 36 40 37 41 45 42 38 43 43 44 39 45 41 46 44 47 40 49
REMARK SMILES IDX 42 51 8 53 9 54 10 55 11 56 19 57 12 58 17 59 13 60 15 61
REMARK SMILES IDX 18 62 14 64 16 66 21 68 22 69 23 70 24 71 32 72 25 73 30 74
REMARK SMILES IDX 26 75 28 76 31 77 27 79 29 81
REMARK H PARENT 62 18 64 20 66 22 57 33 53 35 55 37 44 48 40 50 42 52 18 63
REMARK H PARENT 14 65 16 67 31 78 27 80 29 82
REMARK Flexibility Score: inf
ROOT
ATOM      1  C   UNL     1      19.238  25.777  28.704  1.00  0.00     0.205 C 
ATOM      2  C   UNL     1      19.615  27.128  29.351  1.00  0.00     0.254 C 
ATOM      3  C   UNL     1      18.359  27.747  29.997  1.00  0.00     0.267 C 
ATOM      4  C   UNL     1      17.211  27.806  28.973  1.00  0.00     0.290 C 
ATOM      5  C   UNL     1      17.018  26.430  28.313  1.00  0.00     0.357 C 
ATOM      6  O   UNL     1      18.222  25.961  27.728  1.00  0.00    -0.329 OA
ENDROOT
BRANCH   1   7
ATOM      7  C   UNL     1      20.461  25.120  28.042  1.00  0.00     0.269 C 
BRANCH   7   8
ATOM      8  O   UNL     1      20.530  25.463  26.659  1.00  0.00    -0.459 OA
BRANCH   8   9
ATOM      9  C   UNL     1      21.128  24.661  25.680  1.00  0.00     0.338 C 
ATOM     10  O   UNL     1      22.304  24.899  25.296  1.00  0.00    -0.246 OA
BRANCH   9  11
ATOM     11  C   UNL     1      20.382  23.510  25.124  1.00  0.00     0.067 A 
ATOM     12  C   UNL     1      20.608  23.095  23.805  1.00  0.00     0.066 A 
ATOM     13  C   UNL     1      19.900  22.022  23.262  1.00  0.00     0.162 A 
ATOM     14  C   UNL     1      19.438  22.824  25.902  1.00  0.00     0.066 A 
ATOM     15  C   UNL     1      18.945  21.341  24.038  1.00  0.00     0.200 A 
ATOM     16  C   UNL     1      18.719  21.745  25.378  1.00  0.00     0.162 A 
BRANCH  13  17
ATOM     17  O   UNL     1      20.145  21.654  21.937  1.00  0.00    -0.504 OA
ATOM     18  H   UNL     1      19.674  20.874  21.494  1.00  0.00     0.293 HD
ENDBRANCH  13  17
BRANCH  15  19
ATOM     19  O   UNL     1      18.241  20.285  23.451  1.00  0.00    -0.502 OA
ATOM     20  H   UNL     1      17.367  19.924  23.800  1.00  0.00     0.293 HD
ENDBRANCH  15  19
BRANCH  16  21
ATOM     21  O   UNL     1      17.805  21.103  26.217  1.00  0.00    -0.504 OA
ATOM     22  H   UNL     1      18.055  20.615  27.062  1.00  0.00     0.293 HD
ENDBRANCH  16  21
ENDBRANCH   9  11
ENDBRANCH   8   9
ENDBRANCH   7   8
ENDBRANCH   1   7
BRANCH   2  23
ATOM     23  O   UNL     1      20.127  28.008  28.350  1.00  0.00    -0.452 OA
BRANCH  23  24
ATOM     24  C   UNL     1      21.028  29.050  28.610  1.00  0.00     0.338 C 
ATOM     25  O   UNL     1      20.603  30.198  28.919  1.00  0.00    -0.246 OA
BRANCH  24  26
ATOM     26  C   UNL     1      22.480  28.796  28.523  1.00  0.00     0.067 A 
ATOM     27  C   UNL     1      23.038  28.208  27.374  1.00  0.00     0.066 A 
ATOM     28  C   UNL     1      23.322  29.149  29.589  1.00  0.00     0.066 A 
ATOM     29  C   UNL     1      24.414  27.977  27.290  1.00  0.00     0.162 A 
ATOM     30  C   UNL     1      24.698  28.915  29.516  1.00  0.00     0.162 A 
ATOM     31  C   UNL     1      25.250  28.326  28.365  1.00  0.00     0.200 A 
BRANCH  29  32
ATOM     32  O   UNL     1      24.936  27.418  26.122  1.00  0.00    -0.504 OA
ATOM     33  H   UNL     1      24.385  26.813  25.526  1.00  0.00     0.293 HD
ENDBRANCH  29  32
BRANCH  30  34
ATOM     34  O   UNL     1      25.523  29.261  30.587  1.00  0.00    -0.504 OA
ATOM     35  H   UNL     1      25.964  30.174  30.638  1.00  0.00     0.293 HD
ENDBRANCH  30  34
BRANCH  31  36
ATOM     36  O   UNL     1      26.623  28.091  28.274  1.00  0.00    -0.502 OA
ATOM     37  H   UNL     1      27.310  28.774  28.579  1.00  0.00     0.293 HD
ENDBRANCH  31  36
ENDBRANCH  24  26
ENDBRANCH  23  24
ENDBRANCH   2  23
BRANCH   3  38
ATOM     38  O   UNL     1      18.630  29.067  30.469  1.00  0.00    -0.450 OA
BRANCH  38  39
ATOM     39  C   UNL     1      18.830  29.403  31.812  1.00  0.00     0.338 C 
ATOM     40  O   UNL     1      18.044  28.966  32.698  1.00  0.00    -0.246 OA
BRANCH  39  41
ATOM     41  C   UNL     1      19.963  30.281  32.185  1.00  0.00     0.067 A 
ATOM     42  C   UNL     1      19.787  31.666  32.353  1.00  0.00     0.066 A 
ATOM     43  C   UNL     1      21.242  29.733  32.369  1.00  0.00     0.066 A 
ATOM     44  C   UNL     1      20.875  32.494  32.665  1.00  0.00     0.162 A 
ATOM     45  C   UNL     1      22.332  30.549  32.678  1.00  0.00     0.162 A 
ATOM     46  C   UNL     1      22.155  31.935  32.822  1.00  0.00     0.200 A 
BRANCH  44  47
ATOM     47  O   UNL     1      20.690  33.871  32.819  1.00  0.00    -0.504 OA
ATOM     48  H   UNL     1      20.725  34.507  32.029  1.00  0.00     0.293 HD
ENDBRANCH  44  47
BRANCH  45  49
ATOM     49  O   UNL     1      23.590  29.968  32.845  1.00  0.00    -0.504 OA
ATOM     50  H   UNL     1      23.970  29.311  32.177  1.00  0.00     0.293 HD
ENDBRANCH  45  49
BRANCH  46  51
ATOM     51  O   UNL     1      23.252  32.740  33.125  1.00  0.00    -0.502 OA
ATOM     52  H   UNL     1      24.199  32.379  33.168  1.00  0.00     0.293 HD
ENDBRANCH  46  51
ENDBRANCH  39  41
ENDBRANCH  38  39
ENDBRANCH   3  38
BRANCH   5  53
ATOM     53  O   UNL     1      16.512  25.481  29.255  1.00  0.00    -0.428 OA
BRANCH  53  54
ATOM     54  C   UNL     1      15.252  24.879  29.142  1.00  0.00     0.340 C 
ATOM     55  O   UNL     1      14.206  25.583  29.198  1.00  0.00    -0.246 OA
BRANCH  54  56
ATOM     56  C   UNL     1      15.158  23.410  28.987  1.00  0.00     0.067 A 
ATOM     57  C   UNL     1      14.911  22.849  27.723  1.00  0.00     0.066 A 
ATOM     58  C   UNL     1      15.325  22.563  30.095  1.00  0.00     0.066 A 
ATOM     59  C   UNL     1      14.823  21.458  27.567  1.00  0.00     0.162 A 
ATOM     60  C   UNL     1      15.246  21.172  29.943  1.00  0.00     0.162 A 
ATOM     61  C   UNL     1      14.987  20.616  28.680  1.00  0.00     0.200 A 
BRANCH  59  62
ATOM     62  O   UNL     1      14.574  20.909  26.312  1.00  0.00    -0.504 OA
ATOM     63  H   UNL     1      13.778  21.196  25.754  1.00  0.00     0.293 HD
ENDBRANCH  59  62
BRANCH  60  64
ATOM     64  O   UNL     1      15.412  20.351  31.059  1.00  0.00    -0.504 OA
ATOM     65  H   UNL     1      14.734  20.326  31.811  1.00  0.00     0.293 HD
ENDBRANCH  60  64
BRANCH  61  66
ATOM     66  O   UNL     1      14.899  19.228  28.548  1.00  0.00    -0.502 OA
ATOM     67  H   UNL     1      14.002  18.751  28.465  1.00  0.00     0.293 HD
ENDBRANCH  61  66
ENDBRANCH  54  56
ENDBRANCH  53  54
ENDBRANCH   5  53
BRANCH   4  68
ATOM     68  O   UNL     1      15.994  28.201  29.614  1.00  0.00    -0.448 OA
BRANCH  68  69
ATOM     69  C   UNL     1      15.372  29.440  29.401  1.00  0.00     0.339 C 
ATOM     70  O   UNL     1      14.273  29.498  28.787  1.00  0.00    -0.246 OA
BRANCH  69  71
ATOM     71  C   UNL     1      15.985  30.677  29.931  1.00  0.00     0.067 A 
ATOM     72  C   UNL     1      15.716  31.103  31.244  1.00  0.00     0.066 A 
ATOM     73  C   UNL     1      16.849  31.441  29.130  1.00  0.00     0.066 A 
ATOM     74  C   UNL     1      16.327  32.255  31.759  1.00  0.00     0.162 A 
ATOM     75  C   UNL     1      17.454  32.603  29.626  1.00  0.00     0.162 A 
ATOM     76  C   UNL     1      17.205  33.005  30.962  1.00  0.00     0.200 A 
BRANCH  74  77
ATOM     77  O   UNL     1      16.077  32.659  33.070  1.00  0.00    -0.504 OA
ATOM     78  H   UNL     1      16.766  33.164  33.606  1.00  0.00     0.293 HD
ENDBRANCH  74  77
BRANCH  75  79
ATOM     79  O   UNL     1      18.277  33.325  28.757  1.00  0.00    -0.504 OA
ATOM     80  H   UNL     1      19.057  32.928  28.257  1.00  0.00     0.293 HD
ENDBRANCH  75  79
BRANCH  76  81
ATOM     81  O   UNL     1      17.815  34.125  31.530  1.00  0.00    -0.502 OA
ATOM     82  H   UNL     1      18.215  34.872  30.989  1.00  0.00     0.293 HD
ENDBRANCH  76  81
ENDBRANCH  69  71
ENDBRANCH  68  69
ENDBRANCH   4  68
TORSDOF 31
ENDMDL
MODEL 2
REMARK VINA RESULT:    -7.594      1.629      7.702
REMARK INTER + INTRA:         -22.498
REMARK INTER:                 -20.105
REMARK INTRA:                  -2.393
REMARK UNBOUND:                -4.471
REMARK SMILES O=C(OC[C@@H]1O[C@@H](OC(=O)c2cc(O)c(O)c(O)c2)[C@@H](OC(=O)c2cc(O)c(O)c(O)c2)[C@H](OC(=O)c2cc(O)c(O)c(O)c2)[C@@H]1OC(=O)c1cc(O)c(O)c(O)c1)c1cc(O)c(O)c(O)c1
REMARK SMILES IDX 5 1 46 2 33 3 20 4 7 5 6 6 4 7 3 8 2 9 1 10 59 11 60 12
REMARK SMILES IDX 61 13 67 14 63 15 65 16 62 17 64 19 66 21 47 23 48 24 49 25
REMARK SMILES IDX 50 26 58 27 51 28 56 29 52 30 54 31 57 32 53 34 55 36 34 38
REMARK SMILES IDX 35 39 36 40 37 41 45 42 38 43 43 44 39 45 41 46 44 47 40 49
REMARK SMILES IDX 42 51 8 53 9 54 10 55 11 56 19 57 12 58 17 59 13 60 15 61
REMARK SMILES IDX 18 62 14 64 16 66 21 68 22 69 23 70 24 71 32 72 25 73 30 74
REMARK SMILES IDX 26 75 28 76 31 77 27 79 29 81
REMARK H PARENT 62 18 64 20 66 22 57 33 53 35 55 37 44 48 40 50 42 52 18 63
REMARK H PARENT 14 65 16 67 31 78 27 80 29 82
REMARK Flexibility Score: inf
ROOT
ATOM      1  C   UNL     1      20.275  27.097  29.352  1.00  0.00     0.205 C 
ATOM      2  C   UNL     1      19.070  27.632  30.157  1.00  0.00     0.254 C 
ATOM      3  C   UNL     1      17.797  26.878  29.724  1.00  0.00     0.267 C 
ATOM      4  C   UNL     1      17.643  26.937  28.193  1.00  0.00     0.290 C 
ATOM      5  C   UNL     1      18.950  26.496  27.511  1.00  0.00     0.357 C 
ATOM      6  O   UNL     1      20.054  27.266  27.959  1.00  0.00    -0.329 OA
ENDROOT
BRANCH   1   7
ATOM      7  C   UNL     1      21.572  27.822  29.750  1.00  0.00     0.269 C 
BRANCH   7   8
ATOM      8  O   UNL     1      22.123  28.517  28.632  1.00  0.00    -0.459 OA
BRANCH   8   9
ATOM      9  C   UNL     1      23.294  28.135  27.969  1.00  0.00     0.338 C 
ATOM     10  O   UNL     1      23.254  27.254  27.068  1.00  0.00    -0.246 OA
BRANCH   9  11
ATOM     11  C   UNL     1      24.574  28.795  28.307  1.00  0.00     0.067 A 
ATOM     12  C   UNL     1      24.619  29.778  29.305  1.00  0.00     0.066 A 
ATOM     13  C   UNL     1      25.817  30.420  29.622  1.00  0.00     0.162 A 
ATOM     14  C   UNL     1      25.756  28.454  27.633  1.00  0.00     0.066 A 
ATOM     15  C   UNL     1      27.000  30.087  28.938  1.00  0.00     0.200 A 
ATOM     16  C   UNL     1      26.967  29.085  27.937  1.00  0.00     0.162 A 
BRANCH  13  17
ATOM     17  O   UNL     1      25.811  31.406  30.612  1.00  0.00    -0.504 OA
ATOM     18  H   UNL     1      25.962  32.385  30.403  1.00  0.00     0.293 HD
ENDBRANCH  13  17
BRANCH  15  19
ATOM     19  O   UNL     1      28.174  30.769  29.271  1.00  0.00    -0.502 OA
ATOM     20  H   UNL     1      28.257  31.773  29.296  1.00  0.00     0.293 HD
ENDBRANCH  15  19
BRANCH  16  21
ATOM     21  O   UNL     1      28.105  28.682  27.232  1.00  0.00    -0.504 OA
ATOM     22  H   UNL     1      28.134  27.899  26.600  1.00  0.00     0.293 HD
ENDBRANCH  16  21
ENDBRANCH   9  11
ENDBRANCH   8   9
ENDBRANCH   7   8
ENDBRANCH   1   7
BRANCH   2  23
ATOM     23  O   UNL     1      18.914  29.029  29.908  1.00  0.00    -0.452 OA
BRANCH  23  24
ATOM     24  C   UNL     1      19.108  30.024  30.876  1.00  0.00     0.338 C 
ATOM     25  O   UNL     1      18.280  30.167  31.818  1.00  0.00    -0.246 OA
BRANCH  24  26
ATOM     26  C   UNL     1      20.291  30.903  30.789  1.00  0.00     0.067 A 
ATOM     27  C   UNL     1      21.337  30.793  31.723  1.00  0.00     0.066 A 
ATOM     28  C   UNL     1      20.387  31.855  29.764  1.00  0.00     0.066 A 
ATOM     29  C   UNL     1      22.460  31.619  31.634  1.00  0.00     0.162 A 
ATOM     30  C   UNL     1      21.504  32.690  29.671  1.00  0.00     0.162 A 
ATOM     31  C   UNL     1      22.546  32.577  30.608  1.00  0.00     0.200 A 
BRANCH  29  32
ATOM     32  O   UNL     1      23.492  31.463  32.561  1.00  0.00    -0.504 OA
ATOM     33  H   UNL     1      24.283  32.095  32.593  1.00  0.00     0.293 HD
ENDBRANCH  29  32
BRANCH  30  34
ATOM     34  O   UNL     1      21.582  33.642  28.652  1.00  0.00    -0.504 OA
ATOM     35  H   UNL     1      22.474  34.038  28.371  1.00  0.00     0.293 HD
ENDBRANCH  30  34
BRANCH  31  36
ATOM     36  O   UNL     1      23.670  33.400  30.526  1.00  0.00    -0.502 OA
ATOM     37  H   UNL     1      23.615  34.360  30.199  1.00  0.00     0.293 HD
ENDBRANCH  31  36
ENDBRANCH  24  26
ENDBRANCH  23  24
ENDBRANCH   2  23
BRANCH   3  38
ATOM     38  O   UNL     1      16.638  27.449  30.330  1.00  0.00    -0.450 OA
BRANCH  38  39
ATOM     39  C   UNL     1      15.681  28.209  29.650  1.00  0.00     0.338 C 
ATOM     40  O   UNL     1      14.807  27.639  28.940  1.00  0.00    -0.246 OA
BRANCH  39  41
ATOM     41  C   UNL     1      15.707  29.686  29.762  1.00  0.00     0.067 A 
ATOM     42  C   UNL     1      16.521  30.466  28.923  1.00  0.00     0.066 A 
ATOM     43  C   UNL     1      14.914  30.328  30.726  1.00  0.00     0.066 A 
ATOM     44  C   UNL     1      16.569  31.861  29.064  1.00  0.00     0.162 A 
ATOM     45  C   UNL     1      14.956  31.717  30.876  1.00  0.00     0.162 A 
ATOM     46  C   UNL     1      15.788  32.489  30.050  1.00  0.00     0.200 A 
BRANCH  44  47
ATOM     47  O   UNL     1      17.390  32.626  28.231  1.00  0.00    -0.504 OA
ATOM     48  H   UNL     1      17.488  33.629  28.350  1.00  0.00     0.293 HD
ENDBRANCH  44  47
BRANCH  45  49
ATOM     49  O   UNL     1      14.159  32.318  31.852  1.00  0.00    -0.504 OA
ATOM     50  H   UNL     1      14.377  33.226  32.238  1.00  0.00     0.293 HD
ENDBRANCH  45  49
BRANCH  46  51
ATOM     51  O   UNL     1      15.826  33.873  30.214  1.00  0.00    -0.502 OA
ATOM     52  H   UNL     1      15.200  34.365  30.843  1.00  0.00     0.293 HD
ENDBRANCH  46  51
ENDBRANCH  39  41
ENDBRANCH  38  39
ENDBRANCH   3  38
BRANCH   5  53
ATOM     53  O   UNL     1      19.188  25.102  27.720  1.00  0.00    -0.428 OA
BRANCH  53  54
ATOM     54  C   UNL     1      20.289  24.420  27.187  1.00  0.00     0.340 C 
ATOM     55  O   UNL     1      21.413  24.490  27.754  1.00  0.00    -0.246 OA
BRANCH  54  56
ATOM     56  C   UNL     1      20.128  23.641  25.939  1.00  0.00     0.067 A 
ATOM     57  C   UNL     1      21.101  23.721  24.929  1.00  0.00     0.066 A 
ATOM     58  C   UNL     1      19.013  22.807  25.756  1.00  0.00     0.066 A 
ATOM     59  C   UNL     1      20.958  22.984  23.744  1.00  0.00     0.162 A 
ATOM     60  C   UNL     1      18.868  22.063  24.577  1.00  0.00     0.162 A 
ATOM     61  C   UNL     1      19.836  22.155  23.564  1.00  0.00     0.200 A 
BRANCH  59  62
ATOM     62  O   UNL     1      21.923  23.072  22.744  1.00  0.00    -0.504 OA
ATOM     63  H   UNL     1      22.293  23.964  22.438  1.00  0.00     0.293 HD
ENDBRANCH  59  62
BRANCH  60  64
ATOM     64  O   UNL     1      17.750  21.245  24.416  1.00  0.00    -0.504 OA
ATOM     65  H   UNL     1      17.804  20.238  24.519  1.00  0.00     0.293 HD
ENDBRANCH  60  64
BRANCH  61  66
ATOM     66  O   UNL     1      19.672  21.416  22.390  1.00  0.00    -0.502 OA
ATOM     67  H   UNL     1      19.859  21.817  21.472  1.00  0.00     0.293 HD
ENDBRANCH  61  66
ENDBRANCH  54  56
ENDBRANCH  53  54
ENDBRANCH   5  53
BRANCH   4  68
ATOM     68  O   UNL     1      16.575  26.085  27.769  1.00  0.00    -0.448 OA
BRANCH  68  69
ATOM     69  C   UNL     1      16.276  24.856  28.377  1.00  0.00     0.339 C 
ATOM     70  O   UNL     1      16.519  24.682  29.601  1.00  0.00    -0.246 OA
BRANCH  69  71
ATOM     71  C   UNL     1      15.638  23.778  27.592  1.00  0.00     0.067 A 
ATOM     72  C   UNL     1      15.613  23.834  26.187  1.00  0.00     0.066 A 
ATOM     73  C   UNL     1      15.053  22.679  28.241  1.00  0.00     0.066 A 
ATOM     74  C   UNL     1      15.041  22.793  25.442  1.00  0.00     0.162 A 
ATOM     75  C   UNL     1      14.463  21.639  27.510  1.00  0.00     0.162 A 
ATOM     76  C   UNL     1      14.475  21.687  26.093  1.00  0.00     0.200 A 
BRANCH  74  77
ATOM     77  O   UNL     1      15.042  22.840  24.048  1.00  0.00    -0.504 OA
ATOM     78  H   UNL     1      15.887  23.021  23.528  1.00  0.00     0.293 HD
ENDBRANCH  74  77
BRANCH  75  79
ATOM     79  O   UNL     1      13.875  20.594  28.230  1.00  0.00    -0.504 OA
ATOM     80  H   UNL     1      13.712  20.615  29.224  1.00  0.00     0.293 HD
ENDBRANCH  75  79
BRANCH  76  81
ATOM     81  O   UNL     1      13.949  20.659  25.309  1.00  0.00    -0.502 OA
ATOM     82  H   UNL     1      12.975  20.408  25.302  1.00  0.00     0.293 HD
ENDBRANCH  76  81
ENDBRANCH  69  71
ENDBRANCH  68  69
ENDBRANCH   4  68
TORSDOF 31
ENDMDL
MODEL 3
REMARK VINA RESULT:    -7.453      1.607      7.379
REMARK INTER + INTRA:         -22.162
REMARK INTER:                 -19.728
REMARK INTRA:                  -2.435
REMARK UNBOUND:                -4.471
REMARK SMILES O=C(OC[C@@H]1O[C@@H](OC(=O)c2cc(O)c(O)c(O)c2)[C@@H](OC(=O)c2cc(O)c(O)c(O)c2)[C@H](OC(=O)c2cc(O)c(O)c(O)c2)[C@@H]1OC(=O)c1cc(O)c(O)c(O)c1)c1cc(O)c(O)c(O)c1
REMARK SMILES IDX 5 1 46 2 33 3 20 4 7 5 6 6 4 7 3 8 2 9 1 10 59 11 60 12
REMARK SMILES IDX 61 13 67 14 63 15 65 16 62 17 64 19 66 21 47 23 48 24 49 25
REMARK SMILES IDX 50 26 58 27 51 28 56 29 52 30 54 31 57 32 53 34 55 36 34 38
REMARK SMILES IDX 35 39 36 40 37 41 45 42 38 43 43 44 39 45 41 46 44 47 40 49
REMARK SMILES IDX 42 51 8 53 9 54 10 55 11 56 19 57 12 58 17 59 13 60 15 61
REMARK SMILES IDX 18 62 14 64 16 66 21 68 22 69 23 70 24 71 32 72 25 73 30 74
REMARK SMILES IDX 26 75 28 76 31 77 27 79 29 81
REMARK H PARENT 62 18 64 20 66 22 57 33 53 35 55 37 44 48 40 50 42 52 18 63
REMARK H PARENT 14 65 16 67 31 78 27 80 29 82
REMARK Flexibility Score: inf
ROOT
ATOM      1  C   UNL     1      17.789  25.794  28.197  1.00  0.00     0.205 C 
ATOM      2  C   UNL     1      19.329  25.673  28.231  1.00  0.00     0.254 C 
ATOM      3  C   UNL     1      19.929  26.998  28.744  1.00  0.00     0.267 C 
ATOM      4  C   UNL     1      19.380  28.179  27.922  1.00  0.00     0.290 C 
ATOM      5  C   UNL     1      17.844  28.116  27.864  1.00  0.00     0.357 C 
ATOM      6  O   UNL     1      17.395  26.869  27.358  1.00  0.00    -0.329 OA
ENDROOT
BRANCH   1   7
ATOM      7  C   UNL     1      17.143  24.494  27.690  1.00  0.00     0.269 C 
BRANCH   7   8
ATOM      8  O   UNL     1      15.861  24.757  27.123  1.00  0.00    -0.459 OA
BRANCH   8   9
ATOM      9  C   UNL     1      14.744  25.163  27.863  1.00  0.00     0.338 C 
ATOM     10  O   UNL     1      13.889  25.934  27.349  1.00  0.00    -0.246 OA
BRANCH   9  11
ATOM     11  C   UNL     1      14.554  24.654  29.239  1.00  0.00     0.067 A 
ATOM     12  C   UNL     1      14.572  23.276  29.490  1.00  0.00     0.066 A 
ATOM     13  C   UNL     1      14.377  22.781  30.781  1.00  0.00     0.162 A 
ATOM     14  C   UNL     1      14.347  25.539  30.308  1.00  0.00     0.066 A 
ATOM     15  C   UNL     1      14.159  23.667  31.851  1.00  0.00     0.200 A 
ATOM     16  C   UNL     1      14.152  25.064  31.609  1.00  0.00     0.162 A 
BRANCH  13  17
ATOM     17  O   UNL     1      14.386  21.399  30.981  1.00  0.00    -0.504 OA
ATOM     18  H   UNL     1      13.797  20.947  31.670  1.00  0.00     0.293 HD
ENDBRANCH  13  17
BRANCH  15  19
ATOM     19  O   UNL     1      13.947  23.132  33.125  1.00  0.00    -0.502 OA
ATOM     20  H   UNL     1      14.051  23.653  33.981  1.00  0.00     0.293 HD
ENDBRANCH  15  19
BRANCH  16  21
ATOM     21  O   UNL     1      13.966  26.006  32.624  1.00  0.00    -0.504 OA
ATOM     22  H   UNL     1      13.208  25.985  33.287  1.00  0.00     0.293 HD
ENDBRANCH  16  21
ENDBRANCH   9  11
ENDBRANCH   8   9
ENDBRANCH   7   8
ENDBRANCH   1   7
BRANCH   2  23
ATOM     23  O   UNL     1      19.813  25.399  26.917  1.00  0.00    -0.452 OA
BRANCH  23  24
ATOM     24  C   UNL     1      20.683  24.344  26.607  1.00  0.00     0.338 C 
ATOM     25  O   UNL     1      21.678  24.101  27.344  1.00  0.00    -0.246 OA
BRANCH  24  26
ATOM     26  C   UNL     1      20.426  23.515  25.412  1.00  0.00     0.067 A 
ATOM     27  C   UNL     1      21.314  23.533  24.322  1.00  0.00     0.066 A 
ATOM     28  C   UNL     1      19.292  22.692  25.357  1.00  0.00     0.066 A 
ATOM     29  C   UNL     1      21.075  22.740  23.196  1.00  0.00     0.162 A 
ATOM     30  C   UNL     1      19.041  21.901  24.232  1.00  0.00     0.162 A 
ATOM     31  C   UNL     1      19.932  21.924  23.145  1.00  0.00     0.200 A 
BRANCH  29  32
ATOM     32  O   UNL     1      21.993  22.761  22.145  1.00  0.00    -0.504 OA
ATOM     33  H   UNL     1      22.587  21.967  21.938  1.00  0.00     0.293 HD
ENDBRANCH  29  32
BRANCH  30  34
ATOM     34  O   UNL     1      17.902  21.094  24.185  1.00  0.00    -0.504 OA
ATOM     35  H   UNL     1      17.509  20.792  23.299  1.00  0.00     0.293 HD
ENDBRANCH  30  34
BRANCH  31  36
ATOM     36  O   UNL     1      19.698  21.136  22.016  1.00  0.00    -0.502 OA
ATOM     37  H   UNL     1      20.215  21.263  21.151  1.00  0.00     0.293 HD
ENDBRANCH  31  36
ENDBRANCH  24  26
ENDBRANCH  23  24
ENDBRANCH   2  23
BRANCH   3  38
ATOM     38  O   UNL     1      21.353  26.983  28.642  1.00  0.00    -0.450 OA
BRANCH  38  39
ATOM     39  C   UNL     1      22.221  27.532  29.591  1.00  0.00     0.338 C 
ATOM     40  O   UNL     1      21.877  27.592  30.803  1.00  0.00    -0.246 OA
BRANCH  39  41
ATOM     41  C   UNL     1      23.541  28.049  29.161  1.00  0.00     0.067 A 
ATOM     42  C   UNL     1      24.173  29.097  29.853  1.00  0.00     0.066 A 
ATOM     43  C   UNL     1      24.177  27.496  28.039  1.00  0.00     0.066 A 
ATOM     44  C   UNL     1      25.403  29.607  29.414  1.00  0.00     0.162 A 
ATOM     45  C   UNL     1      25.402  27.999  27.592  1.00  0.00     0.162 A 
ATOM     46  C   UNL     1      26.018  29.060  28.274  1.00  0.00     0.200 A 
BRANCH  44  47
ATOM     47  O   UNL     1      26.018  30.656  30.103  1.00  0.00    -0.504 OA
ATOM     48  H   UNL     1      25.996  30.717  31.116  1.00  0.00     0.293 HD
ENDBRANCH  44  47
BRANCH  45  49
ATOM     49  O   UNL     1      25.999  27.428  26.467  1.00  0.00    -0.504 OA
ATOM     50  H   UNL     1      26.799  26.813  26.538  1.00  0.00     0.293 HD
ENDBRANCH  45  49
BRANCH  46  51
ATOM     51  O   UNL     1      27.237  29.557  27.814  1.00  0.00    -0.502 OA
ATOM     52  H   UNL     1      27.528  30.516  27.968  1.00  0.00     0.293 HD
ENDBRANCH  46  51
ENDBRANCH  39  41
ENDBRANCH  38  39
ENDBRANCH   3  38
BRANCH   5  53
ATOM     53  O   UNL     1      17.274  28.373  29.150  1.00  0.00    -0.428 OA
BRANCH  53  54
ATOM     54  C   UNL     1      16.032  28.993  29.333  1.00  0.00     0.340 C 
ATOM     55  O   UNL     1      14.992  28.492  28.824  1.00  0.00    -0.246 OA
BRANCH  54  56
ATOM     56  C   UNL     1      15.954  30.255  30.103  1.00  0.00     0.067 A 
ATOM     57  C   UNL     1      15.150  30.331  31.252  1.00  0.00     0.066 A 
ATOM     58  C   UNL     1      16.690  31.382  29.703  1.00  0.00     0.066 A 
ATOM     59  C   UNL     1      15.073  31.522  31.989  1.00  0.00     0.162 A 
ATOM     60  C   UNL     1      16.623  32.572  30.440  1.00  0.00     0.162 A 
ATOM     61  C   UNL     1      15.808  32.648  31.580  1.00  0.00     0.200 A 
BRANCH  59  62
ATOM     62  O   UNL     1      14.269  31.592  33.124  1.00  0.00    -0.504 OA
ATOM     63  H   UNL     1      13.273  31.766  33.061  1.00  0.00     0.293 HD
ENDBRANCH  59  62
BRANCH  60  64
ATOM     64  O   UNL     1      17.360  33.680  30.021  1.00  0.00    -0.504 OA
ATOM     65  H   UNL     1      17.999  34.164  30.641  1.00  0.00     0.293 HD
ENDBRANCH  60  64
BRANCH  61  66
ATOM     66  O   UNL     1      15.742  33.845  32.297  1.00  0.00    -0.502 OA
ATOM     67  H   UNL     1      16.439  34.580  32.182  1.00  0.00     0.293 HD
ENDBRANCH  61  66
ENDBRANCH  54  56
ENDBRANCH  53  54
ENDBRANCH   5  53
BRANCH   4  68
ATOM     68  O   UNL     1      19.782  29.421  28.510  1.00  0.00    -0.448 OA
BRANCH  68  69
ATOM     69  C   UNL     1      19.762  29.667  29.891  1.00  0.00     0.339 C 
ATOM     70  O   UNL     1      19.172  28.867  30.666  1.00  0.00    -0.246 OA
BRANCH  69  71
ATOM     71  C   UNL     1      20.467  30.843  30.444  1.00  0.00     0.067 A 
ATOM     72  C   UNL     1      19.904  31.583  31.500  1.00  0.00     0.066 A 
ATOM     73  C   UNL     1      21.711  31.234  29.924  1.00  0.00     0.066 A 
ATOM     74  C   UNL     1      20.590  32.675  32.049  1.00  0.00     0.162 A 
ATOM     75  C   UNL     1      22.400  32.334  30.452  1.00  0.00     0.162 A 
ATOM     76  C   UNL     1      21.842  33.051  31.540  1.00  0.00     0.200 A 
BRANCH  74  77
ATOM     77  O   UNL     1      20.041  33.390  33.113  1.00  0.00    -0.504 OA
ATOM     78  H   UNL     1      20.603  33.682  33.898  1.00  0.00     0.293 HD
ENDBRANCH  74  77
BRANCH  75  79
ATOM     79  O   UNL     1      23.619  32.678  29.861  1.00  0.00    -0.504 OA
ATOM     80  H   UNL     1      24.042  33.590  29.927  1.00  0.00     0.293 HD
ENDBRANCH  75  79
BRANCH  76  81
ATOM     81  O   UNL     1      22.503  34.124  32.142  1.00  0.00    -0.502 OA
ATOM     82  H   UNL     1      22.082  34.714  32.838  1.00  0.00     0.293 HD
ENDBRANCH  76  81
ENDBRANCH  69  71
ENDBRANCH  68  69
ENDBRANCH   4  68
TORSDOF 31
ENDMDL
MODEL 4
REMARK VINA RESULT:    -7.408      1.599      7.427
REMARK INTER + INTRA:         -22.055
REMARK INTER:                 -19.856
REMARK INTRA:                  -2.199
REMARK UNBOUND:                -4.471
REMARK SMILES O=C(OC[C@@H]1O[C@@H](OC(=O)c2cc(O)c(O)c(O)c2)[C@@H](OC(=O)c2cc(O)c(O)c(O)c2)[C@H](OC(=O)c2cc(O)c(O)c(O)c2)[C@@H]1OC(=O)c1cc(O)c(O)c(O)c1)c1cc(O)c(O)c(O)c1
REMARK SMILES IDX 5 1 46 2 33 3 20 4 7 5 6 6 4 7 3 8 2 9 1 10 59 11 60 12
REMARK SMILES IDX 61 13 67 14 63 15 65 16 62 17 64 19 66 21 47 23 48 24 49 25
REMARK SMILES IDX 50 26 58 27 51 28 56 29 52 30 54 31 57 32 53 34 55 36 34 38
REMARK SMILES IDX 35 39 36 40 37 41 45 42 38 43 43 44 39 45 41 46 44 47 40 49
REMARK SMILES IDX 42 51 8 53 9 54 10 55 11 56 19 57 12 58 17 59 13 60 15 61
REMARK SMILES IDX 18 62 14 64 16 66 21 68 22 69 23 70 24 71 32 72 25 73 30 74
REMARK SMILES IDX 26 75 28 76 31 77 27 79 29 81
REMARK H PARENT 62 18 64 20 66 22 57 33 53 35 55 37 44 48 40 50 42 52 18 63
REMARK H PARENT 14 65 16 67 31 78 27 80 29 82
REMARK Flexibility Score: inf
ROOT
ATOM      1  C   UNL     1      17.792  25.727  28.132  1.00  0.00     0.205 C 
ATOM      2  C   UNL     1      19.331  25.610  28.183  1.00  0.00     0.254 C 
ATOM      3  C   UNL     1      19.921  26.927  28.727  1.00  0.00     0.267 C 
ATOM      4  C   UNL     1      19.379  28.121  27.920  1.00  0.00     0.290 C 
ATOM      5  C   UNL     1      17.844  28.055  27.842  1.00  0.00     0.357 C 
ATOM      6  O   UNL     1      17.405  26.816  27.308  1.00  0.00    -0.329 OA
ENDROOT
BRANCH   1   7
ATOM      7  C   UNL     1      17.156  24.434  27.594  1.00  0.00     0.269 C 
BRANCH   7   8
ATOM      8  O   UNL     1      15.867  24.699  27.044  1.00  0.00    -0.459 OA
BRANCH   8   9
ATOM      9  C   UNL     1      14.760  25.106  27.798  1.00  0.00     0.338 C 
ATOM     10  O   UNL     1      13.882  25.852  27.286  1.00  0.00    -0.246 OA
BRANCH   9  11
ATOM     11  C   UNL     1      14.608  24.627  29.190  1.00  0.00     0.067 A 
ATOM     12  C   UNL     1      14.499  23.256  29.456  1.00  0.00     0.066 A 
ATOM     13  C   UNL     1      14.338  22.791  30.762  1.00  0.00     0.162 A 
ATOM     14  C   UNL     1      14.564  25.534  30.259  1.00  0.00     0.066 A 
ATOM     15  C   UNL     1      14.283  23.701  31.834  1.00  0.00     0.200 A 
ATOM     16  C   UNL     1      14.406  25.089  31.576  1.00  0.00     0.162 A 
BRANCH  13  17
ATOM     17  O   UNL     1      14.216  21.417  30.979  1.00  0.00    -0.504 OA
ATOM     18  H   UNL     1      13.681  20.816  30.362  1.00  0.00     0.293 HD
ENDBRANCH  13  17
BRANCH  15  19
ATOM     19  O   UNL     1      14.100  23.197  33.125  1.00  0.00    -0.502 OA
ATOM     20  H   UNL     1      14.707  23.403  33.903  1.00  0.00     0.293 HD
ENDBRANCH  15  19
BRANCH  16  21
ATOM     21  O   UNL     1      14.385  26.052  32.589  1.00  0.00    -0.504 OA
ATOM     22  H   UNL     1      13.781  26.016  33.394  1.00  0.00     0.293 HD
ENDBRANCH  16  21
ENDBRANCH   9  11
ENDBRANCH   8   9
ENDBRANCH   7   8
ENDBRANCH   1   7
BRANCH   2  23
ATOM     23  O   UNL     1      19.833  25.361  26.870  1.00  0.00    -0.452 OA
BRANCH  23  24
ATOM     24  C   UNL     1      20.682  24.293  26.545  1.00  0.00     0.338 C 
ATOM     25  O   UNL     1      21.728  24.083  27.219  1.00  0.00    -0.246 OA
BRANCH  24  26
ATOM     26  C   UNL     1      20.342  23.413  25.409  1.00  0.00     0.067 A 
ATOM     27  C   UNL     1      19.183  22.618  25.439  1.00  0.00     0.066 A 
ATOM     28  C   UNL     1      21.173  23.369  24.279  1.00  0.00     0.066 A 
ATOM     29  C   UNL     1      18.858  21.792  24.359  1.00  0.00     0.162 A 
ATOM     30  C   UNL     1      20.860  22.542  23.197  1.00  0.00     0.162 A 
ATOM     31  C   UNL     1      19.700  21.747  23.234  1.00  0.00     0.200 A 
BRANCH  29  32
ATOM     32  O   UNL     1      17.685  21.038  24.412  1.00  0.00    -0.504 OA
ATOM     33  H   UNL     1      16.877  21.342  24.942  1.00  0.00     0.293 HD
ENDBRANCH  29  32
BRANCH  30  34
ATOM     34  O   UNL     1      21.701  22.498  22.084  1.00  0.00    -0.504 OA
ATOM     35  H   UNL     1      21.420  22.022  21.232  1.00  0.00     0.293 HD
ENDBRANCH  30  34
BRANCH  31  36
ATOM     36  O   UNL     1      19.370  20.920  22.160  1.00  0.00    -0.502 OA
ATOM     37  H   UNL     1      19.959  20.142  21.874  1.00  0.00     0.293 HD
ENDBRANCH  31  36
ENDBRANCH  24  26
ENDBRANCH  23  24
ENDBRANCH   2  23
BRANCH   3  38
ATOM     38  O   UNL     1      21.346  26.917  28.642  1.00  0.00    -0.450 OA
BRANCH  38  39
ATOM     39  C   UNL     1      22.199  27.530  29.566  1.00  0.00     0.338 C 
ATOM     40  O   UNL     1      21.858  27.622  30.777  1.00  0.00    -0.246 OA
BRANCH  39  41
ATOM     41  C   UNL     1      23.499  28.077  29.110  1.00  0.00     0.067 A 
ATOM     42  C   UNL     1      24.181  27.517  28.017  1.00  0.00     0.066 A 
ATOM     43  C   UNL     1      24.071  29.168  29.781  1.00  0.00     0.066 A 
ATOM     44  C   UNL     1      25.430  28.016  27.619  1.00  0.00     0.162 A 
ATOM     45  C   UNL     1      25.316  29.672  29.394  1.00  0.00     0.162 A 
ATOM     46  C   UNL     1      26.004  29.094  28.315  1.00  0.00     0.200 A 
BRANCH  44  47
ATOM     47  O   UNL     1      26.106  27.444  26.537  1.00  0.00    -0.504 OA
ATOM     48  H   UNL     1      27.087  27.191  26.592  1.00  0.00     0.293 HD
ENDBRANCH  44  47
BRANCH  45  49
ATOM     49  O   UNL     1      25.857  30.753  30.091  1.00  0.00    -0.504 OA
ATOM     50  H   UNL     1      26.342  31.506  29.621  1.00  0.00     0.293 HD
ENDBRANCH  45  49
BRANCH  46  51
ATOM     51  O   UNL     1      27.249  29.601  27.943  1.00  0.00    -0.502 OA
ATOM     52  H   UNL     1      28.090  29.431  28.483  1.00  0.00     0.293 HD
ENDBRANCH  46  51
ENDBRANCH  39  41
ENDBRANCH  38  39
ENDBRANCH   3  38
BRANCH   5  53
ATOM     53  O   UNL     1      17.258  28.287  29.125  1.00  0.00    -0.428 OA
BRANCH  53  54
ATOM     54  C   UNL     1      16.031  28.937  29.307  1.00  0.00     0.340 C 
ATOM     55  O   UNL     1      14.978  28.456  28.806  1.00  0.00    -0.246 OA
BRANCH  54  56
ATOM     56  C   UNL     1      15.986  30.208  30.065  1.00  0.00     0.067 A 
ATOM     57  C   UNL     1      15.219  30.301  31.239  1.00  0.00     0.066 A 
ATOM     58  C   UNL     1      16.715  31.326  29.630  1.00  0.00     0.066 A 
ATOM     59  C   UNL     1      15.172  31.499  31.965  1.00  0.00     0.162 A 
ATOM     60  C   UNL     1      16.679  32.524  30.356  1.00  0.00     0.162 A 
ATOM     61  C   UNL     1      15.901  32.617  31.521  1.00  0.00     0.200 A 
BRANCH  59  62
ATOM     62  O   UNL     1      14.407  31.587  33.124  1.00  0.00    -0.504 OA
ATOM     63  H   UNL     1      14.514  30.924  33.884  1.00  0.00     0.293 HD
ENDBRANCH  59  62
BRANCH  60  64
ATOM     64  O   UNL     1      17.409  33.623  29.901  1.00  0.00    -0.504 OA
ATOM     65  H   UNL     1      16.971  34.519  29.722  1.00  0.00     0.293 HD
ENDBRANCH  60  64
BRANCH  61  66
ATOM     66  O   UNL     1      15.865  33.822  32.227  1.00  0.00    -0.502 OA
ATOM     67  H   UNL     1      16.688  34.191  32.703  1.00  0.00     0.293 HD
ENDBRANCH  61  66
ENDBRANCH  54  56
ENDBRANCH  53  54
ENDBRANCH   5  53
BRANCH   4  68
ATOM     68  O   UNL     1      19.770  29.353  28.535  1.00  0.00    -0.448 OA
BRANCH  68  69
ATOM     69  C   UNL     1      19.743  29.570  29.921  1.00  0.00     0.339 C 
ATOM     70  O   UNL     1      19.199  28.725  30.682  1.00  0.00    -0.246 OA
BRANCH  69  71
ATOM     71  C   UNL     1      20.385  30.771  30.495  1.00  0.00     0.067 A 
ATOM     72  C   UNL     1      19.755  31.499  31.520  1.00  0.00     0.066 A 
ATOM     73  C   UNL     1      21.638  31.198  30.027  1.00  0.00     0.066 A 
ATOM     74  C   UNL     1      20.382  32.616  32.090  1.00  0.00     0.162 A 
ATOM     75  C   UNL     1      22.269  32.322  30.576  1.00  0.00     0.162 A 
ATOM     76  C   UNL     1      21.643  33.028  31.633  1.00  0.00     0.200 A 
BRANCH  74  77
ATOM     77  O   UNL     1      19.765  33.319  33.125  1.00  0.00    -0.504 OA
ATOM     78  H   UNL     1      19.387  34.243  32.982  1.00  0.00     0.293 HD
ENDBRANCH  74  77
BRANCH  75  79
ATOM     79  O   UNL     1      23.502  32.701  30.035  1.00  0.00    -0.504 OA
ATOM     80  H   UNL     1      24.286  32.079  29.925  1.00  0.00     0.293 HD
ENDBRANCH  75  79
BRANCH  76  81
ATOM     81  O   UNL     1      22.242  34.125  32.256  1.00  0.00    -0.502 OA
ATOM     82  H   UNL     1      23.158  34.466  32.017  1.00  0.00     0.293 HD
ENDBRANCH  76  81
ENDBRANCH  69  71
ENDBRANCH  68  69
ENDBRANCH   4  68
TORSDOF 31
ENDMDL
MODEL 5
REMARK VINA RESULT:    -7.332      1.691      7.949
REMARK INTER + INTRA:         -21.875
REMARK INTER:                 -18.631
REMARK INTRA:                  -3.244
REMARK UNBOUND:                -4.471
REMARK SMILES O=C(OC[C@@H]1O[C@@H](OC(=O)c2cc(O)c(O)c(O)c2)[C@@H](OC(=O)c2cc(O)c(O)c(O)c2)[C@H](OC(=O)c2cc(O)c(O)c(O)c2)[C@@H]1OC(=O)c1cc(O)c(O)c(O)c1)c1cc(O)c(O)c(O)c1
REMARK SMILES IDX 5 1 46 2 33 3 20 4 7 5 6 6 4 7 3 8 2 9 1 10 59 11 60 12
REMARK SMILES IDX 61 13 67 14 63 15 65 16 62 17 64 19 66 21 47 23 48 24 49 25
REMARK SMILES IDX 50 26 58 27 51 28 56 29 52 30 54 31 57 32 53 34 55 36 34 38
REMARK SMILES IDX 35 39 36 40 37 41 45 42 38 43 43 44 39 45 41 46 44 47 40 49
REMARK SMILES IDX 42 51 8 53 9 54 10 55 11 56 19 57 12 58 17 59 13 60 15 61
REMARK SMILES IDX 18 62 14 64 16 66 21 68 22 69 23 70 24 71 32 72 25 73 30 74
REMARK SMILES IDX 26 75 28 76 31 77 27 79 29 81
REMARK H PARENT 62 18 64 20 66 22 57 33 53 35 55 37 44 48 40 50 42 52 18 63
REMARK H PARENT 14 65 16 67 31 78 27 80 29 82
REMARK Flexibility Score: inf
ROOT
ATOM      1  C   UNL     1      19.833  25.801  27.863  1.00  0.00     0.205 C 
ATOM      2  C   UNL     1      18.545  26.652  27.842  1.00  0.00     0.254 C 
ATOM      3  C   UNL     1      18.872  28.077  28.331  1.00  0.00     0.267 C 
ATOM      4  C   UNL     1      19.598  28.017  29.687  1.00  0.00     0.290 C 
ATOM      5  C   UNL     1      20.788  27.044  29.609  1.00  0.00     0.357 C 
ATOM      6  O   UNL     1      20.378  25.757  29.173  1.00  0.00    -0.329 OA
ENDROOT
BRANCH   1   7
ATOM      7  C   UNL     1      19.556  24.366  27.383  1.00  0.00     0.269 C 
BRANCH   7   8
ATOM      8  O   UNL     1      19.765  24.257  25.976  1.00  0.00    -0.459 OA
BRANCH   8   9
ATOM      9  C   UNL     1      21.018  24.353  25.358  1.00  0.00     0.338 C 
ATOM     10  O   UNL     1      21.879  25.166  25.792  1.00  0.00    -0.246 OA
BRANCH   9  11
ATOM     11  C   UNL     1      21.338  23.471  24.215  1.00  0.00     0.067 A 
ATOM     12  C   UNL     1      22.656  23.369  23.751  1.00  0.00     0.066 A 
ATOM     13  C   UNL     1      22.970  22.553  22.662  1.00  0.00     0.162 A 
ATOM     14  C   UNL     1      20.332  22.731  23.576  1.00  0.00     0.066 A 
ATOM     15  C   UNL     1      21.959  21.820  22.015  1.00  0.00     0.200 A 
ATOM     16  C   UNL     1      20.625  21.906  22.486  1.00  0.00     0.162 A 
BRANCH  13  17
ATOM     17  O   UNL     1      24.294  22.495  22.223  1.00  0.00    -0.504 OA
ATOM     18  H   UNL     1      25.075  22.742  22.820  1.00  0.00     0.293 HD
ENDBRANCH  13  17
BRANCH  15  19
ATOM     19  O   UNL     1      22.311  21.031  20.915  1.00  0.00    -0.502 OA
ATOM     20  H   UNL     1      22.491  20.040  20.965  1.00  0.00     0.293 HD
ENDBRANCH  15  19
BRANCH  16  21
ATOM     21  O   UNL     1      19.572  21.190  21.910  1.00  0.00    -0.504 OA
ATOM     22  H   UNL     1      19.145  21.418  21.028  1.00  0.00     0.293 HD
ENDBRANCH  16  21
ENDBRANCH   9  11
ENDBRANCH   8   9
ENDBRANCH   7   8
ENDBRANCH   1   7
BRANCH   2  23
ATOM     23  O   UNL     1      17.569  26.058  28.699  1.00  0.00    -0.452 OA
BRANCH  23  24
ATOM     24  C   UNL     1      16.241  25.814  28.322  1.00  0.00     0.338 C 
ATOM     25  O   UNL     1      15.409  26.761  28.269  1.00  0.00    -0.246 OA
BRANCH  24  26
ATOM     26  C   UNL     1      15.822  24.438  27.985  1.00  0.00     0.067 A 
ATOM     27  C   UNL     1      15.161  23.637  28.932  1.00  0.00     0.066 A 
ATOM     28  C   UNL     1      16.072  23.920  26.706  1.00  0.00     0.066 A 
ATOM     29  C   UNL     1      14.756  22.339  28.608  1.00  0.00     0.162 A 
ATOM     30  C   UNL     1      15.677  22.621  26.375  1.00  0.00     0.162 A 
ATOM     31  C   UNL     1      15.018  21.823  27.327  1.00  0.00     0.200 A 
BRANCH  29  32
ATOM     32  O   UNL     1      14.077  21.582  29.565  1.00  0.00    -0.504 OA
ATOM     33  H   UNL     1      14.423  21.481  30.511  1.00  0.00     0.293 HD
ENDBRANCH  29  32
BRANCH  30  34
ATOM     34  O   UNL     1      15.942  22.112  25.102  1.00  0.00    -0.504 OA
ATOM     35  H   UNL     1      15.968  21.112  24.931  1.00  0.00     0.293 HD
ENDBRANCH  30  34
BRANCH  31  36
ATOM     36  O   UNL     1      14.612  20.526  27.011  1.00  0.00    -0.502 OA
ATOM     37  H   UNL     1      14.696  19.757  27.669  1.00  0.00     0.293 HD
ENDBRANCH  31  36
ENDBRANCH  24  26
ENDBRANCH  23  24
ENDBRANCH   2  23
BRANCH   3  38
ATOM     38  O   UNL     1      17.680  28.850  28.476  1.00  0.00    -0.450 OA
BRANCH  38  39
ATOM     39  C   UNL     1      17.647  30.184  28.895  1.00  0.00     0.338 C 
ATOM     40  O   UNL     1      18.406  31.036  28.356  1.00  0.00    -0.246 OA
BRANCH  39  41
ATOM     41  C   UNL     1      16.722  30.587  29.980  1.00  0.00     0.067 A 
ATOM     42  C   UNL     1      15.746  29.702  30.471  1.00  0.00     0.066 A 
ATOM     43  C   UNL     1      16.808  31.875  30.530  1.00  0.00     0.066 A 
ATOM     44  C   UNL     1      14.849  30.107  31.470  1.00  0.00     0.162 A 
ATOM     45  C   UNL     1      15.918  32.289  31.524  1.00  0.00     0.162 A 
ATOM     46  C   UNL     1      14.930  31.409  31.994  1.00  0.00     0.200 A 
BRANCH  44  47
ATOM     47  O   UNL     1      13.875  29.223  31.943  1.00  0.00    -0.504 OA
ATOM     48  H   UNL     1      13.989  28.718  32.816  1.00  0.00     0.293 HD
ENDBRANCH  44  47
BRANCH  45  49
ATOM     49  O   UNL     1      16.030  33.581  32.039  1.00  0.00    -0.504 OA
ATOM     50  H   UNL     1      16.676  33.808  32.784  1.00  0.00     0.293 HD
ENDBRANCH  45  49
BRANCH  46  51
ATOM     51  O   UNL     1      14.043  31.836  32.982  1.00  0.00    -0.502 OA
ATOM     52  H   UNL     1      14.335  32.407  33.768  1.00  0.00     0.293 HD
ENDBRANCH  46  51
ENDBRANCH  39  41
ENDBRANCH  38  39
ENDBRANCH   3  38
BRANCH   5  53
ATOM     53  O   UNL     1      21.814  27.562  28.758  1.00  0.00    -0.428 OA
BRANCH  53  54
ATOM     54  C   UNL     1      23.064  26.952  28.599  1.00  0.00     0.340 C 
ATOM     55  O   UNL     1      23.164  25.695  28.623  1.00  0.00    -0.246 OA
BRANCH  54  56
ATOM     56  C   UNL     1      24.269  27.795  28.434  1.00  0.00     0.067 A 
ATOM     57  C   UNL     1      25.249  27.446  27.489  1.00  0.00     0.066 A 
ATOM     58  C   UNL     1      24.442  28.955  29.206  1.00  0.00     0.066 A 
ATOM     59  C   UNL     1      26.393  28.241  27.324  1.00  0.00     0.162 A 
ATOM     60  C   UNL     1      25.578  29.757  29.040  1.00  0.00     0.162 A 
ATOM     61  C   UNL     1      26.561  29.398  28.103  1.00  0.00     0.200 A 
BRANCH  59  62
ATOM     62  O   UNL     1      27.362  27.886  26.389  1.00  0.00    -0.504 OA
ATOM     63  H   UNL     1      27.638  28.516  25.644  1.00  0.00     0.293 HD
ENDBRANCH  59  62
BRANCH  60  64
ATOM     64  O   UNL     1      25.729  30.903  29.821  1.00  0.00    -0.504 OA
ATOM     65  H   UNL     1      26.100  30.863  30.763  1.00  0.00     0.293 HD
ENDBRANCH  60  64
BRANCH  61  66
ATOM     66  O   UNL     1      27.695  30.201  27.957  1.00  0.00    -0.502 OA
ATOM     67  H   UNL     1      28.336  30.090  27.172  1.00  0.00     0.293 HD
ENDBRANCH  61  66
ENDBRANCH  54  56
ENDBRANCH  53  54
ENDBRANCH   5  53
BRANCH   4  68
ATOM     68  O   UNL     1      20.071  29.317  30.055  1.00  0.00    -0.448 OA
BRANCH  68  69
ATOM     69  C   UNL     1      20.302  29.711  31.381  1.00  0.00     0.339 C 
ATOM     70  O   UNL     1      19.460  29.435  32.278  1.00  0.00    -0.246 OA
BRANCH  69  71
ATOM     71  C   UNL     1      21.551  30.416  31.737  1.00  0.00     0.067 A 
ATOM     72  C   UNL     1      22.635  29.714  32.295  1.00  0.00     0.066 A 
ATOM     73  C   UNL     1      21.674  31.798  31.519  1.00  0.00     0.066 A 
ATOM     74  C   UNL     1      23.833  30.376  32.597  1.00  0.00     0.162 A 
ATOM     75  C   UNL     1      22.860  32.476  31.832  1.00  0.00     0.162 A 
ATOM     76  C   UNL     1      23.959  31.753  32.359  1.00  0.00     0.200 A 
BRANCH  74  77
ATOM     77  O   UNL     1      24.915  29.670  33.125  1.00  0.00    -0.504 OA
ATOM     78  H   UNL     1      24.855  28.682  33.317  1.00  0.00     0.293 HD
ENDBRANCH  74  77
BRANCH  75  79
ATOM     79  O   UNL     1      22.893  33.856  31.613  1.00  0.00    -0.504 OA
ATOM     80  H   UNL     1      23.688  34.441  31.814  1.00  0.00     0.293 HD
ENDBRANCH  75  79
BRANCH  76  81
ATOM     81  O   UNL     1      25.183  32.361  32.644  1.00  0.00    -0.502 OA
ATOM     82  H   UNL     1      25.933  31.899  33.128  1.00  0.00     0.293 HD
ENDBRANCH  76  81
ENDBRANCH  69  71
ENDBRANCH  68  69
ENDBRANCH   4  68
TORSDOF 31
ENDMDL
MODEL 6
REMARK VINA RESULT:    -7.059      1.473      6.903
REMARK INTER + INTRA:         -21.228
REMARK INTER:                 -18.691
REMARK INTRA:                  -2.537
REMARK UNBOUND:                -4.471
REMARK SMILES O=C(OC[C@@H]1O[C@@H](OC(=O)c2cc(O)c(O)c(O)c2)[C@@H](OC(=O)c2cc(O)c(O)c(O)c2)[C@H](OC(=O)c2cc(O)c(O)c(O)c2)[C@@H]1OC(=O)c1cc(O)c(O)c(O)c1)c1cc(O)c(O)c(O)c1
REMARK SMILES IDX 5 1 46 2 33 3 20 4 7 5 6 6 4 7 3 8 2 9 1 10 59 11 60 12
REMARK SMILES IDX 61 13 67 14 63 15 65 16 62 17 64 19 66 21 47 23 48 24 49 25
REMARK SMILES IDX 50 26 58 27 51 28 56 29 52 30 54 31 57 32 53 34 55 36 34 38
REMARK SMILES IDX 35 39 36 40 37 41 45 42 38 43 43 44 39 45 41 46 44 47 40 49
REMARK SMILES IDX 42 51 8 53 9 54 10 55 11 56 19 57 12 58 17 59 13 60 15 61
REMARK SMILES IDX 18 62 14 64 16 66 21 68 22 69 23 70 24 71 32 72 25 73 30 74
REMARK SMILES IDX 26 75 28 76 31 77 27 79 29 81
REMARK H PARENT 62 18 64 20 66 22 57 33 53 35 55 37 44 48 40 50 42 52 18 63
REMARK H PARENT 14 65 16 67 31 78 27 80 29 82
REMARK Flexibility Score: inf
ROOT
ATOM      1  C   UNL     1      18.271  26.900  28.390  1.00  0.00     0.205 C 
ATOM      2  C   UNL     1      18.901  28.135  29.071  1.00  0.00     0.254 C 
ATOM      3  C   UNL     1      20.438  28.017  29.008  1.00  0.00     0.267 C 
ATOM      4  C   UNL     1      20.887  26.656  29.569  1.00  0.00     0.290 C 
ATOM      5  C   UNL     1      20.099  25.519  28.896  1.00  0.00     0.357 C 
ATOM      6  O   UNL     1      18.699  25.708  29.031  1.00  0.00    -0.329 OA
ENDROOT
BRANCH   1   7
ATOM      7  C   UNL     1      16.735  26.971  28.429  1.00  0.00     0.269 C 
BRANCH   7   8
ATOM      8  O   UNL     1      16.215  26.094  29.426  1.00  0.00    -0.459 OA
BRANCH   8   9
ATOM      9  C   UNL     1      14.998  25.412  29.316  1.00  0.00     0.338 C 
ATOM     10  O   UNL     1      13.914  26.006  29.566  1.00  0.00    -0.246 OA
BRANCH   9  11
ATOM     11  C   UNL     1      14.987  24.002  28.872  1.00  0.00     0.067 A 
ATOM     12  C   UNL     1      14.952  22.966  29.814  1.00  0.00     0.066 A 
ATOM     13  C   UNL     1      14.959  21.630  29.409  1.00  0.00     0.162 A 
ATOM     14  C   UNL     1      15.018  23.680  27.506  1.00  0.00     0.066 A 
ATOM     15  C   UNL     1      15.002  21.307  28.041  1.00  0.00     0.200 A 
ATOM     16  C   UNL     1      15.023  22.348  27.079  1.00  0.00     0.162 A 
BRANCH  13  17
ATOM     17  O   UNL     1      14.941  20.630  30.384  1.00  0.00    -0.504 OA
ATOM     18  H   UNL     1      14.093  20.141  30.644  1.00  0.00     0.293 HD
ENDBRANCH  13  17
BRANCH  15  19
ATOM     19  O   UNL     1      15.029  19.957  27.676  1.00  0.00    -0.502 OA
ATOM     20  H   UNL     1      14.248  19.466  27.269  1.00  0.00     0.293 HD
ENDBRANCH  15  19
BRANCH  16  21
ATOM     21  O   UNL     1      15.042  22.107  25.703  1.00  0.00    -0.504 OA
ATOM     22  H   UNL     1      15.626  21.421  25.254  1.00  0.00     0.293 HD
ENDBRANCH  16  21
ENDBRANCH   9  11
ENDBRANCH   8   9
ENDBRANCH   7   8
ENDBRANCH   1   7
BRANCH   2  23
ATOM     23  O   UNL     1      18.476  28.196  30.432  1.00  0.00    -0.452 OA
BRANCH  23  24
ATOM     24  C   UNL     1      18.436  29.376  31.188  1.00  0.00     0.338 C 
ATOM     25  O   UNL     1      19.057  29.452  32.284  1.00  0.00    -0.246 OA
BRANCH  24  26
ATOM     26  C   UNL     1      17.663  30.533  30.692  1.00  0.00     0.067 A 
ATOM     27  C   UNL     1      18.214  31.407  29.738  1.00  0.00     0.066 A 
ATOM     28  C   UNL     1      16.363  30.766  31.164  1.00  0.00     0.066 A 
ATOM     29  C   UNL     1      17.478  32.495  29.262  1.00  0.00     0.162 A 
ATOM     30  C   UNL     1      15.622  31.856  30.699  1.00  0.00     0.162 A 
ATOM     31  C   UNL     1      16.179  32.727  29.746  1.00  0.00     0.200 A 
BRANCH  29  32
ATOM     32  O   UNL     1      18.045  33.325  28.294  1.00  0.00    -0.504 OA
ATOM     33  H   UNL     1      18.686  32.971  27.595  1.00  0.00     0.293 HD
ENDBRANCH  29  32
BRANCH  30  34
ATOM     34  O   UNL     1      14.333  32.084  31.185  1.00  0.00    -0.504 OA
ATOM     35  H   UNL     1      13.536  31.573  30.819  1.00  0.00     0.293 HD
ENDBRANCH  30  34
BRANCH  31  36
ATOM     36  O   UNL     1      15.450  33.817  29.267  1.00  0.00    -0.502 OA
ATOM     37  H   UNL     1      15.896  34.687  28.991  1.00  0.00     0.293 HD
ENDBRANCH  31  36
ENDBRANCH  24  26
ENDBRANCH  23  24
ENDBRANCH   2  23
BRANCH   3  38
ATOM     38  O   UNL     1      21.057  29.059  29.763  1.00  0.00    -0.450 OA
BRANCH  38  39
ATOM     39  C   UNL     1      21.133  30.395  29.356  1.00  0.00     0.338 C 
ATOM     40  O   UNL     1      20.603  30.757  28.270  1.00  0.00    -0.246 OA
BRANCH  39  41
ATOM     41  C   UNL     1      21.847  31.378  30.204  1.00  0.00     0.067 A 
ATOM     42  C   UNL     1      23.204  31.677  29.988  1.00  0.00     0.066 A 
ATOM     43  C   UNL     1      21.169  32.022  31.250  1.00  0.00     0.066 A 
ATOM     44  C   UNL     1      23.881  32.578  30.822  1.00  0.00     0.162 A 
ATOM     45  C   UNL     1      21.835  32.920  32.089  1.00  0.00     0.162 A 
ATOM     46  C   UNL     1      23.196  33.197  31.881  1.00  0.00     0.200 A 
BRANCH  44  47
ATOM     47  O   UNL     1      25.233  32.859  30.605  1.00  0.00    -0.504 OA
ATOM     48  H   UNL     1      25.572  33.810  30.501  1.00  0.00     0.293 HD
ENDBRANCH  44  47
BRANCH  45  49
ATOM     49  O   UNL     1      21.128  33.534  33.123  1.00  0.00    -0.504 OA
ATOM     50  H   UNL     1      21.400  34.433  33.499  1.00  0.00     0.293 HD
ENDBRANCH  45  49
BRANCH  46  51
ATOM     51  O   UNL     1      23.852  34.090  32.729  1.00  0.00    -0.502 OA
ATOM     52  H   UNL     1      23.776  35.096  32.626  1.00  0.00     0.293 HD
ENDBRANCH  46  51
ENDBRANCH  39  41
ENDBRANCH  38  39
ENDBRANCH   3  38
BRANCH   5  53
ATOM     53  O   UNL     1      20.461  25.394  27.519  1.00  0.00    -0.428 OA
BRANCH  53  54
ATOM     54  C   UNL     1      21.157  24.295  27.001  1.00  0.00     0.340 C 
ATOM     55  O   UNL     1      22.269  23.960  27.493  1.00  0.00    -0.246 OA
BRANCH  54  56
ATOM     56  C   UNL     1      20.592  23.549  25.854  1.00  0.00     0.067 A 
ATOM     57  C   UNL     1      21.290  23.495  24.636  1.00  0.00     0.066 A 
ATOM     58  C   UNL     1      19.363  22.880  25.972  1.00  0.00     0.066 A 
ATOM     59  C   UNL     1      20.763  22.789  23.545  1.00  0.00     0.162 A 
ATOM     60  C   UNL     1      18.835  22.167  24.888  1.00  0.00     0.162 A 
ATOM     61  C   UNL     1      19.530  22.125  23.669  1.00  0.00     0.200 A 
BRANCH  59  62
ATOM     62  O   UNL     1      21.458  22.743  22.339  1.00  0.00    -0.504 OA
ATOM     63  H   UNL     1      21.740  21.864  21.921  1.00  0.00     0.293 HD
ENDBRANCH  59  62
BRANCH  60  64
ATOM     64  O   UNL     1      17.611  21.513  25.028  1.00  0.00    -0.504 OA
ATOM     65  H   UNL     1      17.074  21.561  25.887  1.00  0.00     0.293 HD
ENDBRANCH  60  64
BRANCH  61  66
ATOM     66  O   UNL     1      18.985  21.419  22.593  1.00  0.00    -0.502 OA
ATOM     67  H   UNL     1      19.087  20.409  22.506  1.00  0.00     0.293 HD
ENDBRANCH  61  66
ENDBRANCH  54  56
ENDBRANCH  53  54
ENDBRANCH   5  53
BRANCH   4  68
ATOM     68  O   UNL     1      22.287  26.463  29.340  1.00  0.00    -0.448 OA
BRANCH  68  69
ATOM     69  C   UNL     1      23.011  27.145  28.351  1.00  0.00     0.339 C 
ATOM     70  O   UNL     1      22.665  27.057  27.142  1.00  0.00    -0.246 OA
BRANCH  69  71
ATOM     71  C   UNL     1      24.157  27.999  28.728  1.00  0.00     0.067 A 
ATOM     72  C   UNL     1      25.156  28.312  27.789  1.00  0.00     0.066 A 
ATOM     73  C   UNL     1      24.261  28.512  30.031  1.00  0.00     0.066 A 
ATOM     74  C   UNL     1      26.223  29.152  28.136  1.00  0.00     0.162 A 
ATOM     75  C   UNL     1      25.331  29.340  30.397  1.00  0.00     0.162 A 
ATOM     76  C   UNL     1      26.313  29.680  29.433  1.00  0.00     0.200 A 
BRANCH  74  77
ATOM     77  O   UNL     1      27.197  29.482  27.193  1.00  0.00    -0.504 OA
ATOM     78  H   UNL     1      27.287  30.420  26.835  1.00  0.00     0.293 HD
ENDBRANCH  74  77
BRANCH  75  79
ATOM     79  O   UNL     1      25.379  29.788  31.721  1.00  0.00    -0.504 OA
ATOM     80  H   UNL     1      24.671  30.361  32.149  1.00  0.00     0.293 HD
ENDBRANCH  75  79
BRANCH  76  81
ATOM     81  O   UNL     1      27.375  30.540  29.722  1.00  0.00    -0.502 OA
ATOM     82  H   UNL     1      28.227  30.240  30.162  1.00  0.00     0.293 HD
ENDBRANCH  76  81
ENDBRANCH  69  71
ENDBRANCH  68  69
ENDBRANCH   4  68
TORSDOF 31
ENDMDL
MODEL 7
REMARK VINA RESULT:    -6.533      1.130      2.189
REMARK INTER + INTRA:         -19.978
REMARK INTER:                 -16.973
REMARK INTRA:                  -3.005
REMARK UNBOUND:                -4.471
REMARK SMILES O=C(OC[C@@H]1O[C@@H](OC(=O)c2cc(O)c(O)c(O)c2)[C@@H](OC(=O)c2cc(O)c(O)c(O)c2)[C@H](OC(=O)c2cc(O)c(O)c(O)c2)[C@@H]1OC(=O)c1cc(O)c(O)c(O)c1)c1cc(O)c(O)c(O)c1
REMARK SMILES IDX 5 1 46 2 33 3 20 4 7 5 6 6 4 7 3 8 2 9 1 10 59 11 60 12
REMARK SMILES IDX 61 13 67 14 63 15 65 16 62 17 64 19 66 21 47 23 48 24 49 25
REMARK SMILES IDX 50 26 58 27 51 28 56 29 52 30 54 31 57 32 53 34 55 36 34 38
REMARK SMILES IDX 35 39 36 40 37 41 45 42 38 43 43 44 39 45 41 46 44 47 40 49
REMARK SMILES IDX 42 51 8 53 9 54 10 55 11 56 19 57 12 58 17 59 13 60 15 61
REMARK SMILES IDX 18 62 14 64 16 66 21 68 22 69 23 70 24 71 32 72 25 73 30 74
REMARK SMILES IDX 26 75 28 76 31 77 27 79 29 81
REMARK H PARENT 62 18 64 20 66 22 57 33 53 35 55 37 44 48 40 50 42 52 18 63
REMARK H PARENT 14 65 16 67 31 78 27 80 29 82
REMARK Flexibility Score: inf
ROOT
ATOM      1  C   UNL     1      20.180  25.578  28.149  1.00  0.00     0.205 C 
ATOM      2  C   UNL     1      20.739  26.809  28.896  1.00  0.00     0.254 C 
ATOM      3  C   UNL     1      19.643  27.382  29.817  1.00  0.00     0.267 C 
ATOM      4  C   UNL     1      18.354  27.631  29.013  1.00  0.00     0.290 C 
ATOM      5  C   UNL     1      17.972  26.368  28.220  1.00  0.00     0.357 C 
ATOM      6  O   UNL     1      19.037  25.937  27.387  1.00  0.00    -0.329 OA
ENDROOT
BRANCH   1   7
ATOM      7  C   UNL     1      21.239  24.969  27.215  1.00  0.00     0.269 C 
BRANCH   7   8
ATOM      8  O   UNL     1      21.025  25.390  25.869  1.00  0.00    -0.459 OA
BRANCH   8   9
ATOM      9  C   UNL     1      21.385  24.640  24.744  1.00  0.00     0.338 C 
ATOM     10  O   UNL     1      22.413  24.945  24.080  1.00  0.00    -0.246 OA
BRANCH   9  11
ATOM     11  C   UNL     1      20.574  23.465  24.359  1.00  0.00     0.067 A 
ATOM     12  C   UNL     1      19.637  22.931  25.253  1.00  0.00     0.066 A 
ATOM     13  C   UNL     1      18.876  21.812  24.909  1.00  0.00     0.162 A 
ATOM     14  C   UNL     1      20.733  22.865  23.100  1.00  0.00     0.066 A 
ATOM     15  C   UNL     1      19.044  21.204  23.652  1.00  0.00     0.200 A 
ATOM     16  C   UNL     1      19.979  21.745  22.735  1.00  0.00     0.162 A 
BRANCH  13  17
ATOM     17  O   UNL     1      17.967  21.303  25.839  1.00  0.00    -0.504 OA
ATOM     18  H   UNL     1      18.050  20.370  26.224  1.00  0.00     0.293 HD
ENDBRANCH  13  17
BRANCH  15  19
ATOM     19  O   UNL     1      18.278  20.072  23.353  1.00  0.00    -0.502 OA
ATOM     20  H   UNL     1      17.865  19.470  24.048  1.00  0.00     0.293 HD
ENDBRANCH  15  19
BRANCH  16  21
ATOM     21  O   UNL     1      20.184  21.211  21.459  1.00  0.00    -0.504 OA
ATOM     22  H   UNL     1      20.622  20.322  21.279  1.00  0.00     0.293 HD
ENDBRANCH  16  21
ENDBRANCH   9  11
ENDBRANCH   8   9
ENDBRANCH   7   8
ENDBRANCH   1   7
BRANCH   2  23
ATOM     23  O   UNL     1      21.141  27.798  27.948  1.00  0.00    -0.452 OA
BRANCH  23  24
ATOM     24  C   UNL     1      21.914  28.923  28.269  1.00  0.00     0.338 C 
ATOM     25  O   UNL     1      21.357  29.995  28.633  1.00  0.00    -0.246 OA
BRANCH  24  26
ATOM     26  C   UNL     1      23.386  28.844  28.182  1.00  0.00     0.067 A 
ATOM     27  C   UNL     1      24.197  29.512  29.117  1.00  0.00     0.066 A 
ATOM     28  C   UNL     1      23.992  28.090  27.167  1.00  0.00     0.066 A 
ATOM     29  C   UNL     1      25.589  29.428  29.040  1.00  0.00     0.162 A 
ATOM     30  C   UNL     1      25.384  28.006  27.077  1.00  0.00     0.162 A 
ATOM     31  C   UNL     1      26.190  28.678  28.014  1.00  0.00     0.200 A 
BRANCH  29  32
ATOM     32  O   UNL     1      26.362  30.081  30.002  1.00  0.00    -0.504 OA
ATOM     33  H   UNL     1      26.259  31.071  30.189  1.00  0.00     0.293 HD
ENDBRANCH  29  32
BRANCH  30  34
ATOM     34  O   UNL     1      25.976  27.262  26.055  1.00  0.00    -0.504 OA
ATOM     35  H   UNL     1      26.978  27.100  26.035  1.00  0.00     0.293 HD
ENDBRANCH  30  34
BRANCH  31  36
ATOM     36  O   UNL     1      27.581  28.600  27.942  1.00  0.00    -0.502 OA
ATOM     37  H   UNL     1      28.093  28.818  27.091  1.00  0.00     0.293 HD
ENDBRANCH  31  36
ENDBRANCH  24  26
ENDBRANCH  23  24
ENDBRANCH   2  23
BRANCH   3  38
ATOM     38  O   UNL     1      20.068  28.612  30.405  1.00  0.00    -0.450 OA
BRANCH  38  39
ATOM     39  C   UNL     1      21.152  28.738  31.280  1.00  0.00     0.338 C 
ATOM     40  O   UNL     1      21.800  27.716  31.637  1.00  0.00    -0.246 OA
BRANCH  39  41
ATOM     41  C   UNL     1      21.527  30.078  31.789  1.00  0.00     0.067 A 
ATOM     42  C   UNL     1      20.565  31.088  31.960  1.00  0.00     0.066 A 
ATOM     43  C   UNL     1      22.867  30.357  32.103  1.00  0.00     0.066 A 
ATOM     44  C   UNL     1      20.937  32.366  32.403  1.00  0.00     0.162 A 
ATOM     45  C   UNL     1      23.249  31.626  32.544  1.00  0.00     0.162 A 
ATOM     46  C   UNL     1      22.286  32.638  32.691  1.00  0.00     0.200 A 
BRANCH  44  47
ATOM     47  O   UNL     1      19.974  33.366  32.559  1.00  0.00    -0.504 OA
ATOM     48  H   UNL     1      19.225  33.287  33.239  1.00  0.00     0.293 HD
ENDBRANCH  44  47
BRANCH  45  49
ATOM     49  O   UNL     1      24.591  31.867  32.838  1.00  0.00    -0.504 OA
ATOM     50  H   UNL     1      25.011  32.780  32.721  1.00  0.00     0.293 HD
ENDBRANCH  45  49
BRANCH  46  51
ATOM     51  O   UNL     1      22.681  33.904  33.125  1.00  0.00    -0.502 OA
ATOM     52  H   UNL     1      23.388  34.039  33.840  1.00  0.00     0.293 HD
ENDBRANCH  46  51
ENDBRANCH  39  41
ENDBRANCH  38  39
ENDBRANCH   3  38
BRANCH   5  53
ATOM     53  O   UNL     1      17.562  25.319  29.100  1.00  0.00    -0.428 OA
BRANCH  53  54
ATOM     54  C   UNL     1      16.227  24.932  29.270  1.00  0.00     0.340 C 
ATOM     55  O   UNL     1      15.507  25.501  30.135  1.00  0.00    -0.246 OA
BRANCH  54  56
ATOM     56  C   UNL     1      15.678  23.831  28.447  1.00  0.00     0.067 A 
ATOM     57  C   UNL     1      15.034  22.745  29.063  1.00  0.00     0.066 A 
ATOM     58  C   UNL     1      15.782  23.864  27.047  1.00  0.00     0.066 A 
ATOM     59  C   UNL     1      14.508  21.699  28.291  1.00  0.00     0.162 A 
ATOM     60  C   UNL     1      15.252  22.826  26.270  1.00  0.00     0.162 A 
ATOM     61  C   UNL     1      14.620  21.736  26.890  1.00  0.00     0.200 A 
BRANCH  59  62
ATOM     62  O   UNL     1      13.875  20.623  28.908  1.00  0.00    -0.504 OA
ATOM     63  H   UNL     1      13.910  19.689  28.517  1.00  0.00     0.293 HD
ENDBRANCH  59  62
BRANCH  60  64
ATOM     64  O   UNL     1      15.372  22.879  24.881  1.00  0.00    -0.504 OA
ATOM     65  H   UNL     1      16.231  22.624  24.408  1.00  0.00     0.293 HD
ENDBRANCH  60  64
BRANCH  61  66
ATOM     66  O   UNL     1      14.107  20.702  26.103  1.00  0.00    -0.502 OA
ATOM     67  H   UNL     1      14.703  19.963  25.731  1.00  0.00     0.293 HD
ENDBRANCH  61  66
ENDBRANCH  54  56
ENDBRANCH  53  54
ENDBRANCH   5  53
BRANCH   4  68
ATOM     68  O   UNL     1      17.281  27.982  29.892  1.00  0.00    -0.448 OA
BRANCH  68  69
ATOM     69  C   UNL     1      16.356  29.000  29.618  1.00  0.00     0.339 C 
ATOM     70  O   UNL     1      15.346  28.760  28.903  1.00  0.00    -0.246 OA
BRANCH  69  71
ATOM     71  C   UNL     1      16.542  30.346  30.201  1.00  0.00     0.067 A 
ATOM     72  C   UNL     1      15.741  30.779  31.273  1.00  0.00     0.066 A 
ATOM     73  C   UNL     1      17.526  31.209  29.693  1.00  0.00     0.066 A 
ATOM     74  C   UNL     1      15.944  32.041  31.849  1.00  0.00     0.162 A 
ATOM     75  C   UNL     1      17.729  32.479  30.248  1.00  0.00     0.162 A 
ATOM     76  C   UNL     1      16.941  32.892  31.352  1.00  0.00     0.200 A 
BRANCH  74  77
ATOM     77  O   UNL     1      15.165  32.455  32.930  1.00  0.00    -0.504 OA
ATOM     78  H   UNL     1      15.347  32.127  33.866  1.00  0.00     0.293 HD
ENDBRANCH  74  77
BRANCH  75  79
ATOM     79  O   UNL     1      18.707  33.291  29.668  1.00  0.00    -0.504 OA
ATOM     80  H   UNL     1      19.417  32.957  29.036  1.00  0.00     0.293 HD
ENDBRANCH  75  79
BRANCH  76  81
ATOM     81  O   UNL     1      17.128  34.125  31.981  1.00  0.00    -0.502 OA
ATOM     82  H   UNL     1      16.855  34.310  32.931  1.00  0.00     0.293 HD
ENDBRANCH  76  81
ENDBRANCH  69  71
ENDBRANCH  68  69
ENDBRANCH   4  68
TORSDOF 31
ENDMDL
