MODEL 1
REMARK VINA RESULT:    -2.034      0.000      0.000
REMARK INTER + INTRA:          -2.034
REMARK INTER:                  -2.034
REMARK INTRA:                   0.000
REMARK UNBOUND:                 0.000
REMARK SMILES CC(=O)[O-]
REMARK SMILES IDX 1 1 2 2 3 3 4 4
REMARK H PARENT
REMARK Flexibility Score: inf
ROOT
ATOM      1  C   UNL     1     188.483 196.567 172.421  1.00  0.00     0.063 C 
ATOM      2  C   UNL     1     187.655 196.847 173.629  1.00  0.00     0.038 C 
ATOM      3  O   UNL     1     186.464 196.444 173.686  1.00  0.00    -0.550 OA
ATOM      4  O   UNL     1     188.211 197.506 174.718  1.00  0.00    -0.550 OA
ENDROOT
TORSDOF 0
ENDMDL
MODEL 2
REMARK VINA RESULT:    -1.999      1.383      2.168
REMARK INTER + INTRA:          -1.999
REMARK INTER:                  -1.999
REMARK INTRA:                   0.000
REMARK UNBOUND:                 0.000
REMARK SMILES CC(=O)[O-]
REMARK SMILES IDX 1 1 2 2 3 3 4 4
REMARK H PARENT
REMARK Flexibility Score: inf
ROOT
ATOM      1  C   UNL     1     188.497 197.369 175.200  1.00  0.00     0.063 C 
ATOM      2  C   UNL     1     187.955 196.938 173.880  1.00  0.00     0.038 C 
ATOM      3  O   UNL     1     188.696 196.937 172.862  1.00  0.00    -0.550 OA
ATOM      4  O   UNL     1     186.646 196.485 173.779  1.00  0.00    -0.550 OA
ENDROOT
TORSDOF 0
ENDMDL
MODEL 3
REMARK VINA RESULT:    -1.884      3.251      3.501
REMARK INTER + INTRA:          -1.884
REMARK INTER:                  -1.884
REMARK INTRA:                   0.000
REMARK UNBOUND:                 0.000
REMARK SMILES CC(=O)[O-]
REMARK SMILES IDX 1 1 2 2 3 3 4 4
REMARK H PARENT
REMARK Flexibility Score: inf
ROOT
ATOM      1  C   UNL     1     188.631 196.617 172.147  1.00  0.00     0.063 C 
ATOM      2  C   UNL     1     189.795 197.074 171.335  1.00  0.00     0.038 C 
ATOM      3  O   UNL     1     189.771 196.971 170.081  1.00  0.00    -0.550 OA
ATOM      4  O   UNL     1     190.889 197.664 171.957  1.00  0.00    -0.550 OA
ENDROOT
TORSDOF 0
ENDMDL
MODEL 4
REMARK VINA RESULT:    -1.866     10.549     10.798
REMARK INTER + INTRA:          -1.866
REMARK INTER:                  -1.866
REMARK INTRA:                   0.000
REMARK UNBOUND:                 0.000
REMARK SMILES CC(=O)[O-]
REMARK SMILES IDX 1 1 2 2 3 3 4 4
REMARK H PARENT
REMARK Flexibility Score: inf
ROOT
ATOM      1  C   UNL     1     184.884 187.243 168.816  1.00  0.00     0.063 C 
ATOM      2  C   UNL     1     184.856 187.102 170.300  1.00  0.00     0.038 C 
ATOM      3  O   UNL     1     185.932 187.068 170.952  1.00  0.00    -0.550 OA
ATOM      4  O   UNL     1     183.641 187.062 170.973  1.00  0.00    -0.550 OA
ENDROOT
TORSDOF 0
ENDMDL
MODEL 5
REMARK VINA RESULT:    -1.846      9.338      9.638
REMARK INTER + INTRA:          -1.846
REMARK INTER:                  -1.846
REMARK INTRA:                   0.000
REMARK UNBOUND:                 0.000
REMARK SMILES CC(=O)[O-]
REMARK SMILES IDX 1 1 2 2 3 3 4 4
REMARK H PARENT
REMARK Flexibility Score: inf
ROOT
ATOM      1  C   UNL     1     187.504 189.142 170.148  1.00  0.00     0.063 C 
ATOM      2  C   UNL     1     186.525 188.018 170.133  1.00  0.00     0.038 C 
ATOM      3  O   UNL     1     185.550 188.039 169.337  1.00  0.00    -0.550 OA
ATOM      4  O   UNL     1     186.716 186.918 170.960  1.00  0.00    -0.550 OA
ENDROOT
TORSDOF 0
ENDMDL
MODEL 6
REMARK VINA RESULT:    -1.835      9.335      9.684
REMARK INTER + INTRA:          -1.835
REMARK INTER:                  -1.835
REMARK INTRA:                   0.000
REMARK UNBOUND:                 0.000
REMARK SMILES CC(=O)[O-]
REMARK SMILES IDX 1 1 2 2 3 3 4 4
REMARK H PARENT
REMARK Flexibility Score: inf
ROOT
ATOM      1  C   UNL     1     187.502 189.185 170.205  1.00  0.00     0.063 C 
ATOM      2  C   UNL     1     186.583 188.012 170.142  1.00  0.00     0.038 C 
ATOM      3  O   UNL     1     186.719 187.059 170.952  1.00  0.00    -0.550 OA
ATOM      4  O   UNL     1     185.540 187.993 169.224  1.00  0.00    -0.550 OA
ENDROOT
TORSDOF 0
ENDMDL
MODEL 7
REMARK VINA RESULT:    -1.826     10.426     10.956
REMARK INTER + INTRA:          -1.826
REMARK INTER:                  -1.826
REMARK INTRA:                   0.000
REMARK UNBOUND:                 0.000
REMARK SMILES CC(=O)[O-]
REMARK SMILES IDX 1 1 2 2 3 3 4 4
REMARK H PARENT
REMARK Flexibility Score: inf
ROOT
ATOM      1  C   UNL     1     187.961 186.499 171.421  1.00  0.00     0.063 C 
ATOM      2  C   UNL     1     186.721 186.518 170.594  1.00  0.00     0.038 C 
ATOM      3  O   UNL     1     185.743 187.232 170.938  1.00  0.00    -0.550 OA
ATOM      4  O   UNL     1     186.660 185.788 169.414  1.00  0.00    -0.550 OA
ENDROOT
TORSDOF 0
ENDMDL
MODEL 8
REMARK VINA RESULT:    -1.777     11.425     11.838
REMARK INTER + INTRA:          -1.777
REMARK INTER:                  -1.777
REMARK INTRA:                   0.000
REMARK UNBOUND:                 0.000
REMARK SMILES CC(=O)[O-]
REMARK SMILES IDX 1 1 2 2 3 3 4 4
REMARK H PARENT
REMARK Flexibility Score: inf
ROOT
ATOM      1  C   UNL     1     186.381 184.934 168.334  1.00  0.00     0.063 C 
ATOM      2  C   UNL     1     185.890 186.147 169.048  1.00  0.00     0.038 C 
ATOM      3  O   UNL     1     185.026 186.889 168.512  1.00  0.00    -0.550 OA
ATOM      4  O   UNL     1     186.343 186.432 170.330  1.00  0.00    -0.550 OA
ENDROOT
TORSDOF 0
ENDMDL
MODEL 9
REMARK VINA RESULT:    -1.771      9.597     10.038
REMARK INTER + INTRA:          -1.771
REMARK INTER:                  -1.771
REMARK INTRA:                   0.000
REMARK UNBOUND:                 0.000
REMARK SMILES CC(=O)[O-]
REMARK SMILES IDX 1 1 2 2 3 3 4 4
REMARK H PARENT
REMARK Flexibility Score: inf
ROOT
ATOM      1  C   UNL     1     185.108 187.454 169.560  1.00  0.00     0.063 C 
ATOM      2  C   UNL     1     186.299 187.532 170.453  1.00  0.00     0.038 C 
ATOM      3  O   UNL     1     186.630 186.539 171.152  1.00  0.00    -0.550 OA
ATOM      4  O   UNL     1     187.080 188.681 170.475  1.00  0.00    -0.550 OA
ENDROOT
TORSDOF 0
ENDMDL
