MODEL 1
REMARK VINA RESULT:    -3.395      0.000      0.000
REMARK INTER + INTRA:          -6.796
REMARK INTER:                  -5.182
REMARK INTRA:                  -1.614
REMARK UNBOUND:                -1.614
REMARK SMILES CCCCCCCCCC=CC(=O)[O-]
REMARK SMILES IDX 7 1 8 2 9 3 10 4 11 5 12 6 13 7 14 8 6 9 5 10 4 11 3 12 2 13
REMARK SMILES IDX 1 14
REMARK H PARENT
REMARK Flexibility Score: inf
ROOT
ATOM      1  C   UNL     1       7.352   5.598  -2.819  1.00  0.00     0.000 C 
ENDROOT
BRANCH   1   2
ATOM      2  C   UNL     1       8.044   6.916  -2.416  1.00  0.00     0.004 C 
BRANCH   2   3
ATOM      3  C   UNL     1       7.123   7.935  -1.726  1.00  0.00     0.027 C 
BRANCH   3   4
ATOM      4  C   UNL     1       5.668   7.575  -1.845  1.00  0.00    -0.025 C 
ATOM      5  C   UNL     1       4.755   8.513  -2.113  1.00  0.00     0.020 C 
BRANCH   5   6
ATOM      6  C   UNL     1       3.321   8.209  -2.227  1.00  0.00     0.064 C 
ATOM      7  O   UNL     1       2.860   7.092  -1.869  1.00  0.00    -0.545 OA
ATOM      8  O   UNL     1       2.458   9.170  -2.738  1.00  0.00    -0.545 OA
ENDBRANCH   5   6
ENDBRANCH   3   4
ENDBRANCH   2   3
ENDBRANCH   1   2
BRANCH   1   9
ATOM      9  C   UNL     1       7.654   5.152  -4.266  1.00  0.00     0.000 C 
BRANCH   9  10
ATOM     10  C   UNL     1       7.225   6.205  -5.299  1.00  0.00     0.000 C 
BRANCH  10  11
ATOM     11  C   UNL     1       5.699   6.342  -5.345  1.00  0.00    -0.000 C 
BRANCH  11  12
ATOM     12  C   UNL     1       5.285   7.783  -5.665  1.00  0.00    -0.000 C 
BRANCH  12  13
ATOM     13  C   UNL     1       6.513   8.686  -5.823  1.00  0.00    -0.003 C 
ATOM     14  C   UNL     1       6.398   9.932  -4.947  1.00  0.00     0.004 C 
ENDBRANCH  12  13
ENDBRANCH  11  12
ENDBRANCH  10  11
ENDBRANCH   9  10
ENDBRANCH   1   9
TORSDOF 9
ENDMDL
MODEL 2
REMARK VINA RESULT:    -3.386      1.281      3.765
REMARK INTER + INTRA:          -6.782
REMARK INTER:                  -5.213
REMARK INTRA:                  -1.568
REMARK UNBOUND:                -1.614
REMARK SMILES CCCCCCCCCC=CC(=O)[O-]
REMARK SMILES IDX 7 1 8 2 9 3 10 4 11 5 12 6 13 7 14 8 6 9 5 10 4 11 3 12 2 13
REMARK SMILES IDX 1 14
REMARK H PARENT
REMARK Flexibility Score: inf
ROOT
ATOM      1  C   UNL     1       7.806   9.790  -4.616  1.00  0.00     0.000 C 
ENDROOT
BRANCH   1   2
ATOM      2  C   UNL     1       6.275   9.816  -4.804  1.00  0.00     0.004 C 
BRANCH   2   3
ATOM      3  C   UNL     1       5.670   8.494  -5.302  1.00  0.00     0.027 C 
BRANCH   3   4
ATOM      4  C   UNL     1       4.798   7.832  -4.272  1.00  0.00    -0.025 C 
ATOM      5  C   UNL     1       4.002   8.561  -3.484  1.00  0.00     0.020 C 
BRANCH   5   6
ATOM      6  C   UNL     1       3.141   7.958  -2.455  1.00  0.00     0.064 C 
ATOM      7  O   UNL     1       3.469   6.887  -1.876  1.00  0.00    -0.545 OA
ATOM      8  O   UNL     1       1.946   8.579  -2.114  1.00  0.00    -0.545 OA
ENDBRANCH   5   6
ENDBRANCH   3   4
ENDBRANCH   2   3
ENDBRANCH   1   2
BRANCH   1   9
ATOM      9  C   UNL     1       8.254   9.807  -3.139  1.00  0.00     0.000 C 
BRANCH   9  10
ATOM     10  C   UNL     1       7.064   9.915  -2.173  1.00  0.00     0.000 C 
BRANCH  10  11
ATOM     11  C   UNL     1       6.962   8.670  -1.285  1.00  0.00    -0.000 C 
BRANCH  11  12
ATOM     12  C   UNL     1       7.955   7.591  -1.733  1.00  0.00    -0.000 C 
BRANCH  12  13
ATOM     13  C   UNL     1       7.222   6.362  -2.280  1.00  0.00    -0.003 C 
ATOM     14  C   UNL     1       8.012   5.708  -3.412  1.00  0.00     0.004 C 
ENDBRANCH  12  13
ENDBRANCH  11  12
ENDBRANCH  10  11
ENDBRANCH   9  10
ENDBRANCH   1   9
TORSDOF 9
ENDMDL
MODEL 3
REMARK VINA RESULT:    -3.317      1.450      2.985
REMARK INTER + INTRA:          -6.677
REMARK INTER:                  -5.085
REMARK INTRA:                  -1.592
REMARK UNBOUND:                -1.614
REMARK SMILES CCCCCCCCCC=CC(=O)[O-]
REMARK SMILES IDX 7 1 8 2 9 3 10 4 11 5 12 6 13 7 14 8 6 9 5 10 4 11 3 12 2 13
REMARK SMILES IDX 1 14
REMARK H PARENT
REMARK Flexibility Score: inf
ROOT
ATOM      1  C   UNL     1       8.806   8.905  -3.029  1.00  0.00     0.000 C 
ENDROOT
BRANCH   1   2
ATOM      2  C   UNL     1       8.657   8.197  -1.668  1.00  0.00     0.004 C 
BRANCH   2   3
ATOM      3  C   UNL     1       7.456   8.667  -0.831  1.00  0.00     0.027 C 
BRANCH   3   4
ATOM      4  C   UNL     1       6.174   8.684  -1.616  1.00  0.00    -0.025 C 
ATOM      5  C   UNL     1       5.328   7.650  -1.560  1.00  0.00     0.020 C 
BRANCH   5   6
ATOM      6  C   UNL     1       4.070   7.618  -2.319  1.00  0.00     0.064 C 
ATOM      7  O   UNL     1       3.000   7.209  -1.791  1.00  0.00    -0.545 OA
ATOM      8  O   UNL     1       4.057   8.045  -3.640  1.00  0.00    -0.545 OA
ENDBRANCH   5   6
ENDBRANCH   3   4
ENDBRANCH   2   3
ENDBRANCH   1   2
BRANCH   1   9
ATOM      9  C   UNL     1       8.874   7.939  -4.231  1.00  0.00     0.000 C 
BRANCH   9  10
ATOM     10  C   UNL     1       7.510   7.771  -4.919  1.00  0.00     0.000 C 
BRANCH  10  11
ATOM     11  C   UNL     1       6.943   6.367  -4.680  1.00  0.00    -0.000 C 
BRANCH  11  12
ATOM     12  C   UNL     1       8.033   5.409  -4.185  1.00  0.00    -0.000 C 
BRANCH  12  13
ATOM     13  C   UNL     1       7.658   4.803  -2.828  1.00  0.00    -0.003 C 
ATOM     14  C   UNL     1       8.902   4.499  -1.997  1.00  0.00     0.004 C 
ENDBRANCH  12  13
ENDBRANCH  11  12
ENDBRANCH  10  11
ENDBRANCH   9  10
ENDBRANCH   1   9
TORSDOF 9
ENDMDL
MODEL 4
REMARK VINA RESULT:    -3.283      2.721      4.886
REMARK INTER + INTRA:          -6.624
REMARK INTER:                  -5.012
REMARK INTRA:                  -1.612
REMARK UNBOUND:                -1.614
REMARK SMILES CCCCCCCCCC=CC(=O)[O-]
REMARK SMILES IDX 7 1 8 2 9 3 10 4 11 5 12 6 13 7 14 8 6 9 5 10 4 11 3 12 2 13
REMARK SMILES IDX 1 14
REMARK H PARENT
REMARK Flexibility Score: inf
ROOT
ATOM      1  C   UNL     1       6.210   9.776  -4.715  1.00  0.00     0.000 C 
ENDROOT
BRANCH   1   2
ATOM      2  C   UNL     1       5.998   8.753  -5.849  1.00  0.00     0.004 C 
BRANCH   2   3
ATOM      3  C   UNL     1       5.178   7.516  -5.448  1.00  0.00     0.027 C 
BRANCH   3   4
ATOM      4  C   UNL     1       5.989   6.250  -5.479  1.00  0.00    -0.025 C 
ATOM      5  C   UNL     1       6.661   5.847  -4.397  1.00  0.00     0.020 C 
BRANCH   5   6
ATOM      6  C   UNL     1       7.475   4.622  -4.384  1.00  0.00     0.064 C 
ATOM      7  O   UNL     1       6.945   3.488  -4.237  1.00  0.00    -0.545 OA
ATOM      8  O   UNL     1       8.853   4.716  -4.539  1.00  0.00    -0.545 OA
ENDBRANCH   5   6
ENDBRANCH   3   4
ENDBRANCH   2   3
ENDBRANCH   1   2
BRANCH   1   9
ATOM      9  C   UNL     1       7.536   9.591  -3.947  1.00  0.00     0.000 C 
BRANCH   9  10
ATOM     10  C   UNL     1       7.320   8.969  -2.558  1.00  0.00     0.000 C 
BRANCH  10  11
ATOM     11  C   UNL     1       5.868   9.138  -2.098  1.00  0.00    -0.000 C 
BRANCH  11  12
ATOM     12  C   UNL     1       5.317   7.828  -1.523  1.00  0.00    -0.000 C 
BRANCH  12  13
ATOM     13  C   UNL     1       3.914   7.536  -2.066  1.00  0.00    -0.003 C 
ATOM     14  C   UNL     1       3.238   8.812  -2.562  1.00  0.00     0.004 C 
ENDBRANCH  12  13
ENDBRANCH  11  12
ENDBRANCH  10  11
ENDBRANCH   9  10
ENDBRANCH   1   9
TORSDOF 9
ENDMDL
MODEL 5
REMARK VINA RESULT:    -3.242      2.695      4.387
REMARK INTER + INTRA:          -6.562
REMARK INTER:                  -5.397
REMARK INTRA:                  -1.166
REMARK UNBOUND:                -1.614
REMARK SMILES CCCCCCCCCC=CC(=O)[O-]
REMARK SMILES IDX 7 1 8 2 9 3 10 4 11 5 12 6 13 7 14 8 6 9 5 10 4 11 3 12 2 13
REMARK SMILES IDX 1 14
REMARK H PARENT
REMARK Flexibility Score: inf
ROOT
ATOM      1  C   UNL     1       8.276   9.123  -0.705  1.00  0.00     0.000 C 
ENDROOT
BRANCH   1   2
ATOM      2  C   UNL     1       9.658   8.733  -1.266  1.00  0.00     0.004 C 
BRANCH   2   3
ATOM      3  C   UNL     1       9.623   8.094  -2.663  1.00  0.00     0.027 C 
BRANCH   3   4
ATOM      4  C   UNL     1       8.793   6.841  -2.705  1.00  0.00    -0.025 C 
ATOM      5  C   UNL     1       7.917   6.639  -3.694  1.00  0.00     0.020 C 
BRANCH   5   6
ATOM      6  C   UNL     1       7.076   5.435  -3.771  1.00  0.00     0.064 C 
ATOM      7  O   UNL     1       7.126   4.547  -2.877  1.00  0.00    -0.545 OA
ATOM      8  O   UNL     1       6.210   5.274  -4.845  1.00  0.00    -0.545 OA
ENDBRANCH   5   6
ENDBRANCH   3   4
ENDBRANCH   2   3
ENDBRANCH   1   2
BRANCH   1   9
ATOM      9  C   UNL     1       7.496  10.110  -1.600  1.00  0.00     0.000 C 
BRANCH   9  10
ATOM     10  C   UNL     1       6.091   9.593  -1.947  1.00  0.00     0.000 C 
BRANCH  10  11
ATOM     11  C   UNL     1       5.819   8.243  -1.274  1.00  0.00    -0.000 C 
BRANCH  11  12
ATOM     12  C   UNL     1       4.623   7.537  -1.923  1.00  0.00    -0.000 C 
BRANCH  12  13
ATOM     13  C   UNL     1       3.956   8.434  -2.971  1.00  0.00    -0.003 C 
ATOM     14  C   UNL     1       2.600   8.937  -2.483  1.00  0.00     0.004 C 
ENDBRANCH  12  13
ENDBRANCH  11  12
ENDBRANCH  10  11
ENDBRANCH   9  10
ENDBRANCH   1   9
TORSDOF 9
ENDMDL
MODEL 6
REMARK VINA RESULT:    -3.242      2.689      4.731
REMARK INTER + INTRA:          -6.562
REMARK INTER:                  -4.922
REMARK INTRA:                  -1.640
REMARK UNBOUND:                -1.614
REMARK SMILES CCCCCCCCCC=CC(=O)[O-]
REMARK SMILES IDX 7 1 8 2 9 3 10 4 11 5 12 6 13 7 14 8 6 9 5 10 4 11 3 12 2 13
REMARK SMILES IDX 1 14
REMARK H PARENT
REMARK Flexibility Score: inf
ROOT
ATOM      1  C   UNL     1       4.767   7.935  -4.612  1.00  0.00     0.000 C 
ENDROOT
BRANCH   1   2
ATOM      2  C   UNL     1       6.011   8.671  -5.150  1.00  0.00     0.004 C 
BRANCH   2   3
ATOM      3  C   UNL     1       7.216   7.761  -5.438  1.00  0.00     0.027 C 
BRANCH   3   4
ATOM      4  C   UNL     1       7.058   6.386  -4.850  1.00  0.00    -0.025 C 
ATOM      5  C   UNL     1       7.849   5.977  -3.854  1.00  0.00     0.020 C 
BRANCH   5   6
ATOM      6  C   UNL     1       7.739   4.639  -3.256  1.00  0.00     0.064 C 
ATOM      7  O   UNL     1       7.077   3.726  -3.820  1.00  0.00    -0.545 OA
ATOM      8  O   UNL     1       8.375   4.374  -2.050  1.00  0.00    -0.545 OA
ENDBRANCH   5   6
ENDBRANCH   3   4
ENDBRANCH   2   3
ENDBRANCH   1   2
BRANCH   1   9
ATOM      9  C   UNL     1       4.290   8.442  -3.235  1.00  0.00     0.000 C 
BRANCH   9  10
ATOM     10  C   UNL     1       4.319   7.338  -2.167  1.00  0.00     0.000 C 
BRANCH  10  11
ATOM     11  C   UNL     1       5.569   7.454  -1.288  1.00  0.00    -0.000 C 
BRANCH  11  12
ATOM     12  C   UNL     1       6.222   8.833  -1.440  1.00  0.00    -0.000 C 
BRANCH  12  13
ATOM     13  C   UNL     1       7.743   8.743  -1.281  1.00  0.00    -0.003 C 
ATOM     14  C   UNL     1       8.460   9.513  -2.387  1.00  0.00     0.004 C 
ENDBRANCH  12  13
ENDBRANCH  11  12
ENDBRANCH  10  11
ENDBRANCH   9  10
ENDBRANCH   1   9
TORSDOF 9
ENDMDL
MODEL 7
REMARK VINA RESULT:    -3.216      2.726      4.048
REMARK INTER + INTRA:          -6.522
REMARK INTER:                  -4.852
REMARK INTRA:                  -1.670
REMARK UNBOUND:                -1.614
REMARK SMILES CCCCCCCCCC=CC(=O)[O-]
REMARK SMILES IDX 7 1 8 2 9 3 10 4 11 5 12 6 13 7 14 8 6 9 5 10 4 11 3 12 2 13
REMARK SMILES IDX 1 14
REMARK H PARENT
REMARK Flexibility Score: inf
ROOT
ATOM      1  C   UNL     1       6.627   9.057  -1.643  1.00  0.00     0.000 C 
ENDROOT
BRANCH   1   2
ATOM      2  C   UNL     1       8.039   8.647  -2.107  1.00  0.00     0.004 C 
BRANCH   2   3
ATOM      3  C   UNL     1       8.390   7.171  -1.857  1.00  0.00     0.027 C 
BRANCH   3   4
ATOM      4  C   UNL     1       8.363   6.349  -3.116  1.00  0.00    -0.025 C 
ATOM      5  C   UNL     1       7.506   5.331  -3.245  1.00  0.00     0.020 C 
BRANCH   5   6
ATOM      6  C   UNL     1       7.452   4.493  -4.451  1.00  0.00     0.064 C 
ATOM      7  O   UNL     1       6.747   3.448  -4.489  1.00  0.00    -0.545 OA
ATOM      8  O   UNL     1       8.189   4.858  -5.571  1.00  0.00    -0.545 OA
ENDBRANCH   5   6
ENDBRANCH   3   4
ENDBRANCH   2   3
ENDBRANCH   1   2
BRANCH   1   9
ATOM      9  C   UNL     1       5.762   7.874  -1.158  1.00  0.00     0.000 C 
BRANCH   9  10
ATOM     10  C   UNL     1       4.633   7.538  -2.144  1.00  0.00     0.000 C 
BRANCH  10  11
ATOM     11  C   UNL     1       4.691   8.444  -3.378  1.00  0.00    -0.000 C 
BRANCH  11  12
ATOM     12  C   UNL     1       4.951   7.627  -4.649  1.00  0.00    -0.000 C 
BRANCH  12  13
ATOM     13  C   UNL     1       6.153   8.179  -5.423  1.00  0.00    -0.003 C 
ATOM     14  C   UNL     1       6.258   9.695  -5.268  1.00  0.00     0.004 C 
ENDBRANCH  12  13
ENDBRANCH  11  12
ENDBRANCH  10  11
ENDBRANCH   9  10
ENDBRANCH   1   9
TORSDOF 9
ENDMDL
MODEL 8
REMARK VINA RESULT:    -3.209      1.046      2.586
REMARK INTER + INTRA:          -6.512
REMARK INTER:                  -4.919
REMARK INTRA:                  -1.593
REMARK UNBOUND:                -1.614
REMARK SMILES CCCCCCCCCC=CC(=O)[O-]
REMARK SMILES IDX 7 1 8 2 9 3 10 4 11 5 12 6 13 7 14 8 6 9 5 10 4 11 3 12 2 13
REMARK SMILES IDX 1 14
REMARK H PARENT
REMARK Flexibility Score: inf
ROOT
ATOM      1  C   UNL     1       7.771   8.992  -2.443  1.00  0.00     0.000 C 
ENDROOT
BRANCH   1   2
ATOM      2  C   UNL     1       7.891   7.472  -2.215  1.00  0.00     0.004 C 
BRANCH   2   3
ATOM      3  C   UNL     1       6.559   6.765  -1.915  1.00  0.00     0.027 C 
BRANCH   3   4
ATOM      4  C   UNL     1       5.416   7.728  -1.752  1.00  0.00    -0.025 C 
ATOM      5  C   UNL     1       4.306   7.595  -2.484  1.00  0.00     0.020 C 
BRANCH   5   6
ATOM      6  C   UNL     1       3.168   8.519  -2.367  1.00  0.00     0.064 C 
ATOM      7  O   UNL     1       3.341   9.768  -2.355  1.00  0.00    -0.545 OA
ATOM      8  O   UNL     1       1.880   8.008  -2.268  1.00  0.00    -0.545 OA
ENDBRANCH   5   6
ENDBRANCH   3   4
ENDBRANCH   2   3
ENDBRANCH   1   2
BRANCH   1   9
ATOM      9  C   UNL     1       7.837   9.407  -3.929  1.00  0.00     0.000 C 
BRANCH   9  10
ATOM     10  C   UNL     1       6.483   9.908  -4.452  1.00  0.00     0.000 C 
BRANCH  10  11
ATOM     11  C   UNL     1       6.067   9.151  -5.718  1.00  0.00    -0.000 C 
BRANCH  11  12
ATOM     12  C   UNL     1       6.859   7.846  -5.864  1.00  0.00    -0.000 C 
BRANCH  12  13
ATOM     13  C   UNL     1       5.919   6.639  -5.953  1.00  0.00    -0.003 C 
ATOM     14  C   UNL     1       6.486   5.443  -5.192  1.00  0.00     0.004 C 
ENDBRANCH  12  13
ENDBRANCH  11  12
ENDBRANCH  10  11
ENDBRANCH   9  10
ENDBRANCH   1   9
TORSDOF 9
ENDMDL
MODEL 9
REMARK VINA RESULT:    -3.185      1.208      2.626
REMARK INTER + INTRA:          -6.475
REMARK INTER:                  -5.372
REMARK INTRA:                  -1.104
REMARK UNBOUND:                -1.614
REMARK SMILES CCCCCCCCCC=CC(=O)[O-]
REMARK SMILES IDX 7 1 8 2 9 3 10 4 11 5 12 6 13 7 14 8 6 9 5 10 4 11 3 12 2 13
REMARK SMILES IDX 1 14
REMARK H PARENT
REMARK Flexibility Score: inf
ROOT
ATOM      1  C   UNL     1       7.701   8.214  -1.503  1.00  0.00     0.000 C 
ENDROOT
BRANCH   1   2
ATOM      2  C   UNL     1       7.823   9.583  -2.204  1.00  0.00     0.004 C 
BRANCH   2   3
ATOM      3  C   UNL     1       6.566  10.019  -2.974  1.00  0.00     0.027 C 
BRANCH   3   4
ATOM      4  C   UNL     1       5.295   9.560  -2.315  1.00  0.00    -0.025 C 
ATOM      5  C   UNL     1       4.365   8.902  -3.014  1.00  0.00     0.020 C 
BRANCH   5   6
ATOM      6  C   UNL     1       3.103   8.445  -2.415  1.00  0.00     0.064 C 
ATOM      7  O   UNL     1       2.089   9.193  -2.380  1.00  0.00    -0.545 OA
ATOM      8  O   UNL     1       3.025   7.166  -1.879  1.00  0.00    -0.545 OA
ENDBRANCH   5   6
ENDBRANCH   3   4
ENDBRANCH   2   3
ENDBRANCH   1   2
BRANCH   1   9
ATOM      9  C   UNL     1       8.735   7.173  -1.985  1.00  0.00     0.000 C 
BRANCH   9  10
ATOM     10  C   UNL     1       8.073   5.858  -2.422  1.00  0.00     0.000 C 
BRANCH  10  11
ATOM     11  C   UNL     1       6.749   6.122  -3.148  1.00  0.00    -0.000 C 
BRANCH  11  12
ATOM     12  C   UNL     1       6.944   6.108  -4.669  1.00  0.00    -0.000 C 
BRANCH  12  13
ATOM     13  C   UNL     1       5.703   6.647  -5.388  1.00  0.00    -0.003 C 
ATOM     14  C   UNL     1       5.289   5.731  -6.537  1.00  0.00     0.004 C 
ENDBRANCH  12  13
ENDBRANCH  11  12
ENDBRANCH  10  11
ENDBRANCH   9  10
ENDBRANCH   1   9
TORSDOF 9
ENDMDL
