MODEL 1
REMARK VINA RESULT:    -3.898      0.000      0.000
REMARK INTER + INTRA:         -13.062
REMARK INTER:                  -8.911
REMARK INTRA:                  -4.151
REMARK UNBOUND:                -4.151
REMARK SMILES CCCCCCCCCCCCCCCCCCCCCCCC(=O)[O-]
REMARK SMILES IDX 13 1 14 2 15 3 16 4 17 5 18 6 19 7 20 8 21 9 22 10 23 11
REMARK SMILES IDX 24 12 25 13 26 14 12 15 11 16 10 17 9 18 8 19 7 20 6 21 5 22
REMARK SMILES IDX 4 23 3 24 2 25 1 26
REMARK H PARENT
REMARK Flexibility Score: inf
ROOT
ATOM      1  C   UNL     1      -1.059   3.756   4.851  1.00  0.00     0.000 C 
ENDROOT
BRANCH   1   2
ATOM      2  C   UNL     1      -0.645   2.585   5.755  1.00  0.00     0.000 C 
BRANCH   2   3
ATOM      3  C   UNL     1       0.756   2.758   6.369  1.00  0.00     0.000 C 
BRANCH   3   4
ATOM      4  C   UNL     1       0.746   2.561   7.898  1.00  0.00     0.000 C 
BRANCH   4   5
ATOM      5  C   UNL     1       1.778   3.442   8.625  1.00  0.00     0.000 C 
BRANCH   5   6
ATOM      6  C   UNL     1       2.517   4.401   7.667  1.00  0.00     0.000 C 
BRANCH   6   7
ATOM      7  C   UNL     1       4.045   4.233   7.742  1.00  0.00     0.000 C 
BRANCH   7   8
ATOM      8  C   UNL     1       4.544   3.071   6.860  1.00  0.00     0.000 C 
BRANCH   8   9
ATOM      9  C   UNL     1       5.260   1.982   7.682  1.00  0.00     0.000 C 
BRANCH   9  10
ATOM     10  C   UNL     1       4.647   0.602   7.413  1.00  0.00     0.006 C 
BRANCH  10  11
ATOM     11  C   UNL     1       3.465   0.698   6.443  1.00  0.00     0.053 C 
BRANCH  11  12
ATOM     12  C   UNL     1       2.564  -0.491   6.582  1.00  0.00     0.041 C 
ATOM     13  O   UNL     1       2.305  -1.210   5.580  1.00  0.00    -0.550 OA
ATOM     14  O   UNL     1       1.968  -0.778   7.806  1.00  0.00    -0.550 OA
ENDBRANCH  11  12
ENDBRANCH  10  11
ENDBRANCH   9  10
ENDBRANCH   8   9
ENDBRANCH   7   8
ENDBRANCH   6   7
ENDBRANCH   5   6
ENDBRANCH   4   5
ENDBRANCH   3   4
ENDBRANCH   2   3
ENDBRANCH   1   2
BRANCH   1  15
ATOM     15  C   UNL     1      -0.429   5.092   5.287  1.00  0.00     0.000 C 
BRANCH  15  16
ATOM     16  C   UNL     1      -1.345   5.922   6.204  1.00  0.00     0.000 C 
BRANCH  16  17
ATOM     17  C   UNL     1      -0.864   5.956   7.672  1.00  0.00     0.000 C 
BRANCH  17  18
ATOM     18  C   UNL     1      -1.992   5.624   8.668  1.00  0.00    -0.000 C 
BRANCH  18  19
ATOM     19  C   UNL     1      -2.239   4.111   8.808  1.00  0.00    -0.000 C 
BRANCH  19  20
ATOM     20  C   UNL     1      -3.673   3.666   8.479  1.00  0.00    -0.000 C 
BRANCH  20  21
ATOM     21  C   UNL     1      -3.751   2.822   7.193  1.00  0.00    -0.000 C 
BRANCH  21  22
ATOM     22  C   UNL     1      -4.502   3.548   6.057  1.00  0.00    -0.000 C 
BRANCH  22  23
ATOM     23  C   UNL     1      -4.926   4.990   6.403  1.00  0.00    -0.000 C 
BRANCH  23  24
ATOM     24  C   UNL     1      -4.878   5.967   5.211  1.00  0.00    -0.000 C 
BRANCH  24  25
ATOM     25  C   UNL     1      -5.289   7.394   5.604  1.00  0.00    -0.003 C 
ATOM     26  C   UNL     1      -6.497   7.384   6.537  1.00  0.00     0.004 C 
ENDBRANCH  24  25
ENDBRANCH  23  24
ENDBRANCH  22  23
ENDBRANCH  21  22
ENDBRANCH  20  21
ENDBRANCH  19  20
ENDBRANCH  18  19
ENDBRANCH  17  18
ENDBRANCH  16  17
ENDBRANCH  15  16
ENDBRANCH   1  15
TORSDOF 22
ENDMDL
MODEL 2
REMARK VINA RESULT:    -3.832      2.403      7.350
REMARK INTER + INTRA:         -12.911
REMARK INTER:                  -8.497
REMARK INTRA:                  -4.413
REMARK UNBOUND:                -4.151
REMARK SMILES CCCCCCCCCCCCCCCCCCCCCCCC(=O)[O-]
REMARK SMILES IDX 13 1 14 2 15 3 16 4 17 5 18 6 19 7 20 8 21 9 22 10 23 11
REMARK SMILES IDX 24 12 25 13 26 14 12 15 11 16 10 17 9 18 8 19 7 20 6 21 5 22
REMARK SMILES IDX 4 23 3 24 2 25 1 26
REMARK H PARENT
REMARK Flexibility Score: inf
ROOT
ATOM      1  C   UNL     1      -1.108   2.949   5.236  1.00  0.00     0.000 C 
ENDROOT
BRANCH   1   2
ATOM      2  C   UNL     1      -0.755   4.341   4.692  1.00  0.00     0.000 C 
BRANCH   2   3
ATOM      3  C   UNL     1       0.381   5.028   5.472  1.00  0.00     0.000 C 
BRANCH   3   4
ATOM      4  C   UNL     1      -0.031   6.422   5.987  1.00  0.00     0.000 C 
BRANCH   4   5
ATOM      5  C   UNL     1       0.371   6.664   7.453  1.00  0.00     0.000 C 
BRANCH   5   6
ATOM      6  C   UNL     1      -0.845   6.953   8.360  1.00  0.00     0.000 C 
BRANCH   6   7
ATOM      7  C   UNL     1      -2.128   6.281   7.842  1.00  0.00     0.000 C 
BRANCH   7   8
ATOM      8  C   UNL     1      -3.335   7.241   7.868  1.00  0.00     0.000 C 
BRANCH   8   9
ATOM      9  C   UNL     1      -4.177   7.154   6.581  1.00  0.00     0.000 C 
BRANCH   9  10
ATOM     10  C   UNL     1      -3.786   5.923   5.753  1.00  0.00     0.006 C 
BRANCH  10  11
ATOM     11  C   UNL     1      -4.923   4.898   5.710  1.00  0.00     0.053 C 
BRANCH  11  12
ATOM     12  C   UNL     1      -4.502   3.607   6.341  1.00  0.00     0.041 C 
ATOM     13  O   UNL     1      -4.363   2.572   5.636  1.00  0.00    -0.550 OA
ATOM     14  O   UNL     1      -4.311   3.531   7.717  1.00  0.00    -0.550 OA
ENDBRANCH  11  12
ENDBRANCH  10  11
ENDBRANCH   9  10
ENDBRANCH   8   9
ENDBRANCH   7   8
ENDBRANCH   6   7
ENDBRANCH   5   6
ENDBRANCH   4   5
ENDBRANCH   3   4
ENDBRANCH   2   3
ENDBRANCH   1   2
BRANCH   1  15
ATOM     15  C   UNL     1      -0.265   2.563   6.465  1.00  0.00     0.000 C 
BRANCH  15  16
ATOM     16  C   UNL     1      -1.024   2.721   7.794  1.00  0.00     0.000 C 
BRANCH  16  17
ATOM     17  C   UNL     1      -0.147   3.298   8.929  1.00  0.00     0.000 C 
BRANCH  17  18
ATOM     18  C   UNL     1       1.331   2.885   8.796  1.00  0.00    -0.000 C 
BRANCH  18  19
ATOM     19  C   UNL     1       2.298   4.074   8.938  1.00  0.00    -0.000 C 
BRANCH  19  20
ATOM     20  C   UNL     1       3.256   4.262   7.750  1.00  0.00    -0.000 C 
BRANCH  20  21
ATOM     21  C   UNL     1       3.265   3.052   6.798  1.00  0.00    -0.000 C 
BRANCH  21  22
ATOM     22  C   UNL     1       4.589   2.264   6.860  1.00  0.00    -0.000 C 
BRANCH  22  23
ATOM     23  C   UNL     1       4.411   0.742   7.033  1.00  0.00    -0.000 C 
BRANCH  23  24
ATOM     24  C   UNL     1       3.482   0.341   8.196  1.00  0.00    -0.000 C 
BRANCH  24  25
ATOM     25  C   UNL     1       2.303  -0.529   7.735  1.00  0.00    -0.003 C 
ATOM     26  C   UNL     1       2.094  -0.422   6.227  1.00  0.00     0.004 C 
ENDBRANCH  24  25
ENDBRANCH  23  24
ENDBRANCH  22  23
ENDBRANCH  21  22
ENDBRANCH  20  21
ENDBRANCH  19  20
ENDBRANCH  18  19
ENDBRANCH  17  18
ENDBRANCH  16  17
ENDBRANCH  15  16
ENDBRANCH   1  15
TORSDOF 22
ENDMDL
MODEL 3
REMARK VINA RESULT:    -3.781     13.697     15.494
REMARK INTER + INTRA:         -12.795
REMARK INTER:                  -8.542
REMARK INTRA:                  -4.253
REMARK UNBOUND:                -4.151
REMARK SMILES CCCCCCCCCCCCCCCCCCCCCCCC(=O)[O-]
REMARK SMILES IDX 13 1 14 2 15 3 16 4 17 5 18 6 19 7 20 8 21 9 22 10 23 11
REMARK SMILES IDX 24 12 25 13 26 14 12 15 11 16 10 17 9 18 8 19 7 20 6 21 5 22
REMARK SMILES IDX 4 23 3 24 2 25 1 26
REMARK H PARENT
REMARK Flexibility Score: inf
ROOT
ATOM      1  C   UNL     1      -3.019  -1.513  -5.595  1.00  0.00     0.000 C 
ENDROOT
BRANCH   1   2
ATOM      2  C   UNL     1      -3.433  -0.123  -6.102  1.00  0.00     0.000 C 
BRANCH   2   3
ATOM      3  C   UNL     1      -4.630  -0.162  -7.070  1.00  0.00     0.000 C 
BRANCH   3   4
ATOM      4  C   UNL     1      -4.191  -0.021  -8.541  1.00  0.00     0.000 C 
BRANCH   4   5
ATOM      5  C   UNL     1      -3.552  -1.304  -9.103  1.00  0.00     0.000 C 
BRANCH   5   6
ATOM      6  C   UNL     1      -2.136  -1.062  -9.666  1.00  0.00     0.000 C 
BRANCH   6   7
ATOM      7  C   UNL     1      -1.624   0.356  -9.362  1.00  0.00     0.000 C 
BRANCH   7   8
ATOM      8  C   UNL     1      -0.505   0.353  -8.302  1.00  0.00     0.000 C 
BRANCH   8   9
ATOM      9  C   UNL     1      -0.245   1.758  -7.725  1.00  0.00     0.000 C 
BRANCH   9  10
ATOM     10  C   UNL     1       1.191   1.878  -7.200  1.00  0.00     0.006 C 
BRANCH  10  11
ATOM     11  C   UNL     1       1.655   0.571  -6.549  1.00  0.00     0.053 C 
BRANCH  11  12
ATOM     12  C   UNL     1       3.151   0.486  -6.532  1.00  0.00     0.041 C 
ATOM     13  O   UNL     1       3.735  -0.495  -7.065  1.00  0.00    -0.550 OA
ATOM     14  O   UNL     1       3.900   1.462  -5.884  1.00  0.00    -0.550 OA
ENDBRANCH  11  12
ENDBRANCH  10  11
ENDBRANCH   9  10
ENDBRANCH   8   9
ENDBRANCH   7   8
ENDBRANCH   6   7
ENDBRANCH   5   6
ENDBRANCH   4   5
ENDBRANCH   3   4
ENDBRANCH   2   3
ENDBRANCH   1   2
BRANCH   1  15
ATOM     15  C   UNL     1      -1.507  -1.767  -5.734  1.00  0.00     0.000 C 
BRANCH  15  16
ATOM     16  C   UNL     1      -1.174  -2.938  -6.676  1.00  0.00     0.000 C 
BRANCH  16  17
ATOM     17  C   UNL     1      -0.654  -4.188  -5.930  1.00  0.00     0.000 C 
BRANCH  17  18
ATOM     18  C   UNL     1      -0.382  -3.910  -4.439  1.00  0.00    -0.000 C 
BRANCH  18  19
ATOM     19  C   UNL     1      -1.411  -4.578  -3.510  1.00  0.00    -0.000 C 
BRANCH  19  20
ATOM     20  C   UNL     1      -2.422  -5.487  -4.227  1.00  0.00    -0.000 C 
BRANCH  20  21
ATOM     21  C   UNL     1      -3.859  -5.305  -3.705  1.00  0.00    -0.000 C 
BRANCH  21  22
ATOM     22  C   UNL     1      -4.826  -4.814  -4.802  1.00  0.00    -0.000 C 
BRANCH  22  23
ATOM     23  C   UNL     1      -4.282  -4.967  -6.236  1.00  0.00    -0.000 C 
BRANCH  23  24
ATOM     24  C   UNL     1      -5.045  -4.146  -7.295  1.00  0.00    -0.000 C 
BRANCH  24  25
ATOM     25  C   UNL     1      -6.154  -3.278  -6.680  1.00  0.00    -0.003 C 
ATOM     26  C   UNL     1      -7.168  -2.847  -7.736  1.00  0.00     0.004 C 
ENDBRANCH  24  25
ENDBRANCH  23  24
ENDBRANCH  22  23
ENDBRANCH  21  22
ENDBRANCH  20  21
ENDBRANCH  19  20
ENDBRANCH  18  19
ENDBRANCH  17  18
ENDBRANCH  16  17
ENDBRANCH  15  16
ENDBRANCH   1  15
TORSDOF 22
ENDMDL
MODEL 4
REMARK VINA RESULT:    -3.749      3.465      8.395
REMARK INTER + INTRA:         -12.723
REMARK INTER:                  -8.485
REMARK INTRA:                  -4.238
REMARK UNBOUND:                -4.151
REMARK SMILES CCCCCCCCCCCCCCCCCCCCCCCC(=O)[O-]
REMARK SMILES IDX 13 1 14 2 15 3 16 4 17 5 18 6 19 7 20 8 21 9 22 10 23 11
REMARK SMILES IDX 24 12 25 13 26 14 12 15 11 16 10 17 9 18 8 19 7 20 6 21 5 22
REMARK SMILES IDX 4 23 3 24 2 25 1 26
REMARK H PARENT
REMARK Flexibility Score: inf
ROOT
ATOM      1  C   UNL     1      -0.933   4.080   4.940  1.00  0.00     0.000 C 
ENDROOT
BRANCH   1   2
ATOM      2  C   UNL     1      -0.144   5.281   5.482  1.00  0.00     0.000 C 
BRANCH   2   3
ATOM      3  C   UNL     1      -1.006   6.247   6.316  1.00  0.00     0.000 C 
BRANCH   3   4
ATOM      4  C   UNL     1      -0.808   6.039   7.831  1.00  0.00     0.000 C 
BRANCH   4   5
ATOM      5  C   UNL     1      -2.120   5.725   8.572  1.00  0.00     0.000 C 
BRANCH   5   6
ATOM      6  C   UNL     1      -2.441   4.215   8.593  1.00  0.00     0.000 C 
BRANCH   6   7
ATOM      7  C   UNL     1      -3.915   3.929   8.259  1.00  0.00     0.000 C 
BRANCH   7   8
ATOM      8  C   UNL     1      -4.122   3.633   6.760  1.00  0.00     0.000 C 
BRANCH   8   9
ATOM      9  C   UNL     1      -5.140   4.591   6.112  1.00  0.00     0.000 C 
BRANCH   9  10
ATOM     10  C   UNL     1      -4.427   5.679   5.299  1.00  0.00     0.006 C 
BRANCH  10  11
ATOM     11  C   UNL     1      -4.724   7.074   5.857  1.00  0.00     0.053 C 
BRANCH  11  12
ATOM     12  C   UNL     1      -5.265   7.972   4.787  1.00  0.00     0.041 C 
ATOM     13  O   UNL     1      -5.278   7.591   3.586  1.00  0.00    -0.550 OA
ATOM     14  O   UNL     1      -5.710   9.251   5.107  1.00  0.00    -0.550 OA
ENDBRANCH  11  12
ENDBRANCH  10  11
ENDBRANCH   9  10
ENDBRANCH   8   9
ENDBRANCH   7   8
ENDBRANCH   6   7
ENDBRANCH   5   6
ENDBRANCH   4   5
ENDBRANCH   3   4
ENDBRANCH   2   3
ENDBRANCH   1   2
BRANCH   1  15
ATOM     15  C   UNL     1      -0.687   2.794   5.750  1.00  0.00     0.000 C 
BRANCH  15  16
ATOM     16  C   UNL     1       0.721   2.730   6.369  1.00  0.00     0.000 C 
BRANCH  16  17
ATOM     17  C   UNL     1       0.701   2.610   7.910  1.00  0.00     0.000 C 
BRANCH  17  18
ATOM     18  C   UNL     1       1.810   3.447   8.579  1.00  0.00    -0.000 C 
BRANCH  18  19
ATOM     19  C   UNL     1       2.633   4.263   7.567  1.00  0.00    -0.000 C 
BRANCH  19  20
ATOM     20  C   UNL     1       4.132   4.360   7.896  1.00  0.00    -0.000 C 
BRANCH  20  21
ATOM     21  C   UNL     1       4.993   3.437   7.015  1.00  0.00    -0.000 C 
BRANCH  21  22
ATOM     22  C   UNL     1       5.724   2.354   7.835  1.00  0.00    -0.000 C 
BRANCH  22  23
ATOM     23  C   UNL     1       5.388   0.910   7.415  1.00  0.00    -0.000 C 
BRANCH  23  24
ATOM     24  C   UNL     1       3.924   0.500   7.668  1.00  0.00    -0.000 C 
BRANCH  24  25
ATOM     25  C   UNL     1       3.153   0.236   6.366  1.00  0.00    -0.003 C 
ATOM     26  C   UNL     1       2.146  -0.898   6.539  1.00  0.00     0.004 C 
ENDBRANCH  24  25
ENDBRANCH  23  24
ENDBRANCH  22  23
ENDBRANCH  21  22
ENDBRANCH  20  21
ENDBRANCH  19  20
ENDBRANCH  18  19
ENDBRANCH  17  18
ENDBRANCH  16  17
ENDBRANCH  15  16
ENDBRANCH   1  15
TORSDOF 22
ENDMDL
MODEL 5
REMARK VINA RESULT:    -3.748      1.664      3.252
REMARK INTER + INTRA:         -12.719
REMARK INTER:                  -8.165
REMARK INTRA:                  -4.554
REMARK UNBOUND:                -4.151
REMARK SMILES CCCCCCCCCCCCCCCCCCCCCCCC(=O)[O-]
REMARK SMILES IDX 13 1 14 2 15 3 16 4 17 5 18 6 19 7 20 8 21 9 22 10 23 11
REMARK SMILES IDX 24 12 25 13 26 14 12 15 11 16 10 17 9 18 8 19 7 20 6 21 5 22
REMARK SMILES IDX 4 23 3 24 2 25 1 26
REMARK H PARENT
REMARK Flexibility Score: inf
ROOT
ATOM      1  C   UNL     1      -0.392   4.970   5.238  1.00  0.00     0.000 C 
ENDROOT
BRANCH   1   2
ATOM      2  C   UNL     1      -1.072   3.733   4.632  1.00  0.00     0.000 C 
BRANCH   2   3
ATOM      3  C   UNL     1      -1.316   2.610   5.657  1.00  0.00     0.000 C 
BRANCH   3   4
ATOM      4  C   UNL     1      -2.778   2.576   6.142  1.00  0.00     0.000 C 
BRANCH   4   5
ATOM      5  C   UNL     1      -2.927   2.932   7.633  1.00  0.00     0.000 C 
BRANCH   5   6
ATOM      6  C   UNL     1      -1.576   2.923   8.380  1.00  0.00     0.000 C 
BRANCH   6   7
ATOM      7  C   UNL     1      -1.451   1.726   9.339  1.00  0.00     0.000 C 
BRANCH   7   8
ATOM      8  C   UNL     1      -0.006   1.193   9.415  1.00  0.00     0.000 C 
BRANCH   8   9
ATOM      9  C   UNL     1       1.037   2.302   9.178  1.00  0.00     0.000 C 
BRANCH   9  10
ATOM     10  C   UNL     1       2.034   1.892   8.087  1.00  0.00     0.006 C 
BRANCH  10  11
ATOM     11  C   UNL     1       1.516   0.697   7.281  1.00  0.00     0.053 C 
BRANCH  11  12
ATOM     12  C   UNL     1       2.577   0.174   6.361  1.00  0.00     0.041 C 
ATOM     13  O   UNL     1       2.361  -0.854   5.664  1.00  0.00    -0.550 OA
ATOM     14  O   UNL     1       3.823   0.790   6.309  1.00  0.00    -0.550 OA
ENDBRANCH  11  12
ENDBRANCH  10  11
ENDBRANCH   9  10
ENDBRANCH   8   9
ENDBRANCH   7   8
ENDBRANCH   6   7
ENDBRANCH   5   6
ENDBRANCH   4   5
ENDBRANCH   3   4
ENDBRANCH   2   3
ENDBRANCH   1   2
BRANCH   1  15
ATOM     15  C   UNL     1       0.909   4.624   5.984  1.00  0.00     0.000 C 
BRANCH  15  16
ATOM     16  C   UNL     1       1.099   5.435   7.278  1.00  0.00     0.000 C 
BRANCH  16  17
ATOM     17  C   UNL     1       0.151   6.652   7.375  1.00  0.00     0.000 C 
BRANCH  17  18
ATOM     18  C   UNL     1      -0.808   6.556   8.578  1.00  0.00    -0.000 C 
BRANCH  18  19
ATOM     19  C   UNL     1      -2.289   6.577   8.163  1.00  0.00    -0.000 C 
BRANCH  19  20
ATOM     20  C   UNL     1      -2.575   7.339   6.858  1.00  0.00    -0.000 C 
BRANCH  20  21
ATOM     21  C   UNL     1      -4.037   7.195   6.396  1.00  0.00    -0.000 C 
BRANCH  21  22
ATOM     22  C   UNL     1      -4.252   5.958   5.500  1.00  0.00    -0.000 C 
BRANCH  22  23
ATOM     23  C   UNL     1      -5.443   5.074   5.922  1.00  0.00    -0.000 C 
BRANCH  23  24
ATOM     24  C   UNL     1      -6.408   5.744   6.921  1.00  0.00    -0.000 C 
BRANCH  24  25
ATOM     25  C   UNL     1      -6.472   5.002   8.264  1.00  0.00    -0.003 C 
ATOM     26  C   UNL     1      -5.676   5.737   9.339  1.00  0.00     0.004 C 
ENDBRANCH  24  25
ENDBRANCH  23  24
ENDBRANCH  22  23
ENDBRANCH  21  22
ENDBRANCH  20  21
ENDBRANCH  19  20
ENDBRANCH  18  19
ENDBRANCH  17  18
ENDBRANCH  16  17
ENDBRANCH  15  16
ENDBRANCH   1  15
TORSDOF 22
ENDMDL
MODEL 6
REMARK VINA RESULT:    -3.709      1.833      3.108
REMARK INTER + INTRA:         -12.630
REMARK INTER:                  -8.117
REMARK INTRA:                  -4.513
REMARK UNBOUND:                -4.151
REMARK SMILES CCCCCCCCCCCCCCCCCCCCCCCC(=O)[O-]
REMARK SMILES IDX 13 1 14 2 15 3 16 4 17 5 18 6 19 7 20 8 21 9 22 10 23 11
REMARK SMILES IDX 24 12 25 13 26 14 12 15 11 16 10 17 9 18 8 19 7 20 6 21 5 22
REMARK SMILES IDX 4 23 3 24 2 25 1 26
REMARK H PARENT
REMARK Flexibility Score: inf
ROOT
ATOM      1  C   UNL     1      -0.086   4.771   5.383  1.00  0.00     0.000 C 
ENDROOT
BRANCH   1   2
ATOM      2  C   UNL     1       0.856   4.040   6.351  1.00  0.00     0.000 C 
BRANCH   2   3
ATOM      3  C   UNL     1       1.237   4.885   7.581  1.00  0.00     0.000 C 
BRANCH   3   4
ATOM      4  C   UNL     1       1.990   4.058   8.642  1.00  0.00     0.000 C 
BRANCH   4   5
ATOM      5  C   UNL     1       1.055   3.435   9.694  1.00  0.00     0.000 C 
BRANCH   5   6
ATOM      6  C   UNL     1       1.349   1.939   9.936  1.00  0.00     0.000 C 
BRANCH   6   7
ATOM      7  C   UNL     1       0.541   1.029   8.994  1.00  0.00     0.000 C 
BRANCH   7   8
ATOM      8  C   UNL     1       1.451   0.096   8.169  1.00  0.00     0.000 C 
BRANCH   8   9
ATOM      9  C   UNL     1       1.819   0.702   6.801  1.00  0.00     0.000 C 
BRANCH   9  10
ATOM     10  C   UNL     1       3.312   0.515   6.504  1.00  0.00     0.006 C 
BRANCH  10  11
ATOM     11  C   UNL     1       4.179   1.296   7.497  1.00  0.00     0.053 C 
BRANCH  11  12
ATOM     12  C   UNL     1       4.765   2.514   6.850  1.00  0.00     0.041 C 
ATOM     13  O   UNL     1       4.452   2.816   5.668  1.00  0.00    -0.550 OA
ATOM     14  O   UNL     1       5.696   3.289   7.534  1.00  0.00    -0.550 OA
ENDBRANCH  11  12
ENDBRANCH  10  11
ENDBRANCH   9  10
ENDBRANCH   8   9
ENDBRANCH   7   8
ENDBRANCH   6   7
ENDBRANCH   5   6
ENDBRANCH   4   5
ENDBRANCH   3   4
ENDBRANCH   2   3
ENDBRANCH   1   2
BRANCH   1  15
ATOM     15  C   UNL     1      -1.079   3.819   4.692  1.00  0.00     0.000 C 
BRANCH  15  16
ATOM     16  C   UNL     1      -1.499   2.634   5.580  1.00  0.00     0.000 C 
BRANCH  16  17
ATOM     17  C   UNL     1      -3.017   2.602   5.871  1.00  0.00     0.000 C 
BRANCH  17  18
ATOM     18  C   UNL     1      -3.324   2.402   7.368  1.00  0.00    -0.000 C 
BRANCH  18  19
ATOM     19  C   UNL     1      -2.327   3.133   8.285  1.00  0.00    -0.000 C 
BRANCH  19  20
ATOM     20  C   UNL     1      -2.860   4.441   8.893  1.00  0.00    -0.000 C 
BRANCH  20  21
ATOM     21  C   UNL     1      -2.049   5.673   8.452  1.00  0.00    -0.000 C 
BRANCH  21  22
ATOM     22  C   UNL     1      -2.910   6.705   7.695  1.00  0.00    -0.000 C 
BRANCH  22  23
ATOM     23  C   UNL     1      -3.242   6.305   6.243  1.00  0.00    -0.000 C 
BRANCH  23  24
ATOM     24  C   UNL     1      -4.557   6.905   5.705  1.00  0.00    -0.000 C 
BRANCH  24  25
ATOM     25  C   UNL     1      -5.781   6.470   6.525  1.00  0.00    -0.003 C 
ATOM     26  C   UNL     1      -5.914   4.950   6.556  1.00  0.00     0.004 C 
ENDBRANCH  24  25
ENDBRANCH  23  24
ENDBRANCH  22  23
ENDBRANCH  21  22
ENDBRANCH  20  21
ENDBRANCH  19  20
ENDBRANCH  18  19
ENDBRANCH  17  18
ENDBRANCH  16  17
ENDBRANCH  15  16
ENDBRANCH   1  15
TORSDOF 22
ENDMDL
MODEL 7
REMARK VINA RESULT:    -3.697      1.890      3.099
REMARK INTER + INTRA:         -12.603
REMARK INTER:                  -9.298
REMARK INTRA:                  -3.306
REMARK UNBOUND:                -4.151
REMARK SMILES CCCCCCCCCCCCCCCCCCCCCCCC(=O)[O-]
REMARK SMILES IDX 13 1 14 2 15 3 16 4 17 5 18 6 19 7 20 8 21 9 22 10 23 11
REMARK SMILES IDX 24 12 25 13 26 14 12 15 11 16 10 17 9 18 8 19 7 20 6 21 5 22
REMARK SMILES IDX 4 23 3 24 2 25 1 26
REMARK H PARENT
REMARK Flexibility Score: inf
ROOT
ATOM      1  C   UNL     1      -0.667   5.561   6.568  1.00  0.00     0.000 C 
ENDROOT
BRANCH   1   2
ATOM      2  C   UNL     1       0.209   5.215   7.781  1.00  0.00     0.000 C 
BRANCH   2   3
ATOM      3  C   UNL     1       1.438   4.362   7.419  1.00  0.00     0.000 C 
BRANCH   3   4
ATOM      4  C   UNL     1       1.700   3.253   8.458  1.00  0.00     0.000 C 
BRANCH   4   5
ATOM      5  C   UNL     1       0.980   1.934   8.126  1.00  0.00     0.000 C 
BRANCH   5   6
ATOM      6  C   UNL     1       1.390   1.367   6.750  1.00  0.00     0.000 C 
BRANCH   6   7
ATOM      7  C   UNL     1       2.319   0.147   6.877  1.00  0.00     0.000 C 
BRANCH   7   8
ATOM      8  C   UNL     1       2.818  -0.052   8.322  1.00  0.00     0.000 C 
BRANCH   8   9
ATOM      9  C   UNL     1       4.356  -0.045   8.413  1.00  0.00     0.000 C 
BRANCH   9  10
ATOM     10  C   UNL     1       4.972   0.689   7.215  1.00  0.00     0.006 C 
BRANCH  10  11
ATOM     11  C   UNL     1       5.579   2.030   7.637  1.00  0.00     0.053 C 
BRANCH  11  12
ATOM     12  C   UNL     1       4.979   3.157   6.854  1.00  0.00     0.041 C 
ATOM     13  O   UNL     1       4.476   2.943   5.718  1.00  0.00    -0.550 OA
ATOM     14  O   UNL     1       5.018   4.455   7.354  1.00  0.00    -0.550 OA
ENDBRANCH  11  12
ENDBRANCH  10  11
ENDBRANCH   9  10
ENDBRANCH   8   9
ENDBRANCH   7   8
ENDBRANCH   6   7
ENDBRANCH   5   6
ENDBRANCH   4   5
ENDBRANCH   3   4
ENDBRANCH   2   3
ENDBRANCH   1   2
BRANCH   1  15
ATOM     15  C   UNL     1      -0.143   4.935   5.262  1.00  0.00     0.000 C 
BRANCH  15  16
ATOM     16  C   UNL     1      -1.165   4.004   4.585  1.00  0.00     0.000 C 
BRANCH  16  17
ATOM     17  C   UNL     1      -1.281   2.626   5.276  1.00  0.00     0.000 C 
BRANCH  17  18
ATOM     18  C   UNL     1      -2.717   2.323   5.745  1.00  0.00    -0.000 C 
BRANCH  18  19
ATOM     19  C   UNL     1      -2.934   2.632   7.237  1.00  0.00    -0.000 C 
BRANCH  19  20
ATOM     20  C   UNL     1      -3.763   3.897   7.513  1.00  0.00    -0.000 C 
BRANCH  20  21
ATOM     21  C   UNL     1      -4.732   4.232   6.365  1.00  0.00    -0.000 C 
BRANCH  21  22
ATOM     22  C   UNL     1      -4.362   5.546   5.647  1.00  0.00    -0.000 C 
BRANCH  22  23
ATOM     23  C   UNL     1      -5.415   6.662   5.790  1.00  0.00    -0.000 C 
BRANCH  23  24
ATOM     24  C   UNL     1      -4.979   8.024   5.213  1.00  0.00    -0.000 C 
BRANCH  24  25
ATOM     25  C   UNL     1      -6.058   8.659   4.324  1.00  0.00    -0.003 C 
ATOM     26  C   UNL     1      -5.673   8.584   2.849  1.00  0.00     0.004 C 
ENDBRANCH  24  25
ENDBRANCH  23  24
ENDBRANCH  22  23
ENDBRANCH  21  22
ENDBRANCH  20  21
ENDBRANCH  19  20
ENDBRANCH  18  19
ENDBRANCH  17  18
ENDBRANCH  16  17
ENDBRANCH  15  16
ENDBRANCH   1  15
TORSDOF 22
ENDMDL
MODEL 8
REMARK VINA RESULT:    -3.693      1.959      3.375
REMARK INTER + INTRA:         -12.594
REMARK INTER:                  -8.406
REMARK INTRA:                  -4.188
REMARK UNBOUND:                -4.151
REMARK SMILES CCCCCCCCCCCCCCCCCCCCCCCC(=O)[O-]
REMARK SMILES IDX 13 1 14 2 15 3 16 4 17 5 18 6 19 7 20 8 21 9 22 10 23 11
REMARK SMILES IDX 24 12 25 13 26 14 12 15 11 16 10 17 9 18 8 19 7 20 6 21 5 22
REMARK SMILES IDX 4 23 3 24 2 25 1 26
REMARK H PARENT
REMARK Flexibility Score: inf
ROOT
ATOM      1  C   UNL     1       1.199   4.739   5.984  1.00  0.00     0.000 C 
ENDROOT
BRANCH   1   2
ATOM      2  C   UNL     1       1.385   4.834   7.506  1.00  0.00     0.000 C 
BRANCH   2   3
ATOM      3  C   UNL     1       1.819   3.504   8.149  1.00  0.00     0.000 C 
BRANCH   3   4
ATOM      4  C   UNL     1       2.187   2.443   7.093  1.00  0.00     0.000 C 
BRANCH   4   5
ATOM      5  C   UNL     1       1.359   1.152   7.222  1.00  0.00     0.000 C 
BRANCH   5   6
ATOM      6  C   UNL     1       1.904   0.008   6.340  1.00  0.00     0.000 C 
BRANCH   6   7
ATOM      7  C   UNL     1       2.198  -1.264   7.154  1.00  0.00     0.000 C 
BRANCH   7   8
ATOM      8  C   UNL     1       2.649  -0.939   8.593  1.00  0.00     0.000 C 
BRANCH   8   9
ATOM      9  C   UNL     1       3.931  -1.698   8.987  1.00  0.00     0.000 C 
BRANCH   9  10
ATOM     10  C   UNL     1       4.971  -1.635   7.862  1.00  0.00     0.006 C 
BRANCH  10  11
ATOM     11  C   UNL     1       6.202  -0.829   8.288  1.00  0.00     0.053 C 
BRANCH  11  12
ATOM     12  C   UNL     1       6.124   0.576   7.773  1.00  0.00     0.041 C 
ATOM     13  O   UNL     1       5.245   0.893   6.928  1.00  0.00    -0.550 OA
ATOM     14  O   UNL     1       7.054   1.524   8.186  1.00  0.00    -0.550 OA
ENDBRANCH  11  12
ENDBRANCH  10  11
ENDBRANCH   9  10
ENDBRANCH   8   9
ENDBRANCH   7   8
ENDBRANCH   6   7
ENDBRANCH   5   6
ENDBRANCH   4   5
ENDBRANCH   3   4
ENDBRANCH   2   3
ENDBRANCH   1   2
BRANCH   1  15
ATOM     15  C   UNL     1      -0.094   5.422   5.502  1.00  0.00     0.000 C 
BRANCH  15  16
ATOM     16  C   UNL     1      -1.002   4.488   4.681  1.00  0.00     0.000 C 
BRANCH  16  17
ATOM     17  C   UNL     1      -1.028   3.040   5.222  1.00  0.00     0.000 C 
BRANCH  17  18
ATOM     18  C   UNL     1      -2.298   2.742   6.043  1.00  0.00    -0.000 C 
BRANCH  18  19
ATOM     19  C   UNL     1      -2.005   2.539   7.540  1.00  0.00    -0.000 C 
BRANCH  19  20
ATOM     20  C   UNL     1      -2.707   3.543   8.469  1.00  0.00    -0.000 C 
BRANCH  20  21
ATOM     21  C   UNL     1      -1.768   4.668   8.943  1.00  0.00    -0.000 C 
BRANCH  21  22
ATOM     22  C   UNL     1      -2.236   6.061   8.475  1.00  0.00    -0.000 C 
BRANCH  22  23
ATOM     23  C   UNL     1      -3.624   6.067   7.803  1.00  0.00    -0.000 C 
BRANCH  23  24
ATOM     24  C   UNL     1      -3.610   6.500   6.323  1.00  0.00    -0.000 C 
BRANCH  24  25
ATOM     25  C   UNL     1      -4.532   5.637   5.449  1.00  0.00    -0.003 C 
ATOM     26  C   UNL     1      -5.512   4.836   6.302  1.00  0.00     0.004 C 
ENDBRANCH  24  25
ENDBRANCH  23  24
ENDBRANCH  22  23
ENDBRANCH  21  22
ENDBRANCH  20  21
ENDBRANCH  19  20
ENDBRANCH  18  19
ENDBRANCH  17  18
ENDBRANCH  16  17
ENDBRANCH  15  16
ENDBRANCH   1  15
TORSDOF 22
ENDMDL
MODEL 9
REMARK VINA RESULT:    -3.645     13.487     15.804
REMARK INTER + INTRA:         -12.485
REMARK INTER:                  -9.436
REMARK INTRA:                  -3.048
REMARK UNBOUND:                -4.151
REMARK SMILES CCCCCCCCCCCCCCCCCCCCCCCC(=O)[O-]
REMARK SMILES IDX 13 1 14 2 15 3 16 4 17 5 18 6 19 7 20 8 21 9 22 10 23 11
REMARK SMILES IDX 24 12 25 13 26 14 12 15 11 16 10 17 9 18 8 19 7 20 6 21 5 22
REMARK SMILES IDX 4 23 3 24 2 25 1 26
REMARK H PARENT
REMARK Flexibility Score: inf
ROOT
ATOM      1  C   UNL     1       4.394   3.112  -6.600  1.00  0.00     0.000 C 
ENDROOT
BRANCH   1   2
ATOM      2  C   UNL     1       3.129   2.610  -5.889  1.00  0.00     0.000 C 
BRANCH   2   3
ATOM      3  C   UNL     1       1.847   2.806  -6.718  1.00  0.00     0.000 C 
BRANCH   3   4
ATOM      4  C   UNL     1       1.499   1.557  -7.552  1.00  0.00     0.000 C 
BRANCH   4   5
ATOM      5  C   UNL     1       1.597   0.249  -6.746  1.00  0.00     0.000 C 
BRANCH   5   6
ATOM      6  C   UNL     1       1.650  -1.001  -7.651  1.00  0.00     0.000 C 
BRANCH   6   7
ATOM      7  C   UNL     1       1.682  -2.306  -6.837  1.00  0.00     0.000 C 
BRANCH   7   8
ATOM      8  C   UNL     1       0.283  -2.942  -6.709  1.00  0.00     0.000 C 
BRANCH   8   9
ATOM      9  C   UNL     1      -0.225  -2.942  -5.254  1.00  0.00     0.000 C 
BRANCH   9  10
ATOM     10  C   UNL     1      -1.702  -2.533  -5.191  1.00  0.00     0.006 C 
BRANCH  10  11
ATOM     11  C   UNL     1      -2.145  -1.844  -6.485  1.00  0.00     0.053 C 
BRANCH  11  12
ATOM     12  C   UNL     1      -2.512  -0.414  -6.229  1.00  0.00     0.041 C 
ATOM     13  O   UNL     1      -3.289  -0.119  -5.282  1.00  0.00    -0.550 OA
ATOM     14  O   UNL     1      -2.038   0.590  -7.066  1.00  0.00    -0.550 OA
ENDBRANCH  11  12
ENDBRANCH  10  11
ENDBRANCH   9  10
ENDBRANCH   8   9
ENDBRANCH   7   8
ENDBRANCH   6   7
ENDBRANCH   5   6
ENDBRANCH   4   5
ENDBRANCH   3   4
ENDBRANCH   2   3
ENDBRANCH   1   2
BRANCH   1  15
ATOM     15  C   UNL     1       5.473   3.601  -5.616  1.00  0.00     0.000 C 
BRANCH  15  16
ATOM     16  C   UNL     1       6.595   4.403  -6.298  1.00  0.00     0.000 C 
BRANCH  16  17
ATOM     17  C   UNL     1       7.351   5.335  -5.323  1.00  0.00     0.000 C 
BRANCH  17  18
ATOM     18  C   UNL     1       8.211   4.553  -4.311  1.00  0.00    -0.000 C 
BRANCH  18  19
ATOM     19  C   UNL     1       9.514   4.013  -4.927  1.00  0.00    -0.000 C 
BRANCH  19  20
ATOM     20  C   UNL     1       9.919   2.613  -4.437  1.00  0.00    -0.000 C 
BRANCH  20  21
ATOM     21  C   UNL     1       8.894   1.531  -4.822  1.00  0.00    -0.000 C 
BRANCH  21  22
ATOM     22  C   UNL     1       8.691   1.430  -6.348  1.00  0.00    -0.000 C 
BRANCH  22  23
ATOM     23  C   UNL     1       7.505   0.539  -6.769  1.00  0.00    -0.000 C 
BRANCH  23  24
ATOM     24  C   UNL     1       6.648   0.027  -5.594  1.00  0.00    -0.000 C 
BRANCH  24  25
ATOM     25  C   UNL     1       5.264  -0.463  -6.045  1.00  0.00    -0.003 C 
ATOM     26  C   UNL     1       5.322  -1.906  -6.538  1.00  0.00     0.004 C 
ENDBRANCH  24  25
ENDBRANCH  23  24
ENDBRANCH  22  23
ENDBRANCH  21  22
ENDBRANCH  20  21
ENDBRANCH  19  20
ENDBRANCH  18  19
ENDBRANCH  17  18
ENDBRANCH  16  17
ENDBRANCH  15  16
ENDBRANCH   1  15
TORSDOF 22
ENDMDL
