MODEL 1
REMARK VINA RESULT:    -1.077      0.000      0.000
REMARK INTER + INTRA:          -0.768
REMARK INTER:                  -1.171
REMARK INTRA:                   0.404
REMARK UNBOUND:                 0.404
REMARK SMILES C=C(C)[C@H]1CC[C@@H](C)C[C@@H]1O
REMARK SMILES IDX 8 1 7 2 6 3 5 4 4 5 10 6 9 7 11 8 2 10 1 11 3 12
REMARK H PARENT 11 9
REMARK Flexibility Score: inf
ROOT
ATOM      1  C   UNL     1     -33.646  35.591 -10.849  1.00  0.00     0.008 C 
ATOM      2  C   UNL     1     -34.529  35.244 -12.059  1.00  0.00    -0.012 C 
ATOM      3  C   UNL     1     -35.795  36.124 -12.125  1.00  0.00     0.004 C 
ATOM      4  C   UNL     1     -36.837  35.740 -11.065  1.00  0.00     0.011 C 
ATOM      5  C   UNL     1     -37.206  34.247 -11.164  1.00  0.00     0.043 C 
ATOM      6  C   UNL     1     -35.945  33.355 -11.044  1.00  0.00     0.121 C 
ATOM      7  C   UNL     1     -34.892  33.743 -12.103  1.00  0.00     0.035 C 
ENDROOT
BRANCH   6   8
ATOM      8  O   UNL     1     -36.277  31.995 -11.167  1.00  0.00    -0.392 OA
ATOM      9  H   UNL     1     -37.220  31.886 -10.870  1.00  0.00     0.210 HD
ENDBRANCH   6   8
BRANCH   5  10
ATOM     10  C   UNL     1     -38.261  33.873 -10.128  1.00  0.00    -0.075 C 
ATOM     11  C   UNL     1     -38.775  32.633 -10.071  1.00  0.00     0.008 C 
ATOM     12  C   UNL     1     -38.751  34.905  -9.145  1.00  0.00     0.039 C 
ENDBRANCH   5  10
TORSDOF 2
ENDMDL
MODEL 2
REMARK VINA RESULT:     1.167     19.152     21.019
REMARK INTER + INTRA:           1.673
REMARK INTER:                   1.246
REMARK INTRA:                   0.427
REMARK UNBOUND:                 0.404
REMARK SMILES C=C(C)[C@H]1CC[C@@H](C)C[C@@H]1O
REMARK SMILES IDX 8 1 7 2 6 3 5 4 4 5 10 6 9 7 11 8 2 10 1 11 3 12
REMARK H PARENT 11 9
REMARK Flexibility Score: inf
ROOT
ATOM      1  C   UNL     1     -39.122  20.360   7.930  1.00  0.00     0.008 C 
ATOM      2  C   UNL     1     -37.866  20.699   7.110  1.00  0.00    -0.012 C 
ATOM      3  C   UNL     1     -37.111  21.917   7.681  1.00  0.00     0.004 C 
ATOM      4  C   UNL     1     -37.834  23.243   7.403  1.00  0.00     0.011 C 
ATOM      5  C   UNL     1     -38.099  23.425   5.895  1.00  0.00     0.043 C 
ATOM      6  C   UNL     1     -38.904  22.230   5.327  1.00  0.00     0.121 C 
ATOM      7  C   UNL     1     -38.185  20.894   5.612  1.00  0.00     0.035 C 
ENDROOT
BRANCH   6   8
ATOM      8  O   UNL     1     -39.118  22.379   3.945  1.00  0.00    -0.392 OA
ATOM      9  H   UNL     1     -38.229  22.478   3.511  1.00  0.00     0.210 HD
ENDBRANCH   6   8
BRANCH   5  10
ATOM     10  C   UNL     1     -38.793  24.754   5.617  1.00  0.00    -0.075 C 
ATOM     11  C   UNL     1     -39.125  25.591   6.616  1.00  0.00     0.008 C 
ATOM     12  C   UNL     1     -39.124  25.151   4.202  1.00  0.00     0.039 C 
ENDBRANCH   5  10
TORSDOF 2
ENDMDL
