MODEL 1
REMARK VINA RESULT:    -3.050      0.000      0.000
REMARK INTER + INTRA:          -3.637
REMARK INTER:                  -3.585
REMARK INTRA:                  -0.052
REMARK UNBOUND:                -0.052
REMARK SMILES CCCCC(=O)[O-]
REMARK SMILES IDX 4 1 5 2 6 3 7 4 3 5 2 6 1 7
REMARK H PARENT
REMARK Flexibility Score: inf
ROOT
ATOM      1  C   UNL     1     107.330  50.134 231.862  1.00  0.00     0.053 C 
ENDROOT
BRANCH   1   2
ATOM      2  C   UNL     1     108.775  50.107 232.256  1.00  0.00     0.041 C 
ATOM      3  O   UNL     1     109.366  49.008 232.425  1.00  0.00    -0.550 OA
ATOM      4  O   UNL     1     109.460  51.296 232.468  1.00  0.00    -0.550 OA
ENDBRANCH   1   2
BRANCH   1   5
ATOM      5  C   UNL     1     106.779  48.722 231.623  1.00  0.00     0.006 C 
BRANCH   5   6
ATOM      6  C   UNL     1     105.713  48.694 230.518  1.00  0.00    -0.003 C 
ATOM      7  C   UNL     1     105.631  50.038 229.799  1.00  0.00     0.004 C 
ENDBRANCH   5   6
ENDBRANCH   1   5
TORSDOF 3
ENDMDL
MODEL 2
REMARK VINA RESULT:    -2.908      1.378      2.056
REMARK INTER + INTRA:          -3.469
REMARK INTER:                  -3.419
REMARK INTRA:                  -0.051
REMARK UNBOUND:                -0.052
REMARK SMILES CCCCC(=O)[O-]
REMARK SMILES IDX 4 1 5 2 6 3 7 4 3 5 2 6 1 7
REMARK H PARENT
REMARK Flexibility Score: inf
ROOT
ATOM      1  C   UNL     1     107.006  49.454 230.866  1.00  0.00     0.053 C 
ENDROOT
BRANCH   1   2
ATOM      2  C   UNL     1     107.612  48.792 232.066  1.00  0.00     0.041 C 
ATOM      3  O   UNL     1     108.801  49.040 232.395  1.00  0.00    -0.550 OA
ATOM      4  O   UNL     1     106.872  47.875 232.801  1.00  0.00    -0.550 OA
ENDBRANCH   1   2
BRANCH   1   5
ATOM      5  C   UNL     1     105.859  48.621 230.277  1.00  0.00     0.006 C 
BRANCH   5   6
ATOM      6  C   UNL     1     104.542  49.408 230.217  1.00  0.00    -0.003 C 
ATOM      7  C   UNL     1     104.716  50.714 229.446  1.00  0.00     0.004 C 
ENDBRANCH   5   6
ENDBRANCH   1   5
TORSDOF 3
ENDMDL
MODEL 3
REMARK VINA RESULT:    -2.856      3.988      5.766
REMARK INTER + INTRA:          -3.408
REMARK INTER:                  -3.382
REMARK INTRA:                  -0.027
REMARK UNBOUND:                -0.052
REMARK SMILES CCCCC(=O)[O-]
REMARK SMILES IDX 4 1 5 2 6 3 7 4 3 5 2 6 1 7
REMARK H PARENT
REMARK Flexibility Score: inf
ROOT
ATOM      1  C   UNL     1     110.680  53.225 232.446  1.00  0.00     0.053 C 
ENDROOT
BRANCH   1   2
ATOM      2  C   UNL     1     109.700  52.254 233.029  1.00  0.00     0.041 C 
ATOM      3  O   UNL     1     108.969  52.592 233.997  1.00  0.00    -0.550 OA
ATOM      4  O   UNL     1     109.617  50.963 232.524  1.00  0.00    -0.550 OA
ENDBRANCH   1   2
BRANCH   1   5
ATOM      5  C   UNL     1     112.124  52.723 232.577  1.00  0.00     0.006 C 
BRANCH   5   6
ATOM      6  C   UNL     1     113.116  53.600 231.799  1.00  0.00    -0.003 C 
ATOM      7  C   UNL     1     112.695  53.745 230.340  1.00  0.00     0.004 C 
ENDBRANCH   5   6
ENDBRANCH   1   5
TORSDOF 3
ENDMDL
MODEL 4
REMARK VINA RESULT:    -2.808     21.833     22.569
REMARK INTER + INTRA:          -3.352
REMARK INTER:                  -3.237
REMARK INTRA:                  -0.115
REMARK UNBOUND:                -0.052
REMARK SMILES CCCCC(=O)[O-]
REMARK SMILES IDX 4 1 5 2 6 3 7 4 3 5 2 6 1 7
REMARK H PARENT
REMARK Flexibility Score: inf
ROOT
ATOM      1  C   UNL     1     112.402  65.578 217.221  1.00  0.00     0.053 C 
ENDROOT
BRANCH   1   2
ATOM      2  C   UNL     1     112.842  66.467 216.099  1.00  0.00     0.041 C 
ATOM      3  O   UNL     1     112.632  67.708 216.152  1.00  0.00    -0.550 OA
ATOM      4  O   UNL     1     113.455  65.921 214.978  1.00  0.00    -0.550 OA
ENDBRANCH   1   2
BRANCH   1   5
ATOM      5  C   UNL     1     111.009  64.988 216.966  1.00  0.00     0.006 C 
BRANCH   5   6
ATOM      6  C   UNL     1     111.077  63.585 216.347  1.00  0.00    -0.003 C 
ATOM      7  C   UNL     1     110.661  63.611 214.879  1.00  0.00     0.004 C 
ENDBRANCH   5   6
ENDBRANCH   1   5
TORSDOF 3
ENDMDL
MODEL 5
REMARK VINA RESULT:    -2.710     21.258     22.193
REMARK INTER + INTRA:          -3.237
REMARK INTER:                  -3.168
REMARK INTRA:                  -0.069
REMARK UNBOUND:                -0.052
REMARK SMILES CCCCC(=O)[O-]
REMARK SMILES IDX 4 1 5 2 6 3 7 4 3 5 2 6 1 7
REMARK H PARENT
REMARK Flexibility Score: inf
ROOT
ATOM      1  C   UNL     1     111.550  65.265 216.001  1.00  0.00     0.053 C 
ENDROOT
BRANCH   1   2
ATOM      2  C   UNL     1     112.719  66.164 215.738  1.00  0.00     0.041 C 
ATOM      3  O   UNL     1     113.778  65.700 215.239  1.00  0.00    -0.550 OA
ATOM      4  O   UNL     1     112.650  67.510 216.074  1.00  0.00    -0.550 OA
ENDBRANCH   1   2
BRANCH   1   5
ATOM      5  C   UNL     1     111.127  65.301 217.476  1.00  0.00     0.006 C 
BRANCH   5   6
ATOM      6  C   UNL     1     111.520  64.019 218.225  1.00  0.00    -0.003 C 
ATOM      7  C   UNL     1     111.509  62.812 217.291  1.00  0.00     0.004 C 
ENDBRANCH   5   6
ENDBRANCH   1   5
TORSDOF 3
ENDMDL
MODEL 6
REMARK VINA RESULT:    -2.611      3.043      3.430
REMARK INTER + INTRA:          -3.120
REMARK INTER:                  -3.014
REMARK INTRA:                  -0.106
REMARK UNBOUND:                -0.052
REMARK SMILES CCCCC(=O)[O-]
REMARK SMILES IDX 4 1 5 2 6 3 7 4 3 5 2 6 1 7
REMARK H PARENT
REMARK Flexibility Score: inf
ROOT
ATOM      1  C   UNL     1     106.336  48.214 232.294  1.00  0.00     0.053 C 
ENDROOT
BRANCH   1   2
ATOM      2  C   UNL     1     105.168  48.516 233.182  1.00  0.00     0.041 C 
ATOM      3  O   UNL     1     105.296  48.480 234.434  1.00  0.00    -0.550 OA
ATOM      4  O   UNL     1     103.929  48.807 232.626  1.00  0.00    -0.550 OA
ENDBRANCH   1   2
BRANCH   1   5
ATOM      5  C   UNL     1     105.970  48.348 230.809  1.00  0.00     0.006 C 
BRANCH   5   6
ATOM      6  C   UNL     1     106.404  49.700 230.224  1.00  0.00    -0.003 C 
ATOM      7  C   UNL     1     105.210  50.459 229.651  1.00  0.00     0.004 C 
ENDBRANCH   5   6
ENDBRANCH   1   5
TORSDOF 3
ENDMDL
MODEL 7
REMARK VINA RESULT:    -2.606     18.419     18.756
REMARK INTER + INTRA:          -3.114
REMARK INTER:                  -3.007
REMARK INTRA:                  -0.107
REMARK UNBOUND:                -0.052
REMARK SMILES CCCCC(=O)[O-]
REMARK SMILES IDX 4 1 5 2 6 3 7 4 3 5 2 6 1 7
REMARK H PARENT
REMARK Flexibility Score: inf
ROOT
ATOM      1  C   UNL     1      99.101  59.121 216.775  1.00  0.00     0.053 C 
ENDROOT
BRANCH   1   2
ATOM      2  C   UNL     1      99.249  59.574 218.195  1.00  0.00     0.041 C 
ATOM      3  O   UNL     1      98.544  59.060 219.103  1.00  0.00    -0.550 OA
ATOM      4  O   UNL     1     100.143  60.589 218.511  1.00  0.00    -0.550 OA
ENDBRANCH   1   2
BRANCH   1   5
ATOM      5  C   UNL     1      99.506  57.651 216.603  1.00  0.00     0.006 C 
BRANCH   5   6
ATOM      6  C   UNL     1      98.342  56.781 216.108  1.00  0.00    -0.003 C 
ATOM      7  C   UNL     1      97.584  56.160 217.277  1.00  0.00     0.004 C 
ENDBRANCH   5   6
ENDBRANCH   1   5
TORSDOF 3
ENDMDL
MODEL 8
REMARK VINA RESULT:    -2.588      7.718      8.585
REMARK INTER + INTRA:          -3.094
REMARK INTER:                  -3.038
REMARK INTRA:                  -0.055
REMARK UNBOUND:                -0.052
REMARK SMILES CCCCC(=O)[O-]
REMARK SMILES IDX 4 1 5 2 6 3 7 4 3 5 2 6 1 7
REMARK H PARENT
REMARK Flexibility Score: inf
ROOT
ATOM      1  C   UNL     1     110.065  53.875 225.513  1.00  0.00     0.053 C 
ENDROOT
BRANCH   1   2
ATOM      2  C   UNL     1     109.647  52.600 224.848  1.00  0.00     0.041 C 
ATOM      3  O   UNL     1     109.522  52.548 223.596  1.00  0.00    -0.550 OA
ATOM      4  O   UNL     1     109.363  51.477 225.615  1.00  0.00    -0.550 OA
ENDBRANCH   1   2
BRANCH   1   5
ATOM      5  C   UNL     1     111.588  54.063 225.474  1.00  0.00     0.006 C 
BRANCH   5   6
ATOM      6  C   UNL     1     112.266  53.583 226.765  1.00  0.00    -0.003 C 
ATOM      7  C   UNL     1     113.661  53.033 226.482  1.00  0.00     0.004 C 
ENDBRANCH   5   6
ENDBRANCH   1   5
TORSDOF 3
ENDMDL
MODEL 9
REMARK VINA RESULT:    -2.492     20.150     20.940
REMARK INTER + INTRA:          -2.980
REMARK INTER:                  -2.904
REMARK INTRA:                  -0.076
REMARK UNBOUND:                -0.052
REMARK SMILES CCCCC(=O)[O-]
REMARK SMILES IDX 4 1 5 2 6 3 7 4 3 5 2 6 1 7
REMARK H PARENT
REMARK Flexibility Score: inf
ROOT
ATOM      1  C   UNL     1      96.358  64.596 225.392  1.00  0.00     0.053 C 
ENDROOT
BRANCH   1   2
ATOM      2  C   UNL     1      95.054  65.082 225.945  1.00  0.00     0.041 C 
ATOM      3  O   UNL     1      93.995  64.433 225.737  1.00  0.00    -0.550 OA
ATOM      4  O   UNL     1      95.002  66.270 226.663  1.00  0.00    -0.550 OA
ENDBRANCH   1   2
BRANCH   1   5
ATOM      5  C   UNL     1      96.282  64.363 223.877  1.00  0.00     0.006 C 
BRANCH   5   6
ATOM      6  C   UNL     1      95.828  65.619 223.118  1.00  0.00    -0.003 C 
ATOM      7  C   UNL     1      95.092  65.249 221.834  1.00  0.00     0.004 C 
ENDBRANCH   5   6
ENDBRANCH   1   5
TORSDOF 3
ENDMDL
