MODEL 1
REMARK VINA RESULT:    -7.247      0.000      0.000
REMARK INTER + INTRA:          -7.882
REMARK INTER:                  -7.882
REMARK INTRA:                   0.000
REMARK UNBOUND:                 0.000
REMARK SMILES Cc1cc(O)c2c(c1)C(=O)c1cc(O)cc(O)c1C2=O
REMARK SMILES IDX 1 1 2 2 8 3 7 4 6 5 4 6 3 7 19 8 20 9 18 10 11 11 9 12 10 13
REMARK SMILES IDX 12 14 13 15 15 16 16 17 5 18 17 20 14 22
REMARK H PARENT 5 19 17 21 14 23
REMARK Flexibility Score: inf
ROOT
ATOM      1  C   UNL     1      -7.769  -2.041   6.193  1.00  0.00     0.044 C 
ATOM      2  C   UNL     1      -7.249  -2.373   4.824  1.00  0.00    -0.047 A 
ATOM      3  C   UNL     1      -7.782  -1.742   3.696  1.00  0.00     0.016 A 
ATOM      4  C   UNL     1      -7.329  -2.070   2.405  1.00  0.00     0.038 A 
ATOM      5  C   UNL     1      -6.332  -3.058   2.242  1.00  0.00     0.076 A 
ATOM      6  C   UNL     1      -5.811  -3.707   3.387  1.00  0.00     0.127 A 
ATOM      7  C   UNL     1      -6.277  -3.365   4.663  1.00  0.00     0.050 A 
ATOM      8  C   UNL     1      -5.857  -3.396   0.870  1.00  0.00     0.201 C 
ATOM      9  O   UNL     1      -4.962  -4.270   0.716  1.00  0.00    -0.288 OA
ATOM     10  C   UNL     1      -6.430  -2.707  -0.321  1.00  0.00     0.076 A 
ATOM     11  C   UNL     1      -7.428  -1.724  -0.139  1.00  0.00     0.041 A 
ATOM     12  C   UNL     1      -7.897  -1.383   1.224  1.00  0.00     0.194 C 
ATOM     13  O   UNL     1      -8.788  -0.502   1.378  1.00  0.00    -0.289 OA
ATOM     14  C   UNL     1      -7.975  -1.067  -1.256  1.00  0.00     0.059 A 
ATOM     15  C   UNL     1      -7.541  -1.378  -2.547  1.00  0.00     0.120 A 
ATOM     16  C   UNL     1      -6.556  -2.348  -2.732  1.00  0.00     0.093 A 
ATOM     17  C   UNL     1      -5.997  -3.014  -1.634  1.00  0.00     0.131 A 
ENDROOT
BRANCH   6  18
ATOM     18  O   UNL     1      -4.833  -4.696   3.267  1.00  0.00    -0.507 OA
ATOM     19  H   UNL     1      -4.821  -5.511   3.868  1.00  0.00     0.293 HD
ENDBRANCH   6  18
BRANCH  17  20
ATOM     20  O   UNL     1      -5.014  -3.979  -1.858  1.00  0.00    -0.507 OA
ATOM     21  H   UNL     1      -4.227  -4.096  -1.231  1.00  0.00     0.293 HD
ENDBRANCH  17  20
BRANCH  15  22
ATOM     22  O   UNL     1      -8.082  -0.728  -3.654  1.00  0.00    -0.508 OA
ATOM     23  H   UNL     1      -9.030  -0.373  -3.650  1.00  0.00     0.293 HD
ENDBRANCH  15  22
TORSDOF 3
ENDMDL
MODEL 2
REMARK VINA RESULT:    -7.230      1.175      5.496
REMARK INTER + INTRA:          -7.864
REMARK INTER:                  -7.864
REMARK INTRA:                   0.000
REMARK UNBOUND:                 0.000
REMARK SMILES Cc1cc(O)c2c(c1)C(=O)c1cc(O)cc(O)c1C2=O
REMARK SMILES IDX 1 1 2 2 8 3 7 4 6 5 4 6 3 7 19 8 20 9 18 10 11 11 9 12 10 13
REMARK SMILES IDX 12 14 13 15 15 16 16 17 5 18 17 20 14 22
REMARK H PARENT 5 19 17 21 14 23
REMARK Flexibility Score: inf
ROOT
ATOM      1  C   UNL     1      -8.155  -0.644  -4.083  1.00  0.00     0.044 C 
ATOM      2  C   UNL     1      -7.601  -1.370  -2.891  1.00  0.00    -0.047 A 
ATOM      3  C   UNL     1      -8.020  -1.028  -1.602  1.00  0.00     0.016 A 
ATOM      4  C   UNL     1      -7.483  -1.676  -0.474  1.00  0.00     0.038 A 
ATOM      5  C   UNL     1      -6.498  -2.675  -0.642  1.00  0.00     0.076 A 
ATOM      6  C   UNL     1      -6.063  -3.002  -1.949  1.00  0.00     0.127 A 
ATOM      7  C   UNL     1      -6.612  -2.344  -3.058  1.00  0.00     0.050 A 
ATOM      8  C   UNL     1      -5.938  -3.357   0.559  1.00  0.00     0.201 C 
ATOM      9  O   UNL     1      -5.065  -4.255   0.419  1.00  0.00    -0.288 OA
ATOM     10  C   UNL     1      -6.403  -2.986   1.926  1.00  0.00     0.076 A 
ATOM     11  C   UNL     1      -7.386  -1.983   2.075  1.00  0.00     0.041 A 
ATOM     12  C   UNL     1      -7.948  -1.308   0.882  1.00  0.00     0.194 C 
ATOM     13  O   UNL     1      -8.827  -0.414   1.024  1.00  0.00    -0.289 OA
ATOM     14  C   UNL     1      -7.833  -1.627   3.360  1.00  0.00     0.059 A 
ATOM     15  C   UNL     1      -7.312  -2.255   4.495  1.00  0.00     0.120 A 
ATOM     16  C   UNL     1      -6.341  -3.246   4.353  1.00  0.00     0.093 A 
ATOM     17  C   UNL     1      -5.882  -3.618   3.083  1.00  0.00     0.131 A 
ENDROOT
BRANCH   6  18
ATOM     18  O   UNL     1      -5.085  -3.976  -2.156  1.00  0.00    -0.507 OA
ATOM     19  H   UNL     1      -5.279  -4.828  -2.668  1.00  0.00     0.293 HD
ENDBRANCH   6  18
BRANCH  17  20
ATOM     20  O   UNL     1      -4.910  -4.613   2.980  1.00  0.00    -0.507 OA
ATOM     21  H   UNL     1      -4.570  -5.115   3.791  1.00  0.00     0.293 HD
ENDBRANCH  17  20
BRANCH  15  22
ATOM     22  O   UNL     1      -7.753  -1.903   5.768  1.00  0.00    -0.508 OA
ATOM     23  H   UNL     1      -8.390  -1.129   5.913  1.00  0.00     0.293 HD
ENDBRANCH  15  22
TORSDOF 3
ENDMDL
MODEL 3
REMARK VINA RESULT:    -7.116      1.881      2.765
REMARK INTER + INTRA:          -7.740
REMARK INTER:                  -7.740
REMARK INTRA:                   0.000
REMARK UNBOUND:                 0.000
REMARK SMILES Cc1cc(O)c2c(c1)C(=O)c1cc(O)cc(O)c1C2=O
REMARK SMILES IDX 1 1 2 2 8 3 7 4 6 5 4 6 3 7 19 8 20 9 18 10 11 11 9 12 10 13
REMARK SMILES IDX 12 14 13 15 15 16 16 17 5 18 17 20 14 22
REMARK H PARENT 5 19 17 21 14 23
REMARK Flexibility Score: inf
ROOT
ATOM      1  C   UNL     1     -10.631   1.281   4.483  1.00  0.00     0.044 C 
ATOM      2  C   UNL     1      -9.577   0.333   3.988  1.00  0.00    -0.047 A 
ATOM      3  C   UNL     1      -9.375   0.160   2.615  1.00  0.00     0.016 A 
ATOM      4  C   UNL     1      -8.415  -0.752   2.138  1.00  0.00     0.038 A 
ATOM      5  C   UNL     1      -7.654  -1.512   3.053  1.00  0.00     0.076 A 
ATOM      6  C   UNL     1      -7.878  -1.347   4.441  1.00  0.00     0.127 A 
ATOM      7  C   UNL     1      -8.839  -0.433   4.894  1.00  0.00     0.050 A 
ATOM      8  C   UNL     1      -6.639  -2.473   2.536  1.00  0.00     0.201 C 
ATOM      9  O   UNL     1      -5.949  -3.150   3.345  1.00  0.00    -0.288 OA
ATOM     10  C   UNL     1      -6.430  -2.639   1.069  1.00  0.00     0.076 A 
ATOM     11  C   UNL     1      -7.203  -1.872   0.169  1.00  0.00     0.041 A 
ATOM     12  C   UNL     1      -8.208  -0.913   0.681  1.00  0.00     0.194 C 
ATOM     13  O   UNL     1      -8.893  -0.230  -0.131  1.00  0.00    -0.289 OA
ATOM     14  C   UNL     1      -7.013  -2.019  -1.217  1.00  0.00     0.059 A 
ATOM     15  C   UNL     1      -6.067  -2.920  -1.714  1.00  0.00     0.120 A 
ATOM     16  C   UNL     1      -5.303  -3.680  -0.829  1.00  0.00     0.093 A 
ATOM     17  C   UNL     1      -5.473  -3.548   0.555  1.00  0.00     0.131 A 
ENDROOT
BRANCH   6  18
ATOM     18  O   UNL     1      -7.154  -2.087   5.377  1.00  0.00    -0.507 OA
ATOM     19  H   UNL     1      -6.154  -2.225   5.291  1.00  0.00     0.293 HD
ENDBRANCH   6  18
BRANCH  17  20
ATOM     20  O   UNL     1      -4.690  -4.325   1.409  1.00  0.00    -0.507 OA
ATOM     21  H   UNL     1      -4.997  -4.566   2.344  1.00  0.00     0.293 HD
ENDBRANCH  17  20
BRANCH  15  22
ATOM     22  O   UNL     1      -5.879  -3.068  -3.086  1.00  0.00    -0.508 OA
ATOM     23  H   UNL     1      -4.962  -2.986  -3.507  1.00  0.00     0.293 HD
ENDBRANCH  15  22
TORSDOF 3
ENDMDL
MODEL 4
REMARK VINA RESULT:    -7.109      1.853      5.312
REMARK INTER + INTRA:          -7.732
REMARK INTER:                  -7.732
REMARK INTRA:                   0.000
REMARK UNBOUND:                 0.000
REMARK SMILES Cc1cc(O)c2c(c1)C(=O)c1cc(O)cc(O)c1C2=O
REMARK SMILES IDX 1 1 2 2 8 3 7 4 6 5 4 6 3 7 19 8 20 9 18 10 11 11 9 12 10 13
REMARK SMILES IDX 12 14 13 15 15 16 16 17 5 18 17 20 14 22
REMARK H PARENT 5 19 17 21 14 23
REMARK Flexibility Score: inf
ROOT
ATOM      1  C   UNL     1      -5.858  -3.080  -3.150  1.00  0.00     0.044 C 
ATOM      2  C   UNL     1      -6.086  -2.946  -1.672  1.00  0.00    -0.047 A 
ATOM      3  C   UNL     1      -7.032  -2.037  -1.186  1.00  0.00     0.016 A 
ATOM      4  C   UNL     1      -7.230  -1.876   0.197  1.00  0.00     0.038 A 
ATOM      5  C   UNL     1      -6.458  -2.629   1.109  1.00  0.00     0.076 A 
ATOM      6  C   UNL     1      -5.488  -3.531   0.610  1.00  0.00     0.127 A 
ATOM      7  C   UNL     1      -5.307  -3.676  -0.771  1.00  0.00     0.050 A 
ATOM      8  C   UNL     1      -6.678  -2.451   2.573  1.00  0.00     0.201 C 
ATOM      9  O   UNL     1      -5.999  -3.125   3.394  1.00  0.00    -0.288 OA
ATOM     10  C   UNL     1      -7.697  -1.485   3.074  1.00  0.00     0.076 A 
ATOM     11  C   UNL     1      -8.458  -0.738   2.147  1.00  0.00     0.041 A 
ATOM     12  C   UNL     1      -8.244  -0.917   0.693  1.00  0.00     0.194 C 
ATOM     13  O   UNL     1      -8.930  -0.247  -0.128  1.00  0.00    -0.289 OA
ATOM     14  C   UNL     1      -9.423   0.175   2.609  1.00  0.00     0.059 A 
ATOM     15  C   UNL     1      -9.635   0.353   3.979  1.00  0.00     0.120 A 
ATOM     16  C   UNL     1      -8.886  -0.381   4.897  1.00  0.00     0.093 A 
ATOM     17  C   UNL     1      -7.921  -1.297   4.460  1.00  0.00     0.131 A 
ENDROOT
BRANCH   6  18
ATOM     18  O   UNL     1      -4.698  -4.286   1.479  1.00  0.00    -0.507 OA
ATOM     19  H   UNL     1      -5.059  -5.102   1.957  1.00  0.00     0.293 HD
ENDBRANCH   6  18
BRANCH  17  20
ATOM     20  O   UNL     1      -7.191  -2.014   5.408  1.00  0.00    -0.507 OA
ATOM     21  H   UNL     1      -6.444  -1.587   5.943  1.00  0.00     0.293 HD
ENDBRANCH  17  20
BRANCH  15  22
ATOM     22  O   UNL     1     -10.590   1.258   4.437  1.00  0.00    -0.508 OA
ATOM     23  H   UNL     1     -11.434   0.948   4.904  1.00  0.00     0.293 HD
ENDBRANCH  15  22
TORSDOF 3
ENDMDL
MODEL 5
REMARK VINA RESULT:    -7.013      1.064      3.406
REMARK INTER + INTRA:          -7.628
REMARK INTER:                  -7.628
REMARK INTRA:                   0.000
REMARK UNBOUND:                 0.000
REMARK SMILES Cc1cc(O)c2c(c1)C(=O)c1cc(O)cc(O)c1C2=O
REMARK SMILES IDX 1 1 2 2 8 3 7 4 6 5 4 6 3 7 19 8 20 9 18 10 11 11 9 12 10 13
REMARK SMILES IDX 12 14 13 15 15 16 16 17 5 18 17 20 14 22
REMARK H PARENT 5 19 17 21 14 23
REMARK Flexibility Score: inf
ROOT
ATOM      1  C   UNL     1      -7.094  -2.367   5.534  1.00  0.00     0.044 C 
ATOM      2  C   UNL     1      -7.306  -2.112   4.070  1.00  0.00    -0.047 A 
ATOM      3  C   UNL     1      -6.593  -2.846   3.117  1.00  0.00     0.016 A 
ATOM      4  C   UNL     1      -6.755  -2.594   1.743  1.00  0.00     0.038 A 
ATOM      5  C   UNL     1      -7.639  -1.577   1.316  1.00  0.00     0.076 A 
ATOM      6  C   UNL     1      -8.342  -0.823   2.287  1.00  0.00     0.127 A 
ATOM      7  C   UNL     1      -8.165  -1.092   3.650  1.00  0.00     0.050 A 
ATOM      8  C   UNL     1      -7.805  -1.320  -0.142  1.00  0.00     0.201 C 
ATOM      9  O   UNL     1      -8.597  -0.420  -0.532  1.00  0.00    -0.288 OA
ATOM     10  C   UNL     1      -7.043  -2.118  -1.144  1.00  0.00     0.076 A 
ATOM     11  C   UNL     1      -6.162  -3.129  -0.700  1.00  0.00     0.041 A 
ATOM     12  C   UNL     1      -6.000  -3.390   0.749  1.00  0.00     0.194 C 
ATOM     13  O   UNL     1      -5.211  -4.296   1.138  1.00  0.00    -0.289 OA
ATOM     14  C   UNL     1      -5.440  -3.889  -1.636  1.00  0.00     0.059 A 
ATOM     15  C   UNL     1      -5.584  -3.654  -3.007  1.00  0.00     0.120 A 
ATOM     16  C   UNL     1      -6.452  -2.658  -3.450  1.00  0.00     0.093 A 
ATOM     17  C   UNL     1      -7.183  -1.889  -2.535  1.00  0.00     0.131 A 
ENDROOT
BRANCH   6  18
ATOM     18  O   UNL     1      -9.216   0.197   1.906  1.00  0.00    -0.507 OA
ATOM     19  H   UNL     1      -9.092   1.151   2.220  1.00  0.00     0.293 HD
ENDBRANCH   6  18
BRANCH  17  20
ATOM     20  O   UNL     1      -8.042  -0.900  -3.017  1.00  0.00    -0.507 OA
ATOM     21  H   UNL     1      -7.995  -0.570  -3.973  1.00  0.00     0.293 HD
ENDBRANCH  17  20
BRANCH  15  22
ATOM     22  O   UNL     1      -4.869  -4.406  -3.935  1.00  0.00    -0.508 OA
ATOM     23  H   UNL     1      -4.194  -5.104  -3.646  1.00  0.00     0.293 HD
ENDBRANCH  15  22
TORSDOF 3
ENDMDL
MODEL 6
REMARK VINA RESULT:    -6.930      1.416      6.557
REMARK INTER + INTRA:          -7.538
REMARK INTER:                  -7.538
REMARK INTRA:                   0.000
REMARK UNBOUND:                 0.000
REMARK SMILES Cc1cc(O)c2c(c1)C(=O)c1cc(O)cc(O)c1C2=O
REMARK SMILES IDX 1 1 2 2 8 3 7 4 6 5 4 6 3 7 19 8 20 9 18 10 11 11 9 12 10 13
REMARK SMILES IDX 12 14 13 15 15 16 16 17 5 18 17 20 14 22
REMARK H PARENT 5 19 17 21 14 23
REMARK Flexibility Score: inf
ROOT
ATOM      1  C   UNL     1      -5.490  -3.588  -5.558  1.00  0.00     0.044 C 
ATOM      2  C   UNL     1      -6.108  -2.922  -4.363  1.00  0.00    -0.047 A 
ATOM      3  C   UNL     1      -5.753  -3.324  -3.071  1.00  0.00     0.016 A 
ATOM      4  C   UNL     1      -6.350  -2.733  -1.943  1.00  0.00     0.038 A 
ATOM      5  C   UNL     1      -7.330  -1.730  -2.113  1.00  0.00     0.076 A 
ATOM      6  C   UNL     1      -7.700  -1.342  -3.423  1.00  0.00     0.127 A 
ATOM      7  C   UNL     1      -7.092  -1.944  -4.532  1.00  0.00     0.050 A 
ATOM      8  C   UNL     1      -7.954  -1.109  -0.910  1.00  0.00     0.201 C 
ATOM      9  O   UNL     1      -8.824  -0.208  -1.052  1.00  0.00    -0.288 OA
ATOM     10  C   UNL     1      -7.558  -1.544   0.459  1.00  0.00     0.076 A 
ATOM     11  C   UNL     1      -6.578  -2.550   0.610  1.00  0.00     0.041 A 
ATOM     12  C   UNL     1      -5.952  -3.164  -0.584  1.00  0.00     0.194 C 
ATOM     13  O   UNL     1      -5.076  -4.062  -0.440  1.00  0.00    -0.289 OA
ATOM     14  C   UNL     1      -6.195  -2.966   1.897  1.00  0.00     0.059 A 
ATOM     15  C   UNL     1      -6.776  -2.395   3.033  1.00  0.00     0.120 A 
ATOM     16  C   UNL     1      -7.744  -1.402   2.889  1.00  0.00     0.093 A 
ATOM     17  C   UNL     1      -8.140  -0.970   1.617  1.00  0.00     0.131 A 
ENDROOT
BRANCH   6  18
ATOM     18  O   UNL     1      -8.672  -0.362  -3.633  1.00  0.00    -0.507 OA
ATOM     19  H   UNL     1      -8.763   0.119  -4.519  1.00  0.00     0.293 HD
ENDBRANCH   6  18
BRANCH  17  20
ATOM     20  O   UNL     1      -9.111   0.026   1.512  1.00  0.00    -0.507 OA
ATOM     21  H   UNL     1      -9.021   0.794   0.859  1.00  0.00     0.293 HD
ENDBRANCH  17  20
BRANCH  15  22
ATOM     22  O   UNL     1      -6.398  -2.807   4.308  1.00  0.00    -0.508 OA
ATOM     23  H   UNL     1      -6.838  -2.430   5.140  1.00  0.00     0.293 HD
ENDBRANCH  15  22
TORSDOF 3
ENDMDL
MODEL 7
REMARK VINA RESULT:    -6.814      1.752      6.317
REMARK INTER + INTRA:          -7.412
REMARK INTER:                  -7.412
REMARK INTRA:                   0.000
REMARK UNBOUND:                 0.000
REMARK SMILES Cc1cc(O)c2c(c1)C(=O)c1cc(O)cc(O)c1C2=O
REMARK SMILES IDX 1 1 2 2 8 3 7 4 6 5 4 6 3 7 19 8 20 9 18 10 11 11 9 12 10 13
REMARK SMILES IDX 12 14 13 15 15 16 16 17 5 18 17 20 14 22
REMARK H PARENT 5 19 17 21 14 23
REMARK Flexibility Score: inf
ROOT
ATOM      1  C   UNL     1      -7.820  -1.382  -2.587  1.00  0.00     0.044 C 
ATOM      2  C   UNL     1      -7.751  -1.455  -1.088  1.00  0.00    -0.047 A 
ATOM      3  C   UNL     1      -6.961  -2.427  -0.467  1.00  0.00     0.016 A 
ATOM      4  C   UNL     1      -6.915  -2.530   0.935  1.00  0.00     0.038 A 
ATOM      5  C   UNL     1      -7.686  -1.650   1.728  1.00  0.00     0.076 A 
ATOM      6  C   UNL     1      -8.499  -0.682   1.092  1.00  0.00     0.127 A 
ATOM      7  C   UNL     1      -8.529  -0.598  -0.306  1.00  0.00     0.050 A 
ATOM      8  C   UNL     1      -7.628  -1.766   3.213  1.00  0.00     0.201 C 
ATOM      9  O   UNL     1      -8.306  -0.981   3.929  1.00  0.00    -0.288 OA
ATOM     10  C   UNL     1      -6.773  -2.803   3.860  1.00  0.00     0.076 A 
ATOM     11  C   UNL     1      -6.012  -3.675   3.051  1.00  0.00     0.041 A 
ATOM     12  C   UNL     1      -6.064  -3.558   1.575  1.00  0.00     0.194 C 
ATOM     13  O   UNL     1      -5.379  -4.341   0.860  1.00  0.00    -0.289 OA
ATOM     14  C   UNL     1      -5.201  -4.656   3.650  1.00  0.00     0.059 A 
ATOM     15  C   UNL     1      -5.142  -4.777   5.041  1.00  0.00     0.120 A 
ATOM     16  C   UNL     1      -5.892  -3.919   5.843  1.00  0.00     0.093 A 
ATOM     17  C   UNL     1      -6.705  -2.934   5.269  1.00  0.00     0.131 A 
ENDROOT
BRANCH   6  18
ATOM     18  O   UNL     1      -9.283   0.198   1.840  1.00  0.00    -0.507 OA
ATOM     19  H   UNL     1      -9.300   0.170   2.853  1.00  0.00     0.293 HD
ENDBRANCH   6  18
BRANCH  17  20
ATOM     20  O   UNL     1      -7.441  -2.093   6.103  1.00  0.00    -0.507 OA
ATOM     21  H   UNL     1      -7.015  -1.607   6.884  1.00  0.00     0.293 HD
ENDBRANCH  17  20
BRANCH  15  22
ATOM     22  O   UNL     1      -4.340  -5.748   5.636  1.00  0.00    -0.508 OA
ATOM     23  H   UNL     1      -4.280  -5.843   6.642  1.00  0.00     0.293 HD
ENDBRANCH  15  22
TORSDOF 3
ENDMDL
MODEL 8
REMARK VINA RESULT:    -6.778      1.701      3.643
REMARK INTER + INTRA:          -7.373
REMARK INTER:                  -7.373
REMARK INTRA:                   0.000
REMARK UNBOUND:                 0.000
REMARK SMILES Cc1cc(O)c2c(c1)C(=O)c1cc(O)cc(O)c1C2=O
REMARK SMILES IDX 1 1 2 2 8 3 7 4 6 5 4 6 3 7 19 8 20 9 18 10 11 11 9 12 10 13
REMARK SMILES IDX 12 14 13 15 15 16 16 17 5 18 17 20 14 22
REMARK H PARENT 5 19 17 21 14 23
REMARK Flexibility Score: inf
ROOT
ATOM      1  C   UNL     1      -4.288  -5.920   5.693  1.00  0.00     0.044 C 
ATOM      2  C   UNL     1      -5.168  -4.879   5.063  1.00  0.00    -0.047 A 
ATOM      3  C   UNL     1      -5.204  -4.737   3.672  1.00  0.00     0.016 A 
ATOM      4  C   UNL     1      -5.997  -3.743   3.070  1.00  0.00     0.038 A 
ATOM      5  C   UNL     1      -6.756  -2.868   3.878  1.00  0.00     0.076 A 
ATOM      6  C   UNL     1      -6.699  -3.004   5.286  1.00  0.00     0.127 A 
ATOM      7  C   UNL     1      -5.902  -4.001   5.864  1.00  0.00     0.050 A 
ATOM      8  C   UNL     1      -7.595  -1.820   3.229  1.00  0.00     0.201 C 
ATOM      9  O   UNL     1      -8.282  -1.039   3.942  1.00  0.00    -0.288 OA
ATOM     10  C   UNL     1      -7.629  -1.688   1.745  1.00  0.00     0.076 A 
ATOM     11  C   UNL     1      -6.861  -2.571   0.953  1.00  0.00     0.041 A 
ATOM     12  C   UNL     1      -6.032  -3.616   1.596  1.00  0.00     0.194 C 
ATOM     13  O   UNL     1      -5.350  -4.402   0.881  1.00  0.00    -0.289 OA
ATOM     14  C   UNL     1      -6.887  -2.456  -0.448  1.00  0.00     0.059 A 
ATOM     15  C   UNL     1      -7.666  -1.475  -1.067  1.00  0.00     0.120 A 
ATOM     16  C   UNL     1      -8.425  -0.601  -0.291  1.00  0.00     0.093 A 
ATOM     17  C   UNL     1      -8.416  -0.698   1.107  1.00  0.00     0.131 A 
ENDROOT
BRANCH   6  18
ATOM     18  O   UNL     1      -7.426  -2.151   6.118  1.00  0.00    -0.507 OA
ATOM     19  H   UNL     1      -7.304  -1.146   6.091  1.00  0.00     0.293 HD
ENDBRANCH   6  18
BRANCH  17  20
ATOM     20  O   UNL     1      -9.188   0.194   1.851  1.00  0.00    -0.507 OA
ATOM     21  H   UNL     1      -8.805   0.711   2.633  1.00  0.00     0.293 HD
ENDBRANCH  17  20
BRANCH  15  22
ATOM     22  O   UNL     1      -7.692  -1.360  -2.455  1.00  0.00    -0.508 OA
ATOM     23  H   UNL     1      -7.205  -2.019  -3.052  1.00  0.00     0.293 HD
ENDBRANCH  15  22
TORSDOF 3
ENDMDL
MODEL 9
REMARK VINA RESULT:    -6.764      1.825      6.008
REMARK INTER + INTRA:          -7.357
REMARK INTER:                  -7.357
REMARK INTRA:                   0.000
REMARK UNBOUND:                 0.000
REMARK SMILES Cc1cc(O)c2c(c1)C(=O)c1cc(O)cc(O)c1C2=O
REMARK SMILES IDX 1 1 2 2 8 3 7 4 6 5 4 6 3 7 19 8 20 9 18 10 11 11 9 12 10 13
REMARK SMILES IDX 12 14 13 15 15 16 16 17 5 18 17 20 14 22
REMARK H PARENT 5 19 17 21 14 23
REMARK Flexibility Score: inf
ROOT
ATOM      1  C   UNL     1     -10.696   1.406  -4.363  1.00  0.00     0.044 C 
ATOM      2  C   UNL     1      -9.665   0.445  -3.843  1.00  0.00    -0.047 A 
ATOM      3  C   UNL     1      -9.526   0.240  -2.467  1.00  0.00     0.016 A 
ATOM      4  C   UNL     1      -8.541  -0.630  -1.965  1.00  0.00     0.038 A 
ATOM      5  C   UNL     1      -7.672  -1.295  -2.858  1.00  0.00     0.076 A 
ATOM      6  C   UNL     1      -7.805  -1.067  -4.249  1.00  0.00     0.127 A 
ATOM      7  C   UNL     1      -8.793  -0.197  -4.727  1.00  0.00     0.050 A 
ATOM      8  C   UNL     1      -6.633  -2.217  -2.315  1.00  0.00     0.201 C 
ATOM      9  O   UNL     1      -5.858  -2.821  -3.105  1.00  0.00    -0.288 OA
ATOM     10  C   UNL     1      -6.504  -2.431  -0.846  1.00  0.00     0.076 A 
ATOM     11  C   UNL     1      -7.380  -1.755   0.032  1.00  0.00     0.041 A 
ATOM     12  C   UNL     1      -8.416  -0.844  -0.505  1.00  0.00     0.194 C 
ATOM     13  O   UNL     1      -9.196  -0.245   0.286  1.00  0.00    -0.289 OA
ATOM     14  C   UNL     1      -7.268  -1.951   1.420  1.00  0.00     0.059 A 
ATOM     15  C   UNL     1      -6.296  -2.809   1.942  1.00  0.00     0.120 A 
ATOM     16  C   UNL     1      -5.429  -3.478   1.079  1.00  0.00     0.093 A 
ATOM     17  C   UNL     1      -5.523  -3.299  -0.307  1.00  0.00     0.131 A 
ENDROOT
BRANCH   6  18
ATOM     18  O   UNL     1      -6.958  -1.697  -5.163  1.00  0.00    -0.507 OA
ATOM     19  H   UNL     1      -5.950  -1.642  -5.083  1.00  0.00     0.293 HD
ENDBRANCH   6  18
BRANCH  17  20
ATOM     20  O   UNL     1      -4.638  -3.985  -1.139  1.00  0.00    -0.507 OA
ATOM     21  H   UNL     1      -4.097  -3.511  -1.851  1.00  0.00     0.293 HD
ENDBRANCH  17  20
BRANCH  15  22
ATOM     22  O   UNL     1      -6.184  -3.004   3.316  1.00  0.00    -0.508 OA
ATOM     23  H   UNL     1      -5.285  -3.155   3.760  1.00  0.00     0.293 HD
ENDBRANCH  15  22
TORSDOF 3
ENDMDL
