MODEL 1
REMARK VINA RESULT:    62.407      0.000      0.000
REMARK INTER + INTRA:         103.537
REMARK INTER:                 102.539
REMARK INTRA:                   0.998
REMARK UNBOUND:                 0.998
REMARK SMILES C[C@H]1O[C@H](OC[C@H]2O[C@H](Oc3c(-c4ccc(O)c(O)c4)oc4cc(O)cc(O)c4c3=O)[C@@H](O)[C@H](O)[C@H]2O)[C@H](O)[C@@H](O)[C@@H]1O
REMARK SMILES IDX 7 1 36 2 34 3 32 4 9 5 8 6 6 7 5 8 4 9 1 10 2 11 42 12 3 13
REMARK SMILES IDX 40 14 38 15 43 16 41 18 39 20 37 22 35 24 10 26 11 27 12 28
REMARK SMILES IDX 30 29 21 30 29 31 31 32 22 33 27 34 23 35 26 36 24 37 13 38
REMARK SMILES IDX 20 39 14 40 18 41 15 42 16 43 19 44 17 46 28 48 25 50 33 52
REMARK H PARENT 43 17 41 19 39 21 37 23 35 25 19 45 17 47 28 49 25 51 33 53
REMARK Flexibility Score: inf
ROOT
ATOM      1  C   UNL     1      26.811  29.775   4.779  1.00  0.00     0.180 C 
ATOM      2  C   UNL     1      27.823  30.938   4.722  1.00  0.00     0.177 C 
ATOM      3  C   UNL     1      27.738  31.680   3.376  1.00  0.00     0.180 C 
ATOM      4  C   UNL     1      27.788  30.672   2.208  1.00  0.00     0.214 C 
ATOM      5  C   UNL     1      26.836  29.469   2.424  1.00  0.00     0.339 C 
ATOM      6  O   UNL     1      27.015  28.872   3.708  1.00  0.00    -0.332 OA
ENDROOT
BRANCH   1   7
ATOM      7  C   UNL     1      25.330  30.199   4.902  1.00  0.00     0.198 C 
BRANCH   7   8
ATOM      8  O   UNL     1      24.994  30.333   6.268  1.00  0.00    -0.347 OA
BRANCH   8   9
ATOM      9  C   UNL     1      25.634  31.391   6.982  1.00  0.00     0.281 C 
ATOM     10  C   UNL     1      23.390  34.294   7.446  1.00  0.00     0.041 C 
ATOM     11  C   UNL     1      23.954  32.902   7.748  1.00  0.00     0.150 C 
ATOM     12  C   UNL     1      24.483  32.840   9.205  1.00  0.00     0.174 C 
ATOM     13  O   UNL     1      24.978  32.635   6.803  1.00  0.00    -0.344 OA
ATOM     14  C   UNL     1      25.100  31.463   9.501  1.00  0.00     0.179 C 
ATOM     15  C   UNL     1      26.150  31.144   8.435  1.00  0.00     0.202 C 
BRANCH  12  16
ATOM     16  O   UNL     1      23.465  33.132  10.126  1.00  0.00    -0.388 OA
ATOM     17  H   UNL     1      22.837  32.360  10.135  1.00  0.00     0.211 HD
ENDBRANCH  12  16
BRANCH  14  18
ATOM     18  O   UNL     1      25.716  31.498  10.767  1.00  0.00    -0.387 OA
ATOM     19  H   UNL     1      26.156  32.385  10.860  1.00  0.00     0.211 HD
ENDBRANCH  14  18
BRANCH  15  20
ATOM     20  O   UNL     1      26.628  29.831   8.586  1.00  0.00    -0.385 OA
ATOM     21  H   UNL     1      26.004  29.223   8.104  1.00  0.00     0.211 HD
ENDBRANCH  15  20
ENDBRANCH   8   9
ENDBRANCH   7   8
ENDBRANCH   1   7
BRANCH   2  22
ATOM     22  O   UNL     1      27.598  31.832   5.777  1.00  0.00    -0.387 OA
ATOM     23  H   UNL     1      28.404  32.406   5.851  1.00  0.00     0.211 HD
ENDBRANCH   2  22
BRANCH   3  24
ATOM     24  O   UNL     1      28.811  32.579   3.253  1.00  0.00    -0.387 OA
ATOM     25  H   UNL     1      28.611  33.148   2.462  1.00  0.00     0.211 HD
ENDBRANCH   3  24
BRANCH   5  26
ATOM     26  O   UNL     1      27.096  28.493   1.402  1.00  0.00    -0.454 OA
BRANCH  26  27
ATOM     27  C   UNL     1      27.535  27.201   1.709  1.00  0.00     0.214 A 
ATOM     28  C   UNL     1      28.772  26.993   2.347  1.00  0.00     0.180 A 
ATOM     29  C   UNL     1      26.694  26.104   1.485  1.00  0.00     0.239 A 
ATOM     30  O   UNL     1      29.081  25.791   2.822  1.00  0.00    -0.452 OA
ATOM     31  C   UNL     1      27.060  24.834   1.984  1.00  0.00     0.111 A 
ATOM     32  O   UNL     1      25.601  26.275   0.876  1.00  0.00    -0.285 OA
ATOM     33  C   UNL     1      28.283  24.734   2.693  1.00  0.00     0.146 A 
ATOM     34  C   UNL     1      26.239  23.689   1.862  1.00  0.00     0.134 A 
ATOM     35  C   UNL     1      28.656  23.525   3.282  1.00  0.00     0.094 A 
ATOM     36  C   UNL     1      26.639  22.479   2.457  1.00  0.00     0.093 A 
ATOM     37  C   UNL     1      27.830  22.406   3.184  1.00  0.00     0.123 A 
BRANCH  28  38
ATOM     38  C   UNL     1      29.724  28.103   2.558  1.00  0.00     0.025 A 
ATOM     39  C   UNL     1      30.144  28.458   3.851  1.00  0.00     0.062 A 
ATOM     40  C   UNL     1      30.201  28.827   1.456  1.00  0.00     0.016 A 
ATOM     41  C   UNL     1      31.023  29.533   4.045  1.00  0.00     0.158 A 
ATOM     42  C   UNL     1      31.095  29.888   1.644  1.00  0.00     0.051 A 
ATOM     43  C   UNL     1      31.504  30.256   2.929  1.00  0.00     0.157 A 
BRANCH  41  44
ATOM     44  O   UNL     1      31.381  29.843   5.359  1.00  0.00    -0.504 OA
ATOM     45  H   UNL     1      31.272  30.762   5.774  1.00  0.00     0.293 HD
ENDBRANCH  41  44
BRANCH  43  46
ATOM     46  O   UNL     1      32.390  31.325   3.048  1.00  0.00    -0.504 OA
ATOM     47  H   UNL     1      32.408  31.953   3.838  1.00  0.00     0.293 HD
ENDBRANCH  43  46
ENDBRANCH  28  38
BRANCH  34  48
ATOM     48  O   UNL     1      25.028  23.744   1.170  1.00  0.00    -0.507 OA
ATOM     49  H   UNL     1      24.223  23.200   1.452  1.00  0.00     0.293 HD
ENDBRANCH  34  48
BRANCH  37  50
ATOM     50  O   UNL     1      28.201  21.223   3.819  1.00  0.00    -0.508 OA
ATOM     51  H   UNL     1      27.500  20.609   4.224  1.00  0.00     0.293 HD
ENDBRANCH  37  50
ENDBRANCH  26  27
ENDBRANCH   5  26
BRANCH   4  52
ATOM     52  O   UNL     1      27.496  31.305   0.985  1.00  0.00    -0.384 OA
ATOM     53  H   UNL     1      26.657  31.821   1.093  1.00  0.00     0.211 HD
ENDBRANCH   4  52
TORSDOF 16
ENDMDL
