MODEL 1
REMARK VINA RESULT:    -4.018      0.000      0.000
REMARK INTER + INTRA:          -5.745
REMARK INTER:                  -5.545
REMARK INTRA:                  -0.200
REMARK UNBOUND:                -0.200
REMARK SMILES CCCCCCCCO
REMARK SMILES IDX 5 1 4 2 3 3 2 4 1 5 6 6 7 7 8 8 9 9
REMARK H PARENT 9 10
REMARK Flexibility Score: inf
ROOT
ATOM      1  C   UNL     1      21.466  -3.449  20.194  1.00  0.00     0.000 C 
ENDROOT
BRANCH   1   2
ATOM      2  C   UNL     1      20.349  -3.227  21.224  1.00  0.00    -0.000 C 
BRANCH   2   3
ATOM      3  C   UNL     1      20.873  -3.435  22.654  1.00  0.00    -0.000 C 
BRANCH   3   4
ATOM      4  C   UNL     1      21.020  -2.115  23.426  1.00  0.00    -0.003 C 
ATOM      5  C   UNL     1      20.057  -1.033  22.937  1.00  0.00     0.004 C 
ENDBRANCH   3   4
ENDBRANCH   2   3
ENDBRANCH   1   2
BRANCH   1   6
ATOM      6  C   UNL     1      20.926  -3.702  18.778  1.00  0.00     0.002 C 
BRANCH   6   7
ATOM      7  C   UNL     1      21.274  -5.105  18.254  1.00  0.00     0.028 C 
BRANCH   7   8
ATOM      8  C   UNL     1      22.139  -5.044  16.990  1.00  0.00     0.156 C 
BRANCH   8   9
ATOM      9  O   UNL     1      22.596  -3.737  16.763  1.00  0.00    -0.396 OA
ATOM     10  H   UNL     1      21.792  -3.170  16.627  1.00  0.00     0.210 HD
ENDBRANCH   8   9
ENDBRANCH   7   8
ENDBRANCH   6   7
ENDBRANCH   1   6
TORSDOF 7
ENDMDL
MODEL 2
REMARK VINA RESULT:    -4.004      4.843      5.487
REMARK INTER + INTRA:          -5.726
REMARK INTER:                  -5.452
REMARK INTRA:                  -0.274
REMARK UNBOUND:                -0.200
REMARK SMILES CCCCCCCCO
REMARK SMILES IDX 5 1 4 2 3 3 2 4 1 5 6 6 7 7 8 8 9 9
REMARK H PARENT 9 10
REMARK Flexibility Score: inf
ROOT
ATOM      1  C   UNL     1      17.791  -3.417  17.687  1.00  0.00     0.000 C 
ENDROOT
BRANCH   1   2
ATOM      2  C   UNL     1      18.935  -4.083  18.467  1.00  0.00    -0.000 C 
BRANCH   2   3
ATOM      3  C   UNL     1      18.388  -4.927  19.629  1.00  0.00    -0.000 C 
BRANCH   3   4
ATOM      4  C   UNL     1      18.484  -4.203  20.981  1.00  0.00    -0.003 C 
ATOM      5  C   UNL     1      19.549  -3.107  20.991  1.00  0.00     0.004 C 
ENDBRANCH   3   4
ENDBRANCH   2   3
ENDBRANCH   1   2
BRANCH   1   6
ATOM      6  C   UNL     1      16.820  -4.438  17.075  1.00  0.00     0.002 C 
BRANCH   6   7
ATOM      7  C   UNL     1      15.369  -4.225  17.539  1.00  0.00     0.028 C 
BRANCH   7   8
ATOM      8  C   UNL     1      14.593  -5.545  17.612  1.00  0.00     0.156 C 
BRANCH   8   9
ATOM      9  O   UNL     1      13.856  -5.622  18.803  1.00  0.00    -0.396 OA
ATOM     10  H   UNL     1      14.509  -5.760  19.538  1.00  0.00     0.210 HD
ENDBRANCH   8   9
ENDBRANCH   7   8
ENDBRANCH   6   7
ENDBRANCH   1   6
TORSDOF 7
ENDMDL
MODEL 3
REMARK VINA RESULT:    -3.997      4.341      4.742
REMARK INTER + INTRA:          -5.716
REMARK INTER:                  -5.627
REMARK INTRA:                  -0.089
REMARK UNBOUND:                -0.200
REMARK SMILES CCCCCCCCO
REMARK SMILES IDX 5 1 4 2 3 3 2 4 1 5 6 6 7 7 8 8 9 9
REMARK H PARENT 9 10
REMARK Flexibility Score: inf
ROOT
ATOM      1  C   UNL     1      17.564  -3.587  20.325  1.00  0.00     0.000 C 
ENDROOT
BRANCH   1   2
ATOM      2  C   UNL     1      18.743  -4.189  21.105  1.00  0.00    -0.000 C 
BRANCH   2   3
ATOM      3  C   UNL     1      19.821  -3.127  21.375  1.00  0.00    -0.000 C 
BRANCH   3   4
ATOM      4  C   UNL     1      20.651  -3.434  22.631  1.00  0.00    -0.003 C 
ATOM      5  C   UNL     1      21.047  -2.176  23.403  1.00  0.00     0.004 C 
ENDBRANCH   3   4
ENDBRANCH   2   3
ENDBRANCH   1   2
BRANCH   1   6
ATOM      6  C   UNL     1      17.097  -4.487  19.172  1.00  0.00     0.002 C 
BRANCH   6   7
ATOM      7  C   UNL     1      15.901  -3.896  18.408  1.00  0.00     0.028 C 
BRANCH   7   8
ATOM      8  C   UNL     1      15.021  -4.988  17.789  1.00  0.00     0.156 C 
BRANCH   8   9
ATOM      9  O   UNL     1      14.133  -5.509  18.741  1.00  0.00    -0.396 OA
ATOM     10  H   UNL     1      13.814  -4.744  19.288  1.00  0.00     0.210 HD
ENDBRANCH   8   9
ENDBRANCH   7   8
ENDBRANCH   6   7
ENDBRANCH   1   6
TORSDOF 7
ENDMDL
MODEL 4
REMARK VINA RESULT:    -3.961      3.250      4.235
REMARK INTER + INTRA:          -5.666
REMARK INTER:                  -5.151
REMARK INTRA:                  -0.514
REMARK UNBOUND:                -0.200
REMARK SMILES CCCCCCCCO
REMARK SMILES IDX 5 1 4 2 3 3 2 4 1 5 6 6 7 7 8 8 9 9
REMARK H PARENT 9 10
REMARK Flexibility Score: inf
ROOT
ATOM      1  C   UNL     1      21.214  -1.580  23.702  1.00  0.00     0.000 C 
ENDROOT
BRANCH   1   2
ATOM      2  C   UNL     1      20.016  -0.682  23.359  1.00  0.00    -0.000 C 
BRANCH   2   3
ATOM      3  C   UNL     1      20.377   0.314  22.246  1.00  0.00    -0.000 C 
BRANCH   3   4
ATOM      4  C   UNL     1      19.602   0.052  20.946  1.00  0.00    -0.003 C 
ATOM      5  C   UNL     1      18.557  -1.054  21.092  1.00  0.00     0.004 C 
ENDBRANCH   3   4
ENDBRANCH   2   3
ENDBRANCH   1   2
BRANCH   1   6
ATOM      6  C   UNL     1      21.114  -2.971  23.059  1.00  0.00     0.002 C 
BRANCH   6   7
ATOM      7  C   UNL     1      22.034  -3.125  21.836  1.00  0.00     0.028 C 
BRANCH   7   8
ATOM      8  C   UNL     1      23.124  -2.049  21.802  1.00  0.00     0.156 C 
BRANCH   8   9
ATOM      9  O   UNL     1      24.388  -2.615  22.024  1.00  0.00    -0.396 OA
ATOM     10  H   UNL     1      24.999  -2.231  21.342  1.00  0.00     0.210 HD
ENDBRANCH   8   9
ENDBRANCH   7   8
ENDBRANCH   6   7
ENDBRANCH   1   6
TORSDOF 7
ENDMDL
MODEL 5
REMARK VINA RESULT:    -3.949      5.271      6.036
REMARK INTER + INTRA:          -5.650
REMARK INTER:                  -5.288
REMARK INTRA:                  -0.362
REMARK UNBOUND:                -0.200
REMARK SMILES CCCCCCCCO
REMARK SMILES IDX 5 1 4 2 3 3 2 4 1 5 6 6 7 7 8 8 9 9
REMARK H PARENT 9 10
REMARK Flexibility Score: inf
ROOT
ATOM      1  C   UNL     1      18.109  -3.230  18.688  1.00  0.00     0.000 C 
ENDROOT
BRANCH   1   2
ATOM      2  C   UNL     1      18.611  -2.663  17.352  1.00  0.00    -0.000 C 
BRANCH   2   3
ATOM      3  C   UNL     1      18.578  -1.126  17.361  1.00  0.00    -0.000 C 
BRANCH   3   4
ATOM      4  C   UNL     1      17.765  -0.561  18.536  1.00  0.00    -0.003 C 
ATOM      5  C   UNL     1      16.410  -0.002  18.104  1.00  0.00     0.004 C 
ENDBRANCH   3   4
ENDBRANCH   2   3
ENDBRANCH   1   2
BRANCH   1   6
ATOM      6  C   UNL     1      17.224  -4.473  18.509  1.00  0.00     0.002 C 
BRANCH   6   7
ATOM      7  C   UNL     1      15.727  -4.129  18.448  1.00  0.00     0.028 C 
BRANCH   7   8
ATOM      8  C   UNL     1      14.904  -5.266  17.833  1.00  0.00     0.156 C 
BRANCH   8   9
ATOM      9  O   UNL     1      13.877  -5.663  18.702  1.00  0.00    -0.396 OA
ATOM     10  H   UNL     1      13.555  -4.843  19.161  1.00  0.00     0.210 HD
ENDBRANCH   8   9
ENDBRANCH   7   8
ENDBRANCH   6   7
ENDBRANCH   1   6
TORSDOF 7
ENDMDL
MODEL 6
REMARK VINA RESULT:    -3.949     13.326     14.052
REMARK INTER + INTRA:          -5.650
REMARK INTER:                  -5.411
REMARK INTRA:                  -0.238
REMARK UNBOUND:                -0.200
REMARK SMILES CCCCCCCCO
REMARK SMILES IDX 5 1 4 2 3 3 2 4 1 5 6 6 7 7 8 8 9 9
REMARK H PARENT 9 10
REMARK Flexibility Score: inf
ROOT
ATOM      1  C   UNL     1      12.358 -11.417  14.330  1.00  0.00     0.000 C 
ENDROOT
BRANCH   1   2
ATOM      2  C   UNL     1      10.987 -12.053  14.598  1.00  0.00    -0.000 C 
BRANCH   2   3
ATOM      3  C   UNL     1       9.890 -10.979  14.676  1.00  0.00    -0.000 C 
BRANCH   3   4
ATOM      4  C   UNL     1       9.295 -10.844  16.086  1.00  0.00    -0.003 C 
ATOM      5  C   UNL     1       8.286  -9.700  16.197  1.00  0.00     0.004 C 
ENDBRANCH   3   4
ENDBRANCH   2   3
ENDBRANCH   1   2
BRANCH   1   6
ATOM      6  C   UNL     1      13.518 -12.405  14.525  1.00  0.00     0.002 C 
BRANCH   6   7
ATOM      7  C   UNL     1      13.108 -13.645  15.336  1.00  0.00     0.028 C 
BRANCH   7   8
ATOM      8  C   UNL     1      13.837 -13.715  16.682  1.00  0.00     0.156 C 
BRANCH   8   9
ATOM      9  O   UNL     1      13.101 -13.060  17.680  1.00  0.00    -0.396 OA
ATOM     10  H   UNL     1      13.334 -13.494  18.542  1.00  0.00     0.210 HD
ENDBRANCH   8   9
ENDBRANCH   7   8
ENDBRANCH   6   7
ENDBRANCH   1   6
TORSDOF 7
ENDMDL
MODEL 7
REMARK VINA RESULT:    -3.925      4.906      5.704
REMARK INTER + INTRA:          -5.617
REMARK INTER:                  -5.209
REMARK INTRA:                  -0.407
REMARK UNBOUND:                -0.200
REMARK SMILES CCCCCCCCO
REMARK SMILES IDX 5 1 4 2 3 3 2 4 1 5 6 6 7 7 8 8 9 9
REMARK H PARENT 9 10
REMARK Flexibility Score: inf
ROOT
ATOM      1  C   UNL     1      16.850  -3.323  20.300  1.00  0.00     0.000 C 
ENDROOT
BRANCH   1   2
ATOM      2  C   UNL     1      18.009  -2.317  20.353  1.00  0.00    -0.000 C 
BRANCH   2   3
ATOM      3  C   UNL     1      19.086  -2.666  19.313  1.00  0.00    -0.000 C 
BRANCH   3   4
ATOM      4  C   UNL     1      19.501  -1.455  18.464  1.00  0.00    -0.003 C 
ATOM      5  C   UNL     1      18.495  -1.132  17.359  1.00  0.00     0.004 C 
ENDBRANCH   3   4
ENDBRANCH   2   3
ENDBRANCH   1   2
BRANCH   1   6
ATOM      6  C   UNL     1      16.813  -4.116  18.985  1.00  0.00     0.002 C 
BRANCH   6   7
ATOM      7  C   UNL     1      15.509  -3.898  18.200  1.00  0.00     0.028 C 
BRANCH   7   8
ATOM      8  C   UNL     1      14.852  -5.225  17.804  1.00  0.00     0.156 C 
BRANCH   8   9
ATOM      9  O   UNL     1      13.914  -5.623  18.770  1.00  0.00    -0.396 OA
ATOM     10  H   UNL     1      14.158  -5.162  19.615  1.00  0.00     0.210 HD
ENDBRANCH   8   9
ENDBRANCH   7   8
ENDBRANCH   6   7
ENDBRANCH   1   6
TORSDOF 7
ENDMDL
MODEL 8
REMARK VINA RESULT:    -3.912      1.317      1.981
REMARK INTER + INTRA:          -5.598
REMARK INTER:                  -5.218
REMARK INTRA:                  -0.380
REMARK UNBOUND:                -0.200
REMARK SMILES CCCCCCCCO
REMARK SMILES IDX 5 1 4 2 3 3 2 4 1 5 6 6 7 7 8 8 9 9
REMARK H PARENT 9 10
REMARK Flexibility Score: inf
ROOT
ATOM      1  C   UNL     1      19.310  -3.168  18.716  1.00  0.00     0.000 C 
ENDROOT
BRANCH   1   2
ATOM      2  C   UNL     1      18.902  -4.402  19.536  1.00  0.00    -0.000 C 
BRANCH   2   3
ATOM      3  C   UNL     1      18.610  -4.018  20.995  1.00  0.00    -0.000 C 
BRANCH   3   4
ATOM      4  C   UNL     1      19.490  -2.859  21.488  1.00  0.00    -0.003 C 
ATOM      5  C   UNL     1      20.728  -3.337  22.247  1.00  0.00     0.004 C 
ENDBRANCH   3   4
ENDBRANCH   2   3
ENDBRANCH   1   2
BRANCH   1   6
ATOM      6  C   UNL     1      20.698  -3.316  18.075  1.00  0.00     0.002 C 
BRANCH   6   7
ATOM      7  C   UNL     1      21.165  -4.779  18.007  1.00  0.00     0.028 C 
BRANCH   7   8
ATOM      8  C   UNL     1      22.252  -4.983  16.945  1.00  0.00     0.156 C 
BRANCH   8   9
ATOM      9  O   UNL     1      22.821  -3.756  16.575  1.00  0.00    -0.396 OA
ATOM     10  H   UNL     1      22.612  -3.620  15.614  1.00  0.00     0.210 HD
ENDBRANCH   8   9
ENDBRANCH   7   8
ENDBRANCH   6   7
ENDBRANCH   1   6
TORSDOF 7
ENDMDL
MODEL 9
REMARK VINA RESULT:    -3.794      3.843      5.027
REMARK INTER + INTRA:          -5.435
REMARK INTER:                  -4.960
REMARK INTRA:                  -0.475
REMARK UNBOUND:                -0.200
REMARK SMILES CCCCCCCCO
REMARK SMILES IDX 5 1 4 2 3 3 2 4 1 5 6 6 7 7 8 8 9 9
REMARK H PARENT 9 10
REMARK Flexibility Score: inf
ROOT
ATOM      1  C   UNL     1      19.614  -1.009  22.084  1.00  0.00     0.000 C 
ENDROOT
BRANCH   1   2
ATOM      2  C   UNL     1      20.073   0.110  21.138  1.00  0.00    -0.000 C 
BRANCH   2   3
ATOM      3  C   UNL     1      21.393  -0.264  20.446  1.00  0.00    -0.000 C 
BRANCH   3   4
ATOM      4  C   UNL     1      22.485   0.799  20.644  1.00  0.00    -0.003 C 
ATOM      5  C   UNL     1      23.340   0.545  21.885  1.00  0.00     0.004 C 
ENDBRANCH   3   4
ENDBRANCH   2   3
ENDBRANCH   1   2
BRANCH   1   6
ATOM      6  C   UNL     1      20.250  -0.904  23.479  1.00  0.00     0.002 C 
BRANCH   6   7
ATOM      7  C   UNL     1      21.304  -1.994  23.732  1.00  0.00     0.028 C 
BRANCH   7   8
ATOM      8  C   UNL     1      20.984  -3.286  22.973  1.00  0.00     0.156 C 
BRANCH   8   9
ATOM      9  O   UNL     1      21.817  -4.332  23.398  1.00  0.00    -0.396 OA
ATOM     10  H   UNL     1      22.345  -4.619  22.608  1.00  0.00     0.210 HD
ENDBRANCH   8   9
ENDBRANCH   7   8
ENDBRANCH   6   7
ENDBRANCH   1   6
TORSDOF 7
ENDMDL
