MODEL 1
REMARK VINA RESULT:    -3.050      0.000      0.000
REMARK INTER + INTRA:          -8.606
REMARK INTER:                  -5.724
REMARK INTRA:                  -2.883
REMARK UNBOUND:                -2.883
REMARK SMILES CCCCCCCCC=CCCCCCCCC(=O)[O-]
REMARK SMILES IDX 10 1 9 2 11 3 12 4 13 5 14 6 15 7 16 8 17 9 18 10 19 11
REMARK SMILES IDX 20 12 8 13 7 14 6 15 5 16 4 17 3 18 2 19 1 20
REMARK H PARENT
REMARK Flexibility Score: inf
ROOT
ATOM      1  C   UNL     1      27.618  59.340  82.652  1.00  0.00    -0.031 C 
ATOM      2  C   UNL     1      27.988  60.478  83.258  1.00  0.00    -0.031 C 
ENDROOT
BRANCH   1   3
ATOM      3  C   UNL     1      28.626  58.419  82.019  1.00  0.00     0.027 C 
BRANCH   3   4
ATOM      4  C   UNL     1      30.062  58.742  82.456  1.00  0.00     0.004 C 
BRANCH   4   5
ATOM      5  C   UNL     1      30.646  57.659  83.376  1.00  0.00     0.000 C 
BRANCH   5   6
ATOM      6  C   UNL     1      30.517  58.060  84.850  1.00  0.00     0.000 C 
BRANCH   6   7
ATOM      7  C   UNL     1      29.421  57.247  85.548  1.00  0.00     0.000 C 
BRANCH   7   8
ATOM      8  C   UNL     1      28.353  58.168  86.153  1.00  0.00     0.006 C 
BRANCH   8   9
ATOM      9  C   UNL     1      28.951  59.475  86.694  1.00  0.00     0.053 C 
BRANCH   9  10
ATOM     10  C   UNL     1      27.933  60.286  87.437  1.00  0.00     0.041 C 
ATOM     11  O   UNL     1      27.131  59.725  88.230  1.00  0.00    -0.550 OA
ATOM     12  O   UNL     1      27.850  61.657  87.230  1.00  0.00    -0.550 OA
ENDBRANCH   9  10
ENDBRANCH   8   9
ENDBRANCH   7   8
ENDBRANCH   6   7
ENDBRANCH   5   6
ENDBRANCH   4   5
ENDBRANCH   3   4
ENDBRANCH   1   3
BRANCH   2  13
ATOM     13  C   UNL     1      26.979  61.387  83.903  1.00  0.00     0.027 C 
BRANCH  13  14
ATOM     14  C   UNL     1      25.558  60.822  83.755  1.00  0.00     0.004 C 
BRANCH  14  15
ATOM     15  C   UNL     1      24.651  61.714  82.893  1.00  0.00     0.000 C 
BRANCH  15  16
ATOM     16  C   UNL     1      24.826  61.449  81.388  1.00  0.00     0.000 C 
BRANCH  16  17
ATOM     17  C   UNL     1      25.574  62.587  80.670  1.00  0.00    -0.000 C 
BRANCH  17  18
ATOM     18  C   UNL     1      26.999  62.185  80.251  1.00  0.00    -0.000 C 
BRANCH  18  19
ATOM     19  C   UNL     1      27.024  60.893  79.418  1.00  0.00    -0.003 C 
ATOM     20  C   UNL     1      28.427  60.526  78.935  1.00  0.00     0.004 C 
ENDBRANCH  18  19
ENDBRANCH  17  18
ENDBRANCH  16  17
ENDBRANCH  15  16
ENDBRANCH  14  15
ENDBRANCH  13  14
ENDBRANCH   2  13
TORSDOF 15
ENDMDL
MODEL 2
REMARK VINA RESULT:    -3.046      2.721      6.824
REMARK INTER + INTRA:          -8.600
REMARK INTER:                  -5.921
REMARK INTRA:                  -2.679
REMARK UNBOUND:                -2.883
REMARK SMILES CCCCCCCCC=CCCCCCCCC(=O)[O-]
REMARK SMILES IDX 10 1 9 2 11 3 12 4 13 5 14 6 15 7 16 8 17 9 18 10 19 11
REMARK SMILES IDX 20 12 8 13 7 14 6 15 5 16 4 17 3 18 2 19 1 20
REMARK H PARENT
REMARK Flexibility Score: inf
ROOT
ATOM      1  C   UNL     1      27.258  58.806  83.071  1.00  0.00    -0.031 C 
ATOM      2  C   UNL     1      28.335  59.598  83.179  1.00  0.00    -0.031 C 
ENDROOT
BRANCH   1   3
ATOM      3  C   UNL     1      25.894  59.264  83.513  1.00  0.00     0.027 C 
BRANCH   3   4
ATOM      4  C   UNL     1      25.968  60.380  84.565  1.00  0.00     0.004 C 
BRANCH   4   5
ATOM      5  C   UNL     1      25.354  61.695  84.060  1.00  0.00     0.000 C 
BRANCH   5   6
ATOM      6  C   UNL     1      24.392  61.440  82.894  1.00  0.00     0.000 C 
BRANCH   6   7
ATOM      7  C   UNL     1      24.756  62.304  81.681  1.00  0.00     0.000 C 
BRANCH   7   8
ATOM      8  C   UNL     1      25.504  61.479  80.623  1.00  0.00     0.006 C 
BRANCH   8   9
ATOM      9  C   UNL     1      27.005  61.800  80.590  1.00  0.00     0.053 C 
BRANCH   9  10
ATOM     10  C   UNL     1      27.737  60.933  79.611  1.00  0.00     0.041 C 
ATOM     11  O   UNL     1      28.470  61.454  78.729  1.00  0.00    -0.550 OA
ATOM     12  O   UNL     1      27.583  59.553  79.652  1.00  0.00    -0.550 OA
ENDBRANCH   9  10
ENDBRANCH   8   9
ENDBRANCH   7   8
ENDBRANCH   6   7
ENDBRANCH   5   6
ENDBRANCH   4   5
ENDBRANCH   3   4
ENDBRANCH   1   3
BRANCH   2  13
ATOM     13  C   UNL     1      29.693  59.143  82.721  1.00  0.00     0.027 C 
BRANCH  13  14
ATOM     14  C   UNL     1      30.094  57.832  83.415  1.00  0.00     0.004 C 
BRANCH  14  15
ATOM     15  C   UNL     1      30.618  58.053  84.843  1.00  0.00     0.000 C 
BRANCH  15  16
ATOM     16  C   UNL     1      29.851  57.222  85.886  1.00  0.00     0.000 C 
BRANCH  16  17
ATOM     17  C   UNL     1      28.649  57.979  86.477  1.00  0.00    -0.000 C 
BRANCH  17  18
ATOM     18  C   UNL     1      28.952  59.467  86.726  1.00  0.00    -0.000 C 
BRANCH  18  19
ATOM     19  C   UNL     1      27.856  60.159  87.552  1.00  0.00    -0.003 C 
ATOM     20  C   UNL     1      28.014  61.679  87.592  1.00  0.00     0.004 C 
ENDBRANCH  18  19
ENDBRANCH  17  18
ENDBRANCH  16  17
ENDBRANCH  15  16
ENDBRANCH  14  15
ENDBRANCH  13  14
ENDBRANCH   2  13
TORSDOF 15
ENDMDL
MODEL 3
REMARK VINA RESULT:    -3.038      3.408      5.042
REMARK INTER + INTRA:          -8.584
REMARK INTER:                  -7.424
REMARK INTRA:                  -1.160
REMARK UNBOUND:                -2.883
REMARK SMILES CCCCCCCCC=CCCCCCCCC(=O)[O-]
REMARK SMILES IDX 10 1 9 2 11 3 12 4 13 5 14 6 15 7 16 8 17 9 18 10 19 11
REMARK SMILES IDX 20 12 8 13 7 14 6 15 5 16 4 17 3 18 2 19 1 20
REMARK H PARENT
REMARK Flexibility Score: inf
ROOT
ATOM      1  C   UNL     1      26.019  62.472  80.779  1.00  0.00    -0.031 C 
ATOM      2  C   UNL     1      25.388  62.312  79.606  1.00  0.00    -0.031 C 
ENDROOT
BRANCH   1   3
ATOM      3  C   UNL     1      27.231  61.657  81.142  1.00  0.00     0.027 C 
BRANCH   3   4
ATOM      4  C   UNL     1      27.525  61.693  82.649  1.00  0.00     0.004 C 
BRANCH   4   5
ATOM      5  C   UNL     1      26.273  61.410  83.492  1.00  0.00     0.000 C 
BRANCH   5   6
ATOM      6  C   UNL     1      26.089  59.905  83.717  1.00  0.00     0.000 C 
BRANCH   6   7
ATOM      7  C   UNL     1      27.361  59.277  84.300  1.00  0.00     0.000 C 
BRANCH   7   8
ATOM      8  C   UNL     1      27.038  58.424  85.534  1.00  0.00     0.006 C 
BRANCH   8   9
ATOM      9  C   UNL     1      26.238  59.203  86.587  1.00  0.00     0.053 C 
BRANCH   9  10
ATOM     10  C   UNL     1      27.101  59.635  87.734  1.00  0.00     0.041 C 
ATOM     11  O   UNL     1      28.065  60.422  87.539  1.00  0.00    -0.550 OA
ATOM     12  O   UNL     1      26.860  59.144  89.010  1.00  0.00    -0.550 OA
ENDBRANCH   9  10
ENDBRANCH   8   9
ENDBRANCH   7   8
ENDBRANCH   6   7
ENDBRANCH   5   6
ENDBRANCH   4   5
ENDBRANCH   3   4
ENDBRANCH   1   3
BRANCH   2  13
ATOM     13  C   UNL     1      24.188  63.140  79.241  1.00  0.00     0.027 C 
BRANCH  13  14
ATOM     14  C   UNL     1      24.407  63.862  77.903  1.00  0.00     0.004 C 
BRANCH  14  15
ATOM     15  C   UNL     1      25.028  62.951  76.832  1.00  0.00     0.000 C 
BRANCH  15  16
ATOM     16  C   UNL     1      25.962  63.717  75.879  1.00  0.00     0.000 C 
BRANCH  16  17
ATOM     17  C   UNL     1      25.405  65.096  75.486  1.00  0.00    -0.000 C 
BRANCH  17  18
ATOM     18  C   UNL     1      26.500  66.173  75.401  1.00  0.00    -0.000 C 
BRANCH  18  19
ATOM     19  C   UNL     1      26.026  67.536  75.933  1.00  0.00    -0.003 C 
ATOM     20  C   UNL     1      24.673  67.459  76.640  1.00  0.00     0.004 C 
ENDBRANCH  18  19
ENDBRANCH  17  18
ENDBRANCH  16  17
ENDBRANCH  15  16
ENDBRANCH  14  15
ENDBRANCH  13  14
ENDBRANCH   2  13
TORSDOF 15
ENDMDL
MODEL 4
REMARK VINA RESULT:    -3.032      1.327      2.071
REMARK INTER + INTRA:          -8.573
REMARK INTER:                  -6.002
REMARK INTRA:                  -2.570
REMARK UNBOUND:                -2.883
REMARK SMILES CCCCCCCCC=CCCCCCCCC(=O)[O-]
REMARK SMILES IDX 10 1 9 2 11 3 12 4 13 5 14 6 15 7 16 8 17 9 18 10 19 11
REMARK SMILES IDX 20 12 8 13 7 14 6 15 5 16 4 17 3 18 2 19 1 20
REMARK H PARENT
REMARK Flexibility Score: inf
ROOT
ATOM      1  C   UNL     1      29.775  58.460  82.130  1.00  0.00    -0.031 C 
ATOM      2  C   UNL     1      29.105  59.534  82.575  1.00  0.00    -0.031 C 
ENDROOT
BRANCH   1   3
ATOM      3  C   UNL     1      31.201  58.558  81.658  1.00  0.00     0.027 C 
BRANCH   3   4
ATOM      4  C   UNL     1      32.142  57.648  82.461  1.00  0.00     0.004 C 
BRANCH   4   5
ATOM      5  C   UNL     1      31.431  56.979  83.647  1.00  0.00     0.000 C 
BRANCH   5   6
ATOM      6  C   UNL     1      32.276  57.076  84.921  1.00  0.00     0.000 C 
BRANCH   6   7
ATOM      7  C   UNL     1      31.402  57.411  86.137  1.00  0.00     0.000 C 
BRANCH   7   8
ATOM      8  C   UNL     1      29.955  57.697  85.712  1.00  0.00     0.006 C 
BRANCH   8   9
ATOM      9  C   UNL     1      29.427  59.014  86.297  1.00  0.00     0.053 C 
BRANCH   9  10
ATOM     10  C   UNL     1      28.003  58.891  86.748  1.00  0.00     0.041 C 
ATOM     11  O   UNL     1      27.478  59.801  87.443  1.00  0.00    -0.550 OA
ATOM     12  O   UNL     1      27.267  57.757  86.428  1.00  0.00    -0.550 OA
ENDBRANCH   9  10
ENDBRANCH   8   9
ENDBRANCH   7   8
ENDBRANCH   6   7
ENDBRANCH   5   6
ENDBRANCH   4   5
ENDBRANCH   3   4
ENDBRANCH   1   3
BRANCH   2  13
ATOM     13  C   UNL     1      27.686  59.428  83.061  1.00  0.00     0.027 C 
BRANCH  13  14
ATOM     14  C   UNL     1      27.034  60.816  83.152  1.00  0.00     0.004 C 
BRANCH  14  15
ATOM     15  C   UNL     1      27.528  61.777  82.059  1.00  0.00     0.000 C 
BRANCH  15  16
ATOM     16  C   UNL     1      26.431  62.117  81.036  1.00  0.00     0.000 C 
BRANCH  16  17
ATOM     17  C   UNL     1      26.606  61.361  79.708  1.00  0.00    -0.000 C 
BRANCH  17  18
ATOM     18  C   UNL     1      28.038  61.463  79.154  1.00  0.00    -0.000 C 
BRANCH  18  19
ATOM     19  C   UNL     1      28.689  60.085  78.951  1.00  0.00    -0.003 C 
ATOM     20  C   UNL     1      27.684  58.936  79.032  1.00  0.00     0.004 C 
ENDBRANCH  18  19
ENDBRANCH  17  18
ENDBRANCH  16  17
ENDBRANCH  15  16
ENDBRANCH  14  15
ENDBRANCH  13  14
ENDBRANCH   2  13
TORSDOF 15
ENDMDL
MODEL 5
REMARK VINA RESULT:    -3.017      2.600      6.029
REMARK INTER + INTRA:          -8.544
REMARK INTER:                  -6.331
REMARK INTRA:                  -2.214
REMARK UNBOUND:                -2.883
REMARK SMILES CCCCCCCCC=CCCCCCCCC(=O)[O-]
REMARK SMILES IDX 10 1 9 2 11 3 12 4 13 5 14 6 15 7 16 8 17 9 18 10 19 11
REMARK SMILES IDX 20 12 8 13 7 14 6 15 5 16 4 17 3 18 2 19 1 20
REMARK H PARENT
REMARK Flexibility Score: inf
ROOT
ATOM      1  C   UNL     1      26.848  61.266  83.848  1.00  0.00    -0.031 C 
ATOM      2  C   UNL     1      26.270  60.057  83.890  1.00  0.00    -0.031 C 
ENDROOT
BRANCH   1   3
ATOM      3  C   UNL     1      27.588  61.745  82.628  1.00  0.00     0.027 C 
BRANCH   3   4
ATOM      4  C   UNL     1      26.755  61.595  81.347  1.00  0.00     0.004 C 
BRANCH   4   5
ATOM      5  C   UNL     1      27.611  61.728  80.079  1.00  0.00     0.000 C 
BRANCH   5   6
ATOM      6  C   UNL     1      27.935  60.353  79.486  1.00  0.00     0.000 C 
BRANCH   6   7
ATOM      7  C   UNL     1      27.216  59.239  80.255  1.00  0.00     0.000 C 
BRANCH   7   8
ATOM      8  C   UNL     1      28.223  58.294  80.925  1.00  0.00     0.006 C 
BRANCH   8   9
ATOM      9  C   UNL     1      29.675  58.743  80.710  1.00  0.00     0.053 C 
BRANCH   9  10
ATOM     10  C   UNL     1      30.499  58.578  81.950  1.00  0.00     0.041 C 
ATOM     11  O   UNL     1      30.176  59.178  83.010  1.00  0.00    -0.550 OA
ATOM     12  O   UNL     1      31.641  57.787  81.928  1.00  0.00    -0.550 OA
ENDBRANCH   9  10
ENDBRANCH   8   9
ENDBRANCH   7   8
ENDBRANCH   6   7
ENDBRANCH   5   6
ENDBRANCH   4   5
ENDBRANCH   3   4
ENDBRANCH   1   3
BRANCH   2  13
ATOM     13  C   UNL     1      25.518  59.588  85.105  1.00  0.00     0.027 C 
BRANCH  13  14
ATOM     14  C   UNL     1      25.558  58.057  85.218  1.00  0.00     0.004 C 
BRANCH  14  15
ATOM     15  C   UNL     1      25.908  57.575  86.635  1.00  0.00     0.000 C 
BRANCH  15  16
ATOM     16  C   UNL     1      25.591  58.630  87.709  1.00  0.00     0.000 C 
BRANCH  16  17
ATOM     17  C   UNL     1      26.852  59.133  88.434  1.00  0.00    -0.000 C 
BRANCH  17  18
ATOM     18  C   UNL     1      28.142  58.840  87.649  1.00  0.00    -0.000 C 
BRANCH  18  19
ATOM     19  C   UNL     1      28.730  60.101  86.994  1.00  0.00    -0.003 C 
ATOM     20  C   UNL     1      28.009  61.381  87.417  1.00  0.00     0.004 C 
ENDBRANCH  18  19
ENDBRANCH  17  18
ENDBRANCH  16  17
ENDBRANCH  15  16
ENDBRANCH  14  15
ENDBRANCH  13  14
ENDBRANCH   2  13
TORSDOF 15
ENDMDL
MODEL 6
REMARK VINA RESULT:    -3.012      2.993      5.388
REMARK INTER + INTRA:          -8.536
REMARK INTER:                  -5.831
REMARK INTRA:                  -2.705
REMARK UNBOUND:                -2.883
REMARK SMILES CCCCCCCCC=CCCCCCCCC(=O)[O-]
REMARK SMILES IDX 10 1 9 2 11 3 12 4 13 5 14 6 15 7 16 8 17 9 18 10 19 11
REMARK SMILES IDX 20 12 8 13 7 14 6 15 5 16 4 17 3 18 2 19 1 20
REMARK H PARENT
REMARK Flexibility Score: inf
ROOT
ATOM      1  C   UNL     1      29.068  58.531  86.702  1.00  0.00    -0.031 C 
ATOM      2  C   UNL     1      28.594  59.763  86.937  1.00  0.00    -0.031 C 
ENDROOT
BRANCH   1   3
ATOM      3  C   UNL     1      30.248  58.298  85.797  1.00  0.00     0.027 C 
BRANCH   3   4
ATOM      4  C   UNL     1      30.152  56.959  85.051  1.00  0.00     0.004 C 
BRANCH   4   5
ATOM      5  C   UNL     1      30.043  57.150  83.530  1.00  0.00     0.000 C 
BRANCH   5   6
ATOM      6  C   UNL     1      30.531  58.542  83.113  1.00  0.00     0.000 C 
BRANCH   6   7
ATOM      7  C   UNL     1      30.771  58.610  81.601  1.00  0.00     0.000 C 
BRANCH   7   8
ATOM      8  C   UNL     1      29.469  58.367  80.825  1.00  0.00     0.006 C 
BRANCH   8   9
ATOM      9  C   UNL     1      29.532  58.919  79.394  1.00  0.00     0.053 C 
BRANCH   9  10
ATOM     10  C   UNL     1      28.630  60.102  79.214  1.00  0.00     0.041 C 
ATOM     11  O   UNL     1      27.662  60.286  79.998  1.00  0.00    -0.550 OA
ATOM     12  O   UNL     1      28.839  60.983  78.160  1.00  0.00    -0.550 OA
ENDBRANCH   9  10
ENDBRANCH   8   9
ENDBRANCH   7   8
ENDBRANCH   6   7
ENDBRANCH   5   6
ENDBRANCH   4   5
ENDBRANCH   3   4
ENDBRANCH   1   3
BRANCH   2  13
ATOM     13  C   UNL     1      27.425  59.993  87.854  1.00  0.00     0.027 C 
BRANCH  13  14
ATOM     14  C   UNL     1      26.487  58.776  87.861  1.00  0.00     0.004 C 
BRANCH  14  15
ATOM     15  C   UNL     1      25.308  58.930  86.886  1.00  0.00     0.000 C 
BRANCH  15  16
ATOM     16  C   UNL     1      25.485  58.086  85.612  1.00  0.00     0.000 C 
BRANCH  16  17
ATOM     17  C   UNL     1      25.479  58.940  84.333  1.00  0.00    -0.000 C 
BRANCH  17  18
ATOM     18  C   UNL     1      26.867  59.032  83.676  1.00  0.00    -0.000 C 
BRANCH  18  19
ATOM     19  C   UNL     1      27.366  60.481  83.556  1.00  0.00    -0.003 C 
ATOM     20  C   UNL     1      26.522  61.468  84.363  1.00  0.00     0.004 C 
ENDBRANCH  18  19
ENDBRANCH  17  18
ENDBRANCH  16  17
ENDBRANCH  15  16
ENDBRANCH  14  15
ENDBRANCH  13  14
ENDBRANCH   2  13
TORSDOF 15
ENDMDL
MODEL 7
REMARK VINA RESULT:    -2.993      3.619      7.288
REMARK INTER + INTRA:          -8.500
REMARK INTER:                  -6.266
REMARK INTRA:                  -2.234
REMARK UNBOUND:                -2.883
REMARK SMILES CCCCCCCCC=CCCCCCCCC(=O)[O-]
REMARK SMILES IDX 10 1 9 2 11 3 12 4 13 5 14 6 15 7 16 8 17 9 18 10 19 11
REMARK SMILES IDX 20 12 8 13 7 14 6 15 5 16 4 17 3 18 2 19 1 20
REMARK H PARENT
REMARK Flexibility Score: inf
ROOT
ATOM      1  C   UNL     1      28.370  58.763  82.776  1.00  0.00    -0.031 C 
ATOM      2  C   UNL     1      29.651  59.151  82.675  1.00  0.00    -0.031 C 
ENDROOT
BRANCH   1   3
ATOM      3  C   UNL     1      27.242  59.759  82.779  1.00  0.00     0.027 C 
BRANCH   3   4
ATOM      4  C   UNL     1      27.745  61.207  82.691  1.00  0.00     0.004 C 
BRANCH   4   5
ATOM      5  C   UNL     1      27.212  61.933  81.447  1.00  0.00     0.000 C 
BRANCH   5   6
ATOM      6  C   UNL     1      26.855  60.936  80.339  1.00  0.00     0.000 C 
BRANCH   6   7
ATOM      7  C   UNL     1      27.230  61.489  78.959  1.00  0.00     0.000 C 
BRANCH   7   8
ATOM      8  C   UNL     1      28.677  61.128  78.597  1.00  0.00     0.006 C 
BRANCH   8   9
ATOM      9  C   UNL     1      29.026  59.680  78.967  1.00  0.00     0.053 C 
BRANCH   9  10
ATOM     10  C   UNL     1      29.456  58.887  77.770  1.00  0.00     0.041 C 
ATOM     11  O   UNL     1      29.833  59.476  76.723  1.00  0.00    -0.550 OA
ATOM     12  O   UNL     1      29.410  57.499  77.801  1.00  0.00    -0.550 OA
ENDBRANCH   9  10
ENDBRANCH   8   9
ENDBRANCH   7   8
ENDBRANCH   6   7
ENDBRANCH   5   6
ENDBRANCH   4   5
ENDBRANCH   3   4
ENDBRANCH   1   3
BRANCH   2  13
ATOM     13  C   UNL     1      30.774  58.152  82.656  1.00  0.00     0.027 C 
BRANCH  13  14
ATOM     14  C   UNL     1      30.647  57.163  83.825  1.00  0.00     0.004 C 
BRANCH  14  15
ATOM     15  C   UNL     1      31.124  57.757  85.160  1.00  0.00     0.000 C 
BRANCH  15  16
ATOM     16  C   UNL     1      30.032  57.723  86.242  1.00  0.00     0.000 C 
BRANCH  16  17
ATOM     17  C   UNL     1      29.304  59.070  86.390  1.00  0.00    -0.000 C 
BRANCH  17  18
ATOM     18  C   UNL     1      27.774  58.915  86.416  1.00  0.00    -0.000 C 
BRANCH  18  19
ATOM     19  C   UNL     1      27.059  60.208  86.844  1.00  0.00    -0.003 C 
ATOM     20  C   UNL     1      28.031  61.313  87.261  1.00  0.00     0.004 C 
ENDBRANCH  18  19
ENDBRANCH  17  18
ENDBRANCH  16  17
ENDBRANCH  15  16
ENDBRANCH  14  15
ENDBRANCH  13  14
ENDBRANCH   2  13
TORSDOF 15
ENDMDL
MODEL 8
REMARK VINA RESULT:    -2.983      2.554      5.869
REMARK INTER + INTRA:          -8.481
REMARK INTER:                  -6.513
REMARK INTRA:                  -1.968
REMARK UNBOUND:                -2.883
REMARK SMILES CCCCCCCCC=CCCCCCCCC(=O)[O-]
REMARK SMILES IDX 10 1 9 2 11 3 12 4 13 5 14 6 15 7 16 8 17 9 18 10 19 11
REMARK SMILES IDX 20 12 8 13 7 14 6 15 5 16 4 17 3 18 2 19 1 20
REMARK H PARENT
REMARK Flexibility Score: inf
ROOT
ATOM      1  C   UNL     1      27.578  61.733  81.039  1.00  0.00    -0.031 C 
ATOM      2  C   UNL     1      26.758  61.323  82.018  1.00  0.00    -0.031 C 
ENDROOT
BRANCH   1   3
ATOM      3  C   UNL     1      27.156  61.711  79.595  1.00  0.00     0.027 C 
BRANCH   3   4
ATOM      4  C   UNL     1      28.259  61.167  78.676  1.00  0.00     0.004 C 
BRANCH   4   5
ATOM      5  C   UNL     1      27.782  59.964  77.847  1.00  0.00     0.000 C 
BRANCH   5   6
ATOM      6  C   UNL     1      28.343  58.652  78.408  1.00  0.00     0.000 C 
BRANCH   6   7
ATOM      7  C   UNL     1      27.515  58.166  79.603  1.00  0.00     0.000 C 
BRANCH   7   8
ATOM      8  C   UNL     1      28.385  58.043  80.862  1.00  0.00     0.006 C 
BRANCH   8   9
ATOM      9  C   UNL     1      29.885  58.077  80.538  1.00  0.00     0.053 C 
BRANCH   9  10
ATOM     10  C   UNL     1      30.670  58.767  81.612  1.00  0.00     0.041 C 
ATOM     11  O   UNL     1      31.910  58.941  81.477  1.00  0.00    -0.550 OA
ATOM     12  O   UNL     1      30.038  59.188  82.775  1.00  0.00    -0.550 OA
ENDBRANCH   9  10
ENDBRANCH   8   9
ENDBRANCH   7   8
ENDBRANCH   6   7
ENDBRANCH   5   6
ENDBRANCH   4   5
ENDBRANCH   3   4
ENDBRANCH   1   3
BRANCH   2  13
ATOM     13  C   UNL     1      27.178  61.361  83.462  1.00  0.00     0.027 C 
BRANCH  13  14
ATOM     14  C   UNL     1      25.957  61.506  84.383  1.00  0.00     0.004 C 
BRANCH  14  15
ATOM     15  C   UNL     1      25.367  60.150  84.804  1.00  0.00     0.000 C 
BRANCH  15  16
ATOM     16  C   UNL     1      26.401  59.251  85.504  1.00  0.00     0.000 C 
BRANCH  16  17
ATOM     17  C   UNL     1      26.060  58.999  86.983  1.00  0.00    -0.000 C 
BRANCH  17  18
ATOM     18  C   UNL     1      27.163  59.492  87.936  1.00  0.00    -0.000 C 
BRANCH  18  19
ATOM     19  C   UNL     1      28.193  60.389  87.229  1.00  0.00    -0.003 C 
ATOM     20  C   UNL     1      28.078  61.858  87.636  1.00  0.00     0.004 C 
ENDBRANCH  18  19
ENDBRANCH  17  18
ENDBRANCH  16  17
ENDBRANCH  15  16
ENDBRANCH  14  15
ENDBRANCH  13  14
ENDBRANCH   2  13
TORSDOF 15
ENDMDL
MODEL 9
REMARK VINA RESULT:    -2.977      3.168      6.656
REMARK INTER + INTRA:          -8.469
REMARK INTER:                  -5.961
REMARK INTRA:                  -2.508
REMARK UNBOUND:                -2.883
REMARK SMILES CCCCCCCCC=CCCCCCCCC(=O)[O-]
REMARK SMILES IDX 10 1 9 2 11 3 12 4 13 5 14 6 15 7 16 8 17 9 18 10 19 11
REMARK SMILES IDX 20 12 8 13 7 14 6 15 5 16 4 17 3 18 2 19 1 20
REMARK H PARENT
REMARK Flexibility Score: inf
ROOT
ATOM      1  C   UNL     1      26.940  60.546  86.093  1.00  0.00    -0.031 C 
ATOM      2  C   UNL     1      26.020  59.589  86.282  1.00  0.00    -0.031 C 
ENDROOT
BRANCH   1   3
ATOM      3  C   UNL     1      26.957  61.391  84.848  1.00  0.00     0.027 C 
BRANCH   3   4
ATOM      4  C   UNL     1      25.576  61.466  84.179  1.00  0.00     0.004 C 
BRANCH   4   5
ATOM      5  C   UNL     1      25.673  61.447  82.646  1.00  0.00     0.000 C 
BRANCH   5   6
ATOM      6  C   UNL     1      27.130  61.561  82.185  1.00  0.00     0.000 C 
BRANCH   6   7
ATOM      7  C   UNL     1      27.219  62.197  80.792  1.00  0.00     0.000 C 
BRANCH   7   8
ATOM      8  C   UNL     1      27.720  61.182  79.755  1.00  0.00     0.006 C 
BRANCH   8   9
ATOM      9  C   UNL     1      28.164  59.862  80.400  1.00  0.00     0.053 C 
BRANCH   9  10
ATOM     10  C   UNL     1      29.124  59.112  79.528  1.00  0.00     0.041 C 
ATOM     11  O   UNL     1      29.351  59.503  78.352  1.00  0.00    -0.550 OA
ATOM     12  O   UNL     1      29.744  57.962  80.002  1.00  0.00    -0.550 OA
ENDBRANCH   9  10
ENDBRANCH   8   9
ENDBRANCH   7   8
ENDBRANCH   6   7
ENDBRANCH   5   6
ENDBRANCH   4   5
ENDBRANCH   3   4
ENDBRANCH   1   3
BRANCH   2  13
ATOM     13  C   UNL     1      25.997  58.758  87.535  1.00  0.00     0.027 C 
BRANCH  13  14
ATOM     14  C   UNL     1      27.370  58.770  88.225  1.00  0.00     0.004 C 
BRANCH  14  15
ATOM     15  C   UNL     1      27.992  57.369  88.333  1.00  0.00     0.000 C 
BRANCH  15  16
ATOM     16  C   UNL     1      29.281  57.233  87.505  1.00  0.00     0.000 C 
BRANCH  16  17
ATOM     17  C   UNL     1      29.016  57.265  85.990  1.00  0.00    -0.000 C 
BRANCH  17  18
ATOM     18  C   UNL     1      29.832  58.353  85.270  1.00  0.00    -0.000 C 
BRANCH  18  19
ATOM     19  C   UNL     1      29.292  58.659  83.864  1.00  0.00    -0.003 C 
ATOM     20  C   UNL     1      27.975  57.943  83.565  1.00  0.00     0.004 C 
ENDBRANCH  18  19
ENDBRANCH  17  18
ENDBRANCH  16  17
ENDBRANCH  15  16
ENDBRANCH  14  15
ENDBRANCH  13  14
ENDBRANCH   2  13
TORSDOF 15
ENDMDL
