MODEL 1
REMARK VINA RESULT:    -8.017      0.000      0.000
REMARK INTER + INTRA:          -9.643
REMARK INTER:                  -9.657
REMARK INTRA:                   0.014
REMARK UNBOUND:                 0.014
REMARK SMILES O=c1c(O)c(-c2ccc(O)cc2O)oc2cc(O)cc(O)c12
REMARK SMILES IDX 5 1 3 2 2 3 1 4 22 5 20 6 19 7 17 8 16 9 15 10 14 11 6 12
REMARK SMILES IDX 8 13 7 14 9 15 11 16 12 17 10 18 13 20 4 22 21 24 18 26
REMARK H PARENT 10 19 13 21 4 23 21 25 18 27
REMARK Flexibility Score: inf
ROOT
ATOM      1  C   UNL     1      29.079  23.521  48.746  1.00  0.00     0.184 A 
ATOM      2  C   UNL     1      30.414  23.085  48.796  1.00  0.00     0.208 A 
ATOM      3  C   UNL     1      30.929  22.616  50.015  1.00  0.00     0.238 A 
ATOM      4  O   UNL     1      32.125  22.219  50.071  1.00  0.00    -0.285 OA
ATOM      5  C   UNL     1      30.104  22.599  51.158  1.00  0.00     0.111 A 
ATOM      6  C   UNL     1      30.546  22.145  52.425  1.00  0.00     0.134 A 
ATOM      7  C   UNL     1      29.664  22.162  53.515  1.00  0.00     0.093 A 
ATOM      8  C   UNL     1      28.355  22.624  53.367  1.00  0.00     0.123 A 
ATOM      9  C   UNL     1      27.912  23.074  52.118  1.00  0.00     0.094 A 
ATOM     10  C   UNL     1      28.774  23.064  51.018  1.00  0.00     0.146 A 
ATOM     11  O   UNL     1      28.329  23.494  49.844  1.00  0.00    -0.451 OA
ENDROOT
BRANCH   1  12
ATOM     12  C   UNL     1      28.476  24.008  47.488  1.00  0.00     0.063 A 
ATOM     13  C   UNL     1      28.721  25.220  45.391  1.00  0.00     0.047 A 
ATOM     14  C   UNL     1      29.247  24.793  46.612  1.00  0.00     0.020 A 
ATOM     15  C   UNL     1      27.421  24.865  45.024  1.00  0.00     0.119 A 
ATOM     16  C   UNL     1      26.644  24.082  45.887  1.00  0.00     0.093 A 
ATOM     17  C   UNL     1      27.157  23.656  47.118  1.00  0.00     0.130 A 
BRANCH  15  18
ATOM     18  O   UNL     1      26.911  25.295  43.800  1.00  0.00    -0.508 OA
ATOM     19  H   UNL     1      27.492  25.344  42.972  1.00  0.00     0.293 HD
ENDBRANCH  15  18
BRANCH  17  20
ATOM     20  O   UNL     1      26.327  22.907  47.955  1.00  0.00    -0.507 OA
ATOM     21  H   UNL     1      26.374  21.899  48.019  1.00  0.00     0.293 HD
ENDBRANCH  17  20
ENDBRANCH   1  12
BRANCH   2  22
ATOM     22  O   UNL     1      31.211  23.137  47.650  1.00  0.00    -0.502 OA
ATOM     23  H   UNL     1      32.186  22.863  47.656  1.00  0.00     0.293 HD
ENDBRANCH   2  22
BRANCH   6  24
ATOM     24  O   UNL     1      31.848  21.678  52.606  1.00  0.00    -0.507 OA
ATOM     25  H   UNL     1      32.234  21.519  53.530  1.00  0.00     0.293 HD
ENDBRANCH   6  24
BRANCH   8  26
ATOM     26  O   UNL     1      27.499  22.631  54.467  1.00  0.00    -0.508 OA
ATOM     27  H   UNL     1      27.354  23.467  55.019  1.00  0.00     0.293 HD
ENDBRANCH   8  26
TORSDOF 6
ENDMDL
MODEL 2
REMARK VINA RESULT:    -7.119      1.440      3.056
REMARK INTER + INTRA:          -8.561
REMARK INTER:                  -8.996
REMARK INTRA:                   0.435
REMARK UNBOUND:                 0.014
REMARK SMILES O=c1c(O)c(-c2ccc(O)cc2O)oc2cc(O)cc(O)c12
REMARK SMILES IDX 5 1 3 2 2 3 1 4 22 5 20 6 19 7 17 8 16 9 15 10 14 11 6 12
REMARK SMILES IDX 8 13 7 14 9 15 11 16 12 17 10 18 13 20 4 22 21 24 18 26
REMARK H PARENT 10 19 13 21 4 23 21 25 18 27
REMARK Flexibility Score: inf
ROOT
ATOM      1  C   UNL     1      27.939  23.401  49.081  1.00  0.00     0.184 A 
ATOM      2  C   UNL     1      26.901  22.606  49.596  1.00  0.00     0.208 A 
ATOM      3  C   UNL     1      26.969  22.185  50.934  1.00  0.00     0.238 A 
ATOM      4  O   UNL     1      26.042  21.473  51.407  1.00  0.00    -0.285 OA
ATOM      5  C   UNL     1      28.074  22.561  51.726  1.00  0.00     0.111 A 
ATOM      6  C   UNL     1      28.221  22.177  53.081  1.00  0.00     0.134 A 
ATOM      7  C   UNL     1      29.351  22.589  53.801  1.00  0.00     0.093 A 
ATOM      8  C   UNL     1      30.336  23.373  53.197  1.00  0.00     0.123 A 
ATOM      9  C   UNL     1      30.196  23.756  51.858  1.00  0.00     0.094 A 
ATOM     10  C   UNL     1      29.077  23.357  51.123  1.00  0.00     0.146 A 
ATOM     11  O   UNL     1      28.968  23.736  49.855  1.00  0.00    -0.451 OA
ENDROOT
BRANCH   1  12
ATOM     12  C   UNL     1      27.914  23.890  47.686  1.00  0.00     0.063 A 
ATOM     13  C   UNL     1      26.650  24.324  45.652  1.00  0.00     0.047 A 
ATOM     14  C   UNL     1      26.716  23.819  46.952  1.00  0.00     0.020 A 
ATOM     15  C   UNL     1      27.774  24.912  45.068  1.00  0.00     0.119 A 
ATOM     16  C   UNL     1      28.972  24.989  45.790  1.00  0.00     0.093 A 
ATOM     17  C   UNL     1      29.054  24.478  47.091  1.00  0.00     0.130 A 
BRANCH  15  18
ATOM     18  O   UNL     1      27.691  25.414  43.771  1.00  0.00    -0.508 OA
ATOM     19  H   UNL     1      27.373  26.359  43.589  1.00  0.00     0.293 HD
ENDBRANCH  15  18
BRANCH  17  20
ATOM     20  O   UNL     1      30.282  24.551  47.751  1.00  0.00    -0.507 OA
ATOM     21  H   UNL     1      30.553  23.909  48.485  1.00  0.00     0.293 HD
ENDBRANCH  17  20
ENDBRANCH   1  12
BRANCH   2  22
ATOM     22  O   UNL     1      25.833  22.233  48.777  1.00  0.00    -0.502 OA
ATOM     23  H   UNL     1      25.637  21.265  48.550  1.00  0.00     0.293 HD
ENDBRANCH   2  22
BRANCH   6  24
ATOM     24  O   UNL     1      27.255  21.393  53.713  1.00  0.00    -0.507 OA
ATOM     25  H   UNL     1      27.234  21.284  54.721  1.00  0.00     0.293 HD
ENDBRANCH   6  24
BRANCH   8  26
ATOM     26  O   UNL     1      31.449  23.769  53.935  1.00  0.00    -0.508 OA
ATOM     27  H   UNL     1      31.377  24.008  54.917  1.00  0.00     0.293 HD
ENDBRANCH   8  26
TORSDOF 6
ENDMDL
MODEL 3
REMARK VINA RESULT:    -7.069      1.641      6.971
REMARK INTER + INTRA:          -8.501
REMARK INTER:                  -8.184
REMARK INTRA:                  -0.316
REMARK UNBOUND:                 0.014
REMARK SMILES O=c1c(O)c(-c2ccc(O)cc2O)oc2cc(O)cc(O)c12
REMARK SMILES IDX 5 1 3 2 2 3 1 4 22 5 20 6 19 7 17 8 16 9 15 10 14 11 6 12
REMARK SMILES IDX 8 13 7 14 9 15 11 16 12 17 10 18 13 20 4 22 21 24 18 26
REMARK H PARENT 10 19 13 21 4 23 21 25 18 27
REMARK Flexibility Score: inf
ROOT
ATOM      1  C   UNL     1      29.293  23.140  50.215  1.00  0.00     0.184 A 
ATOM      2  C   UNL     1      27.925  22.904  49.993  1.00  0.00     0.208 A 
ATOM      3  C   UNL     1      27.366  23.269  48.758  1.00  0.00     0.238 A 
ATOM      4  O   UNL     1      26.141  23.059  48.546  1.00  0.00    -0.285 OA
ATOM      5  C   UNL     1      28.181  23.869  47.775  1.00  0.00     0.111 A 
ATOM      6  C   UNL     1      27.695  24.270  46.507  1.00  0.00     0.134 A 
ATOM      7  C   UNL     1      28.569  24.863  45.584  1.00  0.00     0.093 A 
ATOM      8  C   UNL     1      29.914  25.065  45.903  1.00  0.00     0.123 A 
ATOM      9  C   UNL     1      30.399  24.670  47.155  1.00  0.00     0.094 A 
ATOM     10  C   UNL     1      29.546  24.076  48.088  1.00  0.00     0.146 A 
ATOM     11  O   UNL     1      30.032  23.710  49.268  1.00  0.00    -0.451 OA
ENDROOT
BRANCH   1  12
ATOM     12  C   UNL     1      29.942  22.760  51.488  1.00  0.00     0.063 A 
ATOM     13  C   UNL     1      31.596  21.417  52.665  1.00  0.00     0.047 A 
ATOM     14  C   UNL     1      30.927  21.757  51.487  1.00  0.00     0.020 A 
ATOM     15  C   UNL     1      31.295  22.078  53.859  1.00  0.00     0.119 A 
ATOM     16  C   UNL     1      30.316  23.080  53.872  1.00  0.00     0.093 A 
ATOM     17  C   UNL     1      29.633  23.422  52.699  1.00  0.00     0.130 A 
BRANCH  15  18
ATOM     18  O   UNL     1      31.973  21.730  55.026  1.00  0.00    -0.508 OA
ATOM     19  H   UNL     1      31.712  20.914  55.566  1.00  0.00     0.293 HD
ENDBRANCH  15  18
BRANCH  17  20
ATOM     20  O   UNL     1      28.642  24.404  52.776  1.00  0.00    -0.507 OA
ATOM     21  H   UNL     1      28.460  24.939  53.615  1.00  0.00     0.293 HD
ENDBRANCH  17  20
ENDBRANCH   1  12
BRANCH   2  22
ATOM     22  O   UNL     1      27.142  22.328  50.996  1.00  0.00    -0.502 OA
ATOM     23  H   UNL     1      26.250  22.718  51.277  1.00  0.00     0.293 HD
ENDBRANCH   2  22
BRANCH   6  24
ATOM     24  O   UNL     1      26.357  24.083  46.159  1.00  0.00    -0.507 OA
ATOM     25  H   UNL     1      25.603  24.486  46.704  1.00  0.00     0.293 HD
ENDBRANCH   6  24
BRANCH   8  26
ATOM     26  O   UNL     1      30.761  25.656  44.968  1.00  0.00    -0.508 OA
ATOM     27  H   UNL     1      31.766  25.541  45.017  1.00  0.00     0.293 HD
ENDBRANCH   8  26
TORSDOF 6
ENDMDL
MODEL 4
REMARK VINA RESULT:    -6.675     12.858     15.616
REMARK INTER + INTRA:          -8.027
REMARK INTER:                  -7.611
REMARK INTRA:                  -0.416
REMARK UNBOUND:                 0.014
REMARK SMILES O=c1c(O)c(-c2ccc(O)cc2O)oc2cc(O)cc(O)c12
REMARK SMILES IDX 5 1 3 2 2 3 1 4 22 5 20 6 19 7 17 8 16 9 15 10 14 11 6 12
REMARK SMILES IDX 8 13 7 14 9 15 11 16 12 17 10 18 13 20 4 22 21 24 18 26
REMARK H PARENT 10 19 13 21 4 23 21 25 18 27
REMARK Flexibility Score: inf
ROOT
ATOM      1  C   UNL     1      16.322  28.873  52.050  1.00  0.00     0.184 A 
ATOM      2  C   UNL     1      15.005  28.969  52.533  1.00  0.00     0.208 A 
ATOM      3  C   UNL     1      13.949  28.546  51.711  1.00  0.00     0.238 A 
ATOM      4  O   UNL     1      12.763  28.625  52.135  1.00  0.00    -0.285 OA
ATOM      5  C   UNL     1      14.228  28.042  50.423  1.00  0.00     0.111 A 
ATOM      6  C   UNL     1      13.222  27.598  49.531  1.00  0.00     0.134 A 
ATOM      7  C   UNL     1      13.581  27.113  48.265  1.00  0.00     0.093 A 
ATOM      8  C   UNL     1      14.920  27.065  47.873  1.00  0.00     0.123 A 
ATOM      9  C   UNL     1      15.918  27.502  48.750  1.00  0.00     0.094 A 
ATOM     10  C   UNL     1      15.583  27.988  50.017  1.00  0.00     0.146 A 
ATOM     11  O   UNL     1      16.550  28.395  50.830  1.00  0.00    -0.451 OA
ENDROOT
BRANCH   1  12
ATOM     12  C   UNL     1      17.475  29.285  52.877  1.00  0.00     0.063 A 
ATOM     13  C   UNL     1      19.269  28.677  54.405  1.00  0.00     0.047 A 
ATOM     14  C   UNL     1      18.142  28.326  53.659  1.00  0.00     0.020 A 
ATOM     15  C   UNL     1      19.750  29.988  54.377  1.00  0.00     0.119 A 
ATOM     16  C   UNL     1      19.095  30.952  53.601  1.00  0.00     0.093 A 
ATOM     17  C   UNL     1      17.959  30.614  52.856  1.00  0.00     0.130 A 
BRANCH  15  18
ATOM     18  O   UNL     1      20.877  30.322  55.125  1.00  0.00    -0.508 OA
ATOM     19  H   UNL     1      21.502  29.612  55.487  1.00  0.00     0.293 HD
ENDBRANCH  15  18
BRANCH  17  20
ATOM     20  O   UNL     1      17.325  31.623  52.127  1.00  0.00    -0.507 OA
ATOM     21  H   UNL     1      17.748  32.525  51.949  1.00  0.00     0.293 HD
ENDBRANCH  17  20
ENDBRANCH   1  12
BRANCH   2  22
ATOM     22  O   UNL     1      14.762  29.494  53.804  1.00  0.00    -0.502 OA
ATOM     23  H   UNL     1      15.015  30.441  54.056  1.00  0.00     0.293 HD
ENDBRANCH   2  22
BRANCH   6  24
ATOM     24  O   UNL     1      11.875  27.633  49.893  1.00  0.00    -0.507 OA
ATOM     25  H   UNL     1      11.371  26.793  50.154  1.00  0.00     0.293 HD
ENDBRANCH   6  24
BRANCH   8  26
ATOM     26  O   UNL     1      15.249  26.578  46.609  1.00  0.00    -0.508 OA
ATOM     27  H   UNL     1      15.710  27.162  45.921  1.00  0.00     0.293 HD
ENDBRANCH   8  26
TORSDOF 6
ENDMDL
MODEL 5
REMARK VINA RESULT:    -6.563      1.349      6.338
REMARK INTER + INTRA:          -7.892
REMARK INTER:                  -7.637
REMARK INTRA:                  -0.255
REMARK UNBOUND:                 0.014
REMARK SMILES O=c1c(O)c(-c2ccc(O)cc2O)oc2cc(O)cc(O)c12
REMARK SMILES IDX 5 1 3 2 2 3 1 4 22 5 20 6 19 7 17 8 16 9 15 10 14 11 6 12
REMARK SMILES IDX 8 13 7 14 9 15 11 16 12 17 10 18 13 20 4 22 21 24 18 26
REMARK H PARENT 10 19 13 21 4 23 21 25 18 27
REMARK Flexibility Score: inf
ROOT
ATOM      1  C   UNL     1      28.973  23.624  49.644  1.00  0.00     0.184 A 
ATOM      2  C   UNL     1      30.280  23.679  49.128  1.00  0.00     0.208 A 
ATOM      3  C   UNL     1      30.468  24.101  47.803  1.00  0.00     0.238 A 
ATOM      4  O   UNL     1      31.636  24.157  47.330  1.00  0.00    -0.285 OA
ATOM      5  C   UNL     1      29.349  24.452  47.018  1.00  0.00     0.111 A 
ATOM      6  C   UNL     1      29.451  24.883  45.674  1.00  0.00     0.134 A 
ATOM      7  C   UNL     1      28.290  25.212  44.959  1.00  0.00     0.093 A 
ATOM      8  C   UNL     1      27.033  25.116  45.559  1.00  0.00     0.123 A 
ATOM      9  C   UNL     1      26.925  24.691  46.887  1.00  0.00     0.094 A 
ATOM     10  C   UNL     1      28.070  24.359  47.618  1.00  0.00     0.146 A 
ATOM     11  O   UNL     1      27.940  23.960  48.877  1.00  0.00    -0.451 OA
ENDROOT
BRANCH   1  12
ATOM     12  C   UNL     1      28.714  23.205  51.038  1.00  0.00     0.063 A 
ATOM     13  C   UNL     1      29.099  23.532  53.419  1.00  0.00     0.047 A 
ATOM     14  C   UNL     1      29.367  23.871  52.091  1.00  0.00     0.020 A 
ATOM     15  C   UNL     1      28.171  22.532  53.715  1.00  0.00     0.119 A 
ATOM     16  C   UNL     1      27.513  21.864  52.675  1.00  0.00     0.093 A 
ATOM     17  C   UNL     1      27.781  22.187  51.340  1.00  0.00     0.130 A 
BRANCH  15  18
ATOM     18  O   UNL     1      27.911  22.208  55.046  1.00  0.00    -0.508 OA
ATOM     19  H   UNL     1      27.699  21.258  55.328  1.00  0.00     0.293 HD
ENDBRANCH  15  18
BRANCH  17  20
ATOM     20  O   UNL     1      27.121  21.465  50.342  1.00  0.00    -0.507 OA
ATOM     21  H   UNL     1      27.227  21.664  49.356  1.00  0.00     0.293 HD
ENDBRANCH  17  20
ENDBRANCH   1  12
BRANCH   2  22
ATOM     22  O   UNL     1      31.363  23.302  49.925  1.00  0.00    -0.502 OA
ATOM     23  H   UNL     1      31.649  22.337  50.029  1.00  0.00     0.293 HD
ENDBRANCH   2  22
BRANCH   6  24
ATOM     24  O   UNL     1      30.693  24.989  45.047  1.00  0.00    -0.507 OA
ATOM     25  H   UNL     1      31.380  25.676  45.337  1.00  0.00     0.293 HD
ENDBRANCH   6  24
BRANCH   8  26
ATOM     26  O   UNL     1      25.895  25.449  44.827  1.00  0.00    -0.508 OA
ATOM     27  H   UNL     1      25.010  24.981  44.981  1.00  0.00     0.293 HD
ENDBRANCH   8  26
TORSDOF 6
ENDMDL
MODEL 6
REMARK VINA RESULT:    -6.213     11.615     13.242
REMARK INTER + INTRA:          -7.470
REMARK INTER:                  -7.125
REMARK INTRA:                  -0.346
REMARK UNBOUND:                 0.014
REMARK SMILES O=c1c(O)c(-c2ccc(O)cc2O)oc2cc(O)cc(O)c12
REMARK SMILES IDX 5 1 3 2 2 3 1 4 22 5 20 6 19 7 17 8 16 9 15 10 14 11 6 12
REMARK SMILES IDX 8 13 7 14 9 15 11 16 12 17 10 18 13 20 4 22 21 24 18 26
REMARK H PARENT 10 19 13 21 4 23 21 25 18 27
REMARK Flexibility Score: inf
ROOT
ATOM      1  C   UNL     1      16.442  26.864  51.541  1.00  0.00     0.184 A 
ATOM      2  C   UNL     1      17.222  27.694  52.365  1.00  0.00     0.208 A 
ATOM      3  C   UNL     1      18.191  27.108  53.194  1.00  0.00     0.238 A 
ATOM      4  O   UNL     1      18.899  27.843  53.935  1.00  0.00    -0.285 OA
ATOM      5  C   UNL     1      18.357  25.707  53.189  1.00  0.00     0.111 A 
ATOM      6  C   UNL     1      19.308  25.038  53.996  1.00  0.00     0.134 A 
ATOM      7  C   UNL     1      19.410  23.640  53.936  1.00  0.00     0.093 A 
ATOM      8  C   UNL     1      18.581  22.900  53.090  1.00  0.00     0.123 A 
ATOM      9  C   UNL     1      17.640  23.557  52.290  1.00  0.00     0.094 A 
ATOM     10  C   UNL     1      17.523  24.949  52.333  1.00  0.00     0.146 A 
ATOM     11  O   UNL     1      16.622  25.546  51.562  1.00  0.00    -0.451 OA
ENDROOT
BRANCH   1  12
ATOM     12  C   UNL     1      15.418  27.424  50.634  1.00  0.00     0.063 A 
ATOM     13  C   UNL     1      14.660  27.861  48.362  1.00  0.00     0.047 A 
ATOM     14  C   UNL     1      15.634  27.389  49.244  1.00  0.00     0.020 A 
ATOM     15  C   UNL     1      13.455  28.367  48.853  1.00  0.00     0.119 A 
ATOM     16  C   UNL     1      13.227  28.406  50.234  1.00  0.00     0.093 A 
ATOM     17  C   UNL     1      14.200  27.945  51.129  1.00  0.00     0.130 A 
BRANCH  15  18
ATOM     18  O   UNL     1      12.490  28.831  47.960  1.00  0.00    -0.508 OA
ATOM     19  H   UNL     1      11.710  28.250  47.674  1.00  0.00     0.293 HD
ENDBRANCH  15  18
BRANCH  17  20
ATOM     20  O   UNL     1      13.935  28.039  52.497  1.00  0.00    -0.507 OA
ATOM     21  H   UNL     1      13.831  27.230  53.096  1.00  0.00     0.293 HD
ENDBRANCH  17  20
ENDBRANCH   1  12
BRANCH   2  22
ATOM     22  O   UNL     1      17.016  29.075  52.362  1.00  0.00    -0.502 OA
ATOM     23  H   UNL     1      17.766  29.733  52.190  1.00  0.00     0.293 HD
ENDBRANCH   2  22
BRANCH   6  24
ATOM     24  O   UNL     1      20.150  25.748  54.852  1.00  0.00    -0.507 OA
ATOM     25  H   UNL     1      20.907  26.323  54.499  1.00  0.00     0.293 HD
ENDBRANCH   6  24
BRANCH   8  26
ATOM     26  O   UNL     1      18.702  21.513  53.049  1.00  0.00    -0.508 OA
ATOM     27  H   UNL     1      19.224  21.048  52.316  1.00  0.00     0.293 HD
ENDBRANCH   8  26
TORSDOF 6
ENDMDL
MODEL 7
REMARK VINA RESULT:    -6.008     13.622     16.080
REMARK INTER + INTRA:          -7.223
REMARK INTER:                  -7.089
REMARK INTRA:                  -0.135
REMARK UNBOUND:                 0.014
REMARK SMILES O=c1c(O)c(-c2ccc(O)cc2O)oc2cc(O)cc(O)c12
REMARK SMILES IDX 5 1 3 2 2 3 1 4 22 5 20 6 19 7 17 8 16 9 15 10 14 11 6 12
REMARK SMILES IDX 8 13 7 14 9 15 11 16 12 17 10 18 13 20 4 22 21 24 18 26
REMARK H PARENT 10 19 13 21 4 23 21 25 18 27
REMARK Flexibility Score: inf
ROOT
ATOM      1  C   UNL     1      15.730  21.774  43.233  1.00  0.00     0.184 A 
ATOM      2  C   UNL     1      17.088  21.992  42.942  1.00  0.00     0.208 A 
ATOM      3  C   UNL     1      17.433  23.011  42.041  1.00  0.00     0.238 A 
ATOM      4  O   UNL     1      18.649  23.218  41.775  1.00  0.00    -0.285 OA
ATOM      5  C   UNL     1      16.417  23.786  41.444  1.00  0.00     0.111 A 
ATOM      6  C   UNL     1      16.679  24.829  40.523  1.00  0.00     0.134 A 
ATOM      7  C   UNL     1      15.612  25.552  39.970  1.00  0.00     0.093 A 
ATOM      8  C   UNL     1      14.293  25.254  40.316  1.00  0.00     0.123 A 
ATOM      9  C   UNL     1      14.028  24.224  41.226  1.00  0.00     0.094 A 
ATOM     10  C   UNL     1      15.076  23.492  41.789  1.00  0.00     0.146 A 
ATOM     11  O   UNL     1      14.797  22.521  42.651  1.00  0.00    -0.451 OA
ENDROOT
BRANCH   1  12
ATOM     12  C   UNL     1      15.307  20.728  44.188  1.00  0.00     0.063 A 
ATOM     13  C   UNL     1      15.509  18.443  45.002  1.00  0.00     0.047 A 
ATOM     14  C   UNL     1      15.849  19.435  44.080  1.00  0.00     0.020 A 
ATOM     15  C   UNL     1      14.629  18.729  46.048  1.00  0.00     0.119 A 
ATOM     16  C   UNL     1      14.083  20.013  46.167  1.00  0.00     0.093 A 
ATOM     17  C   UNL     1      14.409  21.013  45.243  1.00  0.00     0.130 A 
BRANCH  15  18
ATOM     18  O   UNL     1      14.301  17.730  46.963  1.00  0.00    -0.508 OA
ATOM     19  H   UNL     1      14.951  17.439  47.684  1.00  0.00     0.293 HD
ENDBRANCH  15  18
BRANCH  17  20
ATOM     20  O   UNL     1      13.809  22.266  45.389  1.00  0.00    -0.507 OA
ATOM     21  H   UNL     1      13.641  22.696  46.289  1.00  0.00     0.293 HD
ENDBRANCH  17  20
ENDBRANCH   1  12
BRANCH   2  22
ATOM     22  O   UNL     1      18.068  21.191  43.534  1.00  0.00    -0.502 OA
ATOM     23  H   UNL     1      18.014  20.180  43.533  1.00  0.00     0.293 HD
ENDBRANCH   2  22
BRANCH   6  24
ATOM     24  O   UNL     1      17.986  25.151  40.157  1.00  0.00    -0.507 OA
ATOM     25  H   UNL     1      18.495  24.611  39.466  1.00  0.00     0.293 HD
ENDBRANCH   6  24
BRANCH   8  26
ATOM     26  O   UNL     1      13.251  25.987  39.752  1.00  0.00    -0.508 OA
ATOM     27  H   UNL     1      12.671  25.604  39.016  1.00  0.00     0.293 HD
ENDBRANCH   8  26
TORSDOF 6
ENDMDL
MODEL 8
REMARK VINA RESULT:    -5.982     12.619     14.243
REMARK INTER + INTRA:          -7.192
REMARK INTER:                  -6.830
REMARK INTRA:                  -0.362
REMARK UNBOUND:                 0.014
REMARK SMILES O=c1c(O)c(-c2ccc(O)cc2O)oc2cc(O)cc(O)c12
REMARK SMILES IDX 5 1 3 2 2 3 1 4 22 5 20 6 19 7 17 8 16 9 15 10 14 11 6 12
REMARK SMILES IDX 8 13 7 14 9 15 11 16 12 17 10 18 13 20 4 22 21 24 18 26
REMARK H PARENT 10 19 13 21 4 23 21 25 18 27
REMARK Flexibility Score: inf
ROOT
ATOM      1  C   UNL     1      15.738  27.885  51.050  1.00  0.00     0.184 A 
ATOM      2  C   UNL     1      16.252  26.633  51.431  1.00  0.00     0.208 A 
ATOM      3  C   UNL     1      17.197  26.573  52.466  1.00  0.00     0.238 A 
ATOM      4  O   UNL     1      17.662  25.455  52.818  1.00  0.00    -0.285 OA
ATOM      5  C   UNL     1      17.616  27.764  53.095  1.00  0.00     0.111 A 
ATOM      6  C   UNL     1      18.567  27.793  54.144  1.00  0.00     0.134 A 
ATOM      7  C   UNL     1      18.934  29.019  54.716  1.00  0.00     0.093 A 
ATOM      8  C   UNL     1      18.373  30.215  54.262  1.00  0.00     0.123 A 
ATOM      9  C   UNL     1      17.433  30.193  53.227  1.00  0.00     0.094 A 
ATOM     10  C   UNL     1      17.052  28.982  52.643  1.00  0.00     0.146 A 
ATOM     11  O   UNL     1      16.156  28.989  51.663  1.00  0.00    -0.451 OA
ENDROOT
BRANCH   1  12
ATOM     12  C   UNL     1      14.727  28.009  49.980  1.00  0.00     0.063 A 
ATOM     13  C   UNL     1      14.138  27.769  47.630  1.00  0.00     0.047 A 
ATOM     14  C   UNL     1      15.088  27.714  48.653  1.00  0.00     0.020 A 
ATOM     15  C   UNL     1      12.815  28.112  47.918  1.00  0.00     0.119 A 
ATOM     16  C   UNL     1      12.444  28.405  49.236  1.00  0.00     0.093 A 
ATOM     17  C   UNL     1      13.388  28.363  50.268  1.00  0.00     0.130 A 
BRANCH  15  18
ATOM     18  O   UNL     1      11.878  28.158  46.887  1.00  0.00    -0.508 OA
ATOM     19  H   UNL     1      10.889  28.278  47.076  1.00  0.00     0.293 HD
ENDBRANCH  15  18
BRANCH  17  20
ATOM     20  O   UNL     1      12.971  28.699  51.558  1.00  0.00    -0.507 OA
ATOM     21  H   UNL     1      11.999  28.835  51.805  1.00  0.00     0.293 HD
ENDBRANCH  17  20
ENDBRANCH   1  12
BRANCH   2  22
ATOM     22  O   UNL     1      15.832  25.475  50.771  1.00  0.00    -0.502 OA
ATOM     23  H   UNL     1      16.128  24.551  51.060  1.00  0.00     0.293 HD
ENDBRANCH   2  22
BRANCH   6  24
ATOM     24  O   UNL     1      19.146  26.616  54.619  1.00  0.00    -0.507 OA
ATOM     25  H   UNL     1      19.763  26.613  55.424  1.00  0.00     0.293 HD
ENDBRANCH   6  24
BRANCH   8  26
ATOM     26  O   UNL     1      18.755  31.420  54.848  1.00  0.00    -0.508 OA
ATOM     27  H   UNL     1      18.120  31.949  55.433  1.00  0.00     0.293 HD
ENDBRANCH   8  26
TORSDOF 6
ENDMDL
MODEL 9
REMARK VINA RESULT:    -5.925     11.312     13.633
REMARK INTER + INTRA:          -7.123
REMARK INTER:                  -6.937
REMARK INTRA:                  -0.186
REMARK UNBOUND:                 0.014
REMARK SMILES O=c1c(O)c(-c2ccc(O)cc2O)oc2cc(O)cc(O)c12
REMARK SMILES IDX 5 1 3 2 2 3 1 4 22 5 20 6 19 7 17 8 16 9 15 10 14 11 6 12
REMARK SMILES IDX 8 13 7 14 9 15 11 16 12 17 10 18 13 20 4 22 21 24 18 26
REMARK H PARENT 10 19 13 21 4 23 21 25 18 27
REMARK Flexibility Score: inf
ROOT
ATOM      1  C   UNL     1      17.507  26.006  53.282  1.00  0.00     0.184 A 
ATOM      2  C   UNL     1      16.174  26.344  53.577  1.00  0.00     0.208 A 
ATOM      3  C   UNL     1      15.870  27.673  53.910  1.00  0.00     0.238 A 
ATOM      4  O   UNL     1      14.678  27.989  54.174  1.00  0.00    -0.285 OA
ATOM      5  C   UNL     1      16.901  28.635  53.949  1.00  0.00     0.111 A 
ATOM      6  C   UNL     1      16.681  29.994  54.279  1.00  0.00     0.134 A 
ATOM      7  C   UNL     1      17.761  30.888  54.298  1.00  0.00     0.093 A 
ATOM      8  C   UNL     1      19.053  30.453  53.998  1.00  0.00     0.123 A 
ATOM      9  C   UNL     1      19.278  29.111  53.671  1.00  0.00     0.094 A 
ATOM     10  C   UNL     1      18.215  28.204  53.645  1.00  0.00     0.146 A 
ATOM     11  O   UNL     1      18.456  26.936  53.330  1.00  0.00    -0.451 OA
ENDROOT
BRANCH   1  12
ATOM     12  C   UNL     1      17.884  24.628  52.906  1.00  0.00     0.063 A 
ATOM     13  C   UNL     1      17.526  22.679  51.492  1.00  0.00     0.047 A 
ATOM     14  C   UNL     1      17.156  23.961  51.905  1.00  0.00     0.020 A 
ATOM     15  C   UNL     1      18.631  22.047  52.067  1.00  0.00     0.119 A 
ATOM     16  C   UNL     1      19.366  22.702  53.063  1.00  0.00     0.093 A 
ATOM     17  C   UNL     1      18.999  23.983  53.493  1.00  0.00     0.130 A 
BRANCH  15  18
ATOM     18  O   UNL     1      18.990  20.770  51.642  1.00  0.00    -0.508 OA
ATOM     19  H   UNL     1      18.309  20.132  51.246  1.00  0.00     0.293 HD
ENDBRANCH  15  18
BRANCH  17  20
ATOM     20  O   UNL     1      19.746  24.575  54.514  1.00  0.00    -0.507 OA
ATOM     21  H   UNL     1      19.839  25.577  54.619  1.00  0.00     0.293 HD
ENDBRANCH  17  20
ENDBRANCH   1  12
BRANCH   2  22
ATOM     22  O   UNL     1      15.181  25.363  53.551  1.00  0.00    -0.502 OA
ATOM     23  H   UNL     1      15.071  24.685  54.295  1.00  0.00     0.293 HD
ENDBRANCH   2  22
BRANCH   6  24
ATOM     24  O   UNL     1      15.402  30.460  54.584  1.00  0.00    -0.507 OA
ATOM     25  H   UNL     1      14.904  30.148  55.410  1.00  0.00     0.293 HD
ENDBRANCH   6  24
BRANCH   8  26
ATOM     26  O   UNL     1      20.109  31.363  54.025  1.00  0.00    -0.508 OA
ATOM     27  H   UNL     1      20.915  31.256  53.422  1.00  0.00     0.293 HD
ENDBRANCH   8  26
TORSDOF 6
ENDMDL
