MODEL 1
REMARK VINA RESULT:    -5.104      0.000      0.000
REMARK INTER + INTRA:          -6.415
REMARK INTER:                  -6.149
REMARK INTRA:                  -0.267
REMARK UNBOUND:                -0.267
REMARK SMILES NC(=O)C[C@H]([NH3+])C(=O)[O-]
REMARK SMILES IDX 4 1 5 2 6 3 7 7 8 8 9 9 2 10 3 11 1 12
REMARK H PARENT 6 4 6 5 6 6 1 13 1 14
REMARK Flexibility Score: inf
ROOT
ATOM      1  C   UNL     1      -8.750  -2.914  63.563  1.00  0.00     0.171 C 
ENDROOT
BRANCH   1   2
ATOM      2  C   UNL     1      -8.594  -1.410  63.251  1.00  0.00     0.237 C 
BRANCH   2   3
ATOM      3  N   UNL     1      -7.999  -0.675  64.375  1.00  0.00    -0.350 N 
ATOM      4  H   UNL     1      -7.939  -1.300  65.211  1.00  0.00     0.345 HD
ATOM      5  H   UNL     1      -7.038  -0.335  64.139  1.00  0.00     0.345 HD
ATOM      6  H   UNL     1      -8.601   0.144  64.622  1.00  0.00     0.345 HD
ENDBRANCH   2   3
BRANCH   2   7
ATOM      7  C   UNL     1      -9.904  -0.796  62.825  1.00  0.00     0.100 C 
ATOM      8  O   UNL     1     -10.998  -1.250  63.252  1.00  0.00    -0.544 OA
ATOM      9  O   UNL     1      -9.910   0.250  61.910  1.00  0.00    -0.544 OA
ENDBRANCH   2   7
ENDBRANCH   1   2
BRANCH   1  10
ATOM     10  C   UNL     1      -7.455  -3.580  63.939  1.00  0.00     0.223 C 
ATOM     11  O   UNL     1      -7.032  -3.501  65.124  1.00  0.00    -0.275 OA
ATOM     12  N   UNL     1      -6.691  -4.283  62.961  1.00  0.00    -0.369 N 
ATOM     13  H   UNL     1      -7.021  -4.351  61.972  1.00  0.00     0.159 HD
ATOM     14  H   UNL     1      -5.786  -4.735  63.223  1.00  0.00     0.159 HD
ENDBRANCH   1  10
TORSDOF 4
ENDMDL
MODEL 2
REMARK VINA RESULT:    -4.632      1.893      1.926
REMARK INTER + INTRA:          -5.846
REMARK INTER:                  -5.608
REMARK INTRA:                  -0.238
REMARK UNBOUND:                -0.267
REMARK SMILES NC(=O)C[C@H]([NH3+])C(=O)[O-]
REMARK SMILES IDX 4 1 5 2 6 3 7 7 8 8 9 9 2 10 3 11 1 12
REMARK H PARENT 6 4 6 5 6 6 1 13 1 14
REMARK Flexibility Score: inf
ROOT
ATOM      1  C   UNL     1      -8.433  -2.086  63.178  1.00  0.00     0.171 C 
ENDROOT
BRANCH   1   2
ATOM      2  C   UNL     1      -9.971  -1.957  63.217  1.00  0.00     0.237 C 
BRANCH   2   3
ATOM      3  N   UNL     1     -10.637  -3.203  62.814  1.00  0.00    -0.350 N 
ATOM      4  H   UNL     1     -11.223  -3.560  63.603  1.00  0.00     0.345 HD
ATOM      5  H   UNL     1     -11.250  -3.052  61.980  1.00  0.00     0.345 HD
ATOM      6  H   UNL     1      -9.920  -3.930  62.584  1.00  0.00     0.345 HD
ENDBRANCH   2   3
BRANCH   2   7
ATOM      7  C   UNL     1     -10.448  -0.788  62.393  1.00  0.00     0.100 C 
ATOM      8  O   UNL     1     -11.626  -0.751  61.947  1.00  0.00    -0.544 OA
ATOM      9  O   UNL     1      -9.566   0.238  62.075  1.00  0.00    -0.544 OA
ENDBRANCH   2   7
ENDBRANCH   1   2
BRANCH   1  10
ATOM     10  C   UNL     1      -7.924  -3.323  63.864  1.00  0.00     0.223 C 
ATOM     11  O   UNL     1      -8.143  -4.456  63.358  1.00  0.00    -0.275 OA
ATOM     12  N   UNL     1      -7.211  -3.226  65.097  1.00  0.00    -0.369 N 
ATOM     13  H   UNL     1      -7.027  -2.297  65.537  1.00  0.00     0.159 HD
ATOM     14  H   UNL     1      -6.868  -4.089  65.577  1.00  0.00     0.159 HD
ENDBRANCH   1  10
TORSDOF 4
ENDMDL
MODEL 3
REMARK VINA RESULT:    -4.503      1.676      3.581
REMARK INTER + INTRA:          -5.691
REMARK INTER:                  -5.585
REMARK INTRA:                  -0.106
REMARK UNBOUND:                -0.267
REMARK SMILES NC(=O)C[C@H]([NH3+])C(=O)[O-]
REMARK SMILES IDX 4 1 5 2 6 3 7 7 8 8 9 9 2 10 3 11 1 12
REMARK H PARENT 6 4 6 5 6 6 1 13 1 14
REMARK Flexibility Score: inf
ROOT
ATOM      1  C   UNL     1      -8.233  -1.787  62.908  1.00  0.00     0.171 C 
ENDROOT
BRANCH   1   2
ATOM      2  C   UNL     1      -8.386  -3.038  63.800  1.00  0.00     0.237 C 
BRANCH   2   3
ATOM      3  N   UNL     1      -7.110  -3.741  63.982  1.00  0.00    -0.350 N 
ATOM      4  H   UNL     1      -7.134  -4.290  64.872  1.00  0.00     0.345 HD
ATOM      5  H   UNL     1      -6.921  -4.395  63.187  1.00  0.00     0.345 HD
ATOM      6  H   UNL     1      -6.329  -3.048  64.047  1.00  0.00     0.345 HD
ENDBRANCH   2   3
BRANCH   2   7
ATOM      7  C   UNL     1      -9.454  -3.963  63.275  1.00  0.00     0.100 C 
ATOM      8  O   UNL     1      -9.206  -5.181  63.065  1.00  0.00    -0.544 OA
ATOM      9  O   UNL     1     -10.713  -3.461  62.969  1.00  0.00    -0.544 OA
ENDBRANCH   2   7
ENDBRANCH   1   2
BRANCH   1  10
ATOM     10  C   UNL     1      -8.489  -0.499  63.642  1.00  0.00     0.223 C 
ATOM     11  O   UNL     1      -9.412   0.267  63.259  1.00  0.00    -0.275 OA
ATOM     12  N   UNL     1      -7.678  -0.128  64.757  1.00  0.00    -0.369 N 
ATOM     13  H   UNL     1      -6.903  -0.747  65.084  1.00  0.00     0.159 HD
ATOM     14  H   UNL     1      -7.852   0.772  65.258  1.00  0.00     0.159 HD
ENDBRANCH   1  10
TORSDOF 4
ENDMDL
MODEL 4
REMARK VINA RESULT:    -4.490      1.746      4.110
REMARK INTER + INTRA:          -5.676
REMARK INTER:                  -5.734
REMARK INTRA:                   0.059
REMARK UNBOUND:                -0.267
REMARK SMILES NC(=O)C[C@H]([NH3+])C(=O)[O-]
REMARK SMILES IDX 4 1 5 2 6 3 7 7 8 8 9 9 2 10 3 11 1 12
REMARK H PARENT 6 4 6 5 6 6 1 13 1 14
REMARK Flexibility Score: inf
ROOT
ATOM      1  C   UNL     1      -8.264  -2.314  62.983  1.00  0.00     0.171 C 
ENDROOT
BRANCH   1   2
ATOM      2  C   UNL     1      -7.988  -3.427  64.016  1.00  0.00     0.237 C 
BRANCH   2   3
ATOM      3  N   UNL     1      -7.144  -2.953  65.122  1.00  0.00    -0.350 N 
ATOM      4  H   UNL     1      -6.514  -2.192  64.782  1.00  0.00     0.345 HD
ATOM      5  H   UNL     1      -7.725  -2.584  65.910  1.00  0.00     0.345 HD
ATOM      6  H   UNL     1      -6.549  -3.738  65.475  1.00  0.00     0.345 HD
ENDBRANCH   2   3
BRANCH   2   7
ATOM      7  C   UNL     1      -7.401  -4.653  63.364  1.00  0.00     0.100 C 
ATOM      8  O   UNL     1      -8.133  -5.459  62.728  1.00  0.00    -0.544 OA
ATOM      9  O   UNL     1      -6.047  -4.930  63.507  1.00  0.00    -0.544 OA
ENDBRANCH   2   7
ENDBRANCH   1   2
BRANCH   1  10
ATOM     10  C   UNL     1      -8.863  -1.076  63.590  1.00  0.00     0.223 C 
ATOM     11  O   UNL     1     -10.115  -0.944  63.640  1.00  0.00    -0.275 OA
ATOM     12  N   UNL     1      -8.023  -0.036  64.093  1.00  0.00    -0.369 N 
ATOM     13  H   UNL     1      -6.983  -0.123  64.052  1.00  0.00     0.159 HD
ATOM     14  H   UNL     1      -8.443   0.828  64.504  1.00  0.00     0.159 HD
ENDBRANCH   1  10
TORSDOF 4
ENDMDL
MODEL 5
REMARK VINA RESULT:    -4.128      1.702      1.734
REMARK INTER + INTRA:          -5.239
REMARK INTER:                  -5.021
REMARK INTRA:                  -0.217
REMARK UNBOUND:                -0.267
REMARK SMILES NC(=O)C[C@H]([NH3+])C(=O)[O-]
REMARK SMILES IDX 4 1 5 2 6 3 7 7 8 8 9 9 2 10 3 11 1 12
REMARK H PARENT 6 4 6 5 6 6 1 13 1 14
REMARK Flexibility Score: inf
ROOT
ATOM      1  C   UNL     1      -9.735  -3.721  63.254  1.00  0.00     0.171 C 
ENDROOT
BRANCH   1   2
ATOM      2  C   UNL     1      -8.888  -2.430  63.287  1.00  0.00     0.237 C 
BRANCH   2   3
ATOM      3  N   UNL     1      -7.943  -2.423  64.411  1.00  0.00    -0.350 N 
ATOM      4  H   UNL     1      -7.310  -1.594  64.334  1.00  0.00     0.345 HD
ATOM      5  H   UNL     1      -8.445  -2.379  65.328  1.00  0.00     0.345 HD
ATOM      6  H   UNL     1      -7.354  -3.287  64.385  1.00  0.00     0.345 HD
ENDBRANCH   2   3
BRANCH   2   7
ATOM      7  C   UNL     1      -9.759  -1.199  63.293  1.00  0.00     0.100 C 
ATOM      8  O   UNL     1     -11.014  -1.296  63.244  1.00  0.00    -0.544 OA
ATOM      9  O   UNL     1      -9.172   0.061  63.300  1.00  0.00    -0.544 OA
ENDBRANCH   2   7
ENDBRANCH   1   2
BRANCH   1  10
ATOM     10  C   UNL     1      -8.905  -4.974  63.223  1.00  0.00     0.223 C 
ATOM     11  O   UNL     1      -8.087  -5.207  64.152  1.00  0.00    -0.275 OA
ATOM     12  N   UNL     1      -9.021  -5.894  62.137  1.00  0.00    -0.369 N 
ATOM     13  H   UNL     1      -9.687  -5.714  61.353  1.00  0.00     0.159 HD
ATOM     14  H   UNL     1      -8.435  -6.759  62.114  1.00  0.00     0.159 HD
ENDBRANCH   1  10
TORSDOF 4
ENDMDL
MODEL 6
REMARK VINA RESULT:    -4.067      7.485      8.254
REMARK INTER + INTRA:          -5.166
REMARK INTER:                  -4.908
REMARK INTRA:                  -0.258
REMARK UNBOUND:                -0.267
REMARK SMILES NC(=O)C[C@H]([NH3+])C(=O)[O-]
REMARK SMILES IDX 4 1 5 2 6 3 7 7 8 8 9 9 2 10 3 11 1 12
REMARK H PARENT 6 4 6 5 6 6 1 13 1 14
REMARK Flexibility Score: inf
ROOT
ATOM      1  C   UNL     1     -12.088  -3.521  57.292  1.00  0.00     0.171 C 
ENDROOT
BRANCH   1   2
ATOM      2  C   UNL     1     -12.507  -2.242  56.536  1.00  0.00     0.237 C 
BRANCH   2   3
ATOM      3  N   UNL     1     -13.949  -2.216  56.257  1.00  0.00    -0.350 N 
ATOM      4  H   UNL     1     -14.217  -1.280  55.877  1.00  0.00     0.345 HD
ATOM      5  H   UNL     1     -14.213  -2.951  55.561  1.00  0.00     0.345 HD
ATOM      6  H   UNL     1     -14.484  -2.375  57.142  1.00  0.00     0.345 HD
ENDBRANCH   2   3
BRANCH   2   7
ATOM      7  C   UNL     1     -11.700  -2.056  55.276  1.00  0.00     0.100 C 
ATOM      8  O   UNL     1     -10.606  -2.660  55.115  1.00  0.00    -0.544 OA
ATOM      9  O   UNL     1     -12.139  -1.168  54.301  1.00  0.00    -0.544 OA
ENDBRANCH   2   7
ENDBRANCH   1   2
BRANCH   1  10
ATOM     10  C   UNL     1     -12.959  -3.820  58.480  1.00  0.00     0.223 C 
ATOM     11  O   UNL     1     -13.908  -4.642  58.371  1.00  0.00    -0.275 OA
ATOM     12  N   UNL     1     -12.733  -3.165  59.728  1.00  0.00    -0.369 N 
ATOM     13  H   UNL     1     -11.956  -2.475  59.836  1.00  0.00     0.159 HD
ATOM     14  H   UNL     1     -13.347  -3.368  60.549  1.00  0.00     0.159 HD
ENDBRANCH   1  10
TORSDOF 4
ENDMDL
MODEL 7
REMARK VINA RESULT:    -4.020      8.005      9.194
REMARK INTER + INTRA:          -5.109
REMARK INTER:                  -4.683
REMARK INTRA:                  -0.425
REMARK UNBOUND:                -0.267
REMARK SMILES NC(=O)C[C@H]([NH3+])C(=O)[O-]
REMARK SMILES IDX 4 1 5 2 6 3 7 7 8 8 9 9 2 10 3 11 1 12
REMARK H PARENT 6 4 6 5 6 6 1 13 1 14
REMARK Flexibility Score: inf
ROOT
ATOM      1  C   UNL     1     -12.295  -1.490  56.485  1.00  0.00     0.171 C 
ENDROOT
BRANCH   1   2
ATOM      2  C   UNL     1     -11.466  -2.786  56.354  1.00  0.00     0.237 C 
BRANCH   2   3
ATOM      3  N   UNL     1     -11.333  -3.214  54.955  1.00  0.00    -0.350 N 
ATOM      4  H   UNL     1     -10.368  -3.580  54.790  1.00  0.00     0.345 HD
ATOM      5  H   UNL     1     -12.024  -3.965  54.722  1.00  0.00     0.345 HD
ATOM      6  H   UNL     1     -11.488  -2.399  54.319  1.00  0.00     0.345 HD
ENDBRANCH   2   3
BRANCH   2   7
ATOM      7  C   UNL     1     -12.027  -3.889  57.216  1.00  0.00     0.100 C 
ATOM      8  O   UNL     1     -13.226  -3.861  57.600  1.00  0.00    -0.544 OA
ATOM      9  O   UNL     1     -11.200  -4.924  57.637  1.00  0.00    -0.544 OA
ENDBRANCH   2   7
ENDBRANCH   1   2
BRANCH   1  10
ATOM     10  C   UNL     1     -13.363  -1.360  55.435  1.00  0.00     0.223 C 
ATOM     11  O   UNL     1     -13.054  -0.998  54.268  1.00  0.00    -0.275 OA
ATOM     12  N   UNL     1     -14.729  -1.625  55.754  1.00  0.00    -0.369 N 
ATOM     13  H   UNL     1     -15.005  -1.918  56.718  1.00  0.00     0.159 HD
ATOM     14  H   UNL     1     -15.470  -1.523  55.025  1.00  0.00     0.159 HD
ENDBRANCH   1  10
TORSDOF 4
ENDMDL
MODEL 8
REMARK VINA RESULT:    -3.972      8.405      9.228
REMARK INTER + INTRA:          -5.051
REMARK INTER:                  -4.828
REMARK INTRA:                  -0.223
REMARK UNBOUND:                -0.267
REMARK SMILES NC(=O)C[C@H]([NH3+])C(=O)[O-]
REMARK SMILES IDX 4 1 5 2 6 3 7 7 8 8 9 9 2 10 3 11 1 12
REMARK H PARENT 6 4 6 5 6 6 1 13 1 14
REMARK Flexibility Score: inf
ROOT
ATOM      1  C   UNL     1     -12.618  -2.340  55.964  1.00  0.00     0.171 C 
ENDROOT
BRANCH   1   2
ATOM      2  C   UNL     1     -11.750  -2.588  54.711  1.00  0.00     0.237 C 
BRANCH   2   3
ATOM      3  N   UNL     1     -10.316  -2.448  55.001  1.00  0.00    -0.350 N 
ATOM      4  H   UNL     1     -10.080  -2.976  55.872  1.00  0.00     0.345 HD
ATOM      5  H   UNL     1      -9.733  -2.816  54.214  1.00  0.00     0.345 HD
ATOM      6  H   UNL     1     -10.082  -1.440  55.157  1.00  0.00     0.345 HD
ENDBRANCH   2   3
BRANCH   2   7
ATOM      7  C   UNL     1     -12.167  -1.701  53.565  1.00  0.00     0.100 C 
ATOM      8  O   UNL     1     -11.739  -1.910  52.399  1.00  0.00    -0.544 OA
ATOM      9  O   UNL     1     -12.994  -0.609  53.804  1.00  0.00    -0.544 OA
ENDBRANCH   2   7
ENDBRANCH   1   2
BRANCH   1  10
ATOM     10  C   UNL     1     -12.415  -3.369  57.040  1.00  0.00     0.223 C 
ATOM     11  O   UNL     1     -11.365  -4.066  57.051  1.00  0.00    -0.275 OA
ATOM     12  N   UNL     1     -13.412  -3.579  58.039  1.00  0.00    -0.369 N 
ATOM     13  H   UNL     1     -14.293  -3.018  58.042  1.00  0.00     0.159 HD
ATOM     14  H   UNL     1     -13.273  -4.303  58.780  1.00  0.00     0.159 HD
ENDBRANCH   1  10
TORSDOF 4
ENDMDL
MODEL 9
REMARK VINA RESULT:    -3.856      7.880      8.897
REMARK INTER + INTRA:          -4.912
REMARK INTER:                  -4.652
REMARK INTRA:                  -0.260
REMARK UNBOUND:                -0.267
REMARK SMILES NC(=O)C[C@H]([NH3+])C(=O)[O-]
REMARK SMILES IDX 4 1 5 2 6 3 7 7 8 8 9 9 2 10 3 11 1 12
REMARK H PARENT 6 4 6 5 6 6 1 13 1 14
REMARK Flexibility Score: inf
ROOT
ATOM      1  C   UNL     1     -11.402  -2.733  55.686  1.00  0.00     0.171 C 
ENDROOT
BRANCH   1   2
ATOM      2  C   UNL     1     -12.508  -2.820  56.760  1.00  0.00     0.237 C 
BRANCH   2   3
ATOM      3  N   UNL     1     -12.586  -1.595  57.567  1.00  0.00    -0.350 N 
ATOM      4  H   UNL     1     -13.045  -0.837  57.013  1.00  0.00     0.345 HD
ATOM      5  H   UNL     1     -13.135  -1.753  58.443  1.00  0.00     0.345 HD
ATOM      6  H   UNL     1     -11.622  -1.276  57.821  1.00  0.00     0.345 HD
ENDBRANCH   2   3
BRANCH   2   7
ATOM      7  C   UNL     1     -12.340  -4.041  57.628  1.00  0.00     0.100 C 
ATOM      8  O   UNL     1     -11.275  -4.714  57.596  1.00  0.00    -0.544 OA
ATOM      9  O   UNL     1     -13.388  -4.462  58.437  1.00  0.00    -0.544 OA
ENDBRANCH   2   7
ENDBRANCH   1   2
BRANCH   1  10
ATOM     10  C   UNL     1     -11.824  -1.972  54.460  1.00  0.00     0.223 C 
ATOM     11  O   UNL     1     -12.524  -0.931  54.578  1.00  0.00    -0.275 OA
ATOM     12  N   UNL     1     -11.454  -2.430  53.159  1.00  0.00    -0.369 N 
ATOM     13  H   UNL     1     -10.881  -3.296  53.040  1.00  0.00     0.159 HD
ATOM     14  H   UNL     1     -11.758  -1.904  52.309  1.00  0.00     0.159 HD
ENDBRANCH   1  10
TORSDOF 4
ENDMDL
