MODEL 1
REMARK VINA RESULT:    -5.967      0.000      0.000
REMARK INTER + INTRA:          -5.967
REMARK INTER:                  -5.967
REMARK INTRA:                   0.000
REMARK UNBOUND:                 0.000
REMARK SMILES O=c1ccc2ccccc2o1
REMARK SMILES IDX 7 1 8 2 9 3 10 4 5 5 6 6 4 7 3 8 2 9 1 10 11 11
REMARK H PARENT
REMARK Flexibility Score: inf
ROOT
ATOM      1  C   UNL     1      48.926 -48.364 165.125  1.00  0.00     0.001 A 
ATOM      2  C   UNL     1      48.601 -47.085 164.663  1.00  0.00     0.004 A 
ATOM      3  C   UNL     1      49.567 -46.073 164.654  1.00  0.00     0.048 A 
ATOM      4  C   UNL     1      50.864 -46.339 165.106  1.00  0.00     0.138 A 
ATOM      5  C   UNL     1      51.193 -47.632 165.572  1.00  0.00     0.018 A 
ATOM      6  C   UNL     1      50.219 -48.642 165.580  1.00  0.00     0.012 A 
ATOM      7  C   UNL     1      52.497 -47.868 166.019  1.00  0.00     0.019 A 
ATOM      8  C   UNL     1      53.428 -46.830 165.991  1.00  0.00     0.094 A 
ATOM      9  C   UNL     1      53.031 -45.575 165.515  1.00  0.00     0.336 A 
ATOM     10  O   UNL     1      53.856 -44.626 165.483  1.00  0.00    -0.246 OA
ATOM     11  O   UNL     1      51.783 -45.377 165.097  1.00  0.00    -0.423 OA
ENDROOT
TORSDOF 0
ENDMDL
MODEL 2
REMARK VINA RESULT:    -5.857     11.604     13.867
REMARK INTER + INTRA:          -5.857
REMARK INTER:                  -5.857
REMARK INTRA:                   0.000
REMARK UNBOUND:                 0.000
REMARK SMILES O=c1ccc2ccccc2o1
REMARK SMILES IDX 7 1 8 2 9 3 10 4 5 5 6 6 4 7 3 8 2 9 1 10 11 11
REMARK H PARENT
REMARK Flexibility Score: inf
ROOT
ATOM      1  C   UNL     1      40.920 -48.753 162.981  1.00  0.00     0.001 A 
ATOM      2  C   UNL     1      41.152 -47.584 162.250  1.00  0.00     0.004 A 
ATOM      3  C   UNL     1      40.128 -47.019 161.482  1.00  0.00     0.048 A 
ATOM      4  C   UNL     1      38.867 -47.622 161.444  1.00  0.00     0.138 A 
ATOM      5  C   UNL     1      38.631 -48.804 162.182  1.00  0.00     0.018 A 
ATOM      6  C   UNL     1      39.663 -49.366 162.950  1.00  0.00     0.012 A 
ATOM      7  C   UNL     1      37.361 -49.385 162.125  1.00  0.00     0.019 A 
ATOM      8  C   UNL     1      36.371 -48.787 161.347  1.00  0.00     0.094 A 
ATOM      9  C   UNL     1      36.675 -47.617 160.642  1.00  0.00     0.336 A 
ATOM     10  O   UNL     1      35.794 -47.063 159.934  1.00  0.00    -0.246 OA
ATOM     11  O   UNL     1      37.893 -47.084 160.714  1.00  0.00    -0.423 OA
ENDROOT
TORSDOF 0
ENDMDL
MODEL 3
REMARK VINA RESULT:    -5.820      8.166     10.108
REMARK INTER + INTRA:          -5.820
REMARK INTER:                  -5.820
REMARK INTRA:                   0.000
REMARK UNBOUND:                 0.000
REMARK SMILES O=c1ccc2ccccc2o1
REMARK SMILES IDX 7 1 8 2 9 3 10 4 5 5 6 6 4 7 3 8 2 9 1 10 11 11
REMARK H PARENT
REMARK Flexibility Score: inf
ROOT
ATOM      1  C   UNL     1      38.971 -49.099 162.524  1.00  0.00     0.001 A 
ATOM      2  C   UNL     1      39.049 -47.998 161.665  1.00  0.00     0.004 A 
ATOM      3  C   UNL     1      40.249 -47.291 161.534  1.00  0.00     0.048 A 
ATOM      4  C   UNL     1      41.377 -47.684 162.262  1.00  0.00     0.138 A 
ATOM      5  C   UNL     1      41.299 -48.797 163.130  1.00  0.00     0.018 A 
ATOM      6  C   UNL     1      40.092 -49.502 163.257  1.00  0.00     0.012 A 
ATOM      7  C   UNL     1      42.442 -49.167 163.845  1.00  0.00     0.019 A 
ATOM      8  C   UNL     1      43.617 -48.434 163.683  1.00  0.00     0.094 A 
ATOM      9  C   UNL     1      43.621 -47.343 162.806  1.00  0.00     0.336 A 
ATOM     10  O   UNL     1      44.672 -46.669 162.647  1.00  0.00    -0.246 OA
ATOM     11  O   UNL     1      42.519 -47.012 162.138  1.00  0.00    -0.423 OA
ENDROOT
TORSDOF 0
ENDMDL
MODEL 4
REMARK VINA RESULT:    -5.812     11.444     13.790
REMARK INTER + INTRA:          -5.812
REMARK INTER:                  -5.812
REMARK INTRA:                   0.000
REMARK UNBOUND:                 0.000
REMARK SMILES O=c1ccc2ccccc2o1
REMARK SMILES IDX 7 1 8 2 9 3 10 4 5 5 6 6 4 7 3 8 2 9 1 10 11 11
REMARK H PARENT
REMARK Flexibility Score: inf
ROOT
ATOM      1  C   UNL     1      41.340 -47.684 162.319  1.00  0.00     0.001 A 
ATOM      2  C   UNL     1      41.309 -48.786 163.180  1.00  0.00     0.004 A 
ATOM      3  C   UNL     1      40.144 -49.551 163.302  1.00  0.00     0.048 A 
ATOM      4  C   UNL     1      39.005 -49.216 162.561  1.00  0.00     0.138 A 
ATOM      5  C   UNL     1      39.036 -48.103 161.691  1.00  0.00     0.018 A 
ATOM      6  C   UNL     1      40.208 -47.339 161.574  1.00  0.00     0.012 A 
ATOM      7  C   UNL     1      37.883 -47.792 160.965  1.00  0.00     0.019 A 
ATOM      8  C   UNL     1      36.745 -48.582 161.117  1.00  0.00     0.094 A 
ATOM      9  C   UNL     1      36.786 -49.670 161.997  1.00  0.00     0.336 A 
ATOM     10  O   UNL     1      35.769 -50.394 162.149  1.00  0.00    -0.246 OA
ATOM     11  O   UNL     1      37.897 -49.944 162.677  1.00  0.00    -0.423 OA
ENDROOT
TORSDOF 0
ENDMDL
MODEL 5
REMARK VINA RESULT:    -5.801      1.886      2.559
REMARK INTER + INTRA:          -5.801
REMARK INTER:                  -5.801
REMARK INTRA:                   0.000
REMARK UNBOUND:                 0.000
REMARK SMILES O=c1ccc2ccccc2o1
REMARK SMILES IDX 7 1 8 2 9 3 10 4 5 5 6 6 4 7 3 8 2 9 1 10 11 11
REMARK H PARENT
REMARK Flexibility Score: inf
ROOT
ATOM      1  C   UNL     1      49.196 -46.262 164.510  1.00  0.00     0.001 A 
ATOM      2  C   UNL     1      48.897 -47.606 164.753  1.00  0.00     0.004 A 
ATOM      3  C   UNL     1      49.853 -48.446 165.334  1.00  0.00     0.048 A 
ATOM      4  C   UNL     1      51.113 -47.943 165.675  1.00  0.00     0.138 A 
ATOM      5  C   UNL     1      51.416 -46.584 165.429  1.00  0.00     0.018 A 
ATOM      6  C   UNL     1      50.452 -45.747 164.846  1.00  0.00     0.012 A 
ATOM      7  C   UNL     1      52.683 -46.110 165.780  1.00  0.00     0.019 A 
ATOM      8  C   UNL     1      53.605 -46.983 166.356  1.00  0.00     0.094 A 
ATOM      9  C   UNL     1      53.236 -48.316 166.570  1.00  0.00     0.336 A 
ATOM     10  O   UNL     1      54.054 -49.119 167.089  1.00  0.00    -0.246 OA
ATOM     11  O   UNL     1      52.023 -48.742 166.227  1.00  0.00    -0.423 OA
ENDROOT
TORSDOF 0
ENDMDL
MODEL 6
REMARK VINA RESULT:    -5.788      7.034      9.085
REMARK INTER + INTRA:          -5.788
REMARK INTER:                  -5.788
REMARK INTRA:                   0.000
REMARK UNBOUND:                 0.000
REMARK SMILES O=c1ccc2ccccc2o1
REMARK SMILES IDX 7 1 8 2 9 3 10 4 5 5 6 6 4 7 3 8 2 9 1 10 11 11
REMARK H PARENT
REMARK Flexibility Score: inf
ROOT
ATOM      1  C   UNL     1      45.797 -46.481 164.195  1.00  0.00     0.001 A 
ATOM      2  C   UNL     1      45.571 -46.650 162.825  1.00  0.00     0.004 A 
ATOM      3  C   UNL     1      44.411 -47.290 162.376  1.00  0.00     0.048 A 
ATOM      4  C   UNL     1      43.470 -47.761 163.298  1.00  0.00     0.138 A 
ATOM      5  C   UNL     1      43.697 -47.591 164.682  1.00  0.00     0.018 A 
ATOM      6  C   UNL     1      44.864 -46.949 165.126  1.00  0.00     0.012 A 
ATOM      7  C   UNL     1      42.740 -48.073 165.580  1.00  0.00     0.019 A 
ATOM      8  C   UNL     1      41.598 -48.704 165.088  1.00  0.00     0.094 A 
ATOM      9  C   UNL     1      41.439 -48.837 163.704  1.00  0.00     0.336 A 
ATOM     10  O   UNL     1      40.415 -49.404 163.241  1.00  0.00    -0.246 OA
ATOM     11  O   UNL     1      42.366 -48.369 162.871  1.00  0.00    -0.423 OA
ENDROOT
TORSDOF 0
ENDMDL
MODEL 7
REMARK VINA RESULT:    -5.768      5.774      7.708
REMARK INTER + INTRA:          -5.768
REMARK INTER:                  -5.768
REMARK INTRA:                   0.000
REMARK UNBOUND:                 0.000
REMARK SMILES O=c1ccc2ccccc2o1
REMARK SMILES IDX 7 1 8 2 9 3 10 4 5 5 6 6 4 7 3 8 2 9 1 10 11 11
REMARK H PARENT
REMARK Flexibility Score: inf
ROOT
ATOM      1  C   UNL     1      41.458 -48.650 163.322  1.00  0.00     0.001 A 
ATOM      2  C   UNL     1      41.539 -48.768 164.713  1.00  0.00     0.004 A 
ATOM      3  C   UNL     1      42.644 -48.251 165.400  1.00  0.00     0.048 A 
ATOM      4  C   UNL     1      43.669 -47.612 164.696  1.00  0.00     0.138 A 
ATOM      5  C   UNL     1      43.588 -47.492 163.290  1.00  0.00     0.018 A 
ATOM      6  C   UNL     1      42.478 -48.013 162.608  1.00  0.00     0.012 A 
ATOM      7  C   UNL     1      44.628 -46.849 162.614  1.00  0.00     0.019 A 
ATOM      8  C   UNL     1      45.709 -46.349 163.339  1.00  0.00     0.094 A 
ATOM      9  C   UNL     1      45.723 -46.503 164.730  1.00  0.00     0.336 A 
ATOM     10  O   UNL     1      46.690 -46.059 165.402  1.00  0.00    -0.246 OA
ATOM     11  O   UNL     1      44.719 -47.120 165.349  1.00  0.00    -0.423 OA
ENDROOT
TORSDOF 0
ENDMDL
MODEL 8
REMARK VINA RESULT:    -5.760     10.391     12.393
REMARK INTER + INTRA:          -5.760
REMARK INTER:                  -5.760
REMARK INTRA:                   0.000
REMARK UNBOUND:                 0.000
REMARK SMILES O=c1ccc2ccccc2o1
REMARK SMILES IDX 7 1 8 2 9 3 10 4 5 5 6 6 4 7 3 8 2 9 1 10 11 11
REMARK H PARENT
REMARK Flexibility Score: inf
ROOT
ATOM      1  C   UNL     1      36.734 -49.132 161.739  1.00  0.00     0.001 A 
ATOM      2  C   UNL     1      36.936 -48.013 160.926  1.00  0.00     0.004 A 
ATOM      3  C   UNL     1      38.190 -47.394 160.878  1.00  0.00     0.048 A 
ATOM      4  C   UNL     1      39.247 -47.895 161.644  1.00  0.00     0.138 A 
ATOM      5  C   UNL     1      39.044 -49.027 162.467  1.00  0.00     0.018 A 
ATOM      6  C   UNL     1      37.784 -49.642 162.510  1.00  0.00     0.012 A 
ATOM      7  C   UNL     1      40.119 -49.505 163.221  1.00  0.00     0.019 A 
ATOM      8  C   UNL     1      41.352 -48.857 163.143  1.00  0.00     0.094 A 
ATOM      9  C   UNL     1      41.481 -47.742 162.307  1.00  0.00     0.336 A 
ATOM     10  O   UNL     1      42.584 -47.144 162.223  1.00  0.00    -0.246 OA
ATOM     11  O   UNL     1      40.441 -47.307 161.599  1.00  0.00    -0.423 OA
ENDROOT
TORSDOF 0
ENDMDL
MODEL 9
REMARK VINA RESULT:    -5.709      1.658      3.858
REMARK INTER + INTRA:          -5.709
REMARK INTER:                  -5.709
REMARK INTRA:                   0.000
REMARK UNBOUND:                 0.000
REMARK SMILES O=c1ccc2ccccc2o1
REMARK SMILES IDX 7 1 8 2 9 3 10 4 5 5 6 6 4 7 3 8 2 9 1 10 11 11
REMARK H PARENT
REMARK Flexibility Score: inf
ROOT
ATOM      1  C   UNL     1      53.315 -47.018 165.873  1.00  0.00     0.001 A 
ATOM      2  C   UNL     1      52.983 -45.714 165.491  1.00  0.00     0.004 A 
ATOM      3  C   UNL     1      51.676 -45.408 165.096  1.00  0.00     0.048 A 
ATOM      4  C   UNL     1      50.697 -46.406 165.084  1.00  0.00     0.138 A 
ATOM      5  C   UNL     1      51.031 -47.724 165.470  1.00  0.00     0.018 A 
ATOM      6  C   UNL     1      52.344 -48.024 165.865  1.00  0.00     0.012 A 
ATOM      7  C   UNL     1      50.031 -48.700 165.447  1.00  0.00     0.019 A 
ATOM      8  C   UNL     1      48.743 -48.350 165.047  1.00  0.00     0.094 A 
ATOM      9  C   UNL     1      48.483 -47.025 164.677  1.00  0.00     0.336 A 
ATOM     10  O   UNL     1      47.326 -46.690 164.313  1.00  0.00    -0.246 OA
ATOM     11  O   UNL     1      49.453 -46.115 164.708  1.00  0.00    -0.423 OA
ENDROOT
TORSDOF 0
ENDMDL
