MODEL 1
REMARK VINA RESULT:    -3.971      0.000      0.000
REMARK INTER + INTRA:          -4.922
REMARK INTER:                  -4.783
REMARK INTRA:                  -0.139
REMARK UNBOUND:                -0.139
REMARK SMILES CC[C@H](C)[C@@H]([NH3+])C(=O)[O-]
REMARK SMILES IDX 3 1 4 2 5 3 6 4 7 8 8 9 9 10 2 11 1 12
REMARK H PARENT 6 5 6 6 6 7
REMARK Flexibility Score: inf
ROOT
ATOM      1  C   UNL     1      -1.624  -2.822   6.634  1.00  0.00     0.050 C 
ATOM      2  C   UNL     1      -2.042  -1.412   7.088  1.00  0.00     0.014 C 
ENDROOT
BRANCH   1   3
ATOM      3  C   UNL     1      -2.376  -3.956   7.405  1.00  0.00     0.230 C 
BRANCH   3   4
ATOM      4  N   UNL     1      -3.071  -3.471   8.608  1.00  0.00    -0.350 N 
ATOM      5  H   UNL     1      -2.753  -4.020   9.440  1.00  0.00     0.345 HD
ATOM      6  H   UNL     1      -2.833  -2.470   8.787  1.00  0.00     0.345 HD
ATOM      7  H   UNL     1      -4.107  -3.574   8.519  1.00  0.00     0.345 HD
ENDBRANCH   3   4
BRANCH   3   8
ATOM      8  C   UNL     1      -3.332  -4.689   6.494  1.00  0.00     0.099 C 
ATOM      9  O   UNL     1      -3.001  -4.933   5.304  1.00  0.00    -0.544 OA
ATOM     10  O   UNL     1      -4.595  -5.059   6.940  1.00  0.00    -0.544 OA
ENDBRANCH   3   8
ENDBRANCH   1   3
BRANCH   1  11
ATOM     11  C   UNL     1      -0.081  -2.944   6.694  1.00  0.00     0.006 C 
ATOM     12  C   UNL     1       0.438  -4.327   6.298  1.00  0.00     0.004 C 
ENDBRANCH   1  11
TORSDOF 4
ENDMDL
MODEL 2
REMARK VINA RESULT:    -3.874      2.055      2.729
REMARK INTER + INTRA:          -4.806
REMARK INTER:                  -4.903
REMARK INTRA:                   0.098
REMARK UNBOUND:                -0.139
REMARK SMILES CC[C@H](C)[C@@H]([NH3+])C(=O)[O-]
REMARK SMILES IDX 3 1 4 2 5 3 6 4 7 8 8 9 9 10 2 11 1 12
REMARK H PARENT 6 5 6 6 6 7
REMARK Flexibility Score: inf
ROOT
ATOM      1  C   UNL     1      -1.767  -4.112   7.264  1.00  0.00     0.050 C 
ATOM      2  C   UNL     1      -2.136  -5.250   6.296  1.00  0.00     0.014 C 
ENDROOT
BRANCH   1   3
ATOM      3  C   UNL     1      -2.935  -3.093   7.477  1.00  0.00     0.230 C 
BRANCH   3   4
ATOM      4  N   UNL     1      -3.252  -2.870   8.895  1.00  0.00    -0.350 N 
ATOM      5  H   UNL     1      -4.282  -2.974   9.043  1.00  0.00     0.345 HD
ATOM      6  H   UNL     1      -2.778  -3.583   9.492  1.00  0.00     0.345 HD
ATOM      7  H   UNL     1      -2.969  -1.912   9.204  1.00  0.00     0.345 HD
ENDBRANCH   3   4
BRANCH   3   8
ATOM      8  C   UNL     1      -2.646  -1.785   6.780  1.00  0.00     0.099 C 
ATOM      9  O   UNL     1      -2.069  -0.855   7.404  1.00  0.00    -0.544 OA
ATOM     10  O   UNL     1      -3.052  -1.576   5.467  1.00  0.00    -0.544 OA
ENDBRANCH   3   8
ENDBRANCH   1   3
BRANCH   1  11
ATOM     11  C   UNL     1      -0.442  -3.455   6.804  1.00  0.00     0.006 C 
ATOM     12  C   UNL     1       0.621  -4.466   6.368  1.00  0.00     0.004 C 
ENDBRANCH   1  11
TORSDOF 4
ENDMDL
MODEL 3
REMARK VINA RESULT:    -3.726      1.940      2.884
REMARK INTER + INTRA:          -4.627
REMARK INTER:                  -4.503
REMARK INTRA:                  -0.123
REMARK UNBOUND:                -0.139
REMARK SMILES CC[C@H](C)[C@@H]([NH3+])C(=O)[O-]
REMARK SMILES IDX 3 1 4 2 5 3 6 4 7 8 8 9 9 10 2 11 1 12
REMARK H PARENT 6 5 6 6 6 7
REMARK Flexibility Score: inf
ROOT
ATOM      1  C   UNL     1      -1.920  -2.386   7.117  1.00  0.00     0.050 C 
ATOM      2  C   UNL     1      -0.474  -2.636   6.652  1.00  0.00     0.014 C 
ENDROOT
BRANCH   1   3
ATOM      3  C   UNL     1      -2.733  -3.709   7.310  1.00  0.00     0.230 C 
BRANCH   3   4
ATOM      4  N   UNL     1      -1.895  -4.915   7.230  1.00  0.00    -0.350 N 
ATOM      5  H   UNL     1      -2.068  -5.516   8.068  1.00  0.00     0.345 HD
ATOM      6  H   UNL     1      -2.146  -5.478   6.387  1.00  0.00     0.345 HD
ATOM      7  H   UNL     1      -0.879  -4.674   7.200  1.00  0.00     0.345 HD
ENDBRANCH   3   4
BRANCH   3   8
ATOM      8  C   UNL     1      -3.511  -3.682   8.604  1.00  0.00     0.099 C 
ATOM      9  O   UNL     1      -3.573  -2.620   9.277  1.00  0.00    -0.544 OA
ATOM     10  O   UNL     1      -4.125  -4.832   9.086  1.00  0.00    -0.544 OA
ENDBRANCH   3   8
ENDBRANCH   1   3
BRANCH   1  11
ATOM     11  C   UNL     1      -2.598  -1.371   6.164  1.00  0.00     0.006 C 
ATOM     12  C   UNL     1      -3.716  -1.981   5.317  1.00  0.00     0.004 C 
ENDBRANCH   1  11
TORSDOF 4
ENDMDL
MODEL 4
REMARK VINA RESULT:    -3.684      2.292      2.814
REMARK INTER + INTRA:          -4.577
REMARK INTER:                  -4.519
REMARK INTRA:                  -0.058
REMARK UNBOUND:                -0.139
REMARK SMILES CC[C@H](C)[C@@H]([NH3+])C(=O)[O-]
REMARK SMILES IDX 3 1 4 2 5 3 6 4 7 8 8 9 9 10 2 11 1 12
REMARK H PARENT 6 5 6 6 6 7
REMARK Flexibility Score: inf
ROOT
ATOM      1  C   UNL     1      -1.254  -4.257   7.011  1.00  0.00     0.050 C 
ATOM      2  C   UNL     1      -1.655  -5.721   6.757  1.00  0.00     0.014 C 
ENDROOT
BRANCH   1   3
ATOM      3  C   UNL     1      -2.323  -3.237   6.497  1.00  0.00     0.230 C 
BRANCH   3   4
ATOM      4  N   UNL     1      -3.551  -3.886   6.013  1.00  0.00    -0.350 N 
ATOM      5  H   UNL     1      -3.794  -4.685   6.644  1.00  0.00     0.345 HD
ATOM      6  H   UNL     1      -4.351  -3.216   6.037  1.00  0.00     0.345 HD
ATOM      7  H   UNL     1      -3.432  -4.255   5.043  1.00  0.00     0.345 HD
ENDBRANCH   3   4
BRANCH   3   8
ATOM      8  C   UNL     1      -2.641  -2.206   7.553  1.00  0.00     0.099 C 
ATOM      9  O   UNL     1      -2.093  -1.073   7.510  1.00  0.00    -0.544 OA
ATOM     10  O   UNL     1      -3.499  -2.509   8.604  1.00  0.00    -0.544 OA
ENDBRANCH   3   8
ENDBRANCH   1   3
BRANCH   1  11
ATOM     11  C   UNL     1       0.168  -4.008   6.449  1.00  0.00     0.006 C 
ATOM     12  C   UNL     1       1.233  -4.920   7.060  1.00  0.00     0.004 C 
ENDBRANCH   1  11
TORSDOF 4
ENDMDL
MODEL 5
REMARK VINA RESULT:    -3.680      1.727      2.223
REMARK INTER + INTRA:          -4.572
REMARK INTER:                  -4.448
REMARK INTRA:                  -0.124
REMARK UNBOUND:                -0.139
REMARK SMILES CC[C@H](C)[C@@H]([NH3+])C(=O)[O-]
REMARK SMILES IDX 3 1 4 2 5 3 6 4 7 8 8 9 9 10 2 11 1 12
REMARK H PARENT 6 5 6 6 6 7
REMARK Flexibility Score: inf
ROOT
ATOM      1  C   UNL     1      -1.120  -3.997   6.452  1.00  0.00     0.050 C 
ATOM      2  C   UNL     1       0.023  -2.979   6.612  1.00  0.00     0.014 C 
ENDROOT
BRANCH   1   3
ATOM      3  C   UNL     1      -2.489  -3.462   6.987  1.00  0.00     0.230 C 
BRANCH   3   4
ATOM      4  N   UNL     1      -2.348  -2.270   7.837  1.00  0.00    -0.350 N 
ATOM      5  H   UNL     1      -1.335  -2.101   8.034  1.00  0.00     0.345 HD
ATOM      6  H   UNL     1      -2.714  -1.425   7.345  1.00  0.00     0.345 HD
ATOM      7  H   UNL     1      -2.847  -2.388   8.747  1.00  0.00     0.345 HD
ENDBRANCH   3   4
BRANCH   3   8
ATOM      8  C   UNL     1      -3.449  -3.199   5.851  1.00  0.00     0.099 C 
ATOM      9  O   UNL     1      -3.942  -2.050   5.699  1.00  0.00    -0.544 OA
ATOM     10  O   UNL     1      -3.833  -4.224   4.994  1.00  0.00    -0.544 OA
ENDBRANCH   3   8
ENDBRANCH   1   3
BRANCH   1  11
ATOM     11  C   UNL     1      -0.694  -5.350   7.074  1.00  0.00     0.006 C 
ATOM     12  C   UNL     1      -1.705  -6.474   6.843  1.00  0.00     0.004 C 
ENDBRANCH   1  11
TORSDOF 4
ENDMDL
MODEL 6
REMARK VINA RESULT:    -3.640      2.612      3.607
REMARK INTER + INTRA:          -4.523
REMARK INTER:                  -4.420
REMARK INTRA:                  -0.103
REMARK UNBOUND:                -0.139
REMARK SMILES CC[C@H](C)[C@@H]([NH3+])C(=O)[O-]
REMARK SMILES IDX 3 1 4 2 5 3 6 4 7 8 8 9 9 10 2 11 1 12
REMARK H PARENT 6 5 6 6 6 7
REMARK Flexibility Score: inf
ROOT
ATOM      1  C   UNL     1      -2.426  -3.661   6.074  1.00  0.00     0.050 C 
ATOM      2  C   UNL     1      -3.380  -4.656   5.389  1.00  0.00     0.014 C 
ENDROOT
BRANCH   1   3
ATOM      3  C   UNL     1      -1.509  -4.337   7.144  1.00  0.00     0.230 C 
BRANCH   3   4
ATOM      4  N   UNL     1      -1.651  -5.801   7.181  1.00  0.00    -0.350 N 
ATOM      5  H   UNL     1      -2.318  -6.068   7.942  1.00  0.00     0.345 HD
ATOM      6  H   UNL     1      -2.048  -6.151   6.282  1.00  0.00     0.345 HD
ATOM      7  H   UNL     1      -0.735  -6.269   7.365  1.00  0.00     0.345 HD
ENDBRANCH   3   4
BRANCH   3   8
ATOM      8  C   UNL     1      -0.065  -3.944   6.947  1.00  0.00     0.099 C 
ATOM      9  O   UNL     1       0.217  -2.840   6.410  1.00  0.00    -0.544 OA
ATOM     10  O   UNL     1       0.962  -4.807   7.309  1.00  0.00    -0.544 OA
ENDBRANCH   3   8
ENDBRANCH   1   3
BRANCH   1  11
ATOM     11  C   UNL     1      -3.241  -2.461   6.618  1.00  0.00     0.006 C 
ATOM     12  C   UNL     1      -2.834  -1.119   6.005  1.00  0.00     0.004 C 
ENDBRANCH   1  11
TORSDOF 4
ENDMDL
MODEL 7
REMARK VINA RESULT:    -3.606      1.833      2.826
REMARK INTER + INTRA:          -4.482
REMARK INTER:                  -4.521
REMARK INTRA:                   0.039
REMARK UNBOUND:                -0.139
REMARK SMILES CC[C@H](C)[C@@H]([NH3+])C(=O)[O-]
REMARK SMILES IDX 3 1 4 2 5 3 6 4 7 8 8 9 9 10 2 11 1 12
REMARK H PARENT 6 5 6 6 6 7
REMARK Flexibility Score: inf
ROOT
ATOM      1  C   UNL     1      -2.344  -2.192   7.192  1.00  0.00     0.050 C 
ATOM      2  C   UNL     1      -2.751  -1.086   6.202  1.00  0.00     0.014 C 
ENDROOT
BRANCH   1   3
ATOM      3  C   UNL     1      -1.293  -3.185   6.595  1.00  0.00     0.230 C 
BRANCH   3   4
ATOM      4  N   UNL     1      -0.040  -3.228   7.364  1.00  0.00    -0.350 N 
ATOM      5  H   UNL     1       0.731  -2.803   6.798  1.00  0.00     0.345 HD
ATOM      6  H   UNL     1      -0.130  -2.666   8.239  1.00  0.00     0.345 HD
ATOM      7  H   UNL     1       0.228  -4.209   7.604  1.00  0.00     0.345 HD
ENDBRANCH   3   4
BRANCH   3   8
ATOM      8  C   UNL     1      -1.878  -4.569   6.447  1.00  0.00     0.099 C 
ATOM      9  O   UNL     1      -1.552  -5.478   7.256  1.00  0.00    -0.544 OA
ATOM     10  O   UNL     1      -2.740  -4.867   5.398  1.00  0.00    -0.544 OA
ENDBRANCH   3   8
ENDBRANCH   1   3
BRANCH   1  11
ATOM     11  C   UNL     1      -3.616  -2.885   7.740  1.00  0.00     0.006 C 
ATOM     12  C   UNL     1      -3.717  -2.857   9.266  1.00  0.00     0.004 C 
ENDBRANCH   1  11
TORSDOF 4
ENDMDL
MODEL 8
REMARK VINA RESULT:    -3.508     11.313     12.228
REMARK INTER + INTRA:          -4.365
REMARK INTER:                  -4.278
REMARK INTRA:                  -0.087
REMARK UNBOUND:                -0.139
REMARK SMILES CC[C@H](C)[C@@H]([NH3+])C(=O)[O-]
REMARK SMILES IDX 3 1 4 2 5 3 6 4 7 8 8 9 9 10 2 11 1 12
REMARK H PARENT 6 5 6 6 6 7
REMARK Flexibility Score: inf
ROOT
ATOM      1  C   UNL     1       4.739   4.592   6.165  1.00  0.00     0.050 C 
ATOM      2  C   UNL     1       5.135   4.051   4.779  1.00  0.00     0.014 C 
ENDROOT
BRANCH   1   3
ATOM      3  C   UNL     1       5.619   5.802   6.619  1.00  0.00     0.230 C 
BRANCH   3   4
ATOM      4  N   UNL     1       6.854   5.942   5.832  1.00  0.00    -0.350 N 
ATOM      5  H   UNL     1       6.750   5.429   4.926  1.00  0.00     0.345 HD
ATOM      6  H   UNL     1       7.030   6.945   5.603  1.00  0.00     0.345 HD
ATOM      7  H   UNL     1       7.678   5.550   6.342  1.00  0.00     0.345 HD
ENDBRANCH   3   4
BRANCH   3   8
ATOM      8  C   UNL     1       4.825   7.086   6.601  1.00  0.00     0.099 C 
ATOM      9  O   UNL     1       4.105   7.392   7.588  1.00  0.00    -0.544 OA
ATOM     10  O   UNL     1       4.842   7.916   5.486  1.00  0.00    -0.544 OA
ENDBRANCH   3   8
ENDBRANCH   1   3
BRANCH   1  11
ATOM     11  C   UNL     1       4.712   3.424   7.182  1.00  0.00     0.006 C 
ATOM     12  C   UNL     1       5.733   2.326   6.879  1.00  0.00     0.004 C 
ENDBRANCH   1  11
TORSDOF 4
ENDMDL
MODEL 9
REMARK VINA RESULT:    -3.423      2.111      3.330
REMARK INTER + INTRA:          -4.262
REMARK INTER:                  -4.160
REMARK INTRA:                  -0.102
REMARK UNBOUND:                -0.139
REMARK SMILES CC[C@H](C)[C@@H]([NH3+])C(=O)[O-]
REMARK SMILES IDX 3 1 4 2 5 3 6 4 7 8 8 9 9 10 2 11 1 12
REMARK H PARENT 6 5 6 6 6 7
REMARK Flexibility Score: inf
ROOT
ATOM      1  C   UNL     1      -3.041  -3.910   7.691  1.00  0.00     0.050 C 
ATOM      2  C   UNL     1      -3.654  -3.254   8.942  1.00  0.00     0.014 C 
ENDROOT
BRANCH   1   3
ATOM      3  C   UNL     1      -2.027  -2.978   6.952  1.00  0.00     0.230 C 
BRANCH   3   4
ATOM      4  N   UNL     1      -1.914  -1.647   7.568  1.00  0.00    -0.350 N 
ATOM      5  H   UNL     1      -2.862  -1.208   7.626  1.00  0.00     0.345 HD
ATOM      6  H   UNL     1      -1.548  -1.726   8.543  1.00  0.00     0.345 HD
ATOM      7  H   UNL     1      -1.292  -1.019   7.011  1.00  0.00     0.345 HD
ENDBRANCH   3   4
BRANCH   3   8
ATOM      8  C   UNL     1      -0.671  -3.633   6.839  1.00  0.00     0.099 C 
ATOM      9  O   UNL     1       0.309  -2.975   6.400  1.00  0.00    -0.544 OA
ATOM     10  O   UNL     1      -0.500  -4.971   7.171  1.00  0.00    -0.544 OA
ENDBRANCH   3   8
ENDBRANCH   1   3
BRANCH   1  11
ATOM     11  C   UNL     1      -4.177  -4.443   6.783  1.00  0.00     0.006 C 
ATOM     12  C   UNL     1      -3.787  -4.532   5.307  1.00  0.00     0.004 C 
ENDBRANCH   1  11
TORSDOF 4
ENDMDL
