MODEL 1
REMARK VINA RESULT:    -4.310      0.000      0.000
REMARK INTER + INTRA:          -6.008
REMARK INTER:                  -5.821
REMARK INTRA:                  -0.186
REMARK UNBOUND:                -0.186
REMARK SMILES CCCCCCCC(=O)[O-]
REMARK SMILES IDX 5 1 6 2 7 3 8 4 9 5 10 6 4 7 3 8 2 9 1 10
REMARK H PARENT
REMARK Flexibility Score: inf
ROOT
ATOM      1  C   UNL     1      41.893  17.464  12.242  1.00  0.00     0.000 C 
ENDROOT
BRANCH   1   2
ATOM      2  C   UNL     1      40.866  18.516  11.793  1.00  0.00     0.006 C 
BRANCH   2   3
ATOM      3  C   UNL     1      39.580  17.889  11.241  1.00  0.00     0.053 C 
BRANCH   3   4
ATOM      4  C   UNL     1      38.605  18.955  10.853  1.00  0.00     0.041 C 
ATOM      5  O   UNL     1      39.004  19.998  10.272  1.00  0.00    -0.550 OA
ATOM      6  O   UNL     1      37.261  18.819  11.175  1.00  0.00    -0.550 OA
ENDBRANCH   3   4
ENDBRANCH   2   3
ENDBRANCH   1   2
BRANCH   1   7
ATOM      7  C   UNL     1      43.229  18.086  12.674  1.00  0.00     0.000 C 
BRANCH   7   8
ATOM      8  C   UNL     1      44.408  17.191  12.264  1.00  0.00    -0.000 C 
BRANCH   8   9
ATOM      9  C   UNL     1      44.026  15.703  12.206  1.00  0.00    -0.003 C 
ATOM     10  C   UNL     1      45.243  14.778  12.214  1.00  0.00     0.004 C 
ENDBRANCH   8   9
ENDBRANCH   7   8
ENDBRANCH   1   7
TORSDOF 6
ENDMDL
MODEL 2
REMARK VINA RESULT:    -4.286      0.646      1.208
REMARK INTER + INTRA:          -5.976
REMARK INTER:                  -5.826
REMARK INTRA:                  -0.150
REMARK UNBOUND:                -0.186
REMARK SMILES CCCCCCCC(=O)[O-]
REMARK SMILES IDX 5 1 6 2 7 3 8 4 9 5 10 6 4 7 3 8 2 9 1 10
REMARK H PARENT
REMARK Flexibility Score: inf
ROOT
ATOM      1  C   UNL     1      42.429  17.869  11.633  1.00  0.00     0.000 C 
ENDROOT
BRANCH   1   2
ATOM      2  C   UNL     1      41.043  18.343  12.102  1.00  0.00     0.006 C 
BRANCH   2   3
ATOM      3  C   UNL     1      39.918  17.912  11.153  1.00  0.00     0.053 C 
BRANCH   3   4
ATOM      4  C   UNL     1      39.146  19.105  10.686  1.00  0.00     0.041 C 
ATOM      5  O   UNL     1      37.897  19.151  10.842  1.00  0.00    -0.550 OA
ATOM      6  O   UNL     1      39.796  20.144  10.034  1.00  0.00    -0.550 OA
ENDBRANCH   3   4
ENDBRANCH   2   3
ENDBRANCH   1   2
BRANCH   1   7
ATOM      7  C   UNL     1      43.340  17.455  12.798  1.00  0.00     0.000 C 
BRANCH   7   8
ATOM      8  C   UNL     1      44.569  16.690  12.286  1.00  0.00    -0.000 C 
BRANCH   8   9
ATOM      9  C   UNL     1      44.330  15.174  12.208  1.00  0.00    -0.003 C 
ATOM     10  C   UNL     1      45.629  14.368  12.203  1.00  0.00     0.004 C 
ENDBRANCH   8   9
ENDBRANCH   7   8
ENDBRANCH   1   7
TORSDOF 6
ENDMDL
MODEL 3
REMARK VINA RESULT:    -4.215      2.599      4.126
REMARK INTER + INTRA:          -5.880
REMARK INTER:                  -5.226
REMARK INTRA:                  -0.655
REMARK UNBOUND:                -0.186
REMARK SMILES CCCCCCCC(=O)[O-]
REMARK SMILES IDX 5 1 6 2 7 3 8 4 9 5 10 6 4 7 3 8 2 9 1 10
REMARK H PARENT
REMARK Flexibility Score: inf
ROOT
ATOM      1  C   UNL     1      41.778  18.478  10.709  1.00  0.00     0.000 C 
ENDROOT
BRANCH   1   2
ATOM      2  C   UNL     1      40.602  17.891  11.507  1.00  0.00     0.006 C 
BRANCH   2   3
ATOM      3  C   UNL     1      39.551  18.946  11.873  1.00  0.00     0.053 C 
BRANCH   3   4
ATOM      4  C   UNL     1      38.275  18.688  11.137  1.00  0.00     0.041 C 
ATOM      5  O   UNL     1      38.274  18.609   9.880  1.00  0.00    -0.550 OA
ATOM      6  O   UNL     1      37.078  18.583  11.834  1.00  0.00    -0.550 OA
ENDBRANCH   3   4
ENDBRANCH   2   3
ENDBRANCH   1   2
BRANCH   1   7
ATOM      7  C   UNL     1      41.721  18.116   9.218  1.00  0.00     0.000 C 
BRANCH   7   8
ATOM      8  C   UNL     1      41.501  19.370   8.358  1.00  0.00    -0.000 C 
BRANCH   8   9
ATOM      9  C   UNL     1      41.591  20.669   9.174  1.00  0.00    -0.003 C 
ATOM     10  C   UNL     1      40.301  21.486   9.132  1.00  0.00     0.004 C 
ENDBRANCH   8   9
ENDBRANCH   7   8
ENDBRANCH   1   7
TORSDOF 6
ENDMDL
MODEL 4
REMARK VINA RESULT:    -4.187      1.862      2.181
REMARK INTER + INTRA:          -5.842
REMARK INTER:                  -5.511
REMARK INTRA:                  -0.331
REMARK UNBOUND:                -0.186
REMARK SMILES CCCCCCCC(=O)[O-]
REMARK SMILES IDX 5 1 6 2 7 3 8 4 9 5 10 6 4 7 3 8 2 9 1 10
REMARK H PARENT
REMARK Flexibility Score: inf
ROOT
ATOM      1  C   UNL     1      41.210  18.673  12.583  1.00  0.00     0.000 C 
ENDROOT
BRANCH   1   2
ATOM      2  C   UNL     1      40.489  17.853  11.501  1.00  0.00     0.006 C 
BRANCH   2   3
ATOM      3  C   UNL     1      39.889  18.731  10.396  1.00  0.00     0.053 C 
BRANCH   3   4
ATOM      4  C   UNL     1      40.868  18.907   9.280  1.00  0.00     0.041 C 
ATOM      5  O   UNL     1      40.905  19.987   8.634  1.00  0.00    -0.550 OA
ATOM      6  O   UNL     1      41.708  17.861   8.919  1.00  0.00    -0.550 OA
ENDBRANCH   3   4
ENDBRANCH   2   3
ENDBRANCH   1   2
BRANCH   1   7
ATOM      7  C   UNL     1      42.735  18.503  12.538  1.00  0.00     0.000 C 
BRANCH   7   8
ATOM      8  C   UNL     1      43.118  17.135  11.956  1.00  0.00    -0.000 C 
BRANCH   8   9
ATOM      9  C   UNL     1      44.409  16.571  12.571  1.00  0.00    -0.003 C 
ATOM     10  C   UNL     1      44.675  15.122  12.166  1.00  0.00     0.004 C 
ENDBRANCH   8   9
ENDBRANCH   7   8
ENDBRANCH   1   7
TORSDOF 6
ENDMDL
MODEL 5
REMARK VINA RESULT:    -4.170      3.261      5.801
REMARK INTER + INTRA:          -5.819
REMARK INTER:                  -5.551
REMARK INTRA:                  -0.268
REMARK UNBOUND:                -0.186
REMARK SMILES CCCCCCCC(=O)[O-]
REMARK SMILES IDX 5 1 6 2 7 3 8 4 9 5 10 6 4 7 3 8 2 9 1 10
REMARK H PARENT
REMARK Flexibility Score: inf
ROOT
ATOM      1  C   UNL     1      40.520  18.865  12.120  1.00  0.00     0.000 C 
ENDROOT
BRANCH   1   2
ATOM      2  C   UNL     1      41.949  18.612  12.628  1.00  0.00     0.006 C 
BRANCH   2   3
ATOM      3  C   UNL     1      42.432  17.184  12.348  1.00  0.00     0.053 C 
BRANCH   3   4
ATOM      4  C   UNL     1      43.927  17.137  12.312  1.00  0.00     0.041 C 
ATOM      5  O   UNL     1      44.592  18.199  12.189  1.00  0.00    -0.550 OA
ATOM      6  O   UNL     1      44.586  15.915  12.366  1.00  0.00    -0.550 OA
ENDBRANCH   3   4
ENDBRANCH   2   3
ENDBRANCH   1   2
BRANCH   1   7
ATOM      7  C   UNL     1      40.197  18.075  10.843  1.00  0.00     0.000 C 
BRANCH   7   8
ATOM      8  C   UNL     1      38.877  18.554  10.222  1.00  0.00    -0.000 C 
BRANCH   8   9
ATOM      9  C   UNL     1      38.009  19.342  11.216  1.00  0.00    -0.003 C 
ATOM     10  C   UNL     1      36.795  18.549  11.701  1.00  0.00     0.004 C 
ENDBRANCH   8   9
ENDBRANCH   7   8
ENDBRANCH   1   7
TORSDOF 6
ENDMDL
MODEL 6
REMARK VINA RESULT:    -4.157      3.456      5.535
REMARK INTER + INTRA:          -5.801
REMARK INTER:                  -5.413
REMARK INTRA:                  -0.388
REMARK UNBOUND:                -0.186
REMARK SMILES CCCCCCCC(=O)[O-]
REMARK SMILES IDX 5 1 6 2 7 3 8 4 9 5 10 6 4 7 3 8 2 9 1 10
REMARK H PARENT
REMARK Flexibility Score: inf
ROOT
ATOM      1  C   UNL     1      40.226  17.914  11.262  1.00  0.00     0.000 C 
ENDROOT
BRANCH   1   2
ATOM      2  C   UNL     1      41.287  18.153  12.348  1.00  0.00     0.006 C 
BRANCH   2   3
ATOM      3  C   UNL     1      41.028  19.429  13.157  1.00  0.00     0.053 C 
BRANCH   3   4
ATOM      4  C   UNL     1      42.259  20.279  13.198  1.00  0.00     0.041 C 
ATOM      5  O   UNL     1      43.258  19.982  12.492  1.00  0.00    -0.550 OA
ATOM      6  O   UNL     1      42.321  21.372  14.054  1.00  0.00    -0.550 OA
ENDBRANCH   3   4
ENDBRANCH   2   3
ENDBRANCH   1   2
BRANCH   1   7
ATOM      7  C   UNL     1      39.765  19.215  10.588  1.00  0.00     0.000 C 
BRANCH   7   8
ATOM      8  C   UNL     1      38.241  19.378  10.697  1.00  0.00    -0.000 C 
BRANCH   8   9
ATOM      9  C   UNL     1      37.620  18.436  11.740  1.00  0.00    -0.003 C 
ATOM     10  C   UNL     1      36.097  18.546  11.806  1.00  0.00     0.004 C 
ENDBRANCH   8   9
ENDBRANCH   7   8
ENDBRANCH   1   7
TORSDOF 6
ENDMDL
MODEL 7
REMARK VINA RESULT:    -4.111     15.241     15.680
REMARK INTER + INTRA:          -5.739
REMARK INTER:                  -5.478
REMARK INTRA:                  -0.261
REMARK UNBOUND:                -0.186
REMARK SMILES CCCCCCCC(=O)[O-]
REMARK SMILES IDX 5 1 6 2 7 3 8 4 9 5 10 6 4 7 3 8 2 9 1 10
REMARK H PARENT
REMARK Flexibility Score: inf
ROOT
ATOM      1  C   UNL     1      33.736   4.733  15.591  1.00  0.00     0.000 C 
ENDROOT
BRANCH   1   2
ATOM      2  C   UNL     1      33.125   5.809  16.504  1.00  0.00     0.006 C 
BRANCH   2   3
ATOM      3  C   UNL     1      34.064   6.220  17.644  1.00  0.00     0.053 C 
BRANCH   3   4
ATOM      4  C   UNL     1      33.621   5.604  18.933  1.00  0.00     0.041 C 
ATOM      5  O   UNL     1      33.692   6.260  20.006  1.00  0.00    -0.550 OA
ATOM      6  O   UNL     1      33.173   4.290  18.959  1.00  0.00    -0.550 OA
ENDBRANCH   3   4
ENDBRANCH   2   3
ENDBRANCH   1   2
BRANCH   1   7
ATOM      7  C   UNL     1      35.271   4.768  15.579  1.00  0.00     0.000 C 
BRANCH   7   8
ATOM      8  C   UNL     1      35.818   4.360  14.203  1.00  0.00    -0.000 C 
BRANCH   8   9
ATOM      9  C   UNL     1      37.123   3.555  14.302  1.00  0.00    -0.003 C 
ATOM     10  C   UNL     1      37.463   3.149  15.736  1.00  0.00     0.004 C 
ENDBRANCH   8   9
ENDBRANCH   7   8
ENDBRANCH   1   7
TORSDOF 6
ENDMDL
MODEL 8
REMARK VINA RESULT:    -4.062     15.146     15.515
REMARK INTER + INTRA:          -5.674
REMARK INTER:                  -5.435
REMARK INTRA:                  -0.238
REMARK UNBOUND:                -0.186
REMARK SMILES CCCCCCCC(=O)[O-]
REMARK SMILES IDX 5 1 6 2 7 3 8 4 9 5 10 6 4 7 3 8 2 9 1 10
REMARK H PARENT
REMARK Flexibility Score: inf
ROOT
ATOM      1  C   UNL     1      35.206   5.503  16.714  1.00  0.00     0.000 C 
ENDROOT
BRANCH   1   2
ATOM      2  C   UNL     1      34.100   6.256  17.472  1.00  0.00     0.006 C 
BRANCH   2   3
ATOM      3  C   UNL     1      32.772   6.284  16.706  1.00  0.00     0.053 C 
BRANCH   3   4
ATOM      4  C   UNL     1      31.633   5.984  17.627  1.00  0.00     0.041 C 
ATOM      5  O   UNL     1      30.586   5.443  17.184  1.00  0.00    -0.550 OA
ATOM      6  O   UNL     1      31.706   6.347  18.966  1.00  0.00    -0.550 OA
ENDBRANCH   3   4
ENDBRANCH   2   3
ENDBRANCH   1   2
BRANCH   1   7
ATOM      7  C   UNL     1      34.673   4.740  15.493  1.00  0.00     0.000 C 
BRANCH   7   8
ATOM      8  C   UNL     1      35.827   4.269  14.595  1.00  0.00    -0.000 C 
BRANCH   8   9
ATOM      9  C   UNL     1      36.626   3.113  15.218  1.00  0.00    -0.003 C 
ATOM     10  C   UNL     1      38.123   3.202  14.928  1.00  0.00     0.004 C 
ENDBRANCH   8   9
ENDBRANCH   7   8
ENDBRANCH   1   7
TORSDOF 6
ENDMDL
MODEL 9
REMARK VINA RESULT:    -4.027     15.122     15.912
REMARK INTER + INTRA:          -5.626
REMARK INTER:                  -5.183
REMARK INTRA:                  -0.443
REMARK UNBOUND:                -0.186
REMARK SMILES CCCCCCCC(=O)[O-]
REMARK SMILES IDX 5 1 6 2 7 3 8 4 9 5 10 6 4 7 3 8 2 9 1 10
REMARK H PARENT
REMARK Flexibility Score: inf
ROOT
ATOM      1  C   UNL     1      34.742   3.947  16.938  1.00  0.00     0.000 C 
ENDROOT
BRANCH   1   2
ATOM      2  C   UNL     1      34.739   3.440  15.486  1.00  0.00     0.006 C 
BRANCH   2   3
ATOM      3  C   UNL     1      35.375   4.437  14.511  1.00  0.00     0.053 C 
BRANCH   3   4
ATOM      4  C   UNL     1      36.517   3.801  13.785  1.00  0.00     0.041 C 
ATOM      5  O   UNL     1      37.590   3.544  14.392  1.00  0.00    -0.550 OA
ATOM      6  O   UNL     1      36.417   3.534  12.425  1.00  0.00    -0.550 OA
ENDBRANCH   3   4
ENDBRANCH   2   3
ENDBRANCH   1   2
BRANCH   1   7
ATOM      7  C   UNL     1      35.206   5.406  17.055  1.00  0.00     0.000 C 
BRANCH   7   8
ATOM      8  C   UNL     1      34.150   6.260  17.772  1.00  0.00    -0.000 C 
BRANCH   8   9
ATOM      9  C   UNL     1      32.722   5.730  17.565  1.00  0.00    -0.003 C 
ATOM     10  C   UNL     1      31.881   6.629  16.660  1.00  0.00     0.004 C 
ENDBRANCH   8   9
ENDBRANCH   7   8
ENDBRANCH   1   7
TORSDOF 6
ENDMDL
