MODEL 1
REMARK VINA RESULT:    -5.413      0.000      0.000
REMARK INTER + INTRA:          -5.413
REMARK INTER:                  -5.413
REMARK INTRA:                   0.000
REMARK UNBOUND:                 0.000
REMARK SMILES c1ccc2nc3ccccc3cc2c1
REMARK SMILES IDX 1 1 2 2 3 3 4 4 13 5 14 6 12 7 11 8 10 9 9 10 8 11 7 12 6 13
REMARK SMILES IDX 5 14
REMARK H PARENT
REMARK Flexibility Score: inf
ROOT
ATOM      1  C   UNL     1    -118.248  14.054  22.590  1.00  0.00     0.001 A 
ATOM      2  C   UNL     1    -118.277  13.157  21.517  1.00  0.00     0.002 A 
ATOM      3  C   UNL     1    -117.355  12.108  21.451  1.00  0.00     0.029 A 
ATOM      4  C   UNL     1    -116.399  11.952  22.461  1.00  0.00     0.071 A 
ATOM      5  C   UNL     1    -116.366  12.857  23.547  1.00  0.00     0.001 A 
ATOM      6  C   UNL     1    -117.295  13.906  23.604  1.00  0.00     0.010 A 
ATOM      7  C   UNL     1    -115.402  12.685  24.549  1.00  0.00     0.020 A 
ATOM      8  C   UNL     1    -114.488  11.628  24.463  1.00  0.00     0.001 A 
ATOM      9  C   UNL     1    -113.511  11.430  25.449  1.00  0.00     0.010 A 
ATOM     10  C   UNL     1    -112.610  10.366  25.338  1.00  0.00     0.001 A 
ATOM     11  C   UNL     1    -112.680   9.496  24.245  1.00  0.00     0.002 A 
ATOM     12  C   UNL     1    -113.651   9.685  23.256  1.00  0.00     0.029 A 
ATOM     13  C   UNL     1    -114.557  10.747  23.358  1.00  0.00     0.071 A 
ATOM     14  N   UNL     1    -115.501  10.933  22.397  1.00  0.00    -0.248 NA
ENDROOT
TORSDOF 0
ENDMDL
MODEL 2
REMARK VINA RESULT:    -5.402      0.092      4.830
REMARK INTER + INTRA:          -5.402
REMARK INTER:                  -5.402
REMARK INTRA:                   0.000
REMARK UNBOUND:                 0.000
REMARK SMILES c1ccc2nc3ccccc3cc2c1
REMARK SMILES IDX 1 1 2 2 3 3 4 4 13 5 14 6 12 7 11 8 10 9 9 10 8 11 7 12 6 13
REMARK SMILES IDX 5 14
REMARK H PARENT
REMARK Flexibility Score: inf
ROOT
ATOM      1  C   UNL     1    -112.614  10.283  25.256  1.00  0.00     0.001 A 
ATOM      2  C   UNL     1    -112.737   9.423  24.160  1.00  0.00     0.002 A 
ATOM      3  C   UNL     1    -113.728   9.645  23.200  1.00  0.00     0.029 A 
ATOM      4  C   UNL     1    -114.602  10.729  23.333  1.00  0.00     0.071 A 
ATOM      5  C   UNL     1    -114.481  11.600  24.440  1.00  0.00     0.001 A 
ATOM      6  C   UNL     1    -113.484  11.370  25.399  1.00  0.00     0.010 A 
ATOM      7  C   UNL     1    -115.365  12.681  24.558  1.00  0.00     0.020 A 
ATOM      8  C   UNL     1    -116.352  12.884  23.584  1.00  0.00     0.001 A 
ATOM      9  C   UNL     1    -117.251  13.956  23.674  1.00  0.00     0.010 A 
ATOM     10  C   UNL     1    -118.226  14.134  22.687  1.00  0.00     0.001 A 
ATOM     11  C   UNL     1    -118.308  13.247  21.609  1.00  0.00     0.002 A 
ATOM     12  C   UNL     1    -117.416  12.175  21.511  1.00  0.00     0.029 A 
ATOM     13  C   UNL     1    -116.437  11.987  22.493  1.00  0.00     0.071 A 
ATOM     14  N   UNL     1    -115.567  10.945  22.399  1.00  0.00    -0.248 NA
ENDROOT
TORSDOF 0
ENDMDL
MODEL 3
REMARK VINA RESULT:    -5.400      0.961      5.285
REMARK INTER + INTRA:          -5.400
REMARK INTER:                  -5.400
REMARK INTRA:                   0.000
REMARK UNBOUND:                 0.000
REMARK SMILES c1ccc2nc3ccccc3cc2c1
REMARK SMILES IDX 1 1 2 2 3 3 4 4 13 5 14 6 12 7 11 8 10 9 9 10 8 11 7 12 6 13
REMARK SMILES IDX 5 14
REMARK H PARENT
REMARK Flexibility Score: inf
ROOT
ATOM      1  C   UNL     1    -112.934   9.709  24.130  1.00  0.00     0.001 A 
ATOM      2  C   UNL     1    -112.764  10.592  25.201  1.00  0.00     0.002 A 
ATOM      3  C   UNL     1    -113.618  11.689  25.350  1.00  0.00     0.029 A 
ATOM      4  C   UNL     1    -114.646  11.907  24.425  1.00  0.00     0.071 A 
ATOM      5  C   UNL     1    -114.819  11.016  23.341  1.00  0.00     0.001 A 
ATOM      6  C   UNL     1    -113.958   9.918  23.200  1.00  0.00     0.010 A 
ATOM      7  C   UNL     1    -115.853  11.250  22.425  1.00  0.00     0.020 A 
ATOM      8  C   UNL     1    -116.697  12.355  22.593  1.00  0.00     0.001 A 
ATOM      9  C   UNL     1    -117.740  12.616  21.693  1.00  0.00     0.010 A 
ATOM     10  C   UNL     1    -118.567  13.727  21.885  1.00  0.00     0.001 A 
ATOM     11  C   UNL     1    -118.357  14.582  22.972  1.00  0.00     0.002 A 
ATOM     12  C   UNL     1    -117.320  14.330  23.874  1.00  0.00     0.029 A 
ATOM     13  C   UNL     1    -116.486  13.221  23.692  1.00  0.00     0.071 A 
ATOM     14  N   UNL     1    -115.476  12.974  24.569  1.00  0.00    -0.248 NA
ENDROOT
TORSDOF 0
ENDMDL
MODEL 4
REMARK VINA RESULT:    -5.299      1.063      2.252
REMARK INTER + INTRA:          -5.299
REMARK INTER:                  -5.299
REMARK INTRA:                   0.000
REMARK UNBOUND:                 0.000
REMARK SMILES c1ccc2nc3ccccc3cc2c1
REMARK SMILES IDX 1 1 2 2 3 3 4 4 13 5 14 6 12 7 11 8 10 9 9 10 8 11 7 12 6 13
REMARK SMILES IDX 5 14
REMARK H PARENT
REMARK Flexibility Score: inf
ROOT
ATOM      1  C   UNL     1    -118.800  14.079  21.879  1.00  0.00     0.001 A 
ATOM      2  C   UNL     1    -118.568  14.847  23.025  1.00  0.00     0.002 A 
ATOM      3  C   UNL     1    -117.544  14.498  23.911  1.00  0.00     0.029 A 
ATOM      4  C   UNL     1    -116.748  13.377  23.653  1.00  0.00     0.071 A 
ATOM      5  C   UNL     1    -116.980  12.598  22.496  1.00  0.00     0.001 A 
ATOM      6  C   UNL     1    -118.009  12.957  21.613  1.00  0.00     0.010 A 
ATOM      7  C   UNL     1    -116.173  11.479  22.254  1.00  0.00     0.020 A 
ATOM      8  C   UNL     1    -115.152  11.147  23.154  1.00  0.00     0.001 A 
ATOM      9  C   UNL     1    -114.328  10.033  22.941  1.00  0.00     0.010 A 
ATOM     10  C   UNL     1    -113.318   9.725  23.856  1.00  0.00     0.001 A 
ATOM     11  C   UNL     1    -113.125  10.525  24.987  1.00  0.00     0.002 A 
ATOM     12  C   UNL     1    -113.942  11.637  25.210  1.00  0.00     0.029 A 
ATOM     13  C   UNL     1    -114.956  11.954  24.299  1.00  0.00     0.071 A 
ATOM     14  N   UNL     1    -115.752  13.036  24.514  1.00  0.00    -0.248 NA
ENDROOT
TORSDOF 0
ENDMDL
MODEL 5
REMARK VINA RESULT:    -5.172      0.967      5.025
REMARK INTER + INTRA:          -5.172
REMARK INTER:                  -5.172
REMARK INTRA:                   0.000
REMARK UNBOUND:                 0.000
REMARK SMILES c1ccc2nc3ccccc3cc2c1
REMARK SMILES IDX 1 1 2 2 3 3 4 4 13 5 14 6 12 7 11 8 10 9 9 10 8 11 7 12 6 13
REMARK SMILES IDX 5 14
REMARK H PARENT
REMARK Flexibility Score: inf
ROOT
ATOM      1  C   UNL     1    -113.694  10.873  24.666  1.00  0.00     0.001 A 
ATOM      2  C   UNL     1    -113.850  10.073  23.530  1.00  0.00     0.002 A 
ATOM      3  C   UNL     1    -114.847  10.367  22.594  1.00  0.00     0.029 A 
ATOM      4  C   UNL     1    -115.692  11.464  22.793  1.00  0.00     0.071 A 
ATOM      5  C   UNL     1    -115.537  12.274  23.942  1.00  0.00     0.001 A 
ATOM      6  C   UNL     1    -114.535  11.971  24.874  1.00  0.00     0.010 A 
ATOM      7  C   UNL     1    -116.393  13.368  24.124  1.00  0.00     0.020 A 
ATOM      8  C   UNL     1    -117.385  13.645  23.175  1.00  0.00     0.001 A 
ATOM      9  C   UNL     1    -118.257  14.732  23.330  1.00  0.00     0.010 A 
ATOM     10  C   UNL     1    -119.238  14.984  22.366  1.00  0.00     0.001 A 
ATOM     11  C   UNL     1    -119.354  14.155  21.245  1.00  0.00     0.002 A 
ATOM     12  C   UNL     1    -118.490  13.069  21.082  1.00  0.00     0.029 A 
ATOM     13  C   UNL     1    -117.504  12.807  22.041  1.00  0.00     0.071 A 
ATOM     14  N   UNL     1    -116.662  11.750  21.884  1.00  0.00    -0.248 NA
ENDROOT
TORSDOF 0
ENDMDL
MODEL 6
REMARK VINA RESULT:    -4.989      2.285      5.162
REMARK INTER + INTRA:          -4.989
REMARK INTER:                  -4.989
REMARK INTRA:                   0.000
REMARK UNBOUND:                 0.000
REMARK SMILES c1ccc2nc3ccccc3cc2c1
REMARK SMILES IDX 1 1 2 2 3 3 4 4 13 5 14 6 12 7 11 8 10 9 9 10 8 11 7 12 6 13
REMARK SMILES IDX 5 14
REMARK H PARENT
REMARK Flexibility Score: inf
ROOT
ATOM      1  C   UNL     1    -115.203   9.656  19.456  1.00  0.00     0.001 A 
ATOM      2  C   UNL     1    -114.605   9.329  20.677  1.00  0.00     0.002 A 
ATOM      3  C   UNL     1    -114.919  10.053  21.831  1.00  0.00     0.029 A 
ATOM      4  C   UNL     1    -115.835  11.109  21.767  1.00  0.00     0.071 A 
ATOM      5  C   UNL     1    -116.441  11.443  20.534  1.00  0.00     0.001 A 
ATOM      6  C   UNL     1    -116.119  10.710  19.382  1.00  0.00     0.010 A 
ATOM      7  C   UNL     1    -117.356  12.503  20.488  1.00  0.00     0.020 A 
ATOM      8  C   UNL     1    -117.656  13.216  21.656  1.00  0.00     0.001 A 
ATOM      9  C   UNL     1    -118.566  14.282  21.644  1.00  0.00     0.010 A 
ATOM     10  C   UNL     1    -118.847  14.976  22.824  1.00  0.00     0.001 A 
ATOM     11  C   UNL     1    -118.223  14.610  24.021  1.00  0.00     0.002 A 
ATOM     12  C   UNL     1    -117.313  13.549  24.044  1.00  0.00     0.029 A 
ATOM     13  C   UNL     1    -117.025  12.848  22.868  1.00  0.00     0.071 A 
ATOM     14  N   UNL     1    -116.141  11.814  22.889  1.00  0.00    -0.248 NA
ENDROOT
TORSDOF 0
ENDMDL
MODEL 7
REMARK VINA RESULT:    -4.925      1.909      2.753
REMARK INTER + INTRA:          -4.925
REMARK INTER:                  -4.925
REMARK INTRA:                   0.000
REMARK UNBOUND:                 0.000
REMARK SMILES c1ccc2nc3ccccc3cc2c1
REMARK SMILES IDX 1 1 2 2 3 3 4 4 13 5 14 6 12 7 11 8 10 9 9 10 8 11 7 12 6 13
REMARK SMILES IDX 5 14
REMARK H PARENT
REMARK Flexibility Score: inf
ROOT
ATOM      1  C   UNL     1    -118.378  14.860  23.804  1.00  0.00     0.001 A 
ATOM      2  C   UNL     1    -118.902  14.973  22.512  1.00  0.00     0.002 A 
ATOM      3  C   UNL     1    -118.475  14.106  21.502  1.00  0.00     0.029 A 
ATOM      4  C   UNL     1    -117.521  13.121  21.781  1.00  0.00     0.071 A 
ATOM      5  C   UNL     1    -116.989  13.005  23.086  1.00  0.00     0.001 A 
ATOM      6  C   UNL     1    -117.424  13.880  24.093  1.00  0.00     0.010 A 
ATOM      7  C   UNL     1    -116.034  12.014  23.348  1.00  0.00     0.020 A 
ATOM      8  C   UNL     1    -115.620  11.156  22.321  1.00  0.00     0.001 A 
ATOM      9  C   UNL     1    -114.666  10.155  22.550  1.00  0.00     0.010 A 
ATOM     10  C   UNL     1    -114.271   9.312  21.507  1.00  0.00     0.001 A 
ATOM     11  C   UNL     1    -114.825   9.465  20.231  1.00  0.00     0.002 A 
ATOM     12  C   UNL     1    -115.776  10.460  19.992  1.00  0.00     0.029 A 
ATOM     13  C   UNL     1    -116.178  11.309  21.030  1.00  0.00     0.071 A 
ATOM     14  N   UNL     1    -117.104  12.278  20.799  1.00  0.00    -0.248 NA
ENDROOT
TORSDOF 0
ENDMDL
MODEL 8
REMARK VINA RESULT:    -4.792      3.045      5.147
REMARK INTER + INTRA:          -4.792
REMARK INTER:                  -4.792
REMARK INTRA:                   0.000
REMARK UNBOUND:                 0.000
REMARK SMILES c1ccc2nc3ccccc3cc2c1
REMARK SMILES IDX 1 1 2 2 3 3 4 4 13 5 14 6 12 7 11 8 10 9 9 10 8 11 7 12 6 13
REMARK SMILES IDX 5 14
REMARK H PARENT
REMARK Flexibility Score: inf
ROOT
ATOM      1  C   UNL     1    -115.657  10.086  18.475  1.00  0.00     0.001 A 
ATOM      2  C   UNL     1    -116.412  10.891  17.616  1.00  0.00     0.002 A 
ATOM      3  C   UNL     1    -117.159  11.957  18.126  1.00  0.00     0.029 A 
ATOM      4  C   UNL     1    -117.154  12.221  19.500  1.00  0.00     0.071 A 
ATOM      5  C   UNL     1    -116.393  11.409  20.372  1.00  0.00     0.001 A 
ATOM      6  C   UNL     1    -115.646  10.342  19.850  1.00  0.00     0.010 A 
ATOM      7  C   UNL     1    -116.399  11.688  21.744  1.00  0.00     0.020 A 
ATOM      8  C   UNL     1    -117.155  12.760  22.234  1.00  0.00     0.001 A 
ATOM      9  C   UNL     1    -117.183  13.065  23.603  1.00  0.00     0.010 A 
ATOM     10  C   UNL     1    -117.947  14.141  24.064  1.00  0.00     0.001 A 
ATOM     11  C   UNL     1    -118.685  14.917  23.165  1.00  0.00     0.002 A 
ATOM     12  C   UNL     1    -118.664  14.622  21.799  1.00  0.00     0.029 A 
ATOM     13  C   UNL     1    -117.903  13.546  21.326  1.00  0.00     0.071 A 
ATOM     14  N   UNL     1    -117.882  13.257  19.997  1.00  0.00    -0.248 NA
ENDROOT
TORSDOF 0
ENDMDL
MODEL 9
REMARK VINA RESULT:    -4.680     17.422     18.048
REMARK INTER + INTRA:          -4.680
REMARK INTER:                  -4.680
REMARK INTRA:                   0.000
REMARK UNBOUND:                 0.000
REMARK SMILES c1ccc2nc3ccccc3cc2c1
REMARK SMILES IDX 1 1 2 2 3 3 4 4 13 5 14 6 12 7 11 8 10 9 9 10 8 11 7 12 6 13
REMARK SMILES IDX 5 14
REMARK H PARENT
REMARK Flexibility Score: inf
ROOT
ATOM      1  C   UNL     1    -110.893  27.954  21.724  1.00  0.00     0.001 A 
ATOM      2  C   UNL     1    -110.898  27.275  20.502  1.00  0.00     0.002 A 
ATOM      3  C   UNL     1    -109.693  26.937  19.879  1.00  0.00     0.029 A 
ATOM      4  C   UNL     1    -108.476  27.279  20.479  1.00  0.00     0.071 A 
ATOM      5  C   UNL     1    -108.467  27.966  21.715  1.00  0.00     0.001 A 
ATOM      6  C   UNL     1    -109.682  28.300  22.331  1.00  0.00     0.010 A 
ATOM      7  C   UNL     1    -107.239  28.301  22.300  1.00  0.00     0.020 A 
ATOM      8  C   UNL     1    -106.043  27.953  21.660  1.00  0.00     0.001 A 
ATOM      9  C   UNL     1    -104.799  28.274  22.220  1.00  0.00     0.010 A 
ATOM     10  C   UNL     1    -103.620  27.915  21.558  1.00  0.00     0.001 A 
ATOM     11  C   UNL     1    -103.678  27.236  20.337  1.00  0.00     0.002 A 
ATOM     12  C   UNL     1    -104.914  26.912  19.770  1.00  0.00     0.029 A 
ATOM     13  C   UNL     1    -106.099  27.267  20.424  1.00  0.00     0.071 A 
ATOM     14  N   UNL     1    -107.303  26.952  19.874  1.00  0.00    -0.248 NA
ENDROOT
TORSDOF 0
ENDMDL
