MODEL 1
REMARK VINA RESULT:    -3.650      0.000      0.000
REMARK INTER + INTRA:          -5.417
REMARK INTER:                  -5.570
REMARK INTRA:                   0.153
REMARK UNBOUND:                 0.153
REMARK SMILES CC1=CCC[C@H](C)C(=O)C[C@@H](C(C)C)C(=O)C1
REMARK SMILES IDX 8 1 9 2 6 3 7 4 5 5 4 6 3 7 2 8 1 9 10 11 11 12 15 13 16 14
REMARK SMILES IDX 17 15 12 17 13 18 14 19
REMARK H PARENT
REMARK Flexibility Score: 70.00
ROOT
ATOM      1  C   UNL     1     -14.254   3.530  26.839  1.00  0.00     0.136 C 
ATOM      2  O   UNL     1     -13.262   3.205  27.476  1.00  0.00    -0.299 OA
ENDROOT
BRANCH   1   3
ATOM      3  C   UNL     1     -15.522   2.716  26.959  1.00  0.00     0.053 C 
ATOM      4  C   UNL     1     -15.304   1.472  27.828  1.00  0.00     0.016 C 
BRANCH   3   5
ATOM      5  C   UNL     1     -16.649   3.616  27.525  1.00  0.00     0.015 C 
BRANCH   5   6
ATOM      6  C   UNL     1     -16.318   4.361  28.835  1.00  0.00     0.028 C 
BRANCH   6   7
ATOM      7  C   UNL     1     -16.957   5.719  29.032  1.00  0.00    -0.028 C 
ATOM      8  C   UNL     1     -16.872   6.787  28.203  1.00  0.00    -0.070 CG0
ATOM      9  C   UNL     1     -17.509   8.078  28.656  1.00  0.00     0.039 C 
ATOM     10  G   UNL     1     -16.244   6.746  26.821  1.00  0.00     0.000 G0
ENDBRANCH   6   7
ENDBRANCH   5   6
ENDBRANCH   3   5
ENDBRANCH   1   3
BRANCH   1  11
ATOM     11  C   UNL     1     -14.220   4.791  26.008  1.00  0.00     0.087 C 
BRANCH  11  12
ATOM     12  C   UNL     1     -13.690   6.016  26.817  1.00  0.00     0.066 C 
BRANCH  12  13
ATOM     13  C   UNL     1     -14.768   7.093  26.860  1.00  0.00     0.140 C 
ATOM     14  O   UNL     1     -14.431   8.259  27.008  1.00  0.00    -0.299 OA
BRANCH  13  15
ATOM     15  C   UNL     1     -16.246   6.760  26.803  1.00  0.00     0.106 CG0
ATOM     16  G   UNL     1     -16.862   6.791  28.190  1.00  0.00     0.000 G0
ENDBRANCH  13  15
ENDBRANCH  12  13
BRANCH  12  17
ATOM     17  C   UNL     1     -12.356   6.580  26.224  1.00  0.00    -0.006 C 
ATOM     18  C   UNL     1     -11.187   5.586  26.379  1.00  0.00     0.008 C 
ATOM     19  C   UNL     1     -12.497   6.926  24.728  1.00  0.00     0.008 C 
ENDBRANCH  12  17
ENDBRANCH  11  12
ENDBRANCH   1  11
TORSDOF 1
ENDMDL
MODEL 2
REMARK VINA RESULT:    -3.485      1.886      4.703
REMARK INTER + INTRA:          -5.166
REMARK INTER:                  -4.752
REMARK INTRA:                  -0.414
REMARK UNBOUND:                 0.153
REMARK SMILES CC1=CCC[C@H](C)C(=O)C[C@@H](C(C)C)C(=O)C1
REMARK SMILES IDX 8 1 9 2 6 3 7 4 5 5 4 6 3 7 2 8 1 9 10 11 11 12 15 13 16 14
REMARK SMILES IDX 17 15 12 17 13 18 14 19
REMARK H PARENT
REMARK Flexibility Score: 70.00
ROOT
ATOM      1  C   UNL     1     -14.821   7.389  26.514  1.00  0.00     0.136 C 
ATOM      2  O   UNL     1     -14.394   8.465  26.904  1.00  0.00    -0.299 OA
ENDROOT
BRANCH   1   3
ATOM      3  C   UNL     1     -13.854   6.313  26.074  1.00  0.00     0.053 C 
ATOM      4  C   UNL     1     -12.784   6.879  25.134  1.00  0.00     0.016 C 
BRANCH   3   5
ATOM      5  C   UNL     1     -13.223   5.658  27.327  1.00  0.00     0.015 C 
BRANCH   5   6
ATOM      6  C   UNL     1     -13.800   4.285  27.729  1.00  0.00     0.028 C 
BRANCH   6   7
ATOM      7  C   UNL     1     -14.732   3.615  26.742  1.00  0.00    -0.028 C 
ATOM      8  C   UNL     1     -16.055   3.375  26.906  1.00  0.00    -0.070 CG0
ATOM      9  C   UNL     1     -16.765   2.598  25.824  1.00  0.00     0.039 C 
ATOM     10  G   UNL     1     -16.880   3.900  28.067  1.00  0.00     0.000 G0
ENDBRANCH   6   7
ENDBRANCH   5   6
ENDBRANCH   3   5
ENDBRANCH   1   3
BRANCH   1  11
ATOM     11  C   UNL     1     -16.307   7.121  26.557  1.00  0.00     0.087 C 
BRANCH  11  12
ATOM     12  C   UNL     1     -16.766   6.572  27.944  1.00  0.00     0.066 C 
BRANCH  12  13
ATOM     13  C   UNL     1     -17.516   5.260  27.742  1.00  0.00     0.140 C 
ATOM     14  O   UNL     1     -18.674   5.297  27.353  1.00  0.00    -0.299 OA
BRANCH  13  15
ATOM     15  C   UNL     1     -16.900   3.917  28.082  1.00  0.00     0.106 CG0
ATOM     16  G   UNL     1     -16.081   3.386  26.920  1.00  0.00     0.000 G0
ENDBRANCH  13  15
ENDBRANCH  12  13
BRANCH  12  17
ATOM     17  C   UNL     1     -17.644   7.605  28.725  1.00  0.00    -0.006 C 
ATOM     18  C   UNL     1     -17.123   7.844  30.157  1.00  0.00     0.008 C 
ATOM     19  C   UNL     1     -17.703   8.966  28.003  1.00  0.00     0.008 C 
ENDBRANCH  12  17
ENDBRANCH  11  12
ENDBRANCH   1  11
TORSDOF 1
ENDMDL
MODEL 3
REMARK VINA RESULT:    -3.365      9.071     10.726
REMARK INTER + INTRA:          -4.983
REMARK INTER:                  -4.734
REMARK INTRA:                  -0.249
REMARK UNBOUND:                 0.153
REMARK SMILES CC1=CCC[C@H](C)C(=O)C[C@@H](C(C)C)C(=O)C1
REMARK SMILES IDX 8 1 9 2 6 3 7 4 5 5 4 6 3 7 2 8 1 9 10 11 11 12 15 13 16 14
REMARK SMILES IDX 17 15 12 17 13 18 14 19
REMARK H PARENT
REMARK Flexibility Score: 70.00
ROOT
ATOM      1  C   UNL     1     -19.458  -3.148  22.365  1.00  0.00     0.136 C 
ATOM      2  O   UNL     1     -19.206  -3.616  23.465  1.00  0.00    -0.299 OA
ENDROOT
BRANCH   1   3
ATOM      3  C   UNL     1     -20.086  -4.023  21.303  1.00  0.00     0.053 C 
ATOM      4  C   UNL     1     -21.401  -4.638  21.796  1.00  0.00     0.016 C 
BRANCH   3   5
ATOM      5  C   UNL     1     -20.294  -3.187  20.017  1.00  0.00     0.015 C 
BRANCH   5   6
ATOM      6  C   UNL     1     -21.724  -2.654  19.787  1.00  0.00     0.028 C 
BRANCH   6   7
ATOM      7  C   UNL     1     -21.855  -1.234  19.282  1.00  0.00    -0.028 C 
ATOM      8  C   UNL     1     -22.137  -0.131  20.017  1.00  0.00    -0.070 CG0
ATOM      9  C   UNL     1     -22.321   1.173  19.280  1.00  0.00     0.039 C 
ATOM     10  G   UNL     1     -22.205  -0.111  21.533  1.00  0.00     0.000 G0
ENDBRANCH   6   7
ENDBRANCH   5   6
ENDBRANCH   3   5
ENDBRANCH   1   3
BRANCH   1  11
ATOM     11  C   UNL     1     -19.217  -1.678  22.112  1.00  0.00     0.087 C 
BRANCH  11  12
ATOM     12  C   UNL     1     -20.102  -0.771  23.022  1.00  0.00     0.066 C 
BRANCH  12  13
ATOM     13  C   UNL     1     -20.852   0.233  22.154  1.00  0.00     0.140 C 
ATOM     14  O   UNL     1     -20.376   1.348  21.997  1.00  0.00    -0.299 OA
BRANCH  13  15
ATOM     15  C   UNL     1     -22.204  -0.078  21.544  1.00  0.00     0.106 CG0
ATOM     16  G   UNL     1     -22.118  -0.122  20.029  1.00  0.00     0.000 G0
ENDBRANCH  13  15
ENDBRANCH  12  13
BRANCH  12  17
ATOM     17  C   UNL     1     -19.262  -0.043  24.123  1.00  0.00    -0.006 C 
ATOM     18  C   UNL     1     -19.469  -0.667  25.518  1.00  0.00     0.008 C 
ATOM     19  C   UNL     1     -17.754  -0.072  23.803  1.00  0.00     0.008 C 
ENDBRANCH  12  17
ENDBRANCH  11  12
ENDBRANCH   1  11
TORSDOF 1
ENDMDL
MODEL 4
REMARK VINA RESULT:    -3.319      5.844      7.932
REMARK INTER + INTRA:          -4.913
REMARK INTER:                  -4.445
REMARK INTRA:                  -0.467
REMARK UNBOUND:                 0.153
REMARK SMILES CC1=CCC[C@H](C)C(=O)C[C@@H](C(C)C)C(=O)C1
REMARK SMILES IDX 8 1 9 2 6 3 7 4 5 5 4 6 3 7 2 8 1 9 10 11 11 12 15 13 16 14
REMARK SMILES IDX 17 15 12 17 13 18 14 19
REMARK H PARENT
REMARK Flexibility Score: 70.00
ROOT
ATOM      1  C   UNL     1     -19.746  -0.475  31.310  1.00  0.00     0.136 C 
ATOM      2  O   UNL     1     -20.324  -0.221  32.357  1.00  0.00    -0.299 OA
ENDROOT
BRANCH   1   3
ATOM      3  C   UNL     1     -20.477  -0.327  29.995  1.00  0.00     0.053 C 
ATOM      4  C   UNL     1     -21.863  -0.981  30.052  1.00  0.00     0.016 C 
BRANCH   3   5
ATOM      5  C   UNL     1     -20.571   1.176  29.634  1.00  0.00     0.015 C 
BRANCH   5   6
ATOM      6  C   UNL     1     -19.575   1.673  28.566  1.00  0.00     0.028 C 
BRANCH   6   7
ATOM      7  C   UNL     1     -18.793   0.619  27.813  1.00  0.00    -0.028 C 
ATOM      8  C   UNL     1     -17.458   0.395  27.878  1.00  0.00    -0.070 CG0
ATOM      9  C   UNL     1     -16.877  -0.648  26.955  1.00  0.00     0.039 C 
ATOM     10  G   UNL     1     -16.526   1.072  28.867  1.00  0.00     0.000 G0
ENDBRANCH   6   7
ENDBRANCH   5   6
ENDBRANCH   3   5
ENDBRANCH   1   3
BRANCH   1  11
ATOM     11  C   UNL     1     -18.284  -0.852  31.343  1.00  0.00     0.087 C 
BRANCH  11  12
ATOM     12  C   UNL     1     -17.352   0.400  31.309  1.00  0.00     0.066 C 
BRANCH  12  13
ATOM     13  C   UNL     1     -16.373   0.265  30.149  1.00  0.00     0.140 C 
ATOM     14  O   UNL     1     -15.410  -0.479  30.274  1.00  0.00    -0.299 OA
BRANCH  13  15
ATOM     15  C   UNL     1     -16.508   1.079  28.878  1.00  0.00     0.106 CG0
ATOM     16  G   UNL     1     -17.450   0.403  27.898  1.00  0.00     0.000 G0
ENDBRANCH  13  15
ENDBRANCH  12  13
BRANCH  12  17
ATOM     17  C   UNL     1     -16.594   0.607  32.662  1.00  0.00    -0.006 C 
ATOM     18  C   UNL     1     -17.114   1.837  33.435  1.00  0.00     0.008 C 
ATOM     19  C   UNL     1     -16.719  -0.625  33.581  1.00  0.00     0.008 C 
ENDBRANCH  12  17
ENDBRANCH  11  12
ENDBRANCH   1  11
TORSDOF 1
ENDMDL
MODEL 5
REMARK VINA RESULT:    -3.286      5.528      7.042
REMARK INTER + INTRA:          -4.861
REMARK INTER:                  -4.660
REMARK INTRA:                  -0.201
REMARK UNBOUND:                 0.153
REMARK SMILES CC1=CCC[C@H](C)C(=O)C[C@@H](C(C)C)C(=O)C1
REMARK SMILES IDX 8 1 9 2 6 3 7 4 5 5 4 6 3 7 2 8 1 9 10 11 11 12 15 13 16 14
REMARK SMILES IDX 17 15 12 17 13 18 14 19
REMARK H PARENT
REMARK Flexibility Score: 70.00
ROOT
ATOM      1  C   UNL     1     -16.696  -0.032  31.031  1.00  0.00     0.136 C 
ATOM      2  O   UNL     1     -16.583   1.179  31.155  1.00  0.00    -0.299 OA
ENDROOT
BRANCH   1   3
ATOM      3  C   UNL     1     -17.791  -0.762  31.775  1.00  0.00     0.053 C 
ATOM      4  C   UNL     1     -17.634  -0.604  33.291  1.00  0.00     0.016 C 
BRANCH   3   5
ATOM      5  C   UNL     1     -19.166  -0.244  31.287  1.00  0.00     0.015 C 
BRANCH   5   6
ATOM      6  C   UNL     1     -19.712  -0.897  30.001  1.00  0.00     0.028 C 
BRANCH   6   7
ATOM      7  C   UNL     1     -19.637  -0.078  28.730  1.00  0.00    -0.028 C 
ATOM      8  C   UNL     1     -18.682  -0.150  27.771  1.00  0.00    -0.070 CG0
ATOM      9  C   UNL     1     -18.755   0.840  26.635  1.00  0.00     0.039 C 
ATOM     10  G   UNL     1     -17.592  -1.206  27.730  1.00  0.00     0.000 G0
ENDBRANCH   6   7
ENDBRANCH   5   6
ENDBRANCH   3   5
ENDBRANCH   1   3
BRANCH   1  11
ATOM     11  C   UNL     1     -15.791  -0.767  30.070  1.00  0.00     0.087 C 
BRANCH  11  12
ATOM     12  C   UNL     1     -15.500   0.066  28.782  1.00  0.00     0.066 C 
BRANCH  12  13
ATOM     13  C   UNL     1     -16.218  -0.573  27.599  1.00  0.00     0.140 C 
ATOM     14  O   UNL     1     -15.701  -0.510  26.492  1.00  0.00    -0.299 OA
BRANCH  13  15
ATOM     15  C   UNL     1     -17.585  -1.213  27.733  1.00  0.00     0.106 CG0
ATOM     16  G   UNL     1     -18.676  -0.158  27.781  1.00  0.00     0.000 G0
ENDBRANCH  13  15
ENDBRANCH  12  13
BRANCH  12  17
ATOM     17  C   UNL     1     -13.967   0.200  28.502  1.00  0.00    -0.006 C 
ATOM     18  C   UNL     1     -13.483   1.661  28.612  1.00  0.00     0.008 C 
ATOM     19  C   UNL     1     -13.131  -0.656  29.476  1.00  0.00     0.008 C 
ENDBRANCH  12  17
ENDBRANCH  11  12
ENDBRANCH   1  11
TORSDOF 1
ENDMDL
MODEL 6
REMARK VINA RESULT:    -3.247      8.589     10.798
REMARK INTER + INTRA:          -4.802
REMARK INTER:                  -4.570
REMARK INTRA:                  -0.232
REMARK UNBOUND:                 0.153
REMARK SMILES CC1=CCC[C@H](C)C(=O)C[C@@H](C(C)C)C(=O)C1
REMARK SMILES IDX 8 1 9 2 6 3 7 4 5 5 4 6 3 7 2 8 1 9 10 11 11 12 15 13 16 14
REMARK SMILES IDX 17 15 12 17 13 18 14 19
REMARK H PARENT
REMARK Flexibility Score: 70.00
ROOT
ATOM      1  C   UNL     1     -20.613  -1.946  20.401  1.00  0.00     0.136 C 
ATOM      2  O   UNL     1     -21.197  -2.382  19.419  1.00  0.00    -0.299 OA
ENDROOT
BRANCH   1   3
ATOM      3  C   UNL     1     -21.039  -0.625  21.001  1.00  0.00     0.053 C 
ATOM      4  C   UNL     1     -21.325   0.413  19.910  1.00  0.00     0.016 C 
BRANCH   3   5
ATOM      5  C   UNL     1     -22.273  -0.855  21.907  1.00  0.00     0.015 C 
BRANCH   5   6
ATOM      6  C   UNL     1     -22.164  -0.299  23.342  1.00  0.00     0.028 C 
BRANCH   6   7
ATOM      7  C   UNL     1     -20.872   0.396  23.714  1.00  0.00    -0.028 C 
ATOM      8  C   UNL     1     -19.809  -0.150  24.353  1.00  0.00    -0.070 CG0
ATOM      9  C   UNL     1     -18.664   0.765  24.713  1.00  0.00     0.039 C 
ATOM     10  G   UNL     1     -19.667  -1.629  24.663  1.00  0.00     0.000 G0
ENDBRANCH   6   7
ENDBRANCH   5   6
ENDBRANCH   3   5
ENDBRANCH   1   3
BRANCH   1  11
ATOM     11  C   UNL     1     -19.532  -2.777  21.050  1.00  0.00     0.087 C 
BRANCH  11  12
ATOM     12  C   UNL     1     -19.899  -3.186  22.510  1.00  0.00     0.066 C 
BRANCH  12  13
ATOM     13  C   UNL     1     -19.044  -2.386  23.486  1.00  0.00     0.140 C 
ATOM     14  O   UNL     1     -17.829  -2.400  23.354  1.00  0.00    -0.299 OA
BRANCH  13  15
ATOM     15  C   UNL     1     -19.644  -1.638  24.661  1.00  0.00     0.106 CG0
ATOM     16  G   UNL     1     -19.805  -0.163  24.339  1.00  0.00     0.000 G0
ENDBRANCH  13  15
ENDBRANCH  12  13
BRANCH  12  17
ATOM     17  C   UNL     1     -19.735  -4.723  22.751  1.00  0.00    -0.006 C 
ATOM     18  C   UNL     1     -20.577  -5.217  23.945  1.00  0.00     0.008 C 
ATOM     19  C   UNL     1     -20.139  -5.542  21.508  1.00  0.00     0.008 C 
ENDBRANCH  12  17
ENDBRANCH  11  12
ENDBRANCH   1  11
TORSDOF 1
ENDMDL
MODEL 7
REMARK VINA RESULT:    -3.242      9.608     11.738
REMARK INTER + INTRA:          -4.795
REMARK INTER:                  -5.004
REMARK INTRA:                   0.209
REMARK UNBOUND:                 0.153
REMARK SMILES CC1=CCC[C@H](C)C(=O)C[C@@H](C(C)C)C(=O)C1
REMARK SMILES IDX 8 1 9 2 6 3 7 4 5 5 4 6 3 7 2 8 1 9 10 11 11 12 15 13 16 14
REMARK SMILES IDX 17 15 12 17 13 18 14 19
REMARK H PARENT
REMARK Flexibility Score: 70.00
ROOT
ATOM      1  C   UNL     1     -18.878  -2.580  23.097  1.00  0.00     0.136 C 
ATOM      2  O   UNL     1     -17.877  -3.277  23.014  1.00  0.00    -0.299 OA
ENDROOT
BRANCH   1   3
ATOM      3  C   UNL     1     -18.746  -1.114  23.441  1.00  0.00     0.053 C 
ATOM      4  C   UNL     1     -17.304  -0.762  23.826  1.00  0.00     0.016 C 
BRANCH   3   5
ATOM      5  C   UNL     1     -19.239  -0.267  22.243  1.00  0.00     0.015 C 
BRANCH   5   6
ATOM      6  C   UNL     1     -20.638   0.363  22.397  1.00  0.00     0.028 C 
BRANCH   6   7
ATOM      7  C   UNL     1     -21.488   0.462  21.148  1.00  0.00    -0.028 C 
ATOM      8  C   UNL     1     -22.112  -0.555  20.506  1.00  0.00    -0.070 CG0
ATOM      9  C   UNL     1     -22.824  -0.234  19.214  1.00  0.00     0.039 C 
ATOM     10  G   UNL     1     -22.202  -1.973  21.039  1.00  0.00     0.000 G0
ENDBRANCH   6   7
ENDBRANCH   5   6
ENDBRANCH   3   5
ENDBRANCH   1   3
BRANCH   1  11
ATOM     11  C   UNL     1     -20.226  -3.179  22.770  1.00  0.00     0.087 C 
BRANCH  11  12
ATOM     12  C   UNL     1     -20.275  -3.764  21.324  1.00  0.00     0.066 C 
BRANCH  12  13
ATOM     13  C   UNL     1     -21.144  -2.867  20.449  1.00  0.00     0.140 C 
ATOM     14  O   UNL     1     -20.919  -2.819  19.248  1.00  0.00    -0.299 OA
BRANCH  13  15
ATOM     15  C   UNL     1     -22.225  -1.976  21.028  1.00  0.00     0.106 CG0
ATOM     16  G   UNL     1     -22.097  -0.558  20.503  1.00  0.00     0.000 G0
ENDBRANCH  13  15
ENDBRANCH  12  13
BRANCH  12  17
ATOM     17  C   UNL     1     -20.794  -5.240  21.303  1.00  0.00    -0.006 C 
ATOM     18  C   UNL     1     -19.832  -6.203  22.030  1.00  0.00     0.008 C 
ATOM     19  C   UNL     1     -22.184  -5.366  21.958  1.00  0.00     0.008 C 
ENDBRANCH  12  17
ENDBRANCH  11  12
ENDBRANCH   1  11
TORSDOF 1
ENDMDL
MODEL 8
REMARK VINA RESULT:    -3.211      7.137      8.978
REMARK INTER + INTRA:          -4.747
REMARK INTER:                  -4.449
REMARK INTRA:                  -0.298
REMARK UNBOUND:                 0.153
REMARK SMILES CC1=CCC[C@H](C)C(=O)C[C@@H](C(C)C)C(=O)C1
REMARK SMILES IDX 8 1 9 2 6 3 7 4 5 5 4 6 3 7 2 8 1 9 10 11 11 12 15 13 16 14
REMARK SMILES IDX 17 15 12 17 13 18 14 19
REMARK H PARENT
REMARK Flexibility Score: 70.00
ROOT
ATOM      1  C   UNL     1     -20.174   0.678  32.753  1.00  0.00     0.136 C 
ATOM      2  O   UNL     1     -20.801  -0.021  31.969  1.00  0.00    -0.299 OA
ENDROOT
BRANCH   1   3
ATOM      3  C   UNL     1     -18.666   0.585  32.799  1.00  0.00     0.053 C 
ATOM      4  C   UNL     1     -18.196  -0.872  32.709  1.00  0.00     0.016 C 
BRANCH   3   5
ATOM      5  C   UNL     1     -18.071   1.448  31.660  1.00  0.00     0.015 C 
BRANCH   5   6
ATOM      6  C   UNL     1     -17.126   2.585  32.102  1.00  0.00     0.028 C 
BRANCH   6   7
ATOM      7  C   UNL     1     -17.021   2.851  33.588  1.00  0.00    -0.028 C 
ATOM      8  C   UNL     1     -17.691   3.793  34.296  1.00  0.00    -0.070 CG0
ATOM      9  C   UNL     1     -17.348   3.945  35.757  1.00  0.00     0.039 C 
ATOM     10  G   UNL     1     -18.811   4.647  33.731  1.00  0.00     0.000 G0
ENDBRANCH   6   7
ENDBRANCH   5   6
ENDBRANCH   3   5
ENDBRANCH   1   3
BRANCH   1  11
ATOM     11  C   UNL     1     -20.913   1.684  33.603  1.00  0.00     0.087 C 
BRANCH  11  12
ATOM     12  C   UNL     1     -20.846   3.124  33.004  1.00  0.00     0.066 C 
BRANCH  12  13
ATOM     13  C   UNL     1     -20.169   4.053  34.005  1.00  0.00     0.140 C 
ATOM     14  O   UNL     1     -20.769   4.359  35.025  1.00  0.00    -0.299 OA
BRANCH  13  15
ATOM     15  C   UNL     1     -18.810   4.672  33.740  1.00  0.00     0.106 CG0
ATOM     16  G   UNL     1     -17.699   3.794  34.287  1.00  0.00     0.000 G0
ENDBRANCH  13  15
ENDBRANCH  12  13
BRANCH  12  17
ATOM     17  C   UNL     1     -22.261   3.663  32.607  1.00  0.00    -0.006 C 
ATOM     18  C   UNL     1     -22.587   3.395  31.123  1.00  0.00     0.008 C 
ATOM     19  C   UNL     1     -23.375   3.029  33.465  1.00  0.00     0.008 C 
ENDBRANCH  12  17
ENDBRANCH  11  12
ENDBRANCH   1  11
TORSDOF 1
ENDMDL
MODEL 9
REMARK VINA RESULT:    -3.182      5.577      7.580
REMARK INTER + INTRA:          -4.703
REMARK INTER:                  -5.005
REMARK INTRA:                   0.302
REMARK UNBOUND:                 0.153
REMARK SMILES CC1=CCC[C@H](C)C(=O)C[C@@H](C(C)C)C(=O)C1
REMARK SMILES IDX 8 1 9 2 6 3 7 4 5 5 4 6 3 7 2 8 1 9 10 11 11 12 15 13 16 14
REMARK SMILES IDX 17 15 12 17 13 18 14 19
REMARK H PARENT
REMARK Flexibility Score: 70.00
ROOT
ATOM      1  C   UNL     1     -18.808  -0.997  28.432  1.00  0.00     0.136 C 
ATOM      2  O   UNL     1     -18.544  -1.864  27.612  1.00  0.00    -0.299 OA
ENDROOT
BRANCH   1   3
ATOM      3  C   UNL     1     -20.072  -1.103  29.255  1.00  0.00     0.053 C 
ATOM      4  C   UNL     1     -21.126  -1.962  28.546  1.00  0.00     0.016 C 
BRANCH   3   5
ATOM      5  C   UNL     1     -19.721  -1.670  30.652  1.00  0.00     0.015 C 
BRANCH   5   6
ATOM      6  C   UNL     1     -19.739  -0.654  31.813  1.00  0.00     0.028 C 
BRANCH   6   7
ATOM      7  C   UNL     1     -18.568  -0.685  32.771  1.00  0.00    -0.028 C 
ATOM      8  C   UNL     1     -17.320  -0.205  32.548  1.00  0.00    -0.070 CG0
ATOM      9  C   UNL     1     -16.279  -0.440  33.615  1.00  0.00     0.039 C 
ATOM     10  G   UNL     1     -16.926   0.613  31.332  1.00  0.00     0.000 G0
ENDBRANCH   6   7
ENDBRANCH   5   6
ENDBRANCH   3   5
ENDBRANCH   1   3
BRANCH   1  11
ATOM     11  C   UNL     1     -17.822   0.122  28.670  1.00  0.00     0.087 C 
BRANCH  11  12
ATOM     12  C   UNL     1     -16.380  -0.410  28.938  1.00  0.00     0.066 C 
BRANCH  12  13
ATOM     13  C   UNL     1     -16.019  -0.173  30.400  1.00  0.00     0.140 C 
ATOM     14  O   UNL     1     -15.011  -0.697  30.851  1.00  0.00    -0.299 OA
BRANCH  13  15
ATOM     15  C   UNL     1     -16.909   0.626  31.332  1.00  0.00     0.106 CG0
ATOM     16  G   UNL     1     -17.318  -0.204  32.535  1.00  0.00     0.000 G0
ENDBRANCH  13  15
ENDBRANCH  12  13
BRANCH  12  17
ATOM     17  C   UNL     1     -15.324   0.245  27.987  1.00  0.00    -0.006 C 
ATOM     18  C   UNL     1     -15.901   0.519  26.582  1.00  0.00     0.008 C 
ATOM     19  C   UNL     1     -14.792   1.577  28.555  1.00  0.00     0.008 C 
ENDBRANCH  12  17
ENDBRANCH  11  12
ENDBRANCH   1  11
TORSDOF 1
ENDMDL
