MODEL 1
REMARK VINA RESULT:    -2.853      0.000      0.000
REMARK INTER + INTRA:          -4.556
REMARK INTER:                  -4.187
REMARK INTRA:                  -0.369
REMARK UNBOUND:                -0.369
REMARK SMILES O=C([O-])CCCCCCCC(=O)[O-]
REMARK SMILES IDX 7 1 6 2 5 3 4 4 2 5 1 6 3 7 8 8 9 9 10 10 11 11 12 12 13 13
REMARK H PARENT
REMARK Flexibility Score: inf
ROOT
ATOM      1  C   UNL     1      27.261   8.657  -0.507  1.00  0.00     0.000 C 
ENDROOT
BRANCH   1   2
ATOM      2  C   UNL     1      28.567   9.447  -0.307  1.00  0.00     0.000 C 
BRANCH   2   3
ATOM      3  C   UNL     1      28.779  10.531  -1.377  1.00  0.00     0.006 C 
BRANCH   3   4
ATOM      4  C   UNL     1      28.997   9.933  -2.773  1.00  0.00     0.053 C 
BRANCH   4   5
ATOM      5  C   UNL     1      27.862  10.244  -3.699  1.00  0.00     0.041 C 
ATOM      6  O   UNL     1      27.690  11.419  -4.115  1.00  0.00    -0.550 OA
ATOM      7  O   UNL     1      27.013   9.231  -4.125  1.00  0.00    -0.550 OA
ENDBRANCH   4   5
ENDBRANCH   3   4
ENDBRANCH   2   3
ENDBRANCH   1   2
BRANCH   1   8
ATOM      8  C   UNL     1      27.441   7.208  -1.001  1.00  0.00     0.000 C 
BRANCH   8   9
ATOM      9  C   UNL     1      26.176   6.556  -1.598  1.00  0.00     0.006 C 
BRANCH   9  10
ATOM     10  C   UNL     1      25.952   5.098  -1.167  1.00  0.00     0.053 C 
BRANCH  10  11
ATOM     11  C   UNL     1      25.046   4.370  -2.112  1.00  0.00     0.041 C 
ATOM     12  O   UNL     1      25.019   3.111  -2.120  1.00  0.00    -0.550 OA
ATOM     13  O   UNL     1      24.207   5.082  -2.959  1.00  0.00    -0.550 OA
ENDBRANCH  10  11
ENDBRANCH   9  10
ENDBRANCH   8   9
ENDBRANCH   1   8
TORSDOF 8
ENDMDL
MODEL 2
REMARK VINA RESULT:    -2.747      0.584      5.832
REMARK INTER + INTRA:          -4.401
REMARK INTER:                  -4.014
REMARK INTRA:                  -0.387
REMARK UNBOUND:                -0.369
REMARK SMILES O=C([O-])CCCCCCCC(=O)[O-]
REMARK SMILES IDX 7 1 6 2 5 3 4 4 2 5 1 6 3 7 8 8 9 9 10 10 11 11 12 12 13 13
REMARK H PARENT
REMARK Flexibility Score: inf
ROOT
ATOM      1  C   UNL     1      26.902   8.505  -0.499  1.00  0.00     0.000 C 
ENDROOT
BRANCH   1   2
ATOM      2  C   UNL     1      27.243   7.067  -0.929  1.00  0.00     0.000 C 
BRANCH   2   3
ATOM      3  C   UNL     1      26.153   6.433  -1.810  1.00  0.00     0.006 C 
BRANCH   3   4
ATOM      4  C   UNL     1      25.821   4.998  -1.379  1.00  0.00     0.053 C 
BRANCH   4   5
ATOM      5  C   UNL     1      24.777   4.378  -2.255  1.00  0.00     0.041 C 
ATOM      6  O   UNL     1      24.024   5.106  -2.954  1.00  0.00    -0.550 OA
ATOM      7  O   UNL     1      24.655   2.996  -2.323  1.00  0.00    -0.550 OA
ENDBRANCH   4   5
ENDBRANCH   3   4
ENDBRANCH   2   3
ENDBRANCH   1   2
BRANCH   1   8
ATOM      8  C   UNL     1      28.116   9.392  -0.159  1.00  0.00     0.000 C 
BRANCH   8   9
ATOM      9  C   UNL     1      29.124   9.595  -1.308  1.00  0.00     0.006 C 
BRANCH   9  10
ATOM     10  C   UNL     1      28.908  10.880  -2.121  1.00  0.00     0.053 C 
BRANCH  10  11
ATOM     11  C   UNL     1      28.166  10.617  -3.396  1.00  0.00     0.041 C 
ATOM     12  O   UNL     1      28.006   9.438  -3.804  1.00  0.00    -0.550 OA
ATOM     13  O   UNL     1      27.622  11.674  -4.115  1.00  0.00    -0.550 OA
ENDBRANCH  10  11
ENDBRANCH   9  10
ENDBRANCH   8   9
ENDBRANCH   1   8
TORSDOF 8
ENDMDL
MODEL 3
REMARK VINA RESULT:    -2.409      9.764     12.225
REMARK INTER + INTRA:          -3.905
REMARK INTER:                  -3.667
REMARK INTRA:                  -0.239
REMARK UNBOUND:                -0.369
REMARK SMILES O=C([O-])CCCCCCCC(=O)[O-]
REMARK SMILES IDX 7 1 6 2 5 3 4 4 2 5 1 6 3 7 8 8 9 9 10 10 11 11 12 12 13 13
REMARK H PARENT
REMARK Flexibility Score: inf
ROOT
ATOM      1  C   UNL     1      26.169  -4.185  -3.947  1.00  0.00     0.000 C 
ENDROOT
BRANCH   1   2
ATOM      2  C   UNL     1      27.604  -4.714  -4.125  1.00  0.00     0.000 C 
BRANCH   2   3
ATOM      3  C   UNL     1      27.974  -5.793  -3.093  1.00  0.00     0.006 C 
BRANCH   3   4
ATOM      4  C   UNL     1      27.054  -5.760  -1.866  1.00  0.00     0.053 C 
BRANCH   4   5
ATOM      5  C   UNL     1      27.576  -4.845  -0.801  1.00  0.00     0.041 C 
ATOM      6  O   UNL     1      26.971  -3.773  -0.536  1.00  0.00    -0.550 OA
ATOM      7  O   UNL     1      28.713  -5.189  -0.082  1.00  0.00    -0.550 OA
ENDBRANCH   4   5
ENDBRANCH   3   4
ENDBRANCH   2   3
ENDBRANCH   1   2
BRANCH   1   8
ATOM      8  C   UNL     1      26.064  -2.720  -3.476  1.00  0.00     0.000 C 
BRANCH   8   9
ATOM      9  C   UNL     1      24.757  -2.359  -2.742  1.00  0.00     0.006 C 
BRANCH   9  10
ATOM     10  C   UNL     1      24.048  -1.110  -3.288  1.00  0.00     0.053 C 
BRANCH  10  11
ATOM     11  C   UNL     1      22.866  -0.727  -2.452  1.00  0.00     0.041 C 
ATOM     12  O   UNL     1      22.650  -1.309  -1.357  1.00  0.00    -0.550 OA
ATOM     13  O   UNL     1      22.023   0.295  -2.867  1.00  0.00    -0.550 OA
ENDBRANCH  10  11
ENDBRANCH   9  10
ENDBRANCH   8   9
ENDBRANCH   1   8
TORSDOF 8
ENDMDL
MODEL 4
REMARK VINA RESULT:    -2.333     22.634     24.785
REMARK INTER + INTRA:          -3.794
REMARK INTER:                  -3.639
REMARK INTRA:                  -0.155
REMARK UNBOUND:                -0.369
REMARK SMILES O=C([O-])CCCCCCCC(=O)[O-]
REMARK SMILES IDX 7 1 6 2 5 3 4 4 2 5 1 6 3 7 8 8 9 9 10 10 11 11 12 12 13 13
REMARK H PARENT
REMARK Flexibility Score: inf
ROOT
ATOM      1  C   UNL     1       8.876  -4.543  10.540  1.00  0.00     0.000 C 
ENDROOT
BRANCH   1   2
ATOM      2  C   UNL     1       9.113  -5.917   9.886  1.00  0.00     0.000 C 
BRANCH   2   3
ATOM      3  C   UNL     1       8.979  -5.880   8.354  1.00  0.00     0.006 C 
BRANCH   3   4
ATOM      4  C   UNL     1      10.336  -5.704   7.659  1.00  0.00     0.053 C 
BRANCH   4   5
ATOM      5  C   UNL     1      10.189  -5.127   6.285  1.00  0.00     0.041 C 
ATOM      6  O   UNL     1      10.796  -4.067   5.976  1.00  0.00    -0.550 OA
ATOM      7  O   UNL     1       9.408  -5.774   5.337  1.00  0.00    -0.550 OA
ENDBRANCH   4   5
ENDBRANCH   3   4
ENDBRANCH   2   3
ENDBRANCH   1   2
BRANCH   1   8
ATOM      8  C   UNL     1       8.956  -4.527  12.079  1.00  0.00     0.000 C 
BRANCH   8   9
ATOM      9  C   UNL     1       8.890  -3.128  12.726  1.00  0.00     0.006 C 
BRANCH   9  10
ATOM     10  C   UNL     1       9.857  -2.928  13.902  1.00  0.00     0.053 C 
BRANCH  10  11
ATOM     11  C   UNL     1      10.507  -1.578  13.869  1.00  0.00     0.041 C 
ATOM     12  O   UNL     1      11.747  -1.476  13.684  1.00  0.00    -0.550 OA
ATOM     13  O   UNL     1       9.735  -0.432  14.009  1.00  0.00    -0.550 OA
ENDBRANCH  10  11
ENDBRANCH   9  10
ENDBRANCH   8   9
ENDBRANCH   1   8
TORSDOF 8
ENDMDL
MODEL 5
REMARK VINA RESULT:    -2.105      1.666      2.129
REMARK INTER + INTRA:          -3.459
REMARK INTER:                  -3.030
REMARK INTRA:                  -0.429
REMARK UNBOUND:                -0.369
REMARK SMILES O=C([O-])CCCCCCCC(=O)[O-]
REMARK SMILES IDX 7 1 6 2 5 3 4 4 2 5 1 6 3 7 8 8 9 9 10 10 11 11 12 12 13 13
REMARK H PARENT
REMARK Flexibility Score: inf
ROOT
ATOM      1  C   UNL     1      26.646   8.349  -2.080  1.00  0.00     0.000 C 
ENDROOT
BRANCH   1   2
ATOM      2  C   UNL     1      27.173   8.561  -3.511  1.00  0.00     0.000 C 
BRANCH   2   3
ATOM      3  C   UNL     1      27.325  10.048  -3.876  1.00  0.00     0.006 C 
BRANCH   3   4
ATOM      4  C   UNL     1      28.784  10.517  -3.795  1.00  0.00     0.053 C 
BRANCH   4   5
ATOM      5  C   UNL     1      29.008  11.450  -2.645  1.00  0.00     0.041 C 
ATOM      6  O   UNL     1      29.064  12.692  -2.840  1.00  0.00    -0.550 OA
ATOM      7  O   UNL     1      29.124  10.950  -1.354  1.00  0.00    -0.550 OA
ENDBRANCH   4   5
ENDBRANCH   3   4
ENDBRANCH   2   3
ENDBRANCH   1   2
BRANCH   1   8
ATOM      8  C   UNL     1      27.620   7.630  -1.124  1.00  0.00     0.000 C 
BRANCH   8   9
ATOM      9  C   UNL     1      27.299   6.145  -0.855  1.00  0.00     0.006 C 
BRANCH   9  10
ATOM     10  C   UNL     1      25.853   5.741  -1.184  1.00  0.00     0.053 C 
BRANCH  10  11
ATOM     11  C   UNL     1      25.761   4.318  -1.642  1.00  0.00     0.041 C 
ATOM     12  O   UNL     1      26.688   3.507  -1.380  1.00  0.00    -0.550 OA
ATOM     13  O   UNL     1      24.637   3.879  -2.329  1.00  0.00    -0.550 OA
ENDBRANCH  10  11
ENDBRANCH   9  10
ENDBRANCH   8   9
ENDBRANCH   1   8
TORSDOF 8
ENDMDL
MODEL 6
REMARK VINA RESULT:    -2.075      5.858      9.186
REMARK INTER + INTRA:          -3.414
REMARK INTER:                  -3.203
REMARK INTRA:                  -0.211
REMARK UNBOUND:                -0.369
REMARK SMILES O=C([O-])CCCCCCCC(=O)[O-]
REMARK SMILES IDX 7 1 6 2 5 3 4 4 2 5 1 6 3 7 8 8 9 9 10 10 11 11 12 12 13 13
REMARK H PARENT
REMARK Flexibility Score: inf
ROOT
ATOM      1  C   UNL     1      23.266  -1.049  -2.472  1.00  0.00     0.000 C 
ENDROOT
BRANCH   1   2
ATOM      2  C   UNL     1      22.786   0.368  -2.837  1.00  0.00     0.000 C 
BRANCH   2   3
ATOM      3  C   UNL     1      23.910   1.415  -2.765  1.00  0.00     0.006 C 
BRANCH   3   4
ATOM      4  C   UNL     1      23.364   2.842  -2.631  1.00  0.00     0.053 C 
BRANCH   4   5
ATOM      5  C   UNL     1      24.460   3.845  -2.442  1.00  0.00     0.041 C 
ATOM      6  O   UNL     1      25.509   3.527  -1.824  1.00  0.00    -0.550 OA
ATOM      7  O   UNL     1      24.335   5.123  -2.973  1.00  0.00    -0.550 OA
ENDBRANCH   4   5
ENDBRANCH   3   4
ENDBRANCH   2   3
ENDBRANCH   1   2
BRANCH   1   8
ATOM      8  C   UNL     1      24.407  -1.601  -3.349  1.00  0.00     0.000 C 
BRANCH   8   9
ATOM      9  C   UNL     1      25.513  -2.360  -2.587  1.00  0.00     0.006 C 
BRANCH   9  10
ATOM     10  C   UNL     1      26.000  -3.638  -3.286  1.00  0.00     0.053 C 
BRANCH  10  11
ATOM     11  C   UNL     1      26.568  -4.626  -2.313  1.00  0.00     0.041 C 
ATOM     12  O   UNL     1      26.570  -5.854  -2.585  1.00  0.00    -0.550 OA
ATOM     13  O   UNL     1      27.125  -4.184  -1.120  1.00  0.00    -0.550 OA
ENDBRANCH  10  11
ENDBRANCH   9  10
ENDBRANCH   8   9
ENDBRANCH   1   8
TORSDOF 8
ENDMDL
MODEL 7
REMARK VINA RESULT:    -1.979      5.803     10.575
REMARK INTER + INTRA:          -3.274
REMARK INTER:                  -3.067
REMARK INTRA:                  -0.206
REMARK UNBOUND:                -0.369
REMARK SMILES O=C([O-])CCCCCCCC(=O)[O-]
REMARK SMILES IDX 7 1 6 2 5 3 4 4 2 5 1 6 3 7 8 8 9 9 10 10 11 11 12 12 13 13
REMARK H PARENT
REMARK Flexibility Score: inf
ROOT
ATOM      1  C   UNL     1      23.394  -0.912  -2.348  1.00  0.00     0.000 C 
ENDROOT
BRANCH   1   2
ATOM      2  C   UNL     1      24.307  -1.691  -3.312  1.00  0.00     0.000 C 
BRANCH   2   3
ATOM      3  C   UNL     1      25.522  -2.318  -2.607  1.00  0.00     0.006 C 
BRANCH   3   4
ATOM      4  C   UNL     1      25.990  -3.607  -3.296  1.00  0.00     0.053 C 
BRANCH   4   5
ATOM      5  C   UNL     1      26.598  -4.571  -2.325  1.00  0.00     0.041 C 
ATOM      6  O   UNL     1      26.722  -5.786  -2.634  1.00  0.00    -0.550 OA
ATOM      7  O   UNL     1      27.054  -4.124  -1.092  1.00  0.00    -0.550 OA
ENDBRANCH   4   5
ENDBRANCH   3   4
ENDBRANCH   2   3
ENDBRANCH   1   2
BRANCH   1   8
ATOM      8  C   UNL     1      22.971   0.489  -2.834  1.00  0.00     0.000 C 
BRANCH   8   9
ATOM      9  C   UNL     1      24.075   1.564  -2.776  1.00  0.00     0.006 C 
BRANCH   9  10
ATOM     10  C   UNL     1      23.551   3.009  -2.754  1.00  0.00     0.053 C 
BRANCH  10  11
ATOM     11  C   UNL     1      24.627   3.989  -2.401  1.00  0.00     0.041 C 
ATOM     12  O   UNL     1      25.670   3.600  -1.812  1.00  0.00    -0.550 OA
ATOM     13  O   UNL     1      24.492   5.326  -2.751  1.00  0.00    -0.550 OA
ENDBRANCH  10  11
ENDBRANCH   9  10
ENDBRANCH   8   9
ENDBRANCH   1   8
TORSDOF 8
ENDMDL
MODEL 8
REMARK VINA RESULT:    -1.738      1.270      2.249
REMARK INTER + INTRA:          -2.920
REMARK INTER:                  -2.584
REMARK INTRA:                  -0.336
REMARK UNBOUND:                -0.369
REMARK SMILES O=C([O-])CCCCCCCC(=O)[O-]
REMARK SMILES IDX 7 1 6 2 5 3 4 4 2 5 1 6 3 7 8 8 9 9 10 10 11 11 12 12 13 13
REMARK H PARENT
REMARK Flexibility Score: inf
ROOT
ATOM      1  C   UNL     1      27.615   6.277  -0.711  1.00  0.00     0.000 C 
ENDROOT
BRANCH   1   2
ATOM      2  C   UNL     1      29.003   6.851  -0.373  1.00  0.00     0.000 C 
BRANCH   2   3
ATOM      3  C   UNL     1      29.109   8.360  -0.652  1.00  0.00     0.006 C 
BRANCH   3   4
ATOM      4  C   UNL     1      27.758   8.972  -1.047  1.00  0.00     0.053 C 
BRANCH   4   5
ATOM      5  C   UNL     1      27.726   9.374  -2.489  1.00  0.00     0.041 C 
ATOM      6  O   UNL     1      27.011   8.738  -3.307  1.00  0.00    -0.550 OA
ATOM      7  O   UNL     1      28.462  10.468  -2.924  1.00  0.00    -0.550 OA
ENDBRANCH   4   5
ENDBRANCH   3   4
ENDBRANCH   2   3
ENDBRANCH   1   2
BRANCH   1   8
ATOM      8  C   UNL     1      27.432   4.778  -0.399  1.00  0.00     0.000 C 
BRANCH   8   9
ATOM      9  C   UNL     1      26.200   4.118  -1.052  1.00  0.00     0.006 C 
BRANCH   9  10
ATOM     10  C   UNL     1      25.371   5.061  -1.938  1.00  0.00     0.053 C 
BRANCH  10  11
ATOM     11  C   UNL     1      24.221   4.353  -2.585  1.00  0.00     0.041 C 
ATOM     12  O   UNL     1      23.327   5.009  -3.181  1.00  0.00    -0.550 OA
ATOM     13  O   UNL     1      24.155   2.966  -2.559  1.00  0.00    -0.550 OA
ENDBRANCH  10  11
ENDBRANCH   9  10
ENDBRANCH   8   9
ENDBRANCH   1   8
TORSDOF 8
ENDMDL
