MODEL 1
REMARK VINA RESULT:    -5.990      0.000      0.000
REMARK INTER + INTRA:          -7.305
REMARK INTER:                  -7.040
REMARK INTRA:                  -0.264
REMARK UNBOUND:                -0.264
REMARK SMILES O=c1cc(-c2ccc(O)c(O)c2)oc2cc(O)cc(O)c12
REMARK SMILES IDX 4 1 3 2 2 3 1 4 21 5 19 6 18 7 16 8 15 9 14 10 13 11 5 12
REMARK SMILES IDX 6 13 7 14 8 15 12 16 10 17 9 18 11 20 20 22 17 24
REMARK H PARENT 9 19 11 21 20 23 17 25
REMARK Flexibility Score: inf
ROOT
ATOM      1  C   UNL     1     -20.429  23.135  34.835  1.00  0.00     0.138 A 
ATOM      2  C   UNL     1     -19.203  22.591  34.418  1.00  0.00     0.100 A 
ATOM      3  C   UNL     1     -18.366  23.339  33.590  1.00  0.00     0.197 A 
ATOM      4  O   UNL     1     -17.268  22.841  33.219  1.00  0.00    -0.289 OA
ATOM      5  C   UNL     1     -18.763  24.628  33.181  1.00  0.00     0.107 A 
ATOM      6  C   UNL     1     -17.974  25.452  32.344  1.00  0.00     0.134 A 
ATOM      7  C   UNL     1     -18.445  26.721  31.976  1.00  0.00     0.093 A 
ATOM      8  C   UNL     1     -19.685  27.180  32.428  1.00  0.00     0.123 A 
ATOM      9  C   UNL     1     -20.469  26.370  33.255  1.00  0.00     0.094 A 
ATOM     10  C   UNL     1     -20.018  25.102  33.634  1.00  0.00     0.146 A 
ATOM     11  O   UNL     1     -20.780  24.351  34.422  1.00  0.00    -0.456 OA
ENDROOT
BRANCH   1  12
ATOM     12  C   UNL     1     -21.360  22.384  35.715  1.00  0.00     0.021 A 
ATOM     13  C   UNL     1     -22.460  21.719  35.148  1.00  0.00     0.016 A 
ATOM     14  C   UNL     1     -23.353  21.012  35.955  1.00  0.00     0.051 A 
ATOM     15  C   UNL     1     -23.177  20.959  37.341  1.00  0.00     0.157 A 
ATOM     16  C   UNL     1     -21.190  22.343  37.111  1.00  0.00     0.062 A 
ATOM     17  C   UNL     1     -22.083  21.638  37.928  1.00  0.00     0.158 A 
BRANCH  15  18
ATOM     18  O   UNL     1     -24.103  20.230  38.090  1.00  0.00    -0.504 OA
ATOM     19  H   UNL     1     -25.098  20.390  38.068  1.00  0.00     0.293 HD
ENDBRANCH  15  18
BRANCH  17  20
ATOM     20  O   UNL     1     -21.851  21.644  39.304  1.00  0.00    -0.504 OA
ATOM     21  H   UNL     1     -21.064  21.192  39.746  1.00  0.00     0.293 HD
ENDBRANCH  17  20
ENDBRANCH   1  12
BRANCH   6  22
ATOM     22  O   UNL     1     -16.733  25.021  31.875  1.00  0.00    -0.507 OA
ATOM     23  H   UNL     1     -16.494  25.052  30.891  1.00  0.00     0.293 HD
ENDBRANCH   6  22
BRANCH   8  24
ATOM     24  O   UNL     1     -20.128  28.445  32.048  1.00  0.00    -0.508 OA
ATOM     25  H   UNL     1     -19.891  29.273  32.583  1.00  0.00     0.293 HD
ENDBRANCH   8  24
TORSDOF 5
ENDMDL
MODEL 2
REMARK VINA RESULT:    -5.722     18.611     19.555
REMARK INTER + INTRA:          -6.989
REMARK INTER:                  -6.700
REMARK INTRA:                  -0.289
REMARK UNBOUND:                -0.264
REMARK SMILES O=c1cc(-c2ccc(O)c(O)c2)oc2cc(O)cc(O)c12
REMARK SMILES IDX 4 1 3 2 2 3 1 4 21 5 19 6 18 7 16 8 15 9 14 10 13 11 5 12
REMARK SMILES IDX 6 13 7 14 8 15 12 16 10 17 9 18 11 20 20 22 17 24
REMARK H PARENT 9 19 11 21 20 23 17 25
REMARK Flexibility Score: inf
ROOT
ATOM      1  C   UNL     1      -6.929  29.983  45.638  1.00  0.00     0.138 A 
ATOM      2  C   UNL     1      -7.951  30.707  45.003  1.00  0.00     0.100 A 
ATOM      3  C   UNL     1      -8.205  32.023  45.393  1.00  0.00     0.197 A 
ATOM      4  O   UNL     1      -9.125  32.665  44.818  1.00  0.00    -0.289 OA
ATOM      5  C   UNL     1      -7.434  32.604  46.420  1.00  0.00     0.107 A 
ATOM      6  C   UNL     1      -7.625  33.931  46.875  1.00  0.00     0.134 A 
ATOM      7  C   UNL     1      -6.820  34.433  47.909  1.00  0.00     0.093 A 
ATOM      8  C   UNL     1      -5.831  33.637  48.493  1.00  0.00     0.123 A 
ATOM      9  C   UNL     1      -5.639  32.326  48.048  1.00  0.00     0.094 A 
ATOM     10  C   UNL     1      -6.430  31.806  47.019  1.00  0.00     0.146 A 
ATOM     11  O   UNL     1      -6.227  30.557  46.612  1.00  0.00    -0.456 OA
ENDROOT
BRANCH   1  12
ATOM     12  C   UNL     1      -6.616  28.580  45.264  1.00  0.00     0.021 A 
ATOM     13  C   UNL     1      -6.457  28.245  43.910  1.00  0.00     0.016 A 
ATOM     14  C   UNL     1      -6.170  26.932  43.533  1.00  0.00     0.051 A 
ATOM     15  C   UNL     1      -6.044  25.924  44.493  1.00  0.00     0.157 A 
ATOM     16  C   UNL     1      -6.504  27.563  46.231  1.00  0.00     0.062 A 
ATOM     17  C   UNL     1      -6.219  26.242  45.861  1.00  0.00     0.158 A 
BRANCH  15  18
ATOM     18  O   UNL     1      -5.750  24.633  44.051  1.00  0.00    -0.504 OA
ATOM     19  H   UNL     1      -5.971  24.288  43.129  1.00  0.00     0.293 HD
ENDBRANCH  15  18
BRANCH  17  20
ATOM     20  O   UNL     1      -6.125  25.288  46.875  1.00  0.00    -0.504 OA
ATOM     21  H   UNL     1      -6.906  24.983  47.438  1.00  0.00     0.293 HD
ENDBRANCH  17  20
ENDBRANCH   1  12
BRANCH   6  22
ATOM     22  O   UNL     1      -8.605  34.749  46.312  1.00  0.00    -0.507 OA
ATOM     23  H   UNL     1      -9.537  34.405  46.113  1.00  0.00     0.293 HD
ENDBRANCH   6  22
BRANCH   8  24
ATOM     24  O   UNL     1      -5.045  34.161  49.517  1.00  0.00    -0.508 OA
ATOM     25  H   UNL     1      -4.610  33.563  50.210  1.00  0.00     0.293 HD
ENDBRANCH   8  24
TORSDOF 5
ENDMDL
MODEL 3
REMARK VINA RESULT:    -5.695      1.647      7.157
REMARK INTER + INTRA:          -6.959
REMARK INTER:                  -6.694
REMARK INTRA:                  -0.265
REMARK UNBOUND:                -0.264
REMARK SMILES O=c1cc(-c2ccc(O)c(O)c2)oc2cc(O)cc(O)c12
REMARK SMILES IDX 4 1 3 2 2 3 1 4 21 5 19 6 18 7 16 8 15 9 14 10 13 11 5 12
REMARK SMILES IDX 6 13 7 14 8 15 12 16 10 17 9 18 11 20 20 22 17 24
REMARK H PARENT 9 19 11 21 20 23 17 25
REMARK Flexibility Score: inf
ROOT
ATOM      1  C   UNL     1     -19.996  23.760  35.410  1.00  0.00     0.138 A 
ATOM      2  C   UNL     1     -20.742  22.663  34.950  1.00  0.00     0.100 A 
ATOM      3  C   UNL     1     -21.474  21.900  35.861  1.00  0.00     0.197 A 
ATOM      4  O   UNL     1     -22.140  20.916  35.440  1.00  0.00    -0.289 OA
ATOM      5  C   UNL     1     -21.451  22.241  37.229  1.00  0.00     0.107 A 
ATOM      6  C   UNL     1     -22.165  21.522  38.217  1.00  0.00     0.134 A 
ATOM      7  C   UNL     1     -22.085  21.921  39.560  1.00  0.00     0.093 A 
ATOM      8  C   UNL     1     -21.308  23.021  39.931  1.00  0.00     0.123 A 
ATOM      9  C   UNL     1     -20.600  23.734  38.959  1.00  0.00     0.094 A 
ATOM     10  C   UNL     1     -20.667  23.354  37.615  1.00  0.00     0.146 A 
ATOM     11  O   UNL     1     -19.987  24.048  36.709  1.00  0.00    -0.456 OA
ENDROOT
BRANCH   1  12
ATOM     12  C   UNL     1     -19.197  24.605  34.486  1.00  0.00     0.021 A 
ATOM     13  C   UNL     1     -19.555  25.949  34.297  1.00  0.00     0.016 A 
ATOM     14  C   UNL     1     -18.824  26.762  33.428  1.00  0.00     0.051 A 
ATOM     15  C   UNL     1     -17.729  26.253  32.723  1.00  0.00     0.157 A 
ATOM     16  C   UNL     1     -18.103  24.088  33.766  1.00  0.00     0.062 A 
ATOM     17  C   UNL     1     -17.367  24.896  32.890  1.00  0.00     0.158 A 
BRANCH  15  18
ATOM     18  O   UNL     1     -17.037  27.120  31.875  1.00  0.00    -0.504 OA
ATOM     19  H   UNL     1     -17.371  28.034  31.607  1.00  0.00     0.293 HD
ENDBRANCH  15  18
BRANCH  17  20
ATOM     20  O   UNL     1     -16.297  24.312  32.210  1.00  0.00    -0.504 OA
ATOM     21  H   UNL     1     -16.295  24.122  31.218  1.00  0.00     0.293 HD
ENDBRANCH  17  20
ENDBRANCH   1  12
BRANCH   6  22
ATOM     22  O   UNL     1     -22.949  20.419  37.877  1.00  0.00    -0.507 OA
ATOM     23  H   UNL     1     -23.805  20.517  37.343  1.00  0.00     0.293 HD
ENDBRANCH   6  22
BRANCH   8  24
ATOM     24  O   UNL     1     -21.246  23.396  41.271  1.00  0.00    -0.508 OA
ATOM     25  H   UNL     1     -20.803  24.261  41.560  1.00  0.00     0.293 HD
ENDBRANCH   8  24
TORSDOF 5
ENDMDL
MODEL 4
REMARK VINA RESULT:    -5.637     19.025     19.909
REMARK INTER + INTRA:          -6.889
REMARK INTER:                  -6.625
REMARK INTRA:                  -0.264
REMARK UNBOUND:                -0.264
REMARK SMILES O=c1cc(-c2ccc(O)c(O)c2)oc2cc(O)cc(O)c12
REMARK SMILES IDX 4 1 3 2 2 3 1 4 21 5 19 6 18 7 16 8 15 9 14 10 13 11 5 12
REMARK SMILES IDX 6 13 7 14 8 15 12 16 10 17 9 18 11 20 20 22 17 24
REMARK H PARENT 9 19 11 21 20 23 17 25
REMARK Flexibility Score: inf
ROOT
ATOM      1  C   UNL     1      -5.833  30.168  46.104  1.00  0.00     0.138 A 
ATOM      2  C   UNL     1      -4.791  30.707  46.876  1.00  0.00     0.100 A 
ATOM      3  C   UNL     1      -4.863  32.037  47.294  1.00  0.00     0.197 A 
ATOM      4  O   UNL     1      -3.923  32.514  47.985  1.00  0.00    -0.289 OA
ATOM      5  C   UNL     1      -5.978  32.820  46.931  1.00  0.00     0.107 A 
ATOM      6  C   UNL     1      -6.130  34.174  47.313  1.00  0.00     0.134 A 
ATOM      7  C   UNL     1      -7.268  34.887  46.905  1.00  0.00     0.093 A 
ATOM      8  C   UNL     1      -8.252  34.274  46.126  1.00  0.00     0.123 A 
ATOM      9  C   UNL     1      -8.107  32.936  45.746  1.00  0.00     0.094 A 
ATOM     10  C   UNL     1      -6.981  32.207  46.142  1.00  0.00     0.146 A 
ATOM     11  O   UNL     1      -6.866  30.937  45.770  1.00  0.00    -0.456 OA
ENDROOT
BRANCH   1  12
ATOM     12  C   UNL     1      -5.808  28.760  45.632  1.00  0.00     0.021 A 
ATOM     13  C   UNL     1      -5.507  28.488  44.288  1.00  0.00     0.016 A 
ATOM     14  C   UNL     1      -5.484  27.174  43.818  1.00  0.00     0.051 A 
ATOM     15  C   UNL     1      -5.770  26.104  44.671  1.00  0.00     0.157 A 
ATOM     16  C   UNL     1      -6.109  27.685  46.489  1.00  0.00     0.062 A 
ATOM     17  C   UNL     1      -6.091  26.363  46.025  1.00  0.00     0.158 A 
BRANCH  15  18
ATOM     18  O   UNL     1      -5.724  24.814  44.140  1.00  0.00    -0.504 OA
ATOM     19  H   UNL     1      -5.563  23.983  44.689  1.00  0.00     0.293 HD
ENDBRANCH  15  18
BRANCH  17  20
ATOM     20  O   UNL     1      -6.403  25.350  46.933  1.00  0.00    -0.504 OA
ATOM     21  H   UNL     1      -6.290  25.433  47.932  1.00  0.00     0.293 HD
ENDBRANCH  17  20
ENDBRANCH   1  12
BRANCH   6  22
ATOM     22  O   UNL     1      -5.164  34.815  48.089  1.00  0.00    -0.507 OA
ATOM     23  H   UNL     1      -4.766  34.378  48.912  1.00  0.00     0.293 HD
ENDBRANCH   6  22
BRANCH   8  24
ATOM     24  O   UNL     1      -9.372  35.004  45.735  1.00  0.00    -0.508 OA
ATOM     25  H   UNL     1      -9.432  35.434  44.819  1.00  0.00     0.293 HD
ENDBRANCH   8  24
TORSDOF 5
ENDMDL
MODEL 5
REMARK VINA RESULT:    -5.630     15.641     16.539
REMARK INTER + INTRA:          -6.882
REMARK INTER:                  -6.615
REMARK INTRA:                  -0.267
REMARK UNBOUND:                -0.264
REMARK SMILES O=c1cc(-c2ccc(O)c(O)c2)oc2cc(O)cc(O)c12
REMARK SMILES IDX 4 1 3 2 2 3 1 4 21 5 19 6 18 7 16 8 15 9 14 10 13 11 5 12
REMARK SMILES IDX 6 13 7 14 8 15 12 16 10 17 9 18 11 20 20 22 17 24
REMARK H PARENT 9 19 11 21 20 23 17 25
REMARK Flexibility Score: inf
ROOT
ATOM      1  C   UNL     1      -9.117  28.193  44.068  1.00  0.00     0.138 A 
ATOM      2  C   UNL     1      -8.111  27.220  44.182  1.00  0.00     0.100 A 
ATOM      3  C   UNL     1      -7.043  27.436  45.053  1.00  0.00     0.197 A 
ATOM      4  O   UNL     1      -6.143  26.558  45.148  1.00  0.00    -0.289 OA
ATOM      5  C   UNL     1      -6.988  28.628  45.804  1.00  0.00     0.107 A 
ATOM      6  C   UNL     1      -5.942  28.925  46.710  1.00  0.00     0.134 A 
ATOM      7  C   UNL     1      -5.957  30.138  47.414  1.00  0.00     0.093 A 
ATOM      8  C   UNL     1      -6.994  31.056  47.231  1.00  0.00     0.123 A 
ATOM      9  C   UNL     1      -8.030  30.768  46.336  1.00  0.00     0.094 A 
ATOM     10  C   UNL     1      -8.034  29.565  45.625  1.00  0.00     0.146 A 
ATOM     11  O   UNL     1      -9.030  29.312  44.782  1.00  0.00    -0.456 OA
ENDROOT
BRANCH   1  12
ATOM     12  C   UNL     1     -10.276  28.017  43.155  1.00  0.00     0.021 A 
ATOM     13  C   UNL     1     -11.304  27.129  43.509  1.00  0.00     0.016 A 
ATOM     14  C   UNL     1     -12.400  26.941  42.665  1.00  0.00     0.051 A 
ATOM     15  C   UNL     1     -12.491  27.624  41.449  1.00  0.00     0.157 A 
ATOM     16  C   UNL     1     -10.360  28.695  41.925  1.00  0.00     0.062 A 
ATOM     17  C   UNL     1     -11.455  28.510  41.071  1.00  0.00     0.158 A 
BRANCH  15  18
ATOM     18  O   UNL     1     -13.616  27.396  40.654  1.00  0.00    -0.504 OA
ATOM     19  H   UNL     1     -13.586  26.961  39.744  1.00  0.00     0.293 HD
ENDBRANCH  15  18
BRANCH  17  20
ATOM     20  O   UNL     1     -11.468  29.215  39.866  1.00  0.00    -0.504 OA
ATOM     21  H   UNL     1     -11.226  28.811  38.973  1.00  0.00     0.293 HD
ENDBRANCH  17  20
ENDBRANCH   1  12
BRANCH   6  22
ATOM     22  O   UNL     1      -4.892  28.029  46.913  1.00  0.00    -0.507 OA
ATOM     23  H   UNL     1      -4.085  28.272  47.477  1.00  0.00     0.293 HD
ENDBRANCH   6  22
BRANCH   8  24
ATOM     24  O   UNL     1      -6.985  32.253  47.943  1.00  0.00    -0.508 OA
ATOM     25  H   UNL     1      -7.301  32.300  48.906  1.00  0.00     0.293 HD
ENDBRANCH   8  24
TORSDOF 5
ENDMDL
MODEL 6
REMARK VINA RESULT:    -5.625     15.923     16.739
REMARK INTER + INTRA:          -6.875
REMARK INTER:                  -6.611
REMARK INTRA:                  -0.264
REMARK UNBOUND:                -0.264
REMARK SMILES O=c1cc(-c2ccc(O)c(O)c2)oc2cc(O)cc(O)c12
REMARK SMILES IDX 4 1 3 2 2 3 1 4 21 5 19 6 18 7 16 8 15 9 14 10 13 11 5 12
REMARK SMILES IDX 6 13 7 14 8 15 12 16 10 17 9 18 11 20 20 22 17 24
REMARK H PARENT 9 19 11 21 20 23 17 25
REMARK Flexibility Score: inf
ROOT
ATOM      1  C   UNL     1      -8.825  28.247  44.225  1.00  0.00     0.138 A 
ATOM      2  C   UNL     1      -7.785  27.321  44.405  1.00  0.00     0.100 A 
ATOM      3  C   UNL     1      -6.745  27.618  45.287  1.00  0.00     0.197 A 
ATOM      4  O   UNL     1      -5.815  26.781  45.441  1.00  0.00    -0.289 OA
ATOM      5  C   UNL     1      -6.751  28.846  45.980  1.00  0.00     0.107 A 
ATOM      6  C   UNL     1      -5.737  29.225  46.891  1.00  0.00     0.134 A 
ATOM      7  C   UNL     1      -5.813  30.468  47.537  1.00  0.00     0.093 A 
ATOM      8  C   UNL     1      -6.881  31.336  47.290  1.00  0.00     0.123 A 
ATOM      9  C   UNL     1      -7.885  30.966  46.390  1.00  0.00     0.094 A 
ATOM     10  C   UNL     1      -7.829  29.731  45.737  1.00  0.00     0.146 A 
ATOM     11  O   UNL     1      -8.796  29.401  44.887  1.00  0.00    -0.456 OA
ENDROOT
BRANCH   1  12
ATOM     12  C   UNL     1      -9.956  27.984  43.300  1.00  0.00     0.021 A 
ATOM     13  C   UNL     1      -9.907  28.485  41.989  1.00  0.00     0.016 A 
ATOM     14  C   UNL     1     -10.961  28.257  41.102  1.00  0.00     0.051 A 
ATOM     15  C   UNL     1     -12.088  27.534  41.503  1.00  0.00     0.157 A 
ATOM     16  C   UNL     1     -11.097  27.267  43.708  1.00  0.00     0.062 A 
ATOM     17  C   UNL     1     -12.160  27.037  42.825  1.00  0.00     0.158 A 
BRANCH  15  18
ATOM     18  O   UNL     1     -13.104  27.336  40.565  1.00  0.00    -0.504 OA
ATOM     19  H   UNL     1     -14.015  26.965  40.790  1.00  0.00     0.293 HD
ENDBRANCH  15  18
BRANCH  17  20
ATOM     20  O   UNL     1     -13.259  26.321  43.302  1.00  0.00    -0.504 OA
ATOM     21  H   UNL     1     -13.779  26.571  44.131  1.00  0.00     0.293 HD
ENDBRANCH  17  20
ENDBRANCH   1  12
BRANCH   6  22
ATOM     22  O   UNL     1      -4.659  28.381  47.158  1.00  0.00    -0.507 OA
ATOM     23  H   UNL     1      -4.257  28.306  48.086  1.00  0.00     0.293 HD
ENDBRANCH   6  22
BRANCH   8  24
ATOM     24  O   UNL     1      -6.932  32.564  47.945  1.00  0.00    -0.508 OA
ATOM     25  H   UNL     1      -6.932  32.626  48.957  1.00  0.00     0.293 HD
ENDBRANCH   8  24
TORSDOF 5
ENDMDL
MODEL 7
REMARK VINA RESULT:    -5.603      5.554      8.077
REMARK INTER + INTRA:          -6.850
REMARK INTER:                  -6.585
REMARK INTRA:                  -0.265
REMARK UNBOUND:                -0.264
REMARK SMILES O=c1cc(-c2ccc(O)c(O)c2)oc2cc(O)cc(O)c12
REMARK SMILES IDX 4 1 3 2 2 3 1 4 21 5 19 6 18 7 16 8 15 9 14 10 13 11 5 12
REMARK SMILES IDX 6 13 7 14 8 15 12 16 10 17 9 18 11 20 20 22 17 24
REMARK H PARENT 9 19 11 21 20 23 17 25
REMARK Flexibility Score: inf
ROOT
ATOM      1  C   UNL     1     -19.234  21.306  41.584  1.00  0.00     0.138 A 
ATOM      2  C   UNL     1     -20.598  21.475  41.873  1.00  0.00     0.100 A 
ATOM      3  C   UNL     1     -21.278  22.580  41.358  1.00  0.00     0.197 A 
ATOM      4  O   UNL     1     -22.502  22.724  41.624  1.00  0.00    -0.289 OA
ATOM      5  C   UNL     1     -20.585  23.511  40.557  1.00  0.00     0.107 A 
ATOM      6  C   UNL     1     -21.198  24.655  39.995  1.00  0.00     0.134 A 
ATOM      7  C   UNL     1     -20.437  25.538  39.214  1.00  0.00     0.093 A 
ATOM      8  C   UNL     1     -19.080  25.298  38.985  1.00  0.00     0.123 A 
ATOM      9  C   UNL     1     -18.469  24.169  39.539  1.00  0.00     0.094 A 
ATOM     10  C   UNL     1     -19.209  23.276  40.319  1.00  0.00     0.146 A 
ATOM     11  O   UNL     1     -18.607  22.209  40.834  1.00  0.00    -0.456 OA
ENDROOT
BRANCH   1  12
ATOM     12  C   UNL     1     -18.461  20.151  42.106  1.00  0.00     0.021 A 
ATOM     13  C   UNL     1     -18.062  19.133  41.226  1.00  0.00     0.016 A 
ATOM     14  C   UNL     1     -17.340  18.034  41.694  1.00  0.00     0.051 A 
ATOM     15  C   UNL     1     -17.009  17.919  43.048  1.00  0.00     0.157 A 
ATOM     16  C   UNL     1     -18.140  20.031  43.471  1.00  0.00     0.062 A 
ATOM     17  C   UNL     1     -17.418  18.929  43.950  1.00  0.00     0.158 A 
BRANCH  15  18
ATOM     18  O   UNL     1     -16.280  16.798  43.450  1.00  0.00    -0.504 OA
ATOM     19  H   UNL     1     -16.532  15.849  43.221  1.00  0.00     0.293 HD
ENDBRANCH  15  18
BRANCH  17  20
ATOM     20  O   UNL     1     -17.139  18.877  45.317  1.00  0.00    -0.504 OA
ATOM     21  H   UNL     1     -17.845  18.903  46.038  1.00  0.00     0.293 HD
ENDBRANCH  17  20
ENDBRANCH   1  12
BRANCH   6  22
ATOM     22  O   UNL     1     -22.552  24.922  40.206  1.00  0.00    -0.507 OA
ATOM     23  H   UNL     1     -23.189  24.211  40.544  1.00  0.00     0.293 HD
ENDBRANCH   6  22
BRANCH   8  24
ATOM     24  O   UNL     1     -18.347  26.191  38.205  1.00  0.00    -0.508 OA
ATOM     25  H   UNL     1     -17.393  25.992  37.927  1.00  0.00     0.293 HD
ENDBRANCH   8  24
TORSDOF 5
ENDMDL
MODEL 8
REMARK VINA RESULT:    -5.417      6.734     10.405
REMARK INTER + INTRA:          -6.631
REMARK INTER:                  -6.365
REMARK INTRA:                  -0.266
REMARK UNBOUND:                -0.264
REMARK SMILES O=c1cc(-c2ccc(O)c(O)c2)oc2cc(O)cc(O)c12
REMARK SMILES IDX 4 1 3 2 2 3 1 4 21 5 19 6 18 7 16 8 15 9 14 10 13 11 5 12
REMARK SMILES IDX 6 13 7 14 8 15 12 16 10 17 9 18 11 20 20 22 17 24
REMARK H PARENT 9 19 11 21 20 23 17 25
REMARK Flexibility Score: inf
ROOT
ATOM      1  C   UNL     1     -18.445  20.003  42.035  1.00  0.00     0.138 A 
ATOM      2  C   UNL     1     -18.093  19.843  43.384  1.00  0.00     0.100 A 
ATOM      3  C   UNL     1     -17.330  18.740  43.769  1.00  0.00     0.197 A 
ATOM      4  O   UNL     1     -17.020  18.603  44.984  1.00  0.00    -0.289 OA
ATOM      5  C   UNL     1     -16.927  17.801  42.798  1.00  0.00     0.107 A 
ATOM      6  C   UNL     1     -16.152  16.656  43.103  1.00  0.00     0.134 A 
ATOM      7  C   UNL     1     -15.798  15.765  42.079  1.00  0.00     0.093 A 
ATOM      8  C   UNL     1     -16.201  15.996  40.761  1.00  0.00     0.123 A 
ATOM      9  C   UNL     1     -16.967  17.125  40.455  1.00  0.00     0.094 A 
ATOM     10  C   UNL     1     -17.331  18.026  41.460  1.00  0.00     0.146 A 
ATOM     11  O   UNL     1     -18.057  19.093  41.144  1.00  0.00    -0.456 OA
ENDROOT
BRANCH   1  12
ATOM     12  C   UNL     1     -19.256  21.157  41.569  1.00  0.00     0.021 A 
ATOM     13  C   UNL     1     -20.657  21.084  41.627  1.00  0.00     0.016 A 
ATOM     14  C   UNL     1     -21.441  22.152  41.189  1.00  0.00     0.051 A 
ATOM     15  C   UNL     1     -20.850  23.311  40.676  1.00  0.00     0.157 A 
ATOM     16  C   UNL     1     -18.659  22.317  41.040  1.00  0.00     0.062 A 
ATOM     17  C   UNL     1     -19.439  23.392  40.595  1.00  0.00     0.158 A 
BRANCH  15  18
ATOM     18  O   UNL     1     -21.690  24.345  40.260  1.00  0.00    -0.504 OA
ATOM     19  H   UNL     1     -22.104  25.021  40.884  1.00  0.00     0.293 HD
ENDBRANCH  15  18
BRANCH  17  20
ATOM     20  O   UNL     1     -18.777  24.508  40.081  1.00  0.00    -0.504 OA
ATOM     21  H   UNL     1     -17.978  24.942  40.519  1.00  0.00     0.293 HD
ENDBRANCH  17  20
ENDBRANCH   1  12
BRANCH   6  22
ATOM     22  O   UNL     1     -15.735  16.397  44.409  1.00  0.00    -0.507 OA
ATOM     23  H   UNL     1     -16.058  15.584  44.920  1.00  0.00     0.293 HD
ENDBRANCH   6  22
BRANCH   8  24
ATOM     24  O   UNL     1     -15.834  15.096  39.763  1.00  0.00    -0.508 OA
ATOM     25  H   UNL     1     -15.142  15.334  39.062  1.00  0.00     0.293 HD
ENDBRANCH   8  24
TORSDOF 5
ENDMDL
MODEL 9
REMARK VINA RESULT:    -5.390     14.616     15.744
REMARK INTER + INTRA:          -6.600
REMARK INTER:                  -6.314
REMARK INTRA:                  -0.286
REMARK UNBOUND:                -0.264
REMARK SMILES O=c1cc(-c2ccc(O)c(O)c2)oc2cc(O)cc(O)c12
REMARK SMILES IDX 4 1 3 2 2 3 1 4 21 5 19 6 18 7 16 8 15 9 14 10 13 11 5 12
REMARK SMILES IDX 6 13 7 14 8 15 12 16 10 17 9 18 11 20 20 22 17 24
REMARK H PARENT 9 19 11 21 20 23 17 25
REMARK Flexibility Score: inf
ROOT
ATOM      1  C   UNL     1      -8.727  27.619  43.828  1.00  0.00     0.138 A 
ATOM      2  C   UNL     1      -7.988  26.885  42.886  1.00  0.00     0.100 A 
ATOM      3  C   UNL     1      -8.656  26.202  41.869  1.00  0.00     0.197 A 
ATOM      4  O   UNL     1      -7.985  25.544  41.029  1.00  0.00    -0.289 OA
ATOM      5  C   UNL     1     -10.064  26.256  41.804  1.00  0.00     0.107 A 
ATOM      6  C   UNL     1     -10.818  25.594  40.806  1.00  0.00     0.134 A 
ATOM      7  C   UNL     1     -12.218  25.692  40.815  1.00  0.00     0.093 A 
ATOM      8  C   UNL     1     -12.874  26.436  41.798  1.00  0.00     0.123 A 
ATOM      9  C   UNL     1     -12.133  27.092  42.787  1.00  0.00     0.094 A 
ATOM     10  C   UNL     1     -10.738  27.008  42.796  1.00  0.00     0.146 A 
ATOM     11  O   UNL     1     -10.055  27.640  43.745  1.00  0.00    -0.456 OA
ENDROOT
BRANCH   1  12
ATOM     12  C   UNL     1      -8.069  28.363  44.931  1.00  0.00     0.021 A 
ATOM     13  C   UNL     1      -8.626  29.573  45.376  1.00  0.00     0.016 A 
ATOM     14  C   UNL     1      -8.022  30.294  46.408  1.00  0.00     0.051 A 
ATOM     15  C   UNL     1      -6.848  29.834  47.010  1.00  0.00     0.157 A 
ATOM     16  C   UNL     1      -6.879  27.905  45.528  1.00  0.00     0.062 A 
ATOM     17  C   UNL     1      -6.265  28.625  46.561  1.00  0.00     0.158 A 
BRANCH  15  18
ATOM     18  O   UNL     1      -6.298  30.599  48.040  1.00  0.00    -0.504 OA
ATOM     19  H   UNL     1      -6.797  31.325  48.532  1.00  0.00     0.293 HD
ENDBRANCH  15  18
BRANCH  17  20
ATOM     20  O   UNL     1      -5.086  28.110  47.102  1.00  0.00    -0.504 OA
ATOM     21  H   UNL     1      -4.708  27.203  46.871  1.00  0.00     0.293 HD
ENDBRANCH  17  20
ENDBRANCH   1  12
BRANCH   6  22
ATOM     22  O   UNL     1     -10.192  24.842  39.812  1.00  0.00    -0.507 OA
ATOM     23  H   UNL     1      -9.866  25.264  38.950  1.00  0.00     0.293 HD
ENDBRANCH   6  22
BRANCH   8  24
ATOM     24  O   UNL     1     -14.265  26.518  41.783  1.00  0.00    -0.508 OA
ATOM     25  H   UNL     1     -14.821  25.977  41.131  1.00  0.00     0.293 HD
ENDBRANCH   8  24
TORSDOF 5
ENDMDL
