MODEL 1
REMARK VINA RESULT:    -3.613      0.000      0.000
REMARK INTER + INTRA:          -4.638
REMARK INTER:                  -4.246
REMARK INTRA:                  -0.392
REMARK UNBOUND:                -0.392
REMARK SMILES [NH3+][C@@H](CO)C(=O)[O-]
REMARK SMILES IDX 3 1 2 2 1 3 5 7 6 8 7 9 4 10
REMARK H PARENT 1 4 1 5 1 6 4 11
REMARK Flexibility Score: inf
ROOT
ATOM      1  C   UNL     1      11.134  18.314  26.873  1.00  0.00     0.227 C 
ENDROOT
BRANCH   1   2
ATOM      2  C   UNL     1      11.832  18.610  25.533  1.00  0.00     0.253 C 
BRANCH   2   3
ATOM      3  N   UNL     1      11.162  19.712  24.832  1.00  0.00    -0.348 N 
ATOM      4  H   UNL     1      10.177  19.803  25.173  1.00  0.00     0.345 HD
ATOM      5  H   UNL     1      11.136  19.514  23.806  1.00  0.00     0.345 HD
ATOM      6  H   UNL     1      11.666  20.615  24.993  1.00  0.00     0.345 HD
ENDBRANCH   2   3
BRANCH   2   7
ATOM      7  C   UNL     1      11.864  17.378  24.666  1.00  0.00     0.102 C 
ATOM      8  O   UNL     1      10.997  17.205  23.768  1.00  0.00    -0.544 OA
ATOM      9  O   UNL     1      12.846  16.417  24.864  1.00  0.00    -0.544 OA
ENDBRANCH   2   7
ENDBRANCH   1   2
BRANCH   1  10
ATOM     10  O   UNL     1      10.549  17.040  26.860  1.00  0.00    -0.390 OA
ATOM     11  H   UNL     1      10.066  16.958  25.996  1.00  0.00     0.210 HD
ENDBRANCH   1  10
TORSDOF 4
ENDMDL
MODEL 2
REMARK VINA RESULT:    -3.588      1.763      2.491
REMARK INTER + INTRA:          -4.609
REMARK INTER:                  -4.387
REMARK INTRA:                  -0.222
REMARK UNBOUND:                -0.392
REMARK SMILES [NH3+][C@@H](CO)C(=O)[O-]
REMARK SMILES IDX 3 1 2 2 1 3 5 7 6 8 7 9 4 10
REMARK H PARENT 1 4 1 5 1 6 4 11
REMARK Flexibility Score: inf
ROOT
ATOM      1  C   UNL     1      12.239  19.036  24.739  1.00  0.00     0.227 C 
ENDROOT
BRANCH   1   2
ATOM      2  C   UNL     1      11.797  17.601  24.397  1.00  0.00     0.253 C 
BRANCH   2   3
ATOM      3  N   UNL     1      10.701  17.615  23.421  1.00  0.00    -0.348 N 
ATOM      4  H   UNL     1      10.551  18.589  23.071  1.00  0.00     0.345 HD
ATOM      5  H   UNL     1       9.818  17.291  23.877  1.00  0.00     0.345 HD
ATOM      6  H   UNL     1      10.917  16.988  22.612  1.00  0.00     0.345 HD
ENDBRANCH   2   3
BRANCH   2   7
ATOM      7  C   UNL     1      11.383  16.860  25.642  1.00  0.00     0.102 C 
ATOM      8  O   UNL     1      11.305  15.603  25.642  1.00  0.00    -0.544 OA
ATOM      9  O   UNL     1      11.069  17.566  26.796  1.00  0.00    -0.544 OA
ENDBRANCH   2   7
ENDBRANCH   1   2
BRANCH   1  10
ATOM     10  O   UNL     1      11.128  19.882  24.867  1.00  0.00    -0.390 OA
ATOM     11  H   UNL     1      11.317  20.684  24.313  1.00  0.00     0.210 HD
ENDBRANCH   1  10
TORSDOF 4
ENDMDL
MODEL 3
REMARK VINA RESULT:    -3.487     12.659     13.798
REMARK INTER + INTRA:          -4.491
REMARK INTER:                  -4.482
REMARK INTRA:                  -0.009
REMARK UNBOUND:                -0.392
REMARK SMILES [NH3+][C@@H](CO)C(=O)[O-]
REMARK SMILES IDX 3 1 2 2 1 3 5 7 6 8 7 9 4 10
REMARK H PARENT 1 4 1 5 1 6 4 11
REMARK Flexibility Score: inf
ROOT
ATOM      1  C   UNL     1      18.608  12.567  13.660  1.00  0.00     0.227 C 
ENDROOT
BRANCH   1   2
ATOM      2  C   UNL     1      17.992  11.930  14.919  1.00  0.00     0.253 C 
BRANCH   2   3
ATOM      3  N   UNL     1      16.550  12.199  14.982  1.00  0.00    -0.348 N 
ATOM      4  H   UNL     1      16.385  13.163  15.353  1.00  0.00     0.345 HD
ATOM      5  H   UNL     1      16.092  11.517  15.629  1.00  0.00     0.345 HD
ATOM      6  H   UNL     1      16.115  12.115  14.034  1.00  0.00     0.345 HD
ENDBRANCH   2   3
BRANCH   2   7
ATOM      7  C   UNL     1      18.676  12.437  16.162  1.00  0.00     0.102 C 
ATOM      8  O   UNL     1      18.118  12.332  17.287  1.00  0.00    -0.544 OA
ATOM      9  O   UNL     1      19.924  13.039  16.069  1.00  0.00    -0.544 OA
ENDBRANCH   2   7
ENDBRANCH   1   2
BRANCH   1  10
ATOM     10  O   UNL     1      18.304  11.810  12.519  1.00  0.00    -0.390 OA
ATOM     11  H   UNL     1      17.606  12.313  12.023  1.00  0.00     0.210 HD
ENDBRANCH   1  10
TORSDOF 4
ENDMDL
MODEL 4
REMARK VINA RESULT:    -3.484     12.619     13.234
REMARK INTER + INTRA:          -4.488
REMARK INTER:                  -4.171
REMARK INTRA:                  -0.316
REMARK UNBOUND:                -0.392
REMARK SMILES [NH3+][C@@H](CO)C(=O)[O-]
REMARK SMILES IDX 3 1 2 2 1 3 5 7 6 8 7 9 4 10
REMARK H PARENT 1 4 1 5 1 6 4 11
REMARK Flexibility Score: inf
ROOT
ATOM      1  C   UNL     1      20.390  11.643  17.484  1.00  0.00     0.227 C 
ENDROOT
BRANCH   1   2
ATOM      2  C   UNL     1      19.935  12.892  16.706  1.00  0.00     0.253 C 
BRANCH   2   3
ATOM      3  N   UNL     1      19.535  13.960  17.630  1.00  0.00    -0.348 N 
ATOM      4  H   UNL     1      18.941  13.564  18.394  1.00  0.00     0.345 HD
ATOM      5  H   UNL     1      18.973  14.678  17.117  1.00  0.00     0.345 HD
ATOM      6  H   UNL     1      20.375  14.421  18.049  1.00  0.00     0.345 HD
ENDBRANCH   2   3
BRANCH   2   7
ATOM      7  C   UNL     1      18.802  12.553  15.772  1.00  0.00     0.102 C 
ATOM      8  O   UNL     1      17.643  12.348  16.220  1.00  0.00    -0.544 OA
ATOM      9  O   UNL     1      19.037  12.450  14.407  1.00  0.00    -0.544 OA
ENDBRANCH   2   7
ENDBRANCH   1   2
BRANCH   1  10
ATOM     10  O   UNL     1      20.149  10.478  16.742  1.00  0.00    -0.390 OA
ATOM     11  H   UNL     1      19.400  10.685  16.123  1.00  0.00     0.210 HD
ENDBRANCH   1  10
TORSDOF 4
ENDMDL
MODEL 5
REMARK VINA RESULT:    -3.441     12.311     13.223
REMARK INTER + INTRA:          -4.437
REMARK INTER:                  -4.209
REMARK INTRA:                  -0.227
REMARK UNBOUND:                -0.392
REMARK SMILES [NH3+][C@@H](CO)C(=O)[O-]
REMARK SMILES IDX 3 1 2 2 1 3 5 7 6 8 7 9 4 10
REMARK H PARENT 1 4 1 5 1 6 4 11
REMARK Flexibility Score: inf
ROOT
ATOM      1  C   UNL     1      18.393  12.542  15.422  1.00  0.00     0.227 C 
ENDROOT
BRANCH   1   2
ATOM      2  C   UNL     1      19.226  12.843  16.682  1.00  0.00     0.253 C 
BRANCH   2   3
ATOM      3  N   UNL     1      20.613  13.162  16.321  1.00  0.00    -0.348 N 
ATOM      4  H   UNL     1      20.814  14.166  16.539  1.00  0.00     0.345 HD
ATOM      5  H   UNL     1      20.754  13.016  15.296  1.00  0.00     0.345 HD
ATOM      6  H   UNL     1      21.282  12.555  16.848  1.00  0.00     0.345 HD
ENDBRANCH   2   3
BRANCH   2   7
ATOM      7  C   UNL     1      19.186  11.679  17.638  1.00  0.00     0.102 C 
ATOM      8  O   UNL     1      18.397  11.685  18.620  1.00  0.00    -0.544 OA
ATOM      9  O   UNL     1      20.035  10.597  17.447  1.00  0.00    -0.544 OA
ENDBRANCH   2   7
ENDBRANCH   1   2
BRANCH   1  10
ATOM     10  O   UNL     1      18.900  11.423  14.745  1.00  0.00    -0.390 OA
ATOM     11  H   UNL     1      18.319  11.285  13.952  1.00  0.00     0.210 HD
ENDBRANCH   1  10
TORSDOF 4
ENDMDL
MODEL 6
REMARK VINA RESULT:    -3.289     11.846     12.785
REMARK INTER + INTRA:          -4.258
REMARK INTER:                  -4.028
REMARK INTRA:                  -0.230
REMARK UNBOUND:                -0.392
REMARK SMILES [NH3+][C@@H](CO)C(=O)[O-]
REMARK SMILES IDX 3 1 2 2 1 3 5 7 6 8 7 9 4 10
REMARK H PARENT 1 4 1 5 1 6 4 11
REMARK Flexibility Score: inf
ROOT
ATOM      1  C   UNL     1      18.692  11.703  18.150  1.00  0.00     0.227 C 
ENDROOT
BRANCH   1   2
ATOM      2  C   UNL     1      19.525  11.808  16.859  1.00  0.00     0.253 C 
BRANCH   2   3
ATOM      3  N   UNL     1      20.671  12.704  17.053  1.00  0.00    -0.348 N 
ATOM      4  H   UNL     1      20.773  13.334  16.224  1.00  0.00     0.345 HD
ATOM      5  H   UNL     1      21.548  12.142  17.147  1.00  0.00     0.345 HD
ATOM      6  H   UNL     1      20.546  13.286  17.914  1.00  0.00     0.345 HD
ENDBRANCH   2   3
BRANCH   2   7
ATOM      7  C   UNL     1      18.673  12.285  15.712  1.00  0.00     0.102 C 
ATOM      8  O   UNL     1      19.204  12.657  14.632  1.00  0.00    -0.544 OA
ATOM      9  O   UNL     1      17.291  12.333  15.849  1.00  0.00    -0.544 OA
ENDBRANCH   2   7
ENDBRANCH   1   2
BRANCH   1  10
ATOM     10  O   UNL     1      18.282  12.973  18.582  1.00  0.00    -0.390 OA
ATOM     11  H   UNL     1      17.291  12.948  18.637  1.00  0.00     0.210 HD
ENDBRANCH   1  10
TORSDOF 4
ENDMDL
MODEL 7
REMARK VINA RESULT:    -3.279     12.727     13.184
REMARK INTER + INTRA:          -4.246
REMARK INTER:                  -3.858
REMARK INTRA:                  -0.388
REMARK UNBOUND:                -0.392
REMARK SMILES [NH3+][C@@H](CO)C(=O)[O-]
REMARK SMILES IDX 3 1 2 2 1 3 5 7 6 8 7 9 4 10
REMARK H PARENT 1 4 1 5 1 6 4 11
REMARK Flexibility Score: inf
ROOT
ATOM      1  C   UNL     1      18.240  12.437  15.964  1.00  0.00     0.227 C 
ENDROOT
BRANCH   1   2
ATOM      2  C   UNL     1      18.622  11.889  17.351  1.00  0.00     0.253 C 
BRANCH   2   3
ATOM      3  N   UNL     1      18.423  12.913  18.385  1.00  0.00    -0.348 N 
ATOM      4  H   UNL     1      17.914  12.500  19.200  1.00  0.00     0.345 HD
ATOM      5  H   UNL     1      17.845  13.695  18.000  1.00  0.00     0.345 HD
ATOM      6  H   UNL     1      19.341  13.295  18.710  1.00  0.00     0.345 HD
ENDBRANCH   2   3
BRANCH   2   7
ATOM      7  C   UNL     1      20.049  11.405  17.359  1.00  0.00     0.102 C 
ATOM      8  O   UNL     1      20.993  12.201  17.607  1.00  0.00    -0.544 OA
ATOM      9  O   UNL     1      20.331  10.075  17.074  1.00  0.00    -0.544 OA
ENDBRANCH   2   7
ENDBRANCH   1   2
BRANCH   1  10
ATOM     10  O   UNL     1      19.315  12.323  15.070  1.00  0.00    -0.390 OA
ATOM     11  H   UNL     1      19.132  12.953  14.325  1.00  0.00     0.210 HD
ENDBRANCH   1  10
TORSDOF 4
ENDMDL
MODEL 8
REMARK VINA RESULT:    -3.243      9.937     10.743
REMARK INTER + INTRA:          -4.204
REMARK INTER:                  -4.172
REMARK INTRA:                  -0.032
REMARK UNBOUND:                -0.392
REMARK SMILES [NH3+][C@@H](CO)C(=O)[O-]
REMARK SMILES IDX 3 1 2 2 1 3 5 7 6 8 7 9 4 10
REMARK H PARENT 1 4 1 5 1 6 4 11
REMARK Flexibility Score: inf
ROOT
ATOM      1  C   UNL     1      17.105  11.602  20.358  1.00  0.00     0.227 C 
ENDROOT
BRANCH   1   2
ATOM      2  C   UNL     1      16.876  12.353  19.034  1.00  0.00     0.253 C 
BRANCH   2   3
ATOM      3  N   UNL     1      15.581  11.985  18.448  1.00  0.00    -0.348 N 
ATOM      4  H   UNL     1      15.684  11.113  17.879  1.00  0.00     0.345 HD
ATOM      5  H   UNL     1      15.249  12.750  17.818  1.00  0.00     0.345 HD
ATOM      6  H   UNL     1      14.867  11.825  19.196  1.00  0.00     0.345 HD
ENDBRANCH   2   3
BRANCH   2   7
ATOM      7  C   UNL     1      17.992  12.072  18.061  1.00  0.00     0.102 C 
ATOM      8  O   UNL     1      19.076  11.570  18.460  1.00  0.00    -0.544 OA
ATOM      9  O   UNL     1      17.833  12.381  16.717  1.00  0.00    -0.544 OA
ENDBRANCH   2   7
ENDBRANCH   1   2
BRANCH   1  10
ATOM     10  O   UNL     1      16.236  10.506  20.467  1.00  0.00    -0.390 OA
ATOM     11  H   UNL     1      16.104  10.157  19.547  1.00  0.00     0.210 HD
ENDBRANCH   1  10
TORSDOF 4
ENDMDL
MODEL 9
REMARK VINA RESULT:    -3.233     11.867     12.594
REMARK INTER + INTRA:          -4.192
REMARK INTER:                  -3.935
REMARK INTRA:                  -0.257
REMARK UNBOUND:                -0.392
REMARK SMILES [NH3+][C@@H](CO)C(=O)[O-]
REMARK SMILES IDX 3 1 2 2 1 3 5 7 6 8 7 9 4 10
REMARK H PARENT 1 4 1 5 1 6 4 11
REMARK Flexibility Score: inf
ROOT
ATOM      1  C   UNL     1      20.534  13.092  17.027  1.00  0.00     0.227 C 
ENDROOT
BRANCH   1   2
ATOM      2  C   UNL     1      19.936  11.807  17.630  1.00  0.00     0.253 C 
BRANCH   2   3
ATOM      3  N   UNL     1      20.156  10.665  16.735  1.00  0.00    -0.348 N 
ATOM      4  H   UNL     1      21.025  10.155  17.017  1.00  0.00     0.345 HD
ATOM      5  H   UNL     1      20.281  11.004  15.753  1.00  0.00     0.345 HD
ATOM      6  H   UNL     1      19.344  10.006  16.768  1.00  0.00     0.345 HD
ENDBRANCH   2   3
BRANCH   2   7
ATOM      7  C   UNL     1      18.466  11.983  17.907  1.00  0.00     0.102 C 
ATOM      8  O   UNL     1      17.669  12.269  16.974  1.00  0.00    -0.544 OA
ATOM      9  O   UNL     1      17.983  11.843  19.202  1.00  0.00    -0.544 OA
ENDBRANCH   2   7
ENDBRANCH   1   2
BRANCH   1  10
ATOM     10  O   UNL     1      19.859  14.226  17.502  1.00  0.00    -0.390 OA
ATOM     11  H   UNL     1      20.129  14.340  18.451  1.00  0.00     0.210 HD
ENDBRANCH   1  10
TORSDOF 4
ENDMDL
