MODEL 1
REMARK VINA RESULT:    -5.117      0.000      0.000
REMARK INTER + INTRA:          -6.939
REMARK INTER:                  -6.314
REMARK INTRA:                  -0.625
REMARK UNBOUND:                -0.625
REMARK SMILES CC(C)=CCC[C@H](C)c1ccc(C)cc1
REMARK SMILES IDX 6 1 7 2 8 3 9 4 13 5 12 6 11 7 14 8 10 9 15 10 5 11 4 12
REMARK SMILES IDX 2 13 1 14 3 15
REMARK H PARENT
REMARK Flexibility Score: inf
ROOT
ATOM      1  C   UNL     1      -0.045   6.742  45.735  1.00  0.00     0.012 C 
ENDROOT
BRANCH   1   2
ATOM      2  C   UNL     1      -0.403   5.430  45.002  1.00  0.00     0.016 C 
ATOM      3  C   UNL     1      -1.730   5.535  44.233  1.00  0.00     0.013 C 
BRANCH   2   4
ATOM      4  C   UNL     1      -0.455   4.272  45.984  1.00  0.00    -0.045 A 
ATOM      5  C   UNL     1      -0.654   0.975  48.766  1.00  0.00     0.044 C 
ATOM      6  C   UNL     1      -0.565   2.134  47.818  1.00  0.00    -0.051 A 
ATOM      7  C   UNL     1      -1.463   3.205  47.924  1.00  0.00     0.004 A 
ATOM      8  C   UNL     1       0.373   2.123  46.775  1.00  0.00     0.004 A 
ATOM      9  C   UNL     1      -1.406   4.268  47.019  1.00  0.00     0.004 A 
ATOM     10  C   UNL     1       0.433   3.185  45.869  1.00  0.00     0.004 A 
ENDBRANCH   2   4
ENDBRANCH   1   2
BRANCH   1  11
ATOM     11  C   UNL     1       1.448   6.837  46.084  1.00  0.00     0.028 C 
BRANCH  11  12
ATOM     12  C   UNL     1       2.090   7.998  45.365  1.00  0.00    -0.028 C 
ATOM     13  C   UNL     1       3.309   7.957  44.783  1.00  0.00    -0.080 C 
ATOM     14  C   UNL     1       4.187   6.729  44.848  1.00  0.00     0.039 C 
ATOM     15  C   UNL     1       3.804   9.186  44.066  1.00  0.00     0.039 C 
ENDBRANCH  11  12
ENDBRANCH   1  11
TORSDOF 4
ENDMDL
MODEL 2
REMARK VINA RESULT:    -5.058     14.447     15.000
REMARK INTER + INTRA:          -6.866
REMARK INTER:                  -6.148
REMARK INTRA:                  -0.718
REMARK UNBOUND:                -0.625
REMARK SMILES CC(C)=CCC[C@H](C)c1ccc(C)cc1
REMARK SMILES IDX 6 1 7 2 8 3 9 4 13 5 12 6 11 7 14 8 10 9 15 10 5 11 4 12
REMARK SMILES IDX 2 13 1 14 3 15
REMARK H PARENT
REMARK Flexibility Score: inf
ROOT
ATOM      1  C   UNL     1       4.320  -2.389  32.599  1.00  0.00     0.012 C 
ENDROOT
BRANCH   1   2
ATOM      2  C   UNL     1       4.930  -2.677  33.990  1.00  0.00     0.016 C 
ATOM      3  C   UNL     1       6.389  -3.154  33.899  1.00  0.00     0.013 C 
BRANCH   2   4
ATOM      4  C   UNL     1       4.088  -3.697  34.735  1.00  0.00    -0.045 A 
ATOM      5  C   UNL     1       1.687  -6.627  36.811  1.00  0.00     0.044 C 
ATOM      6  C   UNL     1       2.509  -5.588  36.108  1.00  0.00    -0.051 A 
ATOM      7  C   UNL     1       2.020  -4.962  34.953  1.00  0.00     0.004 A 
ATOM      8  C   UNL     1       3.802  -5.284  36.561  1.00  0.00     0.004 A 
ATOM      9  C   UNL     1       2.800  -4.021  34.275  1.00  0.00     0.004 A 
ATOM     10  C   UNL     1       4.583  -4.343  35.885  1.00  0.00     0.004 A 
ENDBRANCH   2   4
ENDBRANCH   1   2
BRANCH   1  11
ATOM     11  C   UNL     1       3.927  -0.914  32.419  1.00  0.00     0.028 C 
BRANCH  11  12
ATOM     12  C   UNL     1       5.085  -0.009  32.759  1.00  0.00    -0.028 C 
ATOM     13  C   UNL     1       5.884   0.588  31.847  1.00  0.00    -0.080 C 
ATOM     14  C   UNL     1       5.720   0.351  30.363  1.00  0.00     0.039 C 
ATOM     15  C   UNL     1       6.979   1.499  32.337  1.00  0.00     0.039 C 
ENDBRANCH  11  12
ENDBRANCH   1  11
TORSDOF 4
ENDMDL
MODEL 3
REMARK VINA RESULT:    -5.050     14.386     14.973
REMARK INTER + INTRA:          -6.856
REMARK INTER:                  -6.143
REMARK INTRA:                  -0.713
REMARK UNBOUND:                -0.625
REMARK SMILES CC(C)=CCC[C@H](C)c1ccc(C)cc1
REMARK SMILES IDX 6 1 7 2 8 3 9 4 13 5 12 6 11 7 14 8 10 9 15 10 5 11 4 12
REMARK SMILES IDX 2 13 1 14 3 15
REMARK H PARENT
REMARK Flexibility Score: inf
ROOT
ATOM      1  C   UNL     1       4.218  -2.347  32.621  1.00  0.00     0.012 C 
ENDROOT
BRANCH   1   2
ATOM      2  C   UNL     1       4.887  -2.652  33.980  1.00  0.00     0.016 C 
ATOM      3  C   UNL     1       6.344  -3.117  33.821  1.00  0.00     0.013 C 
BRANCH   2   4
ATOM      4  C   UNL     1       4.084  -3.690  34.744  1.00  0.00    -0.045 A 
ATOM      5  C   UNL     1       1.806  -6.616  36.960  1.00  0.00     0.044 C 
ATOM      6  C   UNL     1       2.609  -5.622  36.174  1.00  0.00    -0.051 A 
ATOM      7  C   UNL     1       3.877  -5.224  36.622  1.00  0.00     0.004 A 
ATOM      8  C   UNL     1       2.070  -5.032  35.021  1.00  0.00     0.004 A 
ATOM      9  C   UNL     1       4.611  -4.271  35.911  1.00  0.00     0.004 A 
ATOM     10  C   UNL     1       2.803  -4.079  34.308  1.00  0.00     0.004 A 
ENDBRANCH   2   4
ENDBRANCH   1   2
BRANCH   1  11
ATOM     11  C   UNL     1       3.857  -0.862  32.459  1.00  0.00     0.028 C 
BRANCH  11  12
ATOM     12  C   UNL     1       5.034   0.014  32.811  1.00  0.00    -0.028 C 
ATOM     13  C   UNL     1       5.856   0.592  31.906  1.00  0.00    -0.080 C 
ATOM     14  C   UNL     1       5.699   0.362  30.421  1.00  0.00     0.039 C 
ATOM     15  C   UNL     1       6.969   1.474  32.408  1.00  0.00     0.039 C 
ENDBRANCH  11  12
ENDBRANCH   1  11
TORSDOF 4
ENDMDL
MODEL 4
REMARK VINA RESULT:    -4.951      1.406      2.412
REMARK INTER + INTRA:          -6.734
REMARK INTER:                  -5.638
REMARK INTRA:                  -1.097
REMARK UNBOUND:                -0.625
REMARK SMILES CC(C)=CCC[C@H](C)c1ccc(C)cc1
REMARK SMILES IDX 6 1 7 2 8 3 9 4 13 5 12 6 11 7 14 8 10 9 15 10 5 11 4 12
REMARK SMILES IDX 2 13 1 14 3 15
REMARK H PARENT
REMARK Flexibility Score: inf
ROOT
ATOM      1  C   UNL     1       0.209   8.751  47.281  1.00  0.00     0.012 C 
ENDROOT
BRANCH   1   2
ATOM      2  C   UNL     1      -0.640   7.999  46.232  1.00  0.00     0.016 C 
ATOM      3  C   UNL     1      -2.139   8.312  46.363  1.00  0.00     0.013 C 
BRANCH   2   4
ATOM      4  C   UNL     1      -0.405   6.502  46.336  1.00  0.00    -0.045 A 
ATOM      5  C   UNL     1       0.315   2.252  46.615  1.00  0.00     0.044 C 
ATOM      6  C   UNL     1       0.036   3.723  46.509  1.00  0.00    -0.051 A 
ATOM      7  C   UNL     1       0.322   4.413  45.322  1.00  0.00     0.004 A 
ATOM      8  C   UNL     1      -0.446   4.432  47.618  1.00  0.00     0.004 A 
ATOM      9  C   UNL     1       0.098   5.789  45.233  1.00  0.00     0.004 A 
ATOM     10  C   UNL     1      -0.671   5.808  47.532  1.00  0.00     0.004 A 
ENDBRANCH   2   4
ENDBRANCH   1   2
BRANCH   1  11
ATOM     11  C   UNL     1       1.707   8.428  47.172  1.00  0.00     0.028 C 
BRANCH  11  12
ATOM     12  C   UNL     1       2.309   9.093  45.959  1.00  0.00    -0.028 C 
ATOM     13  C   UNL     1       3.094   8.468  45.054  1.00  0.00    -0.080 C 
ATOM     14  C   UNL     1       3.497   7.020  45.209  1.00  0.00     0.039 C 
ATOM     15  C   UNL     1       3.591   9.254  43.869  1.00  0.00     0.039 C 
ENDBRANCH  11  12
ENDBRANCH   1  11
TORSDOF 4
ENDMDL
MODEL 5
REMARK VINA RESULT:    -4.924      1.092      6.510
REMARK INTER + INTRA:          -6.701
REMARK INTER:                  -5.844
REMARK INTRA:                  -0.857
REMARK UNBOUND:                -0.625
REMARK SMILES CC(C)=CCC[C@H](C)c1ccc(C)cc1
REMARK SMILES IDX 6 1 7 2 8 3 9 4 13 5 12 6 11 7 14 8 10 9 15 10 5 11 4 12
REMARK SMILES IDX 2 13 1 14 3 15
REMARK H PARENT
REMARK Flexibility Score: inf
ROOT
ATOM      1  C   UNL     1       0.051   6.848  45.715  1.00  0.00     0.012 C 
ENDROOT
BRANCH   1   2
ATOM      2  C   UNL     1       1.434   6.573  46.348  1.00  0.00     0.016 C 
ATOM      3  C   UNL     1       1.427   6.775  47.872  1.00  0.00     0.013 C 
BRANCH   2   4
ATOM      4  C   UNL     1       2.494   7.451  45.706  1.00  0.00    -0.045 A 
ATOM      5  C   UNL     1       5.513   9.974  43.924  1.00  0.00     0.044 C 
ATOM      6  C   UNL     1       4.450   9.096  44.516  1.00  0.00    -0.051 A 
ATOM      7  C   UNL     1       3.323   9.664  45.126  1.00  0.00     0.004 A 
ATOM      8  C   UNL     1       4.609   7.703  44.526  1.00  0.00     0.004 A 
ATOM      9  C   UNL     1       2.350   8.849  45.711  1.00  0.00     0.004 A 
ATOM     10  C   UNL     1       3.637   6.886  45.110  1.00  0.00     0.004 A 
ENDBRANCH   2   4
ENDBRANCH   1   2
BRANCH   1  11
ATOM     11  C   UNL     1      -0.509   5.631  44.963  1.00  0.00     0.028 C 
BRANCH  11  12
ATOM     12  C   UNL     1       0.179   4.365  45.413  1.00  0.00    -0.028 C 
ATOM     13  C   UNL     1      -0.296   3.536  46.369  1.00  0.00    -0.080 C 
ATOM     14  C   UNL     1      -1.562   3.839  47.135  1.00  0.00     0.039 C 
ATOM     15  C   UNL     1       0.482   2.285  46.685  1.00  0.00     0.039 C 
ENDBRANCH  11  12
ENDBRANCH   1  11
TORSDOF 4
ENDMDL
MODEL 6
REMARK VINA RESULT:    -4.912      1.274      5.994
REMARK INTER + INTRA:          -6.686
REMARK INTER:                  -6.011
REMARK INTRA:                  -0.675
REMARK UNBOUND:                -0.625
REMARK SMILES CC(C)=CCC[C@H](C)c1ccc(C)cc1
REMARK SMILES IDX 6 1 7 2 8 3 9 4 13 5 12 6 11 7 14 8 10 9 15 10 5 11 4 12
REMARK SMILES IDX 2 13 1 14 3 15
REMARK H PARENT
REMARK Flexibility Score: inf
ROOT
ATOM      1  C   UNL     1      -1.470   5.077  46.941  1.00  0.00     0.012 C 
ENDROOT
BRANCH   1   2
ATOM      2  C   UNL     1      -1.400   6.120  45.802  1.00  0.00     0.016 C 
ATOM      3  C   UNL     1      -1.545   5.477  44.413  1.00  0.00     0.013 C 
BRANCH   2   4
ATOM      4  C   UNL     1      -0.103   6.907  45.885  1.00  0.00    -0.045 A 
ATOM      5  C   UNL     1       3.592   9.135  46.068  1.00  0.00     0.044 C 
ATOM      6  C   UNL     1       2.314   8.351  46.033  1.00  0.00    -0.051 A 
ATOM      7  C   UNL     1       2.301   7.040  45.536  1.00  0.00     0.004 A 
ATOM      8  C   UNL     1       1.108   8.948  46.431  1.00  0.00     0.004 A 
ATOM      9  C   UNL     1       1.105   6.321  45.468  1.00  0.00     0.004 A 
ATOM     10  C   UNL     1      -0.089   8.231  46.364  1.00  0.00     0.004 A 
ENDBRANCH   2   4
ENDBRANCH   1   2
BRANCH   1  11
ATOM     11  C   UNL     1      -1.228   3.643  46.446  1.00  0.00     0.028 C 
BRANCH  11  12
ATOM     12  C   UNL     1      -0.058   3.020  47.167  1.00  0.00    -0.028 C 
ATOM     13  C   UNL     1       0.073   1.698  47.414  1.00  0.00    -0.080 C 
ATOM     14  C   UNL     1      -0.996   0.702  47.028  1.00  0.00     0.039 C 
ATOM     15  C   UNL     1       1.318   1.217  48.112  1.00  0.00     0.039 C 
ENDBRANCH  11  12
ENDBRANCH   1  11
TORSDOF 4
ENDMDL
MODEL 7
REMARK VINA RESULT:    -4.876      1.281      5.877
REMARK INTER + INTRA:          -6.641
REMARK INTER:                  -5.655
REMARK INTRA:                  -0.986
REMARK UNBOUND:                -0.625
REMARK SMILES CC(C)=CCC[C@H](C)c1ccc(C)cc1
REMARK SMILES IDX 6 1 7 2 8 3 9 4 13 5 12 6 11 7 14 8 10 9 15 10 5 11 4 12
REMARK SMILES IDX 2 13 1 14 3 15
REMARK H PARENT
REMARK Flexibility Score: inf
ROOT
ATOM      1  C   UNL     1      -1.224   5.813  45.163  1.00  0.00     0.012 C 
ENDROOT
BRANCH   1   2
ATOM      2  C   UNL     1      -0.863   6.864  46.237  1.00  0.00     0.016 C 
ATOM      3  C   UNL     1      -1.873   8.022  46.282  1.00  0.00     0.013 C 
BRANCH   2   4
ATOM      4  C   UNL     1       0.539   7.398  46.005  1.00  0.00    -0.045 A 
ATOM      5  C   UNL     1       4.527   8.899  45.294  1.00  0.00     0.044 C 
ATOM      6  C   UNL     1       3.150   8.372  45.570  1.00  0.00    -0.051 A 
ATOM      7  C   UNL     1       2.843   7.028  45.314  1.00  0.00     0.004 A 
ATOM      8  C   UNL     1       2.139   9.235  46.019  1.00  0.00     0.004 A 
ATOM      9  C   UNL     1       1.551   6.543  45.535  1.00  0.00     0.004 A 
ATOM     10  C   UNL     1       0.847   8.752  46.241  1.00  0.00     0.004 A 
ENDBRANCH   2   4
ENDBRANCH   1   2
BRANCH   1  11
ATOM     11  C   UNL     1      -1.624   4.460  45.770  1.00  0.00     0.028 C 
BRANCH  11  12
ATOM     12  C   UNL     1      -1.076   4.320  47.169  1.00  0.00    -0.028 C 
ATOM     13  C   UNL     1      -0.173   3.389  47.547  1.00  0.00    -0.080 C 
ATOM     14  C   UNL     1       0.343   2.339  46.591  1.00  0.00     0.039 C 
ATOM     15  C   UNL     1       0.313   3.396  48.974  1.00  0.00     0.039 C 
ENDBRANCH  11  12
ENDBRANCH   1  11
TORSDOF 4
ENDMDL
MODEL 8
REMARK VINA RESULT:    -4.763      2.740      4.971
REMARK INTER + INTRA:          -6.502
REMARK INTER:                  -5.877
REMARK INTRA:                  -0.625
REMARK UNBOUND:                -0.625
REMARK SMILES CC(C)=CCC[C@H](C)c1ccc(C)cc1
REMARK SMILES IDX 6 1 7 2 8 3 9 4 13 5 12 6 11 7 14 8 10 9 15 10 5 11 4 12
REMARK SMILES IDX 2 13 1 14 3 15
REMARK H PARENT
REMARK Flexibility Score: inf
ROOT
ATOM      1  C   UNL     1      -1.277   2.769  48.045  1.00  0.00     0.012 C 
ENDROOT
BRANCH   1   2
ATOM      2  C   UNL     1      -0.783   1.305  48.012  1.00  0.00     0.016 C 
ATOM      3  C   UNL     1       0.434   1.121  47.091  1.00  0.00     0.013 C 
BRANCH   2   4
ATOM      4  C   UNL     1      -1.908   0.377  47.588  1.00  0.00    -0.045 A 
ATOM      5  C   UNL     1      -5.140  -2.222  46.381  1.00  0.00     0.044 C 
ATOM      6  C   UNL     1      -4.007  -1.341  46.818  1.00  0.00    -0.051 A 
ATOM      7  C   UNL     1      -4.156  -0.492  47.923  1.00  0.00     0.004 A 
ATOM      8  C   UNL     1      -2.813  -1.310  46.082  1.00  0.00     0.004 A 
ATOM      9  C   UNL     1      -3.115   0.356  48.309  1.00  0.00     0.004 A 
ATOM     10  C   UNL     1      -1.770  -0.463  46.467  1.00  0.00     0.004 A 
ENDBRANCH   2   4
ENDBRANCH   1   2
BRANCH   1  11
ATOM     11  C   UNL     1      -0.453   3.693  47.135  1.00  0.00     0.028 C 
BRANCH  11  12
ATOM     12  C   UNL     1      -1.292   4.199  45.988  1.00  0.00    -0.028 C 
ATOM     13  C   UNL     1      -0.922   5.193  45.150  1.00  0.00    -0.080 C 
ATOM     14  C   UNL     1       0.378   5.944  45.323  1.00  0.00     0.039 C 
ATOM     15  C   UNL     1      -1.850   5.565  44.023  1.00  0.00     0.039 C 
ENDBRANCH  11  12
ENDBRANCH   1  11
TORSDOF 4
ENDMDL
MODEL 9
REMARK VINA RESULT:    -4.678      1.848      2.859
REMARK INTER + INTRA:          -6.397
REMARK INTER:                  -4.890
REMARK INTRA:                  -1.506
REMARK UNBOUND:                -0.625
REMARK SMILES CC(C)=CCC[C@H](C)c1ccc(C)cc1
REMARK SMILES IDX 6 1 7 2 8 3 9 4 13 5 12 6 11 7 14 8 10 9 15 10 5 11 4 12
REMARK SMILES IDX 2 13 1 14 3 15
REMARK H PARENT
REMARK Flexibility Score: inf
ROOT
ATOM      1  C   UNL     1      -1.202   9.082  46.255  1.00  0.00     0.012 C 
ENDROOT
BRANCH   1   2
ATOM      2  C   UNL     1      -2.228   7.956  46.514  1.00  0.00     0.016 C 
ATOM      3  C   UNL     1      -2.953   8.125  47.859  1.00  0.00     0.013 C 
BRANCH   2   4
ATOM      4  C   UNL     1      -1.550   6.598  46.450  1.00  0.00    -0.045 A 
ATOM      5  C   UNL     1       0.334   2.715  46.284  1.00  0.00     0.044 C 
ATOM      6  C   UNL     1      -0.294   4.076  46.350  1.00  0.00    -0.051 A 
ATOM      7  C   UNL     1      -0.917   4.511  47.528  1.00  0.00     0.004 A 
ATOM      8  C   UNL     1      -0.323   4.896  45.213  1.00  0.00     0.004 A 
ATOM      9  C   UNL     1      -1.535   5.763  47.581  1.00  0.00     0.004 A 
ATOM     10  C   UNL     1      -0.940   6.149  45.263  1.00  0.00     0.004 A 
ENDBRANCH   2   4
ENDBRANCH   1   2
BRANCH   1  11
ATOM     11  C   UNL     1       0.029   8.983  47.168  1.00  0.00     0.028 C 
BRANCH  11  12
ATOM     12  C   UNL     1       1.279   8.753  46.353  1.00  0.00    -0.028 C 
ATOM     13  C   UNL     1       2.163   7.755  46.575  1.00  0.00    -0.080 C 
ATOM     14  C   UNL     1       2.006   6.786  47.723  1.00  0.00     0.039 C 
ATOM     15  C   UNL     1       3.347   7.627  45.652  1.00  0.00     0.039 C 
ENDBRANCH  11  12
ENDBRANCH   1  11
TORSDOF 4
ENDMDL
