MODEL 1
REMARK VINA RESULT:    -6.047      0.000      0.000
REMARK INTER + INTRA:          -6.814
REMARK INTER:                  -6.577
REMARK INTRA:                  -0.237
REMARK UNBOUND:                -0.237
REMARK SMILES CC(C)c1cc2c(cc1O)[C@]1(C)CCCC(C)(C)[C@H]1CC2=O
REMARK SMILES IDX 4 1 9 2 8 3 7 4 6 5 5 6 21 7 22 8 20 9 19 10 11 11 13 12
REMARK SMILES IDX 14 13 15 14 16 15 17 16 18 17 12 18 2 19 1 20 3 21 10 22
REMARK H PARENT 10 23
REMARK Flexibility Score: inf
ROOT
ATOM      1  C   UNL     1      -3.549  -1.130  22.473  1.00  0.00    -0.003 A 
ATOM      2  C   UNL     1      -3.814  -1.707  23.739  1.00  0.00     0.119 A 
ATOM      3  C   UNL     1      -2.791  -2.379  24.419  1.00  0.00     0.051 A 
ATOM      4  C   UNL     1      -1.449  -2.256  24.015  1.00  0.00    -0.027 A 
ATOM      5  C   UNL     1      -1.179  -1.618  22.782  1.00  0.00     0.022 A 
ATOM      6  C   UNL     1      -2.226  -1.108  22.014  1.00  0.00     0.020 A 
ATOM      7  C   UNL     1       0.219  -1.352  22.360  1.00  0.00     0.163 C 
ATOM      8  O   UNL     1       0.462  -0.910  21.199  1.00  0.00    -0.294 OA
ATOM      9  C   UNL     1       1.364  -1.621  23.298  1.00  0.00     0.086 C 
ATOM     10  C   UNL     1       0.892  -1.733  24.768  1.00  0.00     0.013 C 
ATOM     11  C   UNL     1      -0.277  -2.785  24.904  1.00  0.00    -0.003 C 
ATOM     12  C   UNL     1      -0.694  -2.879  26.407  1.00  0.00     0.012 C 
ATOM     13  C   UNL     1       0.480  -3.130  27.364  1.00  0.00     0.001 C 
ATOM     14  C   UNL     1       1.499  -1.999  27.258  1.00  0.00     0.007 C 
ATOM     15  C   UNL     1       2.076  -1.801  25.829  1.00  0.00    -0.031 C 
ATOM     16  C   UNL     1       2.818  -0.440  25.854  1.00  0.00     0.011 C 
ATOM     17  C   UNL     1       3.125  -2.925  25.557  1.00  0.00     0.011 C 
ATOM     18  C   UNL     1       0.102  -4.191  24.375  1.00  0.00     0.017 C 
ENDROOT
BRANCH   1  19
ATOM     19  C   UNL     1      -4.602  -0.484  21.577  1.00  0.00     0.017 C 
ATOM     20  C   UNL     1      -4.767   1.039  21.723  1.00  0.00     0.012 C 
ATOM     21  C   UNL     1      -4.403  -0.875  20.098  1.00  0.00     0.012 C 
ENDBRANCH   1  19
BRANCH   2  22
ATOM     22  O   UNL     1      -5.083  -1.627  24.319  1.00  0.00    -0.508 OA
ATOM     23  H   UNL     1      -5.277  -2.026  25.237  1.00  0.00     0.293 HD
ENDBRANCH   2  22
TORSDOF 2
ENDMDL
MODEL 2
REMARK VINA RESULT:    -6.035      2.576      5.933
REMARK INTER + INTRA:          -6.801
REMARK INTER:                  -7.255
REMARK INTRA:                   0.453
REMARK UNBOUND:                -0.237
REMARK SMILES CC(C)c1cc2c(cc1O)[C@]1(C)CCCC(C)(C)[C@H]1CC2=O
REMARK SMILES IDX 4 1 9 2 8 3 7 4 6 5 5 6 21 7 22 8 20 9 19 10 11 11 13 12
REMARK SMILES IDX 14 13 15 14 16 15 17 16 18 17 12 18 2 19 1 20 3 21 10 22
REMARK H PARENT 10 23
REMARK Flexibility Score: inf
ROOT
ATOM      1  C   UNL     1       1.438  -4.060  22.715  1.00  0.00    -0.003 A 
ATOM      2  C   UNL     1       0.544  -4.459  23.738  1.00  0.00     0.119 A 
ATOM      3  C   UNL     1      -0.488  -3.598  24.128  1.00  0.00     0.051 A 
ATOM      4  C   UNL     1      -0.831  -2.478  23.348  1.00  0.00    -0.027 A 
ATOM      5  C   UNL     1       0.028  -2.118  22.282  1.00  0.00     0.022 A 
ATOM      6  C   UNL     1       1.163  -2.881  22.012  1.00  0.00     0.020 A 
ATOM      7  C   UNL     1      -0.342  -1.022  21.353  1.00  0.00     0.163 C 
ATOM      8  O   UNL     1       0.487  -0.610  20.489  1.00  0.00    -0.294 OA
ATOM      9  C   UNL     1      -1.697  -0.374  21.435  1.00  0.00     0.086 C 
ATOM     10  C   UNL     1      -2.709  -1.250  22.213  1.00  0.00     0.013 C 
ATOM     11  C   UNL     1      -2.132  -1.657  23.625  1.00  0.00    -0.003 C 
ATOM     12  C   UNL     1      -3.202  -2.512  24.376  1.00  0.00     0.012 C 
ATOM     13  C   UNL     1      -4.589  -1.860  24.440  1.00  0.00     0.001 C 
ATOM     14  C   UNL     1      -5.125  -1.620  23.030  1.00  0.00     0.007 C 
ATOM     15  C   UNL     1      -4.210  -0.724  22.151  1.00  0.00    -0.031 C 
ATOM     16  C   UNL     1      -4.740  -0.866  20.702  1.00  0.00     0.011 C 
ATOM     17  C   UNL     1      -4.393   0.761  22.596  1.00  0.00     0.011 C 
ATOM     18  C   UNL     1      -1.730  -0.438  24.494  1.00  0.00     0.017 C 
ENDROOT
BRANCH   1  19
ATOM     19  C   UNL     1       2.674  -4.847  22.288  1.00  0.00     0.017 C 
ATOM     20  C   UNL     1       3.125  -5.963  23.247  1.00  0.00     0.012 C 
ATOM     21  C   UNL     1       2.534  -5.384  20.849  1.00  0.00     0.012 C 
ENDBRANCH   1  19
BRANCH   2  22
ATOM     22  O   UNL     1       0.678  -5.697  24.375  1.00  0.00    -0.508 OA
ATOM     23  H   UNL     1       0.422  -6.567  23.910  1.00  0.00     0.293 HD
ENDBRANCH   2  22
TORSDOF 2
ENDMDL
MODEL 3
REMARK VINA RESULT:    -5.965      3.034      5.430
REMARK INTER + INTRA:          -6.725
REMARK INTER:                  -6.595
REMARK INTRA:                  -0.130
REMARK UNBOUND:                -0.237
REMARK SMILES CC(C)c1cc2c(cc1O)[C@]1(C)CCCC(C)(C)[C@H]1CC2=O
REMARK SMILES IDX 4 1 9 2 8 3 7 4 6 5 5 6 21 7 22 8 20 9 19 10 11 11 13 12
REMARK SMILES IDX 14 13 15 14 16 15 17 16 18 17 12 18 2 19 1 20 3 21 10 22
REMARK H PARENT 10 23
REMARK Flexibility Score: inf
ROOT
ATOM      1  C   UNL     1       2.090  -4.388  20.380  1.00  0.00    -0.003 A 
ATOM      2  C   UNL     1       2.408  -4.899  21.663  1.00  0.00     0.119 A 
ATOM      3  C   UNL     1       2.012  -4.193  22.804  1.00  0.00     0.051 A 
ATOM      4  C   UNL     1       1.073  -3.148  22.722  1.00  0.00    -0.027 A 
ATOM      5  C   UNL     1       0.704  -2.683  21.438  1.00  0.00     0.022 A 
ATOM      6  C   UNL     1       1.246  -3.274  20.297  1.00  0.00     0.020 A 
ATOM      7  C   UNL     1      -0.367  -1.668  21.283  1.00  0.00     0.163 C 
ATOM      8  O   UNL     1      -0.599  -1.152  20.150  1.00  0.00    -0.294 OA
ATOM      9  C   UNL     1      -1.179  -1.225  22.470  1.00  0.00     0.086 C 
ATOM     10  C   UNL     1      -1.077  -2.228  23.645  1.00  0.00     0.013 C 
ATOM     11  C   UNL     1       0.431  -2.524  24.003  1.00  0.00    -0.003 C 
ATOM     12  C   UNL     1       0.475  -3.516  25.209  1.00  0.00     0.012 C 
ATOM     13  C   UNL     1      -0.371  -3.074  26.410  1.00  0.00     0.001 C 
ATOM     14  C   UNL     1      -1.837  -2.938  26.003  1.00  0.00     0.007 C 
ATOM     15  C   UNL     1      -2.079  -1.931  24.845  1.00  0.00    -0.031 C 
ATOM     16  C   UNL     1      -3.533  -2.172  24.368  1.00  0.00     0.011 C 
ATOM     17  C   UNL     1      -1.986  -0.482  25.420  1.00  0.00     0.011 C 
ATOM     18  C   UNL     1       1.239  -1.246  24.345  1.00  0.00     0.017 C 
ENDROOT
BRANCH   1  19
ATOM     19  C   UNL     1       2.570  -4.991  19.063  1.00  0.00     0.017 C 
ATOM     20  C   UNL     1       2.051  -6.403  18.741  1.00  0.00     0.012 C 
ATOM     21  C   UNL     1       2.325  -4.033  17.879  1.00  0.00     0.012 C 
ENDBRANCH   1  19
BRANCH   2  22
ATOM     22  O   UNL     1       3.120  -6.093  21.810  1.00  0.00    -0.508 OA
ATOM     23  H   UNL     1       3.204  -6.557  22.713  1.00  0.00     0.293 HD
ENDBRANCH   2  22
TORSDOF 2
ENDMDL
MODEL 4
REMARK VINA RESULT:    -5.903      2.223      3.365
REMARK INTER + INTRA:          -6.657
REMARK INTER:                  -6.422
REMARK INTRA:                  -0.235
REMARK UNBOUND:                -0.237
REMARK SMILES CC(C)c1cc2c(cc1O)[C@]1(C)CCCC(C)(C)[C@H]1CC2=O
REMARK SMILES IDX 4 1 9 2 8 3 7 4 6 5 5 6 21 7 22 8 20 9 19 10 11 11 13 12
REMARK SMILES IDX 14 13 15 14 16 15 17 16 18 17 12 18 2 19 1 20 3 21 10 22
REMARK H PARENT 10 23
REMARK Flexibility Score: inf
ROOT
ATOM      1  C   UNL     1      -1.130  -1.033  21.087  1.00  0.00    -0.003 A 
ATOM      2  C   UNL     1      -2.412  -0.740  21.611  1.00  0.00     0.119 A 
ATOM      3  C   UNL     1      -2.751  -1.183  22.895  1.00  0.00     0.051 A 
ATOM      4  C   UNL     1      -1.767  -1.662  23.780  1.00  0.00    -0.027 A 
ATOM      5  C   UNL     1      -0.467  -1.891  23.272  1.00  0.00     0.022 A 
ATOM      6  C   UNL     1      -0.181  -1.619  21.935  1.00  0.00     0.020 A 
ATOM      7  C   UNL     1       0.640  -2.281  24.180  1.00  0.00     0.163 C 
ATOM      8  O   UNL     1       1.764  -2.621  23.707  1.00  0.00    -0.294 OA
ATOM      9  C   UNL     1       0.437  -2.297  25.671  1.00  0.00     0.086 C 
ATOM     10  C   UNL     1      -0.800  -1.466  26.093  1.00  0.00     0.013 C 
ATOM     11  C   UNL     1      -2.082  -1.918  25.290  1.00  0.00    -0.003 C 
ATOM     12  C   UNL     1      -3.301  -1.070  25.774  1.00  0.00     0.012 C 
ATOM     13  C   UNL     1      -3.493  -1.068  27.297  1.00  0.00     0.001 C 
ATOM     14  C   UNL     1      -2.256  -0.495  27.985  1.00  0.00     0.007 C 
ATOM     15  C   UNL     1      -0.944  -1.264  27.665  1.00  0.00    -0.031 C 
ATOM     16  C   UNL     1       0.211  -0.364  28.171  1.00  0.00     0.011 C 
ATOM     17  C   UNL     1      -0.930  -2.589  28.490  1.00  0.00     0.011 C 
ATOM     18  C   UNL     1      -2.397  -3.427  25.444  1.00  0.00     0.017 C 
ENDROOT
BRANCH   1  19
ATOM     19  C   UNL     1      -0.683  -0.720  19.662  1.00  0.00     0.017 C 
ATOM     20  C   UNL     1       0.164   0.552  19.487  1.00  0.00     0.012 C 
ATOM     21  C   UNL     1       0.007  -1.934  19.005  1.00  0.00     0.012 C 
ENDBRANCH   1  19
BRANCH   2  22
ATOM     22  O   UNL     1      -3.352  -0.022  20.866  1.00  0.00    -0.508 OA
ATOM     23  H   UNL     1      -3.344   0.996  20.833  1.00  0.00     0.293 HD
ENDBRANCH   2  22
TORSDOF 2
ENDMDL
MODEL 5
REMARK VINA RESULT:    -5.623      3.782      5.350
REMARK INTER + INTRA:          -6.353
REMARK INTER:                  -6.340
REMARK INTRA:                  -0.013
REMARK UNBOUND:                -0.237
REMARK SMILES CC(C)c1cc2c(cc1O)[C@]1(C)CCCC(C)(C)[C@H]1CC2=O
REMARK SMILES IDX 4 1 9 2 8 3 7 4 6 5 5 6 21 7 22 8 20 9 19 10 11 11 13 12
REMARK SMILES IDX 14 13 15 14 16 15 17 16 18 17 12 18 2 19 1 20 3 21 10 22
REMARK H PARENT 10 23
REMARK Flexibility Score: inf
ROOT
ATOM      1  C   UNL     1       1.901  -3.605  23.926  1.00  0.00    -0.003 A 
ATOM      2  C   UNL     1       0.707  -4.183  24.422  1.00  0.00     0.119 A 
ATOM      3  C   UNL     1       0.100  -3.642  25.561  1.00  0.00     0.051 A 
ATOM      4  C   UNL     1       0.481  -2.381  26.057  1.00  0.00    -0.027 A 
ATOM      5  C   UNL     1       1.636  -1.772  25.514  1.00  0.00     0.022 A 
ATOM      6  C   UNL     1       2.349  -2.406  24.497  1.00  0.00     0.020 A 
ATOM      7  C   UNL     1       2.020  -0.395  25.910  1.00  0.00     0.163 C 
ATOM      8  O   UNL     1       3.125   0.094  25.532  1.00  0.00    -0.294 OA
ATOM      9  C   UNL     1       1.111   0.432  26.780  1.00  0.00     0.086 C 
ATOM     10  C   UNL     1      -0.335  -0.119  26.790  1.00  0.00     0.013 C 
ATOM     11  C   UNL     1      -0.351  -1.653  27.162  1.00  0.00    -0.003 C 
ATOM     12  C   UNL     1      -1.832  -2.148  27.186  1.00  0.00     0.012 C 
ATOM     13  C   UNL     1      -2.762  -1.290  28.055  1.00  0.00     0.001 C 
ATOM     14  C   UNL     1      -2.785   0.149  27.544  1.00  0.00     0.007 C 
ATOM     15  C   UNL     1      -1.389   0.829  27.513  1.00  0.00    -0.031 C 
ATOM     16  C   UNL     1      -1.565   2.125  26.681  1.00  0.00     0.011 C 
ATOM     17  C   UNL     1      -1.000   1.232  28.971  1.00  0.00     0.011 C 
ATOM     18  C   UNL     1       0.326  -1.957  28.522  1.00  0.00     0.017 C 
ENDROOT
BRANCH   1  19
ATOM     19  C   UNL     1       2.727  -4.173  22.775  1.00  0.00     0.017 C 
ATOM     20  C   UNL     1       3.102  -5.661  22.887  1.00  0.00     0.012 C 
ATOM     21  C   UNL     1       2.076  -3.872  21.409  1.00  0.00     0.012 C 
ENDBRANCH   1  19
BRANCH   2  22
ATOM     22  O   UNL     1       0.128  -5.292  23.800  1.00  0.00    -0.508 OA
ATOM     23  H   UNL     1      -0.878  -5.356  23.651  1.00  0.00     0.293 HD
ENDBRANCH   2  22
TORSDOF 2
ENDMDL
MODEL 6
REMARK VINA RESULT:    -5.544      3.028      4.724
REMARK INTER + INTRA:          -6.267
REMARK INTER:                  -6.540
REMARK INTRA:                   0.273
REMARK UNBOUND:                -0.237
REMARK SMILES CC(C)c1cc2c(cc1O)[C@]1(C)CCCC(C)(C)[C@H]1CC2=O
REMARK SMILES IDX 4 1 9 2 8 3 7 4 6 5 5 6 21 7 22 8 20 9 19 10 11 11 13 12
REMARK SMILES IDX 14 13 15 14 16 15 17 16 18 17 12 18 2 19 1 20 3 21 10 22
REMARK H PARENT 10 23
REMARK Flexibility Score: inf
ROOT
ATOM      1  C   UNL     1       1.430  -3.505  20.214  1.00  0.00    -0.003 A 
ATOM      2  C   UNL     1       0.639  -2.363  20.490  1.00  0.00     0.119 A 
ATOM      3  C   UNL     1       0.082  -2.201  21.764  1.00  0.00     0.051 A 
ATOM      4  C   UNL     1       0.512  -2.987  22.849  1.00  0.00    -0.027 A 
ATOM      5  C   UNL     1       1.358  -4.089  22.581  1.00  0.00     0.022 A 
ATOM      6  C   UNL     1       1.765  -4.356  21.275  1.00  0.00     0.020 A 
ATOM      7  C   UNL     1       1.938  -4.881  23.693  1.00  0.00     0.163 C 
ATOM      8  O   UNL     1       2.578  -5.947  23.452  1.00  0.00    -0.294 OA
ATOM      9  C   UNL     1       1.760  -4.441  25.121  1.00  0.00     0.086 C 
ATOM     10  C   UNL     1       1.353  -2.950  25.218  1.00  0.00     0.013 C 
ATOM     11  C   UNL     1       0.092  -2.651  24.317  1.00  0.00    -0.003 C 
ATOM     12  C   UNL     1      -0.291  -1.145  24.475  1.00  0.00     0.012 C 
ATOM     13  C   UNL     1      -0.450  -0.693  25.933  1.00  0.00     0.001 C 
ATOM     14  C   UNL     1       0.856  -0.898  26.696  1.00  0.00     0.007 C 
ATOM     15  C   UNL     1       1.359  -2.368  26.699  1.00  0.00    -0.031 C 
ATOM     16  C   UNL     1       2.818  -2.318  27.221  1.00  0.00     0.011 C 
ATOM     17  C   UNL     1       0.503  -3.185  27.718  1.00  0.00     0.011 C 
ATOM     18  C   UNL     1      -1.128  -3.542  24.661  1.00  0.00     0.017 C 
ENDROOT
BRANCH   1  19
ATOM     19  C   UNL     1       1.987  -3.863  18.839  1.00  0.00     0.017 C 
ATOM     20  C   UNL     1       2.520  -5.297  18.682  1.00  0.00     0.012 C 
ATOM     21  C   UNL     1       0.983  -3.524  17.717  1.00  0.00     0.012 C 
ENDBRANCH   1  19
BRANCH   2  22
ATOM     22  O   UNL     1       0.396  -1.397  19.510  1.00  0.00    -0.508 OA
ATOM     23  H   UNL     1      -0.182  -1.597  18.695  1.00  0.00     0.293 HD
ENDBRANCH   2  22
TORSDOF 2
ENDMDL
MODEL 7
REMARK VINA RESULT:    -5.459      1.430      1.754
REMARK INTER + INTRA:          -6.174
REMARK INTER:                  -5.944
REMARK INTRA:                  -0.230
REMARK UNBOUND:                -0.237
REMARK SMILES CC(C)c1cc2c(cc1O)[C@]1(C)CCCC(C)(C)[C@H]1CC2=O
REMARK SMILES IDX 4 1 9 2 8 3 7 4 6 5 5 6 21 7 22 8 20 9 19 10 11 11 13 12
REMARK SMILES IDX 14 13 15 14 16 15 17 16 18 17 12 18 2 19 1 20 3 21 10 22
REMARK H PARENT 10 23
REMARK Flexibility Score: inf
ROOT
ATOM      1  C   UNL     1      -3.954  -0.097  21.454  1.00  0.00    -0.003 A 
ATOM      2  C   UNL     1      -4.553  -0.136  22.737  1.00  0.00     0.119 A 
ATOM      3  C   UNL     1      -3.951  -0.881  23.757  1.00  0.00     0.051 A 
ATOM      4  C   UNL     1      -2.634  -1.358  23.627  1.00  0.00    -0.027 A 
ATOM      5  C   UNL     1      -2.010  -1.257  22.361  1.00  0.00     0.022 A 
ATOM      6  C   UNL     1      -2.688  -0.675  21.292  1.00  0.00     0.020 A 
ATOM      7  C   UNL     1      -0.584  -1.632  22.192  1.00  0.00     0.163 C 
ATOM      8  O   UNL     1      -0.069  -1.675  21.036  1.00  0.00    -0.294 OA
ATOM      9  C   UNL     1       0.262  -1.983  23.385  1.00  0.00     0.086 C 
ATOM     10  C   UNL     1      -0.366  -1.476  24.706  1.00  0.00     0.013 C 
ATOM     11  C   UNL     1      -1.861  -1.964  24.843  1.00  0.00    -0.003 C 
ATOM     12  C   UNL     1      -2.434  -1.450  26.202  1.00  0.00     0.012 C 
ATOM     13  C   UNL     1      -1.558  -1.789  27.416  1.00  0.00     0.001 C 
ATOM     14  C   UNL     1      -0.172  -1.168  27.258  1.00  0.00     0.007 C 
ATOM     15  C   UNL     1       0.580  -1.624  25.977  1.00  0.00    -0.031 C 
ATOM     16  C   UNL     1       1.788  -0.665  25.828  1.00  0.00     0.011 C 
ATOM     17  C   UNL     1       1.128  -3.068  26.209  1.00  0.00     0.011 C 
ATOM     18  C   UNL     1      -2.009  -3.504  24.760  1.00  0.00     0.017 C 
ENDROOT
BRANCH   1  19
ATOM     19  C   UNL     1      -4.572   0.569  20.228  1.00  0.00     0.017 C 
ATOM     20  C   UNL     1      -3.670   1.564  19.478  1.00  0.00     0.012 C 
ATOM     21  C   UNL     1      -5.168  -0.472  19.258  1.00  0.00     0.012 C 
ENDBRANCH   1  19
BRANCH   2  22
ATOM     22  O   UNL     1      -5.743   0.549  23.001  1.00  0.00    -0.508 OA
ATOM     23  H   UNL     1      -6.478   0.632  22.301  1.00  0.00     0.293 HD
ENDBRANCH   2  22
TORSDOF 2
ENDMDL
MODEL 8
REMARK VINA RESULT:    -5.456      3.023      4.922
REMARK INTER + INTRA:          -6.171
REMARK INTER:                  -5.939
REMARK INTRA:                  -0.232
REMARK UNBOUND:                -0.237
REMARK SMILES CC(C)c1cc2c(cc1O)[C@]1(C)CCCC(C)(C)[C@H]1CC2=O
REMARK SMILES IDX 4 1 9 2 8 3 7 4 6 5 5 6 21 7 22 8 20 9 19 10 11 11 13 12
REMARK SMILES IDX 14 13 15 14 16 15 17 16 18 17 12 18 2 19 1 20 3 21 10 22
REMARK H PARENT 10 23
REMARK Flexibility Score: inf
ROOT
ATOM      1  C   UNL     1      -2.355  -0.830  27.915  1.00  0.00    -0.003 A 
ATOM      2  C   UNL     1      -1.059  -0.269  28.025  1.00  0.00     0.119 A 
ATOM      3  C   UNL     1       0.013  -0.871  27.355  1.00  0.00     0.051 A 
ATOM      4  C   UNL     1      -0.207  -1.842  26.361  1.00  0.00    -0.027 A 
ATOM      5  C   UNL     1      -1.517  -2.354  26.205  1.00  0.00     0.022 A 
ATOM      6  C   UNL     1      -2.553  -1.878  27.007  1.00  0.00     0.020 A 
ATOM      7  C   UNL     1      -1.834  -3.289  25.098  1.00  0.00     0.163 C 
ATOM      8  O   UNL     1      -2.966  -3.853  25.043  1.00  0.00    -0.294 OA
ATOM      9  C   UNL     1      -0.811  -3.594  24.037  1.00  0.00     0.086 C 
ATOM     10  C   UNL     1       0.315  -2.532  24.000  1.00  0.00     0.013 C 
ATOM     11  C   UNL     1       0.950  -2.335  25.431  1.00  0.00    -0.003 C 
ATOM     12  C   UNL     1       2.095  -1.278  25.330  1.00  0.00     0.012 C 
ATOM     13  C   UNL     1       3.125  -1.578  24.233  1.00  0.00     0.001 C 
ATOM     14  C   UNL     1       2.443  -1.622  22.867  1.00  0.00     0.007 C 
ATOM     15  C   UNL     1       1.307  -2.676  22.764  1.00  0.00    -0.031 C 
ATOM     16  C   UNL     1       0.542  -2.351  21.455  1.00  0.00     0.011 C 
ATOM     17  C   UNL     1       1.952  -4.090  22.615  1.00  0.00     0.011 C 
ATOM     18  C   UNL     1       1.500  -3.649  26.041  1.00  0.00     0.017 C 
ENDROOT
BRANCH   1  19
ATOM     19  C   UNL     1      -3.577  -0.348  28.691  1.00  0.00     0.017 C 
ATOM     20  C   UNL     1      -4.940  -0.600  28.024  1.00  0.00     0.012 C 
ATOM     21  C   UNL     1      -3.570  -0.875  30.142  1.00  0.00     0.012 C 
ENDBRANCH   1  19
BRANCH   2  22
ATOM     22  O   UNL     1      -0.828   0.872  28.798  1.00  0.00    -0.508 OA
ATOM     23  H   UNL     1      -1.015   0.885  29.800  1.00  0.00     0.293 HD
ENDBRANCH   2  22
TORSDOF 2
ENDMDL
MODEL 9
REMARK VINA RESULT:    -5.405      1.763      3.418
REMARK INTER + INTRA:          -6.116
REMARK INTER:                  -6.233
REMARK INTRA:                   0.117
REMARK UNBOUND:                -0.237
REMARK SMILES CC(C)c1cc2c(cc1O)[C@]1(C)CCCC(C)(C)[C@H]1CC2=O
REMARK SMILES IDX 4 1 9 2 8 3 7 4 6 5 5 6 21 7 22 8 20 9 19 10 11 11 13 12
REMARK SMILES IDX 14 13 15 14 16 15 17 16 18 17 12 18 2 19 1 20 3 21 10 22
REMARK H PARENT 10 23
REMARK Flexibility Score: inf
ROOT
ATOM      1  C   UNL     1      -4.057  -1.024  22.344  1.00  0.00    -0.003 A 
ATOM      2  C   UNL     1      -2.976  -0.476  21.612  1.00  0.00     0.119 A 
ATOM      3  C   UNL     1      -1.672  -0.612  22.102  1.00  0.00     0.051 A 
ATOM      4  C   UNL     1      -1.379  -1.511  23.145  1.00  0.00    -0.027 A 
ATOM      5  C   UNL     1      -2.460  -2.111  23.832  1.00  0.00     0.022 A 
ATOM      6  C   UNL     1      -3.772  -1.827  23.455  1.00  0.00     0.020 A 
ATOM      7  C   UNL     1      -2.215  -3.154  24.858  1.00  0.00     0.163 C 
ATOM      8  O   UNL     1      -3.169  -3.588  25.568  1.00  0.00    -0.294 OA
ATOM      9  C   UNL     1      -0.830  -3.698  25.081  1.00  0.00     0.086 C 
ATOM     10  C   UNL     1       0.106  -3.401  23.883  1.00  0.00     0.013 C 
ATOM     11  C   UNL     1       0.095  -1.863  23.529  1.00  0.00    -0.003 C 
ATOM     12  C   UNL     1       1.074  -1.616  22.337  1.00  0.00     0.012 C 
ATOM     13  C   UNL     1       2.480  -2.191  22.557  1.00  0.00     0.001 C 
ATOM     14  C   UNL     1       2.407  -3.702  22.763  1.00  0.00     0.007 C 
ATOM     15  C   UNL     1       1.517  -4.133  23.961  1.00  0.00    -0.031 C 
ATOM     16  C   UNL     1       1.307  -5.661  23.809  1.00  0.00     0.011 C 
ATOM     17  C   UNL     1       2.306  -3.876  25.284  1.00  0.00     0.011 C 
ATOM     18  C   UNL     1       0.486  -0.959  24.726  1.00  0.00     0.017 C 
ENDROOT
BRANCH   1  19
ATOM     19  C   UNL     1      -5.529  -0.836  21.987  1.00  0.00     0.017 C 
ATOM     20  C   UNL     1      -6.143   0.525  22.356  1.00  0.00     0.012 C 
ATOM     21  C   UNL     1      -5.800  -1.177  20.506  1.00  0.00     0.012 C 
ENDBRANCH   1  19
BRANCH   2  22
ATOM     22  O   UNL     1      -3.187   0.207  20.411  1.00  0.00    -0.508 OA
ATOM     23  H   UNL     1      -2.706   1.082  20.202  1.00  0.00     0.293 HD
ENDBRANCH   2  22
TORSDOF 2
ENDMDL
