MODEL 1
REMARK VINA RESULT:    -1.453      0.000      0.000
REMARK INTER + INTRA:          -2.125
REMARK INTER:                  -1.793
REMARK INTRA:                  -0.332
REMARK UNBOUND:                -0.332
REMARK SMILES O=c1c(O)c(-c2cc(O)c(O)c(O)c2)oc2cc(O)cc(O)c12
REMARK SMILES IDX 5 1 3 2 2 3 1 4 23 5 21 6 20 7 18 8 17 9 16 10 15 11 6 12
REMARK SMILES IDX 7 13 8 14 14 15 10 16 12 17 9 18 11 20 13 22 4 24 22 26
REMARK SMILES IDX 19 28
REMARK H PARENT 9 19 11 21 13 23 4 25 22 27 19 29
REMARK Flexibility Score: inf
ROOT
ATOM      1  C   UNL     1       0.053  10.764 -27.977  1.00  0.00     0.180 A 
ATOM      2  C   UNL     1      -1.117  10.788 -28.755  1.00  0.00     0.208 A 
ATOM      3  C   UNL     1      -2.334  11.128 -28.143  1.00  0.00     0.238 A 
ATOM      4  O   UNL     1      -3.387  11.095 -28.832  1.00  0.00    -0.285 OA
ATOM      5  C   UNL     1      -2.363  11.457 -26.766  1.00  0.00     0.111 A 
ATOM      6  C   UNL     1      -3.533  11.856 -26.052  1.00  0.00     0.134 A 
ATOM      7  C   UNL     1      -3.468  12.030 -24.665  1.00  0.00     0.093 A 
ATOM      8  C   UNL     1      -2.263  11.884 -23.975  1.00  0.00     0.123 A 
ATOM      9  C   UNL     1      -1.104  11.553 -24.672  1.00  0.00     0.094 A 
ATOM     10  C   UNL     1      -1.142  11.337 -26.052  1.00  0.00     0.146 A 
ATOM     11  O   UNL     1      -0.017  11.012 -26.675  1.00  0.00    -0.452 OA
ENDROOT
BRANCH   1  12
ATOM     12  C   UNL     1       1.377  10.438 -28.556  1.00  0.00     0.029 A 
ATOM     13  C   UNL     1       2.302  11.446 -28.878  1.00  0.00     0.062 A 
ATOM     14  C   UNL     1       3.560  11.118 -29.404  1.00  0.00     0.162 A 
ATOM     15  C   UNL     1       1.742   9.094 -28.734  1.00  0.00     0.062 A 
ATOM     16  C   UNL     1       3.906   9.770 -29.600  1.00  0.00     0.200 A 
ATOM     17  C   UNL     1       2.996   8.760 -29.261  1.00  0.00     0.162 A 
BRANCH  14  18
ATOM     18  O   UNL     1       4.468  12.125 -29.727  1.00  0.00    -0.504 OA
ATOM     19  H   UNL     1       5.426  11.915 -29.983  1.00  0.00     0.293 HD
ENDBRANCH  14  18
BRANCH  16  20
ATOM     20  O   UNL     1       5.150   9.418 -30.125  1.00  0.00    -0.502 OA
ATOM     21  H   UNL     1       5.270   9.152 -31.095  1.00  0.00     0.293 HD
ENDBRANCH  16  20
BRANCH  17  22
ATOM     22  O   UNL     1       3.348   7.424 -29.450  1.00  0.00    -0.504 OA
ATOM     23  H   UNL     1       2.791   6.807 -30.029  1.00  0.00     0.293 HD
ENDBRANCH  17  22
ENDBRANCH   1  12
BRANCH   2  24
ATOM     24  O   UNL     1      -1.070  10.438 -30.108  1.00  0.00    -0.502 OA
ATOM     25  H   UNL     1      -0.920   9.486 -30.419  1.00  0.00     0.293 HD
ENDBRANCH   2  24
BRANCH   6  26
ATOM     26  O   UNL     1      -4.765  12.118 -26.659  1.00  0.00    -0.507 OA
ATOM     27  H   UNL     1      -5.337  12.928 -26.473  1.00  0.00     0.293 HD
ENDBRANCH   6  26
BRANCH   8  28
ATOM     28  O   UNL     1      -2.204  12.075 -22.596  1.00  0.00    -0.508 OA
ATOM     29  H   UNL     1      -2.935  11.734 -21.982  1.00  0.00     0.293 HD
ENDBRANCH   8  28
TORSDOF 7
ENDMDL
MODEL 2
REMARK VINA RESULT:    -0.908      1.707      3.248
REMARK INTER + INTRA:          -1.452
REMARK INTER:                  -1.548
REMARK INTRA:                   0.096
REMARK UNBOUND:                -0.332
REMARK SMILES O=c1c(O)c(-c2cc(O)c(O)c(O)c2)oc2cc(O)cc(O)c12
REMARK SMILES IDX 5 1 3 2 2 3 1 4 23 5 21 6 20 7 18 8 17 9 16 10 15 11 6 12
REMARK SMILES IDX 7 13 8 14 14 15 10 16 12 17 9 18 11 20 13 22 4 24 22 26
REMARK SMILES IDX 19 28
REMARK H PARENT 9 19 11 21 13 23 4 25 22 27 19 29
REMARK Flexibility Score: inf
ROOT
ATOM      1  C   UNL     1      -0.213  10.247 -28.503  1.00  0.00     0.180 A 
ATOM      2  C   UNL     1      -0.573  11.118 -27.461  1.00  0.00     0.208 A 
ATOM      3  C   UNL     1      -1.923  11.203 -27.081  1.00  0.00     0.238 A 
ATOM      4  O   UNL     1      -2.248  12.024 -26.184  1.00  0.00    -0.285 OA
ATOM      5  C   UNL     1      -2.891  10.404 -27.736  1.00  0.00     0.111 A 
ATOM      6  C   UNL     1      -4.280  10.379 -27.406  1.00  0.00     0.134 A 
ATOM      7  C   UNL     1      -5.166   9.649 -28.206  1.00  0.00     0.093 A 
ATOM      8  C   UNL     1      -4.706   8.890 -29.285  1.00  0.00     0.123 A 
ATOM      9  C   UNL     1      -3.345   8.862 -29.579  1.00  0.00     0.094 A 
ATOM     10  C   UNL     1      -2.439   9.608 -28.821  1.00  0.00     0.146 A 
ATOM     11  O   UNL     1      -1.153   9.560 -29.142  1.00  0.00    -0.452 OA
ENDROOT
BRANCH   1  12
ATOM     12  C   UNL     1       1.192  10.085 -28.944  1.00  0.00     0.029 A 
ATOM     13  C   UNL     1       2.046  11.194 -29.085  1.00  0.00     0.062 A 
ATOM     14  C   UNL     1       3.380  11.020 -29.481  1.00  0.00     0.162 A 
ATOM     15  C   UNL     1       1.702   8.798 -29.169  1.00  0.00     0.062 A 
ATOM     16  C   UNL     1       3.874   9.727 -29.726  1.00  0.00     0.200 A 
ATOM     17  C   UNL     1       3.033   8.618 -29.566  1.00  0.00     0.162 A 
BRANCH  14  18
ATOM     18  O   UNL     1       4.216  12.125 -29.624  1.00  0.00    -0.504 OA
ATOM     19  H   UNL     1       3.950  13.040 -29.280  1.00  0.00     0.293 HD
ENDBRANCH  14  18
BRANCH  16  20
ATOM     20  O   UNL     1       5.196   9.529 -30.124  1.00  0.00    -0.502 OA
ATOM     21  H   UNL     1       5.597  10.008 -30.922  1.00  0.00     0.293 HD
ENDBRANCH  16  20
BRANCH  17  22
ATOM     22  O   UNL     1       3.531   7.337 -29.803  1.00  0.00    -0.504 OA
ATOM     23  H   UNL     1       4.525   7.162 -29.887  1.00  0.00     0.293 HD
ENDBRANCH  17  22
ENDBRANCH   1  12
BRANCH   2  24
ATOM     24  O   UNL     1       0.395  11.914 -26.842  1.00  0.00    -0.502 OA
ATOM     25  H   UNL     1       0.160  12.625 -26.160  1.00  0.00     0.293 HD
ENDBRANCH   2  24
BRANCH   6  26
ATOM     26  O   UNL     1      -4.828  11.026 -26.295  1.00  0.00    -0.507 OA
ATOM     27  H   UNL     1      -5.756  11.422 -26.260  1.00  0.00     0.293 HD
ENDBRANCH   6  26
BRANCH   8  28
ATOM     28  O   UNL     1      -5.593   8.154 -30.068  1.00  0.00    -0.508 OA
ATOM     29  H   UNL     1      -5.845   7.202 -29.830  1.00  0.00     0.293 HD
ENDBRANCH   8  28
TORSDOF 7
ENDMDL
MODEL 3
REMARK VINA RESULT:    -0.870      1.943      7.111
REMARK INTER + INTRA:          -1.405
REMARK INTER:                  -1.828
REMARK INTRA:                   0.423
REMARK UNBOUND:                -0.332
REMARK SMILES O=c1c(O)c(-c2cc(O)c(O)c(O)c2)oc2cc(O)cc(O)c12
REMARK SMILES IDX 5 1 3 2 2 3 1 4 23 5 21 6 20 7 18 8 17 9 16 10 15 11 6 12
REMARK SMILES IDX 7 13 8 14 14 15 10 16 12 17 9 18 11 20 13 22 4 24 22 26
REMARK SMILES IDX 19 28
REMARK H PARENT 9 19 11 21 13 23 4 25 22 27 19 29
REMARK Flexibility Score: inf
ROOT
ATOM      1  C   UNL     1      -1.918  11.619 -24.952  1.00  0.00     0.180 A 
ATOM      2  C   UNL     1      -3.059  11.780 -25.755  1.00  0.00     0.208 A 
ATOM      3  C   UNL     1      -2.939  11.628 -27.146  1.00  0.00     0.238 A 
ATOM      4  O   UNL     1      -3.953  11.827 -27.866  1.00  0.00    -0.285 OA
ATOM      5  C   UNL     1      -1.684  11.301 -27.714  1.00  0.00     0.111 A 
ATOM      6  C   UNL     1      -1.456  11.083 -29.107  1.00  0.00     0.134 A 
ATOM      7  C   UNL     1      -0.149  10.894 -29.570  1.00  0.00     0.093 A 
ATOM      8  C   UNL     1       0.931  10.848 -28.685  1.00  0.00     0.123 A 
ATOM      9  C   UNL     1       0.711  11.001 -27.318  1.00  0.00     0.094 A 
ATOM     10  C   UNL     1      -0.578  11.227 -26.828  1.00  0.00     0.146 A 
ATOM     11  O   UNL     1      -0.742  11.378 -25.520  1.00  0.00    -0.452 OA
ENDROOT
BRANCH   1  12
ATOM     12  C   UNL     1      -1.970  11.740 -23.477  1.00  0.00     0.029 A 
ATOM     13  C   UNL     1      -3.193  11.885 -22.798  1.00  0.00     0.062 A 
ATOM     14  C   UNL     1      -3.225  11.975 -21.399  1.00  0.00     0.162 A 
ATOM     15  C   UNL     1      -0.783  11.651 -22.734  1.00  0.00     0.062 A 
ATOM     16  C   UNL     1      -2.028  11.907 -20.666  1.00  0.00     0.200 A 
ATOM     17  C   UNL     1      -0.809  11.742 -21.336  1.00  0.00     0.162 A 
BRANCH  14  18
ATOM     18  O   UNL     1      -4.441  12.125 -20.736  1.00  0.00    -0.504 OA
ATOM     19  H   UNL     1      -5.314  11.818 -21.151  1.00  0.00     0.293 HD
ENDBRANCH  14  18
BRANCH  16  20
ATOM     20  O   UNL     1      -2.034  11.998 -19.274  1.00  0.00    -0.502 OA
ATOM     21  H   UNL     1      -1.180  11.976 -18.729  1.00  0.00     0.293 HD
ENDBRANCH  16  20
BRANCH  17  22
ATOM     22  O   UNL     1       0.375  11.667 -20.603  1.00  0.00    -0.504 OA
ATOM     23  H   UNL     1       0.746  10.780 -20.285  1.00  0.00     0.293 HD
ENDBRANCH  17  22
ENDBRANCH   1  12
BRANCH   2  24
ATOM     24  O   UNL     1      -4.284  12.125 -25.177  1.00  0.00    -0.502 OA
ATOM     25  H   UNL     1      -4.351  12.695 -24.343  1.00  0.00     0.293 HD
ENDBRANCH   2  24
BRANCH   6  26
ATOM     26  O   UNL     1      -2.474  11.017 -30.062  1.00  0.00    -0.507 OA
ATOM     27  H   UNL     1      -2.486  10.383 -30.847  1.00  0.00     0.293 HD
ENDBRANCH   6  26
BRANCH   8  28
ATOM     28  O   UNL     1       2.227  10.644 -29.153  1.00  0.00    -0.508 OA
ATOM     29  H   UNL     1       2.950  11.345 -29.035  1.00  0.00     0.293 HD
ENDBRANCH   8  28
TORSDOF 7
ENDMDL
MODEL 4
REMARK VINA RESULT:     0.045      2.344      6.977
REMARK INTER + INTRA:          -0.275
REMARK INTER:                   0.090
REMARK INTRA:                  -0.365
REMARK UNBOUND:                -0.332
REMARK SMILES O=c1c(O)c(-c2cc(O)c(O)c(O)c2)oc2cc(O)cc(O)c12
REMARK SMILES IDX 5 1 3 2 2 3 1 4 23 5 21 6 20 7 18 8 17 9 16 10 15 11 6 12
REMARK SMILES IDX 7 13 8 14 14 15 10 16 12 17 9 18 11 20 13 22 4 24 22 26
REMARK SMILES IDX 19 28
REMARK H PARENT 9 19 11 21 13 23 4 25 22 27 19 29
REMARK Flexibility Score: inf
ROOT
ATOM      1  C   UNL     1      -2.244  10.798 -27.626  1.00  0.00     0.180 A 
ATOM      2  C   UNL     1      -1.822  11.356 -28.844  1.00  0.00     0.208 A 
ATOM      3  C   UNL     1      -0.450  11.574 -29.054  1.00  0.00     0.238 A 
ATOM      4  O   UNL     1      -0.082  12.125 -30.125  1.00  0.00    -0.285 OA
ATOM      5  C   UNL     1       0.482  11.216 -28.050  1.00  0.00     0.111 A 
ATOM      6  C   UNL     1       1.898  11.355 -28.172  1.00  0.00     0.134 A 
ATOM      7  C   UNL     1       2.714  11.090 -27.067  1.00  0.00     0.093 A 
ATOM      8  C   UNL     1       2.173  10.629 -25.864  1.00  0.00     0.123 A 
ATOM      9  C   UNL     1       0.798  10.435 -25.755  1.00  0.00     0.094 A 
ATOM     10  C   UNL     1      -0.047  10.724 -26.829  1.00  0.00     0.146 A 
ATOM     11  O   UNL     1      -1.352  10.534 -26.679  1.00  0.00    -0.452 OA
ENDROOT
BRANCH   1  12
ATOM     12  C   UNL     1      -3.670  10.516 -27.341  1.00  0.00     0.029 A 
ATOM     13  C   UNL     1      -4.270   9.309 -27.740  1.00  0.00     0.062 A 
ATOM     14  C   UNL     1      -5.616   9.049 -27.442  1.00  0.00     0.162 A 
ATOM     15  C   UNL     1      -4.425  11.445 -26.608  1.00  0.00     0.062 A 
ATOM     16  C   UNL     1      -6.369   9.996 -26.727  1.00  0.00     0.200 A 
ATOM     17  C   UNL     1      -5.769  11.192 -26.309  1.00  0.00     0.162 A 
BRANCH  14  18
ATOM     18  O   UNL     1      -6.203   7.853 -27.847  1.00  0.00    -0.504 OA
ATOM     19  H   UNL     1      -5.716   6.968 -27.767  1.00  0.00     0.293 HD
ENDBRANCH  14  18
BRANCH  16  20
ATOM     20  O   UNL     1      -7.709   9.762 -26.421  1.00  0.00    -0.502 OA
ATOM     21  H   UNL     1      -7.990   9.180 -25.641  1.00  0.00     0.293 HD
ENDBRANCH  16  20
BRANCH  17  22
ATOM     22  O   UNL     1      -6.519  12.124 -25.593  1.00  0.00    -0.504 OA
ATOM     23  H   UNL     1      -7.290  12.625 -26.020  1.00  0.00     0.293 HD
ENDBRANCH  17  22
ENDBRANCH   1  12
BRANCH   2  24
ATOM     24  O   UNL     1      -2.760  11.723 -29.813  1.00  0.00    -0.502 OA
ATOM     25  H   UNL     1      -2.923  11.175 -30.649  1.00  0.00     0.293 HD
ENDBRANCH   2  24
BRANCH   6  26
ATOM     26  O   UNL     1       2.546  11.720 -29.355  1.00  0.00    -0.507 OA
ATOM     27  H   UNL     1       3.337  12.344 -29.409  1.00  0.00     0.293 HD
ENDBRANCH   6  26
BRANCH   8  28
ATOM     28  O   UNL     1       2.994  10.354 -24.773  1.00  0.00    -0.508 OA
ATOM     29  H   UNL     1       2.615  10.238 -23.840  1.00  0.00     0.293 HD
ENDBRANCH   8  28
TORSDOF 7
ENDMDL
MODEL 5
REMARK VINA RESULT:     1.412      2.764      7.205
REMARK INTER + INTRA:           1.410
REMARK INTER:                   0.938
REMARK INTRA:                   0.472
REMARK UNBOUND:                -0.332
REMARK SMILES O=c1c(O)c(-c2cc(O)c(O)c(O)c2)oc2cc(O)cc(O)c12
REMARK SMILES IDX 5 1 3 2 2 3 1 4 23 5 21 6 20 7 18 8 17 9 16 10 15 11 6 12
REMARK SMILES IDX 7 13 8 14 14 15 10 16 12 17 9 18 11 20 13 22 4 24 22 26
REMARK SMILES IDX 19 28
REMARK H PARENT 9 19 11 21 13 23 4 25 22 27 19 29
REMARK Flexibility Score: inf
ROOT
ATOM      1  C   UNL     1      -1.282  11.137 -24.854  1.00  0.00     0.180 A 
ATOM      2  C   UNL     1      -0.094  10.537 -25.306  1.00  0.00     0.208 A 
ATOM      3  C   UNL     1       0.118  10.404 -26.687  1.00  0.00     0.238 A 
ATOM      4  O   UNL     1       1.159   9.817 -27.085  1.00  0.00    -0.285 OA
ATOM      5  C   UNL     1      -0.850  10.888 -27.600  1.00  0.00     0.111 A 
ATOM      6  C   UNL     1      -0.720  10.843 -29.021  1.00  0.00     0.134 A 
ATOM      7  C   UNL     1      -1.797  11.232 -29.825  1.00  0.00     0.093 A 
ATOM      8  C   UNL     1      -2.977  11.726 -29.261  1.00  0.00     0.123 A 
ATOM      9  C   UNL     1      -3.090  11.829 -27.877  1.00  0.00     0.094 A 
ATOM     10  C   UNL     1      -2.046  11.415 -27.046  1.00  0.00     0.146 A 
ATOM     11  O   UNL     1      -2.200  11.521 -25.733  1.00  0.00    -0.452 OA
ENDROOT
BRANCH   1  12
ATOM     12  C   UNL     1      -1.566  11.334 -23.414  1.00  0.00     0.029 A 
ATOM     13  C   UNL     1      -2.860  11.647 -22.961  1.00  0.00     0.062 A 
ATOM     14  C   UNL     1      -3.116  11.807 -21.591  1.00  0.00     0.162 A 
ATOM     15  C   UNL     1      -0.540  11.148 -22.475  1.00  0.00     0.062 A 
ATOM     16  C   UNL     1      -2.076  11.641 -20.661  1.00  0.00     0.200 A 
ATOM     17  C   UNL     1      -0.790  11.308 -21.106  1.00  0.00     0.162 A 
BRANCH  14  18
ATOM     18  O   UNL     1      -4.400  12.124 -21.153  1.00  0.00    -0.504 OA
ATOM     19  H   UNL     1      -4.726  11.861 -20.230  1.00  0.00     0.293 HD
ENDBRANCH  14  18
BRANCH  16  20
ATOM     20  O   UNL     1      -2.305  11.798 -19.294  1.00  0.00    -0.502 OA
ATOM     21  H   UNL     1      -2.454  12.708 -18.874  1.00  0.00     0.293 HD
ENDBRANCH  16  20
BRANCH  17  22
ATOM     22  O   UNL     1       0.237  11.137 -20.178  1.00  0.00    -0.504 OA
ATOM     23  H   UNL     1       0.694  11.929 -19.742  1.00  0.00     0.293 HD
ENDBRANCH  17  22
ENDBRANCH   1  12
BRANCH   2  24
ATOM     24  O   UNL     1       0.839  10.046 -24.388  1.00  0.00    -0.502 OA
ATOM     25  H   UNL     1       1.709  10.524 -24.188  1.00  0.00     0.293 HD
ENDBRANCH   2  24
BRANCH   6  26
ATOM     26  O   UNL     1       0.447  10.453 -29.684  1.00  0.00    -0.507 OA
ATOM     27  H   UNL     1       0.505   9.699 -30.351  1.00  0.00     0.293 HD
ENDBRANCH   6  26
BRANCH   8  28
ATOM     28  O   UNL     1      -4.039  12.125 -30.069  1.00  0.00    -0.508 OA
ATOM     29  H   UNL     1      -4.202  11.703 -30.976  1.00  0.00     0.293 HD
ENDBRANCH   8  28
TORSDOF 7
ENDMDL
