MODEL 1
REMARK VINA RESULT:    71.193      0.000      0.000
REMARK INTER + INTRA:          75.355
REMARK INTER:                  75.355
REMARK INTRA:                   0.000
REMARK UNBOUND:                 0.000
REMARK SMILES CC1(C)[C@@H](O)CC[C@]2(C)[C@H]1CC[C@]1(C)[C@H]2C=CC2=C(O)C(=O)C(=O)[C@@]21C
REMARK SMILES IDX 1 1 2 2 10 3 11 4 12 5 13 6 15 7 8 8 7 9 6 10 4 11 9 12
REMARK SMILES IDX 16 13 17 14 18 15 19 16 21 17 22 18 23 19 24 20 25 21 26 22
REMARK SMILES IDX 14 23 3 24 5 25 20 27
REMARK H PARENT 5 26 20 28
REMARK Flexibility Score: inf
ROOT
ATOM      1  C   UNL     1      14.145  13.252  25.107  1.00  0.00     0.014 C 
ATOM      2  C   UNL     1      15.648  12.903  25.338  1.00  0.00    -0.006 C 
ATOM      3  C   UNL     1      16.485  13.036  23.981  1.00  0.00     0.004 C 
ATOM      4  C   UNL     1      15.717  12.395  22.781  1.00  0.00     0.005 C 
ATOM      5  C   UNL     1      16.428  12.495  21.432  1.00  0.00     0.009 C 
ATOM      6  C   UNL     1      17.855  11.880  21.414  1.00  0.00    -0.009 C 
ATOM      7  C   UNL     1      18.673  12.527  22.623  1.00  0.00     0.025 C 
ATOM      8  C   UNL     1      17.964  12.480  24.070  1.00  0.00    -0.022 C 
ATOM      9  C   UNL     1      17.927  11.034  24.665  1.00  0.00     0.010 C 
ATOM     10  C   UNL     1      17.178  10.916  26.008  1.00  0.00     0.033 C 
ATOM     11  C   UNL     1      15.738  11.457  25.938  1.00  0.00     0.120 C 
ATOM     12  C   UNL     1      18.858  13.325  25.045  1.00  0.00     0.012 C 
ATOM     13  C   UNL     1      19.150  13.966  22.280  1.00  0.00    -0.022 C 
ATOM     14  C   UNL     1      19.188  14.490  21.055  1.00  0.00     0.005 C 
ATOM     15  C   UNL     1      18.733  13.713  19.918  1.00  0.00     0.012 C 
ATOM     16  C   UNL     1      18.219  14.230  18.805  1.00  0.00     0.171 C 
ATOM     17  C   UNL     1      17.595  13.185  18.033  1.00  0.00     0.264 C 
ATOM     18  O   UNL     1      17.006  13.320  16.929  1.00  0.00    -0.282 OA
ATOM     19  C   UNL     1      17.745  11.956  18.781  1.00  0.00     0.217 C 
ATOM     20  O   UNL     1      17.320  10.836  18.394  1.00  0.00    -0.289 OA
ATOM     21  C   UNL     1      18.565  12.220  20.029  1.00  0.00     0.069 C 
ATOM     22  C   UNL     1      19.956  11.563  19.864  1.00  0.00     0.026 C 
ATOM     23  C   UNL     1      17.769  10.323  21.522  1.00  0.00     0.013 C 
ATOM     24  C   UNL     1      16.125  13.938  26.399  1.00  0.00     0.014 C 
ENDROOT
BRANCH  11  25
ATOM     25  O   UNL     1      14.944  10.557  25.205  1.00  0.00    -0.393 OA
ATOM     26  H   UNL     1      13.997  10.824  25.337  1.00  0.00     0.210 HD
ENDBRANCH  11  25
BRANCH  16  27
ATOM     27  O   UNL     1      18.217  15.586  18.485  1.00  0.00    -0.504 OA
ATOM     28  H   UNL     1      17.646  16.240  19.005  1.00  0.00     0.293 HD
ENDBRANCH  16  27
TORSDOF 2
ENDMDL
