MODEL 1
REMARK VINA RESULT:    -3.989      0.000      0.000
REMARK INTER + INTRA:          -8.455
REMARK INTER:                  -7.020
REMARK INTRA:                  -1.436
REMARK UNBOUND:                -1.436
REMARK SMILES CCCCCCC=CCCCCCCCC(=O)[O-]
REMARK SMILES IDX 10 1 11 2 12 3 13 4 14 5 15 6 16 7 17 8 18 9 9 10 8 11 7 12
REMARK SMILES IDX 6 13 5 14 4 15 3 16 2 17 1 18
REMARK H PARENT
REMARK Flexibility Score: inf
ROOT
ATOM      1  C   UNL     1       5.667   0.450  -8.542  1.00  0.00     0.004 C 
ENDROOT
BRANCH   1   2
ATOM      2  C   UNL     1       4.202   0.140  -8.906  1.00  0.00     0.000 C 
BRANCH   2   3
ATOM      3  C   UNL     1       3.767  -1.316  -8.655  1.00  0.00     0.000 C 
BRANCH   3   4
ATOM      4  C   UNL     1       2.407  -1.444  -7.935  1.00  0.00     0.000 C 
BRANCH   4   5
ATOM      5  C   UNL     1       1.360  -0.459  -8.484  1.00  0.00     0.006 C 
BRANCH   5   6
ATOM      6  C   UNL     1       0.522   0.178  -7.369  1.00  0.00     0.053 C 
BRANCH   6   7
ATOM      7  C   UNL     1       0.347   1.651  -7.578  1.00  0.00     0.041 C 
ATOM      8  O   UNL     1      -0.803   2.139  -7.738  1.00  0.00    -0.550 OA
ATOM      9  O   UNL     1       1.460   2.483  -7.627  1.00  0.00    -0.550 OA
ENDBRANCH   6   7
ENDBRANCH   5   6
ENDBRANCH   4   5
ENDBRANCH   3   4
ENDBRANCH   2   3
ENDBRANCH   1   2
BRANCH   1  10
ATOM     10  C   UNL     1       6.464  -0.769  -8.045  1.00  0.00     0.027 C 
BRANCH  10  11
ATOM     11  C   UNL     1       7.831  -0.397  -7.534  1.00  0.00    -0.031 C 
ATOM     12  C   UNL     1       8.080   0.809  -7.005  1.00  0.00    -0.031 C 
BRANCH  12  13
ATOM     13  C   UNL     1       9.455   1.156  -6.502  1.00  0.00     0.027 C 
BRANCH  13  14
ATOM     14  C   UNL     1      10.122   2.210  -7.397  1.00  0.00     0.004 C 
BRANCH  14  15
ATOM     15  C   UNL     1      10.832   1.593  -8.612  1.00  0.00     0.000 C 
BRANCH  15  16
ATOM     16  C   UNL     1      10.305   2.142  -9.947  1.00  0.00    -0.000 C 
BRANCH  16  17
ATOM     17  C   UNL     1       9.241   1.211 -10.540  1.00  0.00    -0.003 C 
ATOM     18  C   UNL     1       7.979   1.983 -10.914  1.00  0.00     0.004 C 
ENDBRANCH  16  17
ENDBRANCH  15  16
ENDBRANCH  14  15
ENDBRANCH  13  14
ENDBRANCH  12  13
ENDBRANCH  10  11
ENDBRANCH   1  10
TORSDOF 13
ENDMDL
MODEL 2
REMARK VINA RESULT:    -3.964      1.305      2.866
REMARK INTER + INTRA:          -8.412
REMARK INTER:                  -6.561
REMARK INTRA:                  -1.851
REMARK UNBOUND:                -1.436
REMARK SMILES CCCCCCC=CCCCCCCCC(=O)[O-]
REMARK SMILES IDX 10 1 11 2 12 3 13 4 14 5 15 6 16 7 17 8 18 9 9 10 8 11 7 12
REMARK SMILES IDX 6 13 5 14 4 15 3 16 2 17 1 18
REMARK H PARENT
REMARK Flexibility Score: inf
ROOT
ATOM      1  C   UNL     1       8.556  -0.418  -6.946  1.00  0.00     0.004 C 
ENDROOT
BRANCH   1   2
ATOM      2  C   UNL     1       7.297  -0.862  -7.716  1.00  0.00     0.000 C 
BRANCH   2   3
ATOM      3  C   UNL     1       6.284   0.263  -8.002  1.00  0.00     0.000 C 
BRANCH   3   4
ATOM      4  C   UNL     1       4.921  -0.245  -8.521  1.00  0.00     0.000 C 
BRANCH   4   5
ATOM      5  C   UNL     1       4.084   0.877  -9.159  1.00  0.00     0.006 C 
BRANCH   5   6
ATOM      6  C   UNL     1       2.627   0.454  -9.390  1.00  0.00     0.053 C 
BRANCH   6   7
ATOM      7  C   UNL     1       1.751   0.825  -8.233  1.00  0.00     0.041 C 
ATOM      8  O   UNL     1       1.528   2.036  -7.967  1.00  0.00    -0.550 OA
ATOM      9  O   UNL     1       1.205  -0.168  -7.429  1.00  0.00    -0.550 OA
ENDBRANCH   6   7
ENDBRANCH   5   6
ENDBRANCH   4   5
ENDBRANCH   3   4
ENDBRANCH   2   3
ENDBRANCH   1   2
BRANCH   1  10
ATOM     10  C   UNL     1       8.768   1.106  -6.909  1.00  0.00     0.027 C 
BRANCH  10  11
ATOM     11  C   UNL     1       9.773   1.574  -7.929  1.00  0.00    -0.031 C 
ATOM     12  C   UNL     1      10.507   0.710  -8.643  1.00  0.00    -0.031 C 
BRANCH  12  13
ATOM     13  C   UNL     1      11.505   1.204  -9.654  1.00  0.00     0.027 C 
BRANCH  13  14
ATOM     14  C   UNL     1      10.932   2.370 -10.473  1.00  0.00     0.004 C 
BRANCH  14  15
ATOM     15  C   UNL     1      10.144   1.899 -11.704  1.00  0.00     0.000 C 
BRANCH  15  16
ATOM     16  C   UNL     1       8.776   2.587 -11.829  1.00  0.00    -0.000 C 
BRANCH  16  17
ATOM     17  C   UNL     1       7.701   1.819 -11.051  1.00  0.00    -0.003 C 
ATOM     18  C   UNL     1       7.825   0.315 -11.278  1.00  0.00     0.004 C 
ENDBRANCH  16  17
ENDBRANCH  15  16
ENDBRANCH  14  15
ENDBRANCH  13  14
ENDBRANCH  12  13
ENDBRANCH  10  11
ENDBRANCH   1  10
TORSDOF 13
ENDMDL
MODEL 3
REMARK VINA RESULT:    -3.924      3.554      4.985
REMARK INTER + INTRA:          -8.341
REMARK INTER:                  -6.593
REMARK INTRA:                  -1.749
REMARK UNBOUND:                -1.436
REMARK SMILES CCCCCCC=CCCCCCCCC(=O)[O-]
REMARK SMILES IDX 10 1 11 2 12 3 13 4 14 5 15 6 16 7 17 8 18 9 9 10 8 11 7 12
REMARK SMILES IDX 6 13 5 14 4 15 3 16 2 17 1 18
REMARK H PARENT
REMARK Flexibility Score: inf
ROOT
ATOM      1  C   UNL     1       8.646   0.434  -6.927  1.00  0.00     0.004 C 
ENDROOT
BRANCH   1   2
ATOM      2  C   UNL     1       7.280   0.692  -7.593  1.00  0.00     0.000 C 
BRANCH   2   3
ATOM      3  C   UNL     1       6.764  -0.460  -8.476  1.00  0.00     0.000 C 
BRANCH   3   4
ATOM      4  C   UNL     1       5.242  -0.695  -8.365  1.00  0.00     0.000 C 
BRANCH   4   5
ATOM      5  C   UNL     1       4.886  -2.189  -8.266  1.00  0.00     0.006 C 
BRANCH   5   6
ATOM      6  C   UNL     1       6.018  -3.015  -7.640  1.00  0.00     0.053 C 
BRANCH   6   7
ATOM      7  C   UNL     1       5.655  -4.464  -7.536  1.00  0.00     0.041 C 
ATOM      8  O   UNL     1       6.511  -5.309  -7.160  1.00  0.00    -0.550 OA
ATOM      9  O   UNL     1       4.378  -4.888  -7.883  1.00  0.00    -0.550 OA
ENDBRANCH   6   7
ENDBRANCH   5   6
ENDBRANCH   4   5
ENDBRANCH   3   4
ENDBRANCH   2   3
ENDBRANCH   1   2
BRANCH   1  10
ATOM     10  C   UNL     1       9.525   1.689  -6.787  1.00  0.00     0.027 C 
BRANCH  10  11
ATOM     11  C   UNL     1       9.899   2.284  -8.119  1.00  0.00    -0.031 C 
ATOM     12  C   UNL     1      10.581   1.584  -9.036  1.00  0.00    -0.031 C 
BRANCH  12  13
ATOM     13  C   UNL     1      10.943   2.203 -10.359  1.00  0.00     0.027 C 
BRANCH  13  14
ATOM     14  C   UNL     1       9.714   2.322 -11.270  1.00  0.00     0.004 C 
BRANCH  14  15
ATOM     15  C   UNL     1       8.853   1.050 -11.275  1.00  0.00     0.000 C 
BRANCH  15  16
ATOM     16  C   UNL     1       7.427   1.301 -11.789  1.00  0.00    -0.000 C 
BRANCH  16  17
ATOM     17  C   UNL     1       6.728   2.384 -10.959  1.00  0.00    -0.003 C 
ATOM     18  C   UNL     1       5.251   2.060 -10.759  1.00  0.00     0.004 C 
ENDBRANCH  16  17
ENDBRANCH  15  16
ENDBRANCH  14  15
ENDBRANCH  13  14
ENDBRANCH  12  13
ENDBRANCH  10  11
ENDBRANCH   1  10
TORSDOF 13
ENDMDL
MODEL 4
REMARK VINA RESULT:    -3.913      3.322      7.260
REMARK INTER + INTRA:          -8.322
REMARK INTER:                  -6.373
REMARK INTRA:                  -1.949
REMARK UNBOUND:                -1.436
REMARK SMILES CCCCCCC=CCCCCCCCC(=O)[O-]
REMARK SMILES IDX 10 1 11 2 12 3 13 4 14 5 15 6 16 7 17 8 18 9 9 10 8 11 7 12
REMARK SMILES IDX 6 13 5 14 4 15 3 16 2 17 1 18
REMARK H PARENT
REMARK Flexibility Score: inf
ROOT
ATOM      1  C   UNL     1       9.999   1.427  -5.481  1.00  0.00     0.004 C 
ENDROOT
BRANCH   1   2
ATOM      2  C   UNL     1      10.993   2.443  -6.078  1.00  0.00     0.000 C 
BRANCH   2   3
ATOM      3  C   UNL     1      10.521   3.123  -7.377  1.00  0.00     0.000 C 
BRANCH   3   4
ATOM      4  C   UNL     1      11.188   2.562  -8.651  1.00  0.00     0.000 C 
BRANCH   4   5
ATOM      5  C   UNL     1      10.158   2.047  -9.671  1.00  0.00     0.006 C 
BRANCH   5   6
ATOM      6  C   UNL     1      10.429   0.596 -10.088  1.00  0.00     0.053 C 
BRANCH   6   7
ATOM      7  C   UNL     1       9.198  -0.067 -10.626  1.00  0.00     0.041 C 
ATOM      8  O   UNL     1       8.258   0.626 -11.098  1.00  0.00    -0.550 OA
ATOM      9  O   UNL     1       9.075  -1.450 -10.579  1.00  0.00    -0.550 OA
ENDBRANCH   6   7
ENDBRANCH   5   6
ENDBRANCH   4   5
ENDBRANCH   3   4
ENDBRANCH   2   3
ENDBRANCH   1   2
BRANCH   1  10
ATOM     10  C   UNL     1      10.060   0.032  -6.127  1.00  0.00     0.027 C 
BRANCH  10  11
ATOM     11  C   UNL     1       8.815  -0.300  -6.906  1.00  0.00    -0.031 C 
ATOM     12  C   UNL     1       7.867   0.618  -7.143  1.00  0.00    -0.031 C 
BRANCH  12  13
ATOM     13  C   UNL     1       6.632   0.261  -7.924  1.00  0.00     0.027 C 
BRANCH  13  14
ATOM     14  C   UNL     1       6.528  -1.257  -8.132  1.00  0.00     0.004 C 
BRANCH  14  15
ATOM     15  C   UNL     1       5.271  -1.663  -8.915  1.00  0.00     0.000 C 
BRANCH  15  16
ATOM     16  C   UNL     1       4.140  -2.163  -8.003  1.00  0.00    -0.000 C 
BRANCH  16  17
ATOM     17  C   UNL     1       2.900  -1.269  -8.127  1.00  0.00    -0.003 C 
ATOM     18  C   UNL     1       3.139  -0.127  -9.110  1.00  0.00     0.004 C 
ENDBRANCH  16  17
ENDBRANCH  15  16
ENDBRANCH  14  15
ENDBRANCH  13  14
ENDBRANCH  12  13
ENDBRANCH  10  11
ENDBRANCH   1  10
TORSDOF 13
ENDMDL
MODEL 5
REMARK VINA RESULT:    -3.903      2.342      4.335
REMARK INTER + INTRA:          -8.305
REMARK INTER:                  -5.998
REMARK INTRA:                  -2.307
REMARK UNBOUND:                -1.436
REMARK SMILES CCCCCCC=CCCCCCCCC(=O)[O-]
REMARK SMILES IDX 10 1 11 2 12 3 13 4 14 5 15 6 16 7 17 8 18 9 9 10 8 11 7 12
REMARK SMILES IDX 6 13 5 14 4 15 3 16 2 17 1 18
REMARK H PARENT
REMARK Flexibility Score: inf
ROOT
ATOM      1  C   UNL     1       9.500   1.132  -6.515  1.00  0.00     0.004 C 
ENDROOT
BRANCH   1   2
ATOM      2  C   UNL     1       8.138   0.839  -7.175  1.00  0.00     0.000 C 
BRANCH   2   3
ATOM      3  C   UNL     1       7.802  -0.657  -7.327  1.00  0.00     0.000 C 
BRANCH   3   4
ATOM      4  C   UNL     1       6.502  -0.925  -8.114  1.00  0.00     0.000 C 
BRANCH   4   5
ATOM      5  C   UNL     1       5.696   0.360  -8.369  1.00  0.00     0.006 C 
BRANCH   5   6
ATOM      6  C   UNL     1       4.618   0.167  -9.443  1.00  0.00     0.053 C 
BRANCH   6   7
ATOM      7  C   UNL     1       4.248   1.463 -10.097  1.00  0.00     0.041 C 
ATOM      8  O   UNL     1       4.995   1.966 -10.978  1.00  0.00    -0.550 OA
ATOM      9  O   UNL     1       3.091   2.130  -9.713  1.00  0.00    -0.550 OA
ENDBRANCH   6   7
ENDBRANCH   5   6
ENDBRANCH   4   5
ENDBRANCH   3   4
ENDBRANCH   2   3
ENDBRANCH   1   2
BRANCH   1  10
ATOM     10  C   UNL     1      10.493   1.876  -7.424  1.00  0.00     0.027 C 
BRANCH  10  11
ATOM     11  C   UNL     1       9.961   2.078  -8.818  1.00  0.00    -0.031 C 
ATOM     12  C   UNL     1      10.771   2.092  -9.886  1.00  0.00    -0.031 C 
BRANCH  12  13
ATOM     13  C   UNL     1      10.214   2.298 -11.268  1.00  0.00     0.027 C 
BRANCH  13  14
ATOM     14  C   UNL     1       8.685   2.160 -11.275  1.00  0.00     0.004 C 
BRANCH  14  15
ATOM     15  C   UNL     1       8.205   0.933 -12.064  1.00  0.00     0.000 C 
BRANCH  15  16
ATOM     16  C   UNL     1       8.048  -0.315 -11.181  1.00  0.00    -0.000 C 
BRANCH  16  17
ATOM     17  C   UNL     1       9.189  -1.308 -11.428  1.00  0.00    -0.003 C 
ATOM     18  C   UNL     1       9.983  -1.565 -10.150  1.00  0.00     0.004 C 
ENDBRANCH  16  17
ENDBRANCH  15  16
ENDBRANCH  14  15
ENDBRANCH  13  14
ENDBRANCH  12  13
ENDBRANCH  10  11
ENDBRANCH   1  10
TORSDOF 13
ENDMDL
MODEL 6
REMARK VINA RESULT:    -3.903     14.167     17.001
REMARK INTER + INTRA:          -8.304
REMARK INTER:                  -6.115
REMARK INTRA:                  -2.190
REMARK UNBOUND:                -1.436
REMARK SMILES CCCCCCC=CCCCCCCCC(=O)[O-]
REMARK SMILES IDX 10 1 11 2 12 3 13 4 14 5 15 6 16 7 17 8 18 9 9 10 8 11 7 12
REMARK SMILES IDX 6 13 5 14 4 15 3 16 2 17 1 18
REMARK H PARENT
REMARK Flexibility Score: inf
ROOT
ATOM      1  C   UNL     1       2.940   8.079   5.528  1.00  0.00     0.004 C 
ENDROOT
BRANCH   1   2
ATOM      2  C   UNL     1       2.224   7.698   6.838  1.00  0.00     0.000 C 
BRANCH   2   3
ATOM      3  C   UNL     1       1.139   6.614   6.691  1.00  0.00     0.000 C 
BRANCH   3   4
ATOM      4  C   UNL     1      -0.278   7.181   6.460  1.00  0.00     0.000 C 
BRANCH   4   5
ATOM      5  C   UNL     1      -0.905   6.671   5.150  1.00  0.00     0.006 C 
BRANCH   5   6
ATOM      6  C   UNL     1       0.154   6.239   4.129  1.00  0.00     0.053 C 
BRANCH   6   7
ATOM      7  C   UNL     1      -0.468   5.692   2.881  1.00  0.00     0.041 C 
ATOM      8  O   UNL     1      -0.247   4.503   2.529  1.00  0.00    -0.550 OA
ATOM      9  O   UNL     1      -1.269   6.506   2.088  1.00  0.00    -0.550 OA
ENDBRANCH   6   7
ENDBRANCH   5   6
ENDBRANCH   4   5
ENDBRANCH   3   4
ENDBRANCH   2   3
ENDBRANCH   1   2
BRANCH   1  10
ATOM     10  C   UNL     1       2.910   9.584   5.208  1.00  0.00     0.027 C 
BRANCH  10  11
ATOM     11  C   UNL     1       1.538  10.064   4.815  1.00  0.00    -0.031 C 
ATOM     12  C   UNL     1       0.939   9.642   3.692  1.00  0.00    -0.031 C 
BRANCH  12  13
ATOM     13  C   UNL     1      -0.432  10.138   3.322  1.00  0.00     0.027 C 
BRANCH  13  14
ATOM     14  C   UNL     1      -1.280  10.409   4.572  1.00  0.00     0.004 C 
BRANCH  14  15
ATOM     15  C   UNL     1      -2.782  10.491   4.264  1.00  0.00     0.000 C 
BRANCH  15  16
ATOM     16  C   UNL     1      -3.395   9.121   3.932  1.00  0.00    -0.000 C 
BRANCH  16  17
ATOM     17  C   UNL     1      -4.623   8.843   4.807  1.00  0.00    -0.003 C 
ATOM     18  C   UNL     1      -4.300   7.837   5.907  1.00  0.00     0.004 C 
ENDBRANCH  16  17
ENDBRANCH  15  16
ENDBRANCH  14  15
ENDBRANCH  13  14
ENDBRANCH  12  13
ENDBRANCH  10  11
ENDBRANCH   1  10
TORSDOF 13
ENDMDL
MODEL 7
REMARK VINA RESULT:    -3.870      1.755      4.057
REMARK INTER + INTRA:          -8.247
REMARK INTER:                  -6.035
REMARK INTRA:                  -2.211
REMARK UNBOUND:                -1.436
REMARK SMILES CCCCCCC=CCCCCCCCC(=O)[O-]
REMARK SMILES IDX 10 1 11 2 12 3 13 4 14 5 15 6 16 7 17 8 18 9 9 10 8 11 7 12
REMARK SMILES IDX 6 13 5 14 4 15 3 16 2 17 1 18
REMARK H PARENT
REMARK Flexibility Score: inf
ROOT
ATOM      1  C   UNL     1       9.214   1.515 -11.531  1.00  0.00     0.004 C 
ENDROOT
BRANCH   1   2
ATOM      2  C   UNL     1       8.137   2.547 -11.922  1.00  0.00     0.000 C 
BRANCH   2   3
ATOM      3  C   UNL     1       6.697   2.001 -11.948  1.00  0.00     0.000 C 
BRANCH   3   4
ATOM      4  C   UNL     1       5.993   2.039 -10.574  1.00  0.00     0.000 C 
BRANCH   4   5
ATOM      5  C   UNL     1       4.564   1.471 -10.634  1.00  0.00     0.006 C 
BRANCH   5   6
ATOM      6  C   UNL     1       4.052   1.044  -9.252  1.00  0.00     0.053 C 
BRANCH   6   7
ATOM      7  C   UNL     1       2.560   1.141  -9.159  1.00  0.00     0.041 C 
ATOM      8  O   UNL     1       2.024   1.943  -8.348  1.00  0.00    -0.550 OA
ATOM      9  O   UNL     1       1.759   0.324  -9.947  1.00  0.00    -0.550 OA
ENDBRANCH   6   7
ENDBRANCH   5   6
ENDBRANCH   4   5
ENDBRANCH   3   4
ENDBRANCH   2   3
ENDBRANCH   1   2
BRANCH   1  10
ATOM     10  C   UNL     1      10.411   2.111 -10.771  1.00  0.00     0.027 C 
BRANCH  10  11
ATOM     11  C   UNL     1      10.431   1.709  -9.319  1.00  0.00    -0.031 C 
ATOM     12  C   UNL     1       9.488   2.123  -8.461  1.00  0.00    -0.031 C 
BRANCH  12  13
ATOM     13  C   UNL     1       9.533   1.708  -7.016  1.00  0.00     0.027 C 
BRANCH  13  14
ATOM     14  C   UNL     1       8.717   0.429  -6.781  1.00  0.00     0.004 C 
BRANCH  14  15
ATOM     15  C   UNL     1       7.356   0.455  -7.493  1.00  0.00     0.000 C 
BRANCH  15  16
ATOM     16  C   UNL     1       6.959  -0.917  -8.061  1.00  0.00    -0.000 C 
BRANCH  16  17
ATOM     17  C   UNL     1       7.864  -1.306  -9.235  1.00  0.00    -0.003 C 
ATOM     18  C   UNL     1       7.059  -1.477 -10.520  1.00  0.00     0.004 C 
ENDBRANCH  16  17
ENDBRANCH  15  16
ENDBRANCH  14  15
ENDBRANCH  13  14
ENDBRANCH  12  13
ENDBRANCH  10  11
ENDBRANCH   1  10
TORSDOF 13
ENDMDL
MODEL 8
REMARK VINA RESULT:    -3.862      4.560      6.718
REMARK INTER + INTRA:          -8.233
REMARK INTER:                  -5.595
REMARK INTRA:                  -2.638
REMARK UNBOUND:                -1.436
REMARK SMILES CCCCCCC=CCCCCCCCC(=O)[O-]
REMARK SMILES IDX 10 1 11 2 12 3 13 4 14 5 15 6 16 7 17 8 18 9 9 10 8 11 7 12
REMARK SMILES IDX 6 13 5 14 4 15 3 16 2 17 1 18
REMARK H PARENT
REMARK Flexibility Score: inf
ROOT
ATOM      1  C   UNL     1       9.236   1.857 -11.815  1.00  0.00     0.004 C 
ENDROOT
BRANCH   1   2
ATOM      2  C   UNL     1      10.327   2.069 -10.747  1.00  0.00     0.000 C 
BRANCH   2   3
ATOM      3  C   UNL     1      11.339   0.915 -10.618  1.00  0.00     0.000 C 
BRANCH   3   4
ATOM      4  C   UNL     1      10.786  -0.318  -9.872  1.00  0.00     0.000 C 
BRANCH   4   5
ATOM      5  C   UNL     1      10.567  -1.518 -10.809  1.00  0.00     0.006 C 
BRANCH   5   6
ATOM      6  C   UNL     1       9.079  -1.816 -11.034  1.00  0.00     0.053 C 
BRANCH   6   7
ATOM      7  C   UNL     1       8.601  -2.944 -10.172  1.00  0.00     0.041 C 
ATOM      8  O   UNL     1       7.460  -3.444 -10.353  1.00  0.00    -0.550 OA
ATOM      9  O   UNL     1       9.406  -3.424  -9.146  1.00  0.00    -0.550 OA
ENDBRANCH   6   7
ENDBRANCH   5   6
ENDBRANCH   4   5
ENDBRANCH   3   4
ENDBRANCH   2   3
ENDBRANCH   1   2
BRANCH   1  10
ATOM     10  C   UNL     1       7.798   1.973 -11.280  1.00  0.00     0.027 C 
BRANCH  10  11
ATOM     11  C   UNL     1       7.720   1.788  -9.788  1.00  0.00    -0.031 C 
ATOM     12  C   UNL     1       7.195   0.682  -9.242  1.00  0.00    -0.031 C 
BRANCH  12  13
ATOM     13  C   UNL     1       7.127   0.522  -7.748  1.00  0.00     0.027 C 
BRANCH  13  14
ATOM     14  C   UNL     1       8.033  -0.623  -7.272  1.00  0.00     0.004 C 
BRANCH  14  15
ATOM     15  C   UNL     1       9.294  -0.122  -6.553  1.00  0.00     0.000 C 
BRANCH  15  16
ATOM     16  C   UNL     1       9.324   1.407  -6.406  1.00  0.00    -0.000 C 
BRANCH  16  17
ATOM     17  C   UNL     1      10.570   1.998  -7.075  1.00  0.00    -0.003 C 
ATOM     18  C   UNL     1      10.504   3.522  -7.118  1.00  0.00     0.004 C 
ENDBRANCH  16  17
ENDBRANCH  15  16
ENDBRANCH  14  15
ENDBRANCH  13  14
ENDBRANCH  12  13
ENDBRANCH  10  11
ENDBRANCH   1  10
TORSDOF 13
ENDMDL
MODEL 9
REMARK VINA RESULT:    -3.829     11.024     13.019
REMARK INTER + INTRA:          -8.175
REMARK INTER:                  -6.128
REMARK INTRA:                  -2.047
REMARK UNBOUND:                -1.436
REMARK SMILES CCCCCCC=CCCCCCCCC(=O)[O-]
REMARK SMILES IDX 10 1 11 2 12 3 13 4 14 5 15 6 16 7 17 8 18 9 9 10 8 11 7 12
REMARK SMILES IDX 6 13 5 14 4 15 3 16 2 17 1 18
REMARK H PARENT
REMARK Flexibility Score: inf
ROOT
ATOM      1  C   UNL     1       9.459  -2.536   0.165  1.00  0.00     0.004 C 
ENDROOT
BRANCH   1   2
ATOM      2  C   UNL     1       8.322  -3.394  -0.423  1.00  0.00     0.000 C 
BRANCH   2   3
ATOM      3  C   UNL     1       8.764  -4.405  -1.498  1.00  0.00     0.000 C 
BRANCH   3   4
ATOM      4  C   UNL     1       9.597  -5.580  -0.941  1.00  0.00     0.000 C 
BRANCH   4   5
ATOM      5  C   UNL     1       8.944  -6.226   0.293  1.00  0.00     0.006 C 
BRANCH   5   6
ATOM      6  C   UNL     1       7.663  -6.992  -0.061  1.00  0.00     0.053 C 
BRANCH   6   7
ATOM      7  C   UNL     1       6.617  -6.845   1.001  1.00  0.00     0.041 C 
ATOM      8  O   UNL     1       6.477  -7.734   1.882  1.00  0.00    -0.550 OA
ATOM      9  O   UNL     1       5.774  -5.740   0.999  1.00  0.00    -0.550 OA
ENDBRANCH   6   7
ENDBRANCH   5   6
ENDBRANCH   4   5
ENDBRANCH   3   4
ENDBRANCH   2   3
ENDBRANCH   1   2
BRANCH   1  10
ATOM     10  C   UNL     1       9.354  -2.306   1.683  1.00  0.00     0.027 C 
BRANCH  10  11
ATOM     11  C   UNL     1       8.225  -3.082   2.309  1.00  0.00    -0.031 C 
ATOM     12  C   UNL     1       8.422  -3.879   3.368  1.00  0.00    -0.031 C 
BRANCH  12  13
ATOM     13  C   UNL     1       7.278  -4.646   3.974  1.00  0.00     0.027 C 
BRANCH  13  14
ATOM     14  C   UNL     1       7.063  -4.251   5.442  1.00  0.00     0.004 C 
BRANCH  14  15
ATOM     15  C   UNL     1       6.426  -2.862   5.596  1.00  0.00     0.000 C 
BRANCH  15  16
ATOM     16  C   UNL     1       7.335  -1.872   6.339  1.00  0.00    -0.000 C 
BRANCH  16  17
ATOM     17  C   UNL     1       7.857  -0.787   5.389  1.00  0.00    -0.003 C 
ATOM     18  C   UNL     1       6.798  -0.398   4.362  1.00  0.00     0.004 C 
ENDBRANCH  16  17
ENDBRANCH  15  16
ENDBRANCH  14  15
ENDBRANCH  13  14
ENDBRANCH  12  13
ENDBRANCH  10  11
ENDBRANCH   1  10
TORSDOF 13
ENDMDL
