MODEL 1
REMARK VINA RESULT:    -3.326      0.000      0.000
REMARK INTER + INTRA:         -14.013
REMARK INTER:                  -8.381
REMARK INTRA:                  -5.632
REMARK UNBOUND:                -5.632
REMARK SMILES CCCCCCCCCCCCCCCCCCCCCCCCCCCC(=O)[O-]
REMARK SMILES IDX 15 1 16 2 17 3 18 4 19 5 20 6 21 7 22 8 23 9 24 10 25 11
REMARK SMILES IDX 26 12 27 13 28 14 29 15 30 16 14 17 13 18 12 19 11 20 10 21
REMARK SMILES IDX 9 22 8 23 7 24 6 25 5 26 4 27 3 28 2 29 1 30
REMARK H PARENT
REMARK Flexibility Score: inf
ROOT
ATOM      1  C   UNL     1      -5.690 -66.083  -7.854  1.00  0.00     0.000 C 
ENDROOT
BRANCH   1   2
ATOM      2  C   UNL     1      -5.436 -65.193  -9.090  1.00  0.00     0.000 C 
BRANCH   2   3
ATOM      3  C   UNL     1      -6.722 -64.768  -9.822  1.00  0.00     0.000 C 
BRANCH   3   4
ATOM      4  C   UNL     1      -7.980 -65.451  -9.259  1.00  0.00     0.000 C 
BRANCH   4   5
ATOM      5  C   UNL     1      -8.974 -64.454  -8.637  1.00  0.00     0.000 C 
BRANCH   5   6
ATOM      6  C   UNL     1      -9.066 -64.496  -7.097  1.00  0.00     0.000 C 
BRANCH   6   7
ATOM      7  C   UNL     1      -8.052 -63.606  -6.354  1.00  0.00     0.000 C 
BRANCH   7   8
ATOM      8  C   UNL     1      -7.696 -62.287  -7.069  1.00  0.00     0.000 C 
BRANCH   8   9
ATOM      9  C   UNL     1      -6.187 -61.997  -7.187  1.00  0.00     0.000 C 
BRANCH   9  10
ATOM     10  C   UNL     1      -5.290 -62.815  -6.237  1.00  0.00     0.000 C 
BRANCH  10  11
ATOM     11  C   UNL     1      -3.808 -62.881  -6.643  1.00  0.00     0.000 C 
BRANCH  11  12
ATOM     12  C   UNL     1      -2.883 -62.167  -5.644  1.00  0.00     0.006 C 
BRANCH  12  13
ATOM     13  C   UNL     1      -1.725 -63.076  -5.223  1.00  0.00     0.053 C 
BRANCH  13  14
ATOM     14  C   UNL     1      -1.105 -63.727  -6.420  1.00  0.00     0.041 C 
ATOM     15  O   UNL     1      -0.552 -63.026  -7.310  1.00  0.00    -0.550 OA
ATOM     16  O   UNL     1      -1.155 -65.108  -6.563  1.00  0.00    -0.550 OA
ENDBRANCH  13  14
ENDBRANCH  12  13
ENDBRANCH  11  12
ENDBRANCH  10  11
ENDBRANCH   9  10
ENDBRANCH   8   9
ENDBRANCH   7   8
ENDBRANCH   6   7
ENDBRANCH   5   6
ENDBRANCH   4   5
ENDBRANCH   3   4
ENDBRANCH   2   3
ENDBRANCH   1   2
BRANCH   1  17
ATOM     17  C   UNL     1      -4.377 -66.603  -7.241  1.00  0.00     0.000 C 
BRANCH  17  18
ATOM     18  C   UNL     1      -4.582 -67.855  -6.362  1.00  0.00     0.000 C 
BRANCH  18  19
ATOM     19  C   UNL     1      -4.404 -67.590  -4.856  1.00  0.00     0.000 C 
BRANCH  19  20
ATOM     20  C   UNL     1      -3.833 -66.203  -4.507  1.00  0.00     0.000 C 
BRANCH  20  21
ATOM     21  C   UNL     1      -4.788 -65.284  -3.716  1.00  0.00     0.000 C 
BRANCH  21  22
ATOM     22  C   UNL     1      -4.784 -65.499  -2.189  1.00  0.00    -0.000 C 
BRANCH  22  23
ATOM     23  C   UNL     1      -4.241 -64.316  -1.366  1.00  0.00    -0.000 C 
BRANCH  23  24
ATOM     24  C   UNL     1      -3.960 -63.036  -2.178  1.00  0.00    -0.000 C 
BRANCH  24  25
ATOM     25  C   UNL     1      -4.894 -61.857  -1.824  1.00  0.00    -0.000 C 
BRANCH  25  26
ATOM     26  C   UNL     1      -5.882 -61.525  -2.956  1.00  0.00    -0.000 C 
BRANCH  26  27
ATOM     27  C   UNL     1      -7.108 -62.456  -2.972  1.00  0.00    -0.000 C 
BRANCH  27  28
ATOM     28  C   UNL     1      -7.743 -62.723  -1.591  1.00  0.00    -0.000 C 
BRANCH  28  29
ATOM     29  C   UNL     1      -8.021 -64.204  -1.277  1.00  0.00    -0.003 C 
ATOM     30  C   UNL     1      -7.862 -64.536   0.206  1.00  0.00     0.004 C 
ENDBRANCH  28  29
ENDBRANCH  27  28
ENDBRANCH  26  27
ENDBRANCH  25  26
ENDBRANCH  24  25
ENDBRANCH  23  24
ENDBRANCH  22  23
ENDBRANCH  21  22
ENDBRANCH  20  21
ENDBRANCH  19  20
ENDBRANCH  18  19
ENDBRANCH  17  18
ENDBRANCH   1  17
TORSDOF 26
ENDMDL
MODEL 2
REMARK VINA RESULT:    -3.198      1.415      2.323
REMARK INTER + INTRA:         -13.690
REMARK INTER:                  -8.971
REMARK INTRA:                  -4.719
REMARK UNBOUND:                -5.632
REMARK SMILES CCCCCCCCCCCCCCCCCCCCCCCCCCCC(=O)[O-]
REMARK SMILES IDX 15 1 16 2 17 3 18 4 19 5 20 6 21 7 22 8 23 9 24 10 25 11
REMARK SMILES IDX 26 12 27 13 28 14 29 15 30 16 14 17 13 18 12 19 11 20 10 21
REMARK SMILES IDX 9 22 8 23 7 24 6 25 5 26 4 27 3 28 2 29 1 30
REMARK H PARENT
REMARK Flexibility Score: inf
ROOT
ATOM      1  C   UNL     1      -5.217 -66.239  -7.745  1.00  0.00     0.000 C 
ENDROOT
BRANCH   1   2
ATOM      2  C   UNL     1      -6.131 -65.189  -7.074  1.00  0.00     0.000 C 
BRANCH   2   3
ATOM      3  C   UNL     1      -7.474 -64.986  -7.798  1.00  0.00     0.000 C 
BRANCH   3   4
ATOM      4  C   UNL     1      -8.485 -64.184  -6.961  1.00  0.00     0.000 C 
BRANCH   4   5
ATOM      5  C   UNL     1      -8.635 -62.729  -7.437  1.00  0.00     0.000 C 
BRANCH   5   6
ATOM      6  C   UNL     1      -7.922 -62.397  -8.765  1.00  0.00     0.000 C 
BRANCH   6   7
ATOM      7  C   UNL     1      -6.771 -61.378  -8.655  1.00  0.00     0.000 C 
BRANCH   7   8
ATOM      8  C   UNL     1      -6.060 -61.343  -7.287  1.00  0.00     0.000 C 
BRANCH   8   9
ATOM      9  C   UNL     1      -4.582 -61.779  -7.312  1.00  0.00     0.000 C 
BRANCH   9  10
ATOM     10  C   UNL     1      -4.119 -62.440  -8.625  1.00  0.00     0.000 C 
BRANCH  10  11
ATOM     11  C   UNL     1      -2.939 -63.416  -8.479  1.00  0.00     0.000 C 
BRANCH  11  12
ATOM     12  C   UNL     1      -2.425 -63.518  -7.034  1.00  0.00     0.006 C 
BRANCH  12  13
ATOM     13  C   UNL     1      -1.019 -62.922  -6.910  1.00  0.00     0.053 C 
BRANCH  13  14
ATOM     14  C   UNL     1      -0.012 -63.998  -6.653  1.00  0.00     0.041 C 
ATOM     15  O   UNL     1       0.654 -64.004  -5.583  1.00  0.00    -0.550 OA
ATOM     16  O   UNL     1       0.209 -64.985  -7.606  1.00  0.00    -0.550 OA
ENDBRANCH  13  14
ENDBRANCH  12  13
ENDBRANCH  11  12
ENDBRANCH  10  11
ENDBRANCH   9  10
ENDBRANCH   8   9
ENDBRANCH   7   8
ENDBRANCH   6   7
ENDBRANCH   5   6
ENDBRANCH   4   5
ENDBRANCH   3   4
ENDBRANCH   2   3
ENDBRANCH   1   2
BRANCH   1  17
ATOM     17  C   UNL     1      -4.632 -67.230  -6.721  1.00  0.00     0.000 C 
BRANCH  17  18
ATOM     18  C   UNL     1      -3.649 -66.561  -5.737  1.00  0.00     0.000 C 
BRANCH  18  19
ATOM     19  C   UNL     1      -3.865 -66.975  -4.270  1.00  0.00     0.000 C 
BRANCH  19  20
ATOM     20  C   UNL     1      -4.730 -66.004  -3.445  1.00  0.00     0.000 C 
BRANCH  20  21
ATOM     21  C   UNL     1      -3.941 -64.964  -2.622  1.00  0.00     0.000 C 
BRANCH  21  22
ATOM     22  C   UNL     1      -4.336 -63.496  -2.876  1.00  0.00    -0.000 C 
BRANCH  22  23
ATOM     23  C   UNL     1      -5.121 -63.250  -4.178  1.00  0.00    -0.000 C 
BRANCH  23  24
ATOM     24  C   UNL     1      -6.652 -63.184  -4.010  1.00  0.00    -0.000 C 
BRANCH  24  25
ATOM     25  C   UNL     1      -7.108 -62.969  -2.550  1.00  0.00    -0.000 C 
BRANCH  25  26
ATOM     26  C   UNL     1      -7.699 -64.243  -1.922  1.00  0.00    -0.000 C 
BRANCH  26  27
ATOM     27  C   UNL     1      -8.381 -63.980  -0.567  1.00  0.00    -0.000 C 
BRANCH  27  28
ATOM     28  C   UNL     1      -7.588 -64.456   0.668  1.00  0.00    -0.000 C 
BRANCH  28  29
ATOM     29  C   UNL     1      -6.065 -64.560   0.463  1.00  0.00    -0.003 C 
ATOM     30  C   UNL     1      -5.330 -63.269   0.816  1.00  0.00     0.004 C 
ENDBRANCH  28  29
ENDBRANCH  27  28
ENDBRANCH  26  27
ENDBRANCH  25  26
ENDBRANCH  24  25
ENDBRANCH  23  24
ENDBRANCH  22  23
ENDBRANCH  21  22
ENDBRANCH  20  21
ENDBRANCH  19  20
ENDBRANCH  18  19
ENDBRANCH  17  18
ENDBRANCH   1  17
TORSDOF 26
ENDMDL
MODEL 3
REMARK VINA RESULT:    -3.175      2.717      7.605
REMARK INTER + INTRA:         -13.632
REMARK INTER:                  -9.393
REMARK INTRA:                  -4.240
REMARK UNBOUND:                -5.632
REMARK SMILES CCCCCCCCCCCCCCCCCCCCCCCCCCCC(=O)[O-]
REMARK SMILES IDX 15 1 16 2 17 3 18 4 19 5 20 6 21 7 22 8 23 9 24 10 25 11
REMARK SMILES IDX 26 12 27 13 28 14 29 15 30 16 14 17 13 18 12 19 11 20 10 21
REMARK SMILES IDX 9 22 8 23 7 24 6 25 5 26 4 27 3 28 2 29 1 30
REMARK H PARENT
REMARK Flexibility Score: inf
ROOT
ATOM      1  C   UNL     1      -8.519 -64.098  -6.911  1.00  0.00     0.000 C 
ENDROOT
BRANCH   1   2
ATOM      2  C   UNL     1      -7.011 -64.017  -7.235  1.00  0.00     0.000 C 
BRANCH   2   3
ATOM      3  C   UNL     1      -6.340 -65.391  -7.408  1.00  0.00     0.000 C 
BRANCH   3   4
ATOM      4  C   UNL     1      -5.050 -65.322  -8.243  1.00  0.00     0.000 C 
BRANCH   4   5
ATOM      5  C   UNL     1      -3.916 -66.185  -7.664  1.00  0.00     0.000 C 
BRANCH   5   6
ATOM      6  C   UNL     1      -4.361 -67.254  -6.644  1.00  0.00     0.000 C 
BRANCH   6   7
ATOM      7  C   UNL     1      -3.565 -67.275  -5.325  1.00  0.00     0.000 C 
BRANCH   7   8
ATOM      8  C   UNL     1      -4.391 -66.967  -4.060  1.00  0.00     0.000 C 
BRANCH   8   9
ATOM      9  C   UNL     1      -4.120 -65.587  -3.428  1.00  0.00     0.000 C 
BRANCH   9  10
ATOM     10  C   UNL     1      -4.513 -64.381  -4.303  1.00  0.00     0.000 C 
BRANCH  10  11
ATOM     11  C   UNL     1      -3.403 -63.335  -4.502  1.00  0.00     0.000 C 
BRANCH  11  12
ATOM     12  C   UNL     1      -2.698 -63.465  -5.862  1.00  0.00     0.006 C 
BRANCH  12  13
ATOM     13  C   UNL     1      -1.223 -63.067  -5.754  1.00  0.00     0.053 C 
BRANCH  13  14
ATOM     14  C   UNL     1      -0.356 -64.063  -6.457  1.00  0.00     0.041 C 
ATOM     15  O   UNL     1      -0.588 -65.297  -6.348  1.00  0.00    -0.550 OA
ATOM     16  O   UNL     1       0.723 -63.630  -7.217  1.00  0.00    -0.550 OA
ENDBRANCH  13  14
ENDBRANCH  12  13
ENDBRANCH  11  12
ENDBRANCH  10  11
ENDBRANCH   9  10
ENDBRANCH   8   9
ENDBRANCH   7   8
ENDBRANCH   6   7
ENDBRANCH   5   6
ENDBRANCH   4   5
ENDBRANCH   3   4
ENDBRANCH   2   3
ENDBRANCH   1   2
BRANCH   1  17
ATOM     17  C   UNL     1      -9.243 -62.771  -7.206  1.00  0.00     0.000 C 
BRANCH  17  18
ATOM     18  C   UNL     1      -8.865 -62.177  -8.579  1.00  0.00     0.000 C 
BRANCH  18  19
ATOM     19  C   UNL     1      -9.866 -62.519  -9.698  1.00  0.00     0.000 C 
BRANCH  19  20
ATOM     20  C   UNL     1      -9.238 -63.134 -10.962  1.00  0.00     0.000 C 
BRANCH  20  21
ATOM     21  C   UNL     1      -8.332 -64.358 -10.713  1.00  0.00     0.000 C 
BRANCH  21  22
ATOM     22  C   UNL     1      -9.081 -65.684 -10.467  1.00  0.00    -0.000 C 
BRANCH  22  23
ATOM     23  C   UNL     1      -8.186 -66.873 -10.073  1.00  0.00    -0.000 C 
BRANCH  23  24
ATOM     24  C   UNL     1      -6.835 -66.941 -10.812  1.00  0.00    -0.000 C 
BRANCH  24  25
ATOM     25  C   UNL     1      -6.308 -68.379 -11.013  1.00  0.00    -0.000 C 
BRANCH  25  26
ATOM     26  C   UNL     1      -5.446 -68.863  -9.834  1.00  0.00    -0.000 C 
BRANCH  26  27
ATOM     27  C   UNL     1      -4.113 -69.488 -10.286  1.00  0.00    -0.000 C 
BRANCH  27  28
ATOM     28  C   UNL     1      -4.060 -69.912 -11.769  1.00  0.00    -0.000 C 
BRANCH  28  29
ATOM     29  C   UNL     1      -3.984 -71.431 -12.009  1.00  0.00    -0.003 C 
ATOM     30  C   UNL     1      -5.351 -72.110 -11.951  1.00  0.00     0.004 C 
ENDBRANCH  28  29
ENDBRANCH  27  28
ENDBRANCH  26  27
ENDBRANCH  25  26
ENDBRANCH  24  25
ENDBRANCH  23  24
ENDBRANCH  22  23
ENDBRANCH  21  22
ENDBRANCH  20  21
ENDBRANCH  19  20
ENDBRANCH  18  19
ENDBRANCH  17  18
ENDBRANCH   1  17
TORSDOF 26
ENDMDL
MODEL 4
REMARK VINA RESULT:    -3.119      2.050      4.701
REMARK INTER + INTRA:         -13.492
REMARK INTER:                  -8.021
REMARK INTRA:                  -5.471
REMARK UNBOUND:                -5.632
REMARK SMILES CCCCCCCCCCCCCCCCCCCCCCCCCCCC(=O)[O-]
REMARK SMILES IDX 15 1 16 2 17 3 18 4 19 5 20 6 21 7 22 8 23 9 24 10 25 11
REMARK SMILES IDX 26 12 27 13 28 14 29 15 30 16 14 17 13 18 12 19 11 20 10 21
REMARK SMILES IDX 9 22 8 23 7 24 6 25 5 26 4 27 3 28 2 29 1 30
REMARK H PARENT
REMARK Flexibility Score: inf
ROOT
ATOM      1  C   UNL     1      -2.925 -63.123  -8.440  1.00  0.00     0.000 C 
ENDROOT
BRANCH   1   2
ATOM      2  C   UNL     1      -3.169 -62.381  -7.108  1.00  0.00     0.000 C 
BRANCH   2   3
ATOM      3  C   UNL     1      -4.027 -61.112  -7.254  1.00  0.00     0.000 C 
BRANCH   3   4
ATOM      4  C   UNL     1      -5.520 -61.368  -6.988  1.00  0.00     0.000 C 
BRANCH   4   5
ATOM      5  C   UNL     1      -5.778 -62.052  -5.634  1.00  0.00     0.000 C 
BRANCH   5   6
ATOM      6  C   UNL     1      -7.237 -62.488  -5.387  1.00  0.00     0.000 C 
BRANCH   6   7
ATOM      7  C   UNL     1      -8.143 -62.483  -6.634  1.00  0.00     0.000 C 
BRANCH   7   8
ATOM      8  C   UNL     1      -9.007 -63.748  -6.816  1.00  0.00     0.000 C 
BRANCH   8   9
ATOM      9  C   UNL     1      -8.276 -64.949  -7.449  1.00  0.00     0.000 C 
BRANCH   9  10
ATOM     10  C   UNL     1      -6.970 -64.601  -8.189  1.00  0.00     0.000 C 
BRANCH  10  11
ATOM     11  C   UNL     1      -5.834 -65.623  -8.015  1.00  0.00     0.000 C 
BRANCH  11  12
ATOM     12  C   UNL     1      -5.174 -65.549  -6.628  1.00  0.00     0.006 C 
BRANCH  12  13
ATOM     13  C   UNL     1      -4.112 -66.641  -6.470  1.00  0.00     0.053 C 
BRANCH  13  14
ATOM     14  C   UNL     1      -4.208 -67.277  -5.118  1.00  0.00     0.041 C 
ATOM     15  O   UNL     1      -3.531 -66.828  -4.155  1.00  0.00    -0.550 OA
ATOM     16  O   UNL     1      -5.030 -68.380  -4.927  1.00  0.00    -0.550 OA
ENDBRANCH  13  14
ENDBRANCH  12  13
ENDBRANCH  11  12
ENDBRANCH  10  11
ENDBRANCH   9  10
ENDBRANCH   8   9
ENDBRANCH   7   8
ENDBRANCH   6   7
ENDBRANCH   5   6
ENDBRANCH   4   5
ENDBRANCH   3   4
ENDBRANCH   2   3
ENDBRANCH   1   2
BRANCH   1  17
ATOM     17  C   UNL     1      -1.914 -64.274  -8.281  1.00  0.00     0.000 C 
BRANCH  17  18
ATOM     18  C   UNL     1      -1.319 -64.353  -6.859  1.00  0.00     0.000 C 
BRANCH  18  19
ATOM     19  C   UNL     1       0.191 -64.650  -6.836  1.00  0.00     0.000 C 
BRANCH  19  20
ATOM     20  C   UNL     1       1.067 -63.506  -6.292  1.00  0.00     0.000 C 
BRANCH  20  21
ATOM     21  C   UNL     1       0.840 -62.134  -6.961  1.00  0.00     0.000 C 
BRANCH  21  22
ATOM     22  C   UNL     1       0.826 -60.932  -5.996  1.00  0.00    -0.000 C 
BRANCH  22  23
ATOM     23  C   UNL     1      -0.564 -60.323  -5.736  1.00  0.00    -0.000 C 
BRANCH  23  24
ATOM     24  C   UNL     1      -0.978 -60.261  -4.252  1.00  0.00    -0.000 C 
BRANCH  24  25
ATOM     25  C   UNL     1      -2.228 -61.106  -3.920  1.00  0.00    -0.000 C 
BRANCH  25  26
ATOM     26  C   UNL     1      -1.898 -62.596  -3.722  1.00  0.00    -0.000 C 
BRANCH  26  27
ATOM     27  C   UNL     1      -3.107 -63.415  -3.234  1.00  0.00    -0.000 C 
BRANCH  27  28
ATOM     28  C   UNL     1      -4.122 -62.633  -2.373  1.00  0.00    -0.000 C 
BRANCH  28  29
ATOM     29  C   UNL     1      -5.226 -63.491  -1.728  1.00  0.00    -0.003 C 
ATOM     30  C   UNL     1      -5.766 -64.567  -2.668  1.00  0.00     0.004 C 
ENDBRANCH  28  29
ENDBRANCH  27  28
ENDBRANCH  26  27
ENDBRANCH  25  26
ENDBRANCH  24  25
ENDBRANCH  23  24
ENDBRANCH  22  23
ENDBRANCH  21  22
ENDBRANCH  20  21
ENDBRANCH  19  20
ENDBRANCH  18  19
ENDBRANCH  17  18
ENDBRANCH   1  17
TORSDOF 26
ENDMDL
MODEL 5
REMARK VINA RESULT:    -3.107      1.755      4.208
REMARK INTER + INTRA:         -13.463
REMARK INTER:                  -8.300
REMARK INTRA:                  -5.163
REMARK UNBOUND:                -5.632
REMARK SMILES CCCCCCCCCCCCCCCCCCCCCCCCCCCC(=O)[O-]
REMARK SMILES IDX 15 1 16 2 17 3 18 4 19 5 20 6 21 7 22 8 23 9 24 10 25 11
REMARK SMILES IDX 26 12 27 13 28 14 29 15 30 16 14 17 13 18 12 19 11 20 10 21
REMARK SMILES IDX 9 22 8 23 7 24 6 25 5 26 4 27 3 28 2 29 1 30
REMARK H PARENT
REMARK Flexibility Score: inf
ROOT
ATOM      1  C   UNL     1      -5.360 -64.280  -4.057  1.00  0.00     0.000 C 
ENDROOT
BRANCH   1   2
ATOM      2  C   UNL     1      -4.783 -62.936  -4.555  1.00  0.00     0.000 C 
BRANCH   2   3
ATOM      3  C   UNL     1      -5.765 -62.120  -5.413  1.00  0.00     0.000 C 
BRANCH   3   4
ATOM      4  C   UNL     1      -7.235 -62.485  -5.146  1.00  0.00     0.000 C 
BRANCH   4   5
ATOM      5  C   UNL     1      -8.005 -62.843  -6.429  1.00  0.00     0.000 C 
BRANCH   5   6
ATOM      6  C   UNL     1      -7.525 -64.121  -7.147  1.00  0.00     0.000 C 
BRANCH   6   7
ATOM      7  C   UNL     1      -6.693 -63.884  -8.422  1.00  0.00     0.000 C 
BRANCH   7   8
ATOM      8  C   UNL     1      -5.533 -64.877  -8.637  1.00  0.00     0.000 C 
BRANCH   8   9
ATOM      9  C   UNL     1      -5.053 -65.602  -7.364  1.00  0.00     0.000 C 
BRANCH   9  10
ATOM     10  C   UNL     1      -3.556 -65.427  -7.039  1.00  0.00     0.000 C 
BRANCH  10  11
ATOM     11  C   UNL     1      -2.802 -64.453  -7.960  1.00  0.00     0.000 C 
BRANCH  11  12
ATOM     12  C   UNL     1      -2.271 -63.218  -7.216  1.00  0.00     0.006 C 
BRANCH  12  13
ATOM     13  C   UNL     1      -1.333 -63.627  -6.076  1.00  0.00     0.053 C 
BRANCH  13  14
ATOM     14  C   UNL     1      -0.041 -64.149  -6.620  1.00  0.00     0.041 C 
ATOM     15  O   UNL     1       0.303 -65.343  -6.407  1.00  0.00    -0.550 OA
ATOM     16  O   UNL     1       0.797 -63.311  -7.345  1.00  0.00    -0.550 OA
ENDBRANCH  13  14
ENDBRANCH  12  13
ENDBRANCH  11  12
ENDBRANCH  10  11
ENDBRANCH   9  10
ENDBRANCH   8   9
ENDBRANCH   7   8
ENDBRANCH   6   7
ENDBRANCH   5   6
ENDBRANCH   4   5
ENDBRANCH   3   4
ENDBRANCH   2   3
ENDBRANCH   1   2
BRANCH   1  17
ATOM     17  C   UNL     1      -4.373 -65.025  -3.140  1.00  0.00     0.000 C 
BRANCH  17  18
ATOM     18  C   UNL     1      -3.597 -64.076  -2.202  1.00  0.00     0.000 C 
BRANCH  18  19
ATOM     19  C   UNL     1      -3.916 -64.283  -0.710  1.00  0.00     0.000 C 
BRANCH  19  20
ATOM     20  C   UNL     1      -5.388 -64.046  -0.325  1.00  0.00     0.000 C 
BRANCH  20  21
ATOM     21  C   UNL     1      -5.916 -62.623  -0.605  1.00  0.00     0.000 C 
BRANCH  21  22
ATOM     22  C   UNL     1      -7.269 -62.563  -1.341  1.00  0.00    -0.000 C 
BRANCH  22  23
ATOM     23  C   UNL     1      -8.006 -63.909  -1.459  1.00  0.00    -0.000 C 
BRANCH  23  24
ATOM     24  C   UNL     1      -9.055 -64.172  -0.361  1.00  0.00    -0.000 C 
BRANCH  24  25
ATOM     25  C   UNL     1      -8.808 -65.471   0.438  1.00  0.00    -0.000 C 
BRANCH  25  26
ATOM     26  C   UNL     1      -8.333 -65.198   1.877  1.00  0.00    -0.000 C 
BRANCH  26  27
ATOM     27  C   UNL     1      -8.569 -63.741   2.317  1.00  0.00    -0.000 C 
BRANCH  27  28
ATOM     28  C   UNL     1      -7.297 -62.967   2.722  1.00  0.00    -0.000 C 
BRANCH  28  29
ATOM     29  C   UNL     1      -7.478 -61.444   2.861  1.00  0.00    -0.003 C 
ATOM     30  C   UNL     1      -8.390 -60.855   1.786  1.00  0.00     0.004 C 
ENDBRANCH  28  29
ENDBRANCH  27  28
ENDBRANCH  26  27
ENDBRANCH  25  26
ENDBRANCH  24  25
ENDBRANCH  23  24
ENDBRANCH  22  23
ENDBRANCH  21  22
ENDBRANCH  20  21
ENDBRANCH  19  20
ENDBRANCH  18  19
ENDBRANCH  17  18
ENDBRANCH   1  17
TORSDOF 26
ENDMDL
MODEL 6
REMARK VINA RESULT:    -3.106      1.652      5.650
REMARK INTER + INTRA:         -13.459
REMARK INTER:                  -8.604
REMARK INTRA:                  -4.855
REMARK UNBOUND:                -5.632
REMARK SMILES CCCCCCCCCCCCCCCCCCCCCCCCCCCC(=O)[O-]
REMARK SMILES IDX 15 1 16 2 17 3 18 4 19 5 20 6 21 7 22 8 23 9 24 10 25 11
REMARK SMILES IDX 26 12 27 13 28 14 29 15 30 16 14 17 13 18 12 19 11 20 10 21
REMARK SMILES IDX 9 22 8 23 7 24 6 25 5 26 4 27 3 28 2 29 1 30
REMARK H PARENT
REMARK Flexibility Score: inf
ROOT
ATOM      1  C   UNL     1      -3.863 -66.267  -5.064  1.00  0.00     0.000 C 
ENDROOT
BRANCH   1   2
ATOM      2  C   UNL     1      -4.373 -66.262  -3.606  1.00  0.00     0.000 C 
BRANCH   2   3
ATOM      3  C   UNL     1      -3.927 -65.031  -2.797  1.00  0.00     0.000 C 
BRANCH   3   4
ATOM      4  C   UNL     1      -4.918 -64.660  -1.682  1.00  0.00     0.000 C 
BRANCH   4   5
ATOM      5  C   UNL     1      -6.379 -64.635  -2.163  1.00  0.00     0.000 C 
BRANCH   5   6
ATOM      6  C   UNL     1      -6.822 -63.324  -2.845  1.00  0.00     0.000 C 
BRANCH   6   7
ATOM      7  C   UNL     1      -6.639 -63.285  -4.374  1.00  0.00     0.000 C 
BRANCH   7   8
ATOM      8  C   UNL     1      -5.662 -62.208  -4.887  1.00  0.00     0.000 C 
BRANCH   8   9
ATOM      9  C   UNL     1      -4.423 -62.753  -5.624  1.00  0.00     0.000 C 
BRANCH   9  10
ATOM     10  C   UNL     1      -3.078 -62.148  -5.175  1.00  0.00     0.000 C 
BRANCH  10  11
ATOM     11  C   UNL     1      -1.884 -63.117  -5.219  1.00  0.00     0.000 C 
BRANCH  11  12
ATOM     12  C   UNL     1      -0.537 -62.396  -5.385  1.00  0.00     0.006 C 
BRANCH  12  13
ATOM     13  C   UNL     1       0.131 -62.783  -6.708  1.00  0.00     0.053 C 
BRANCH  13  14
ATOM     14  C   UNL     1       0.435 -64.248  -6.736  1.00  0.00     0.041 C 
ATOM     15  O   UNL     1       0.059 -64.956  -7.708  1.00  0.00    -0.550 OA
ATOM     16  O   UNL     1       1.117 -64.836  -5.679  1.00  0.00    -0.550 OA
ENDBRANCH  13  14
ENDBRANCH  12  13
ENDBRANCH  11  12
ENDBRANCH  10  11
ENDBRANCH   9  10
ENDBRANCH   8   9
ENDBRANCH   7   8
ENDBRANCH   6   7
ENDBRANCH   5   6
ENDBRANCH   4   5
ENDBRANCH   3   4
ENDBRANCH   2   3
ENDBRANCH   1   2
BRANCH   1  17
ATOM     17  C   UNL     1      -4.244 -67.563  -5.802  1.00  0.00     0.000 C 
BRANCH  17  18
ATOM     18  C   UNL     1      -4.933 -67.298  -7.158  1.00  0.00     0.000 C 
BRANCH  18  19
ATOM     19  C   UNL     1      -5.441 -65.854  -7.321  1.00  0.00     0.000 C 
BRANCH  19  20
ATOM     20  C   UNL     1      -5.965 -65.509  -8.728  1.00  0.00     0.000 C 
BRANCH  20  21
ATOM     21  C   UNL     1      -7.478 -65.216  -8.808  1.00  0.00     0.000 C 
BRANCH  21  22
ATOM     22  C   UNL     1      -8.111 -64.697  -7.501  1.00  0.00    -0.000 C 
BRANCH  22  23
ATOM     23  C   UNL     1      -8.827 -63.339  -7.620  1.00  0.00    -0.000 C 
BRANCH  23  24
ATOM     24  C   UNL     1      -7.892 -62.114  -7.645  1.00  0.00    -0.000 C 
BRANCH  24  25
ATOM     25  C   UNL     1      -7.673 -61.527  -9.057  1.00  0.00    -0.000 C 
BRANCH  25  26
ATOM     26  C   UNL     1      -6.224 -61.062  -9.285  1.00  0.00    -0.000 C 
BRANCH  26  27
ATOM     27  C   UNL     1      -5.186 -62.135  -8.910  1.00  0.00    -0.000 C 
BRANCH  27  28
ATOM     28  C   UNL     1      -3.724 -61.778  -9.252  1.00  0.00    -0.000 C 
BRANCH  28  29
ATOM     29  C   UNL     1      -3.176 -60.528  -8.539  1.00  0.00    -0.003 C 
ATOM     30  C   UNL     1      -1.673 -60.340  -8.743  1.00  0.00     0.004 C 
ENDBRANCH  28  29
ENDBRANCH  27  28
ENDBRANCH  26  27
ENDBRANCH  25  26
ENDBRANCH  24  25
ENDBRANCH  23  24
ENDBRANCH  22  23
ENDBRANCH  21  22
ENDBRANCH  20  21
ENDBRANCH  19  20
ENDBRANCH  18  19
ENDBRANCH  17  18
ENDBRANCH   1  17
TORSDOF 26
ENDMDL
MODEL 7
REMARK VINA RESULT:    -3.091      5.918      9.029
REMARK INTER + INTRA:         -13.422
REMARK INTER:                  -8.114
REMARK INTRA:                  -5.308
REMARK UNBOUND:                -5.632
REMARK SMILES CCCCCCCCCCCCCCCCCCCCCCCCCCCC(=O)[O-]
REMARK SMILES IDX 15 1 16 2 17 3 18 4 19 5 20 6 21 7 22 8 23 9 24 10 25 11
REMARK SMILES IDX 26 12 27 13 28 14 29 15 30 16 14 17 13 18 12 19 11 20 10 21
REMARK SMILES IDX 9 22 8 23 7 24 6 25 5 26 4 27 3 28 2 29 1 30
REMARK H PARENT
REMARK Flexibility Score: inf
ROOT
ATOM      1  C   UNL     1      -8.651 -65.118   1.861  1.00  0.00     0.000 C 
ENDROOT
BRANCH   1   2
ATOM      2  C   UNL     1      -9.117 -63.784   1.236  1.00  0.00     0.000 C 
BRANCH   2   3
ATOM      3  C   UNL     1      -9.316 -63.850  -0.288  1.00  0.00     0.000 C 
BRANCH   3   4
ATOM      4  C   UNL     1      -8.375 -64.859  -0.969  1.00  0.00     0.000 C 
BRANCH   4   5
ATOM      5  C   UNL     1      -7.412 -64.198  -1.970  1.00  0.00     0.000 C 
BRANCH   5   6
ATOM      6  C   UNL     1      -5.920 -64.525  -1.757  1.00  0.00     0.000 C 
BRANCH   6   7
ATOM      7  C   UNL     1      -5.497 -64.741  -0.292  1.00  0.00     0.000 C 
BRANCH   7   8
ATOM      8  C   UNL     1      -4.825 -63.526   0.378  1.00  0.00     0.000 C 
BRANCH   8   9
ATOM      9  C   UNL     1      -5.796 -62.428   0.858  1.00  0.00     0.000 C 
BRANCH   9  10
ATOM     10  C   UNL     1      -5.900 -61.200  -0.068  1.00  0.00     0.000 C 
BRANCH  10  11
ATOM     11  C   UNL     1      -6.879 -60.113   0.406  1.00  0.00     0.000 C 
BRANCH  11  12
ATOM     12  C   UNL     1      -7.826 -60.604   1.512  1.00  0.00     0.006 C 
BRANCH  12  13
ATOM     13  C   UNL     1      -8.322 -59.434   2.367  1.00  0.00     0.053 C 
BRANCH  13  14
ATOM     14  C   UNL     1      -9.779 -59.187   2.128  1.00  0.00     0.041 C 
ATOM     15  O   UNL     1     -10.531 -60.129   1.760  1.00  0.00    -0.550 OA
ATOM     16  O   UNL     1     -10.303 -57.911   2.292  1.00  0.00    -0.550 OA
ENDBRANCH  13  14
ENDBRANCH  12  13
ENDBRANCH  11  12
ENDBRANCH  10  11
ENDBRANCH   9  10
ENDBRANCH   8   9
ENDBRANCH   7   8
ENDBRANCH   6   7
ENDBRANCH   5   6
ENDBRANCH   4   5
ENDBRANCH   3   4
ENDBRANCH   2   3
ENDBRANCH   1   2
BRANCH   1  17
ATOM     17  C   UNL     1      -7.773 -64.894   3.106  1.00  0.00     0.000 C 
BRANCH  17  18
ATOM     18  C   UNL     1      -7.503 -66.197   3.887  1.00  0.00     0.000 C 
BRANCH  18  19
ATOM     19  C   UNL     1      -6.222 -66.152   4.741  1.00  0.00     0.000 C 
BRANCH  19  20
ATOM     20  C   UNL     1      -5.035 -66.950   4.168  1.00  0.00     0.000 C 
BRANCH  20  21
ATOM     21  C   UNL     1      -4.605 -66.548   2.742  1.00  0.00     0.000 C 
BRANCH  21  22
ATOM     22  C   UNL     1      -3.135 -66.101   2.606  1.00  0.00    -0.000 C 
BRANCH  22  23
ATOM     23  C   UNL     1      -2.400 -65.869   3.939  1.00  0.00    -0.000 C 
BRANCH  23  24
ATOM     24  C   UNL     1      -2.351 -64.401   4.406  1.00  0.00    -0.000 C 
BRANCH  24  25
ATOM     25  C   UNL     1      -2.925 -64.179   5.822  1.00  0.00    -0.000 C 
BRANCH  25  26
ATOM     26  C   UNL     1      -4.082 -63.165   5.838  1.00  0.00    -0.000 C 
BRANCH  26  27
ATOM     27  C   UNL     1      -4.796 -63.052   4.479  1.00  0.00    -0.000 C 
BRANCH  27  28
ATOM     28  C   UNL     1      -5.118 -61.612   4.027  1.00  0.00    -0.000 C 
BRANCH  28  29
ATOM     29  C   UNL     1      -3.894 -60.692   3.864  1.00  0.00    -0.003 C 
ATOM     30  C   UNL     1      -4.167 -59.498   2.950  1.00  0.00     0.004 C 
ENDBRANCH  28  29
ENDBRANCH  27  28
ENDBRANCH  26  27
ENDBRANCH  25  26
ENDBRANCH  24  25
ENDBRANCH  23  24
ENDBRANCH  22  23
ENDBRANCH  21  22
ENDBRANCH  20  21
ENDBRANCH  19  20
ENDBRANCH  18  19
ENDBRANCH  17  18
ENDBRANCH   1  17
TORSDOF 26
ENDMDL
MODEL 8
REMARK VINA RESULT:    -3.064      1.356      3.164
REMARK INTER + INTRA:         -13.354
REMARK INTER:                  -8.788
REMARK INTRA:                  -4.566
REMARK UNBOUND:                -5.632
REMARK SMILES CCCCCCCCCCCCCCCCCCCCCCCCCCCC(=O)[O-]
REMARK SMILES IDX 15 1 16 2 17 3 18 4 19 5 20 6 21 7 22 8 23 9 24 10 25 11
REMARK SMILES IDX 26 12 27 13 28 14 29 15 30 16 14 17 13 18 12 19 11 20 10 21
REMARK SMILES IDX 9 22 8 23 7 24 6 25 5 26 4 27 3 28 2 29 1 30
REMARK H PARENT
REMARK Flexibility Score: inf
ROOT
ATOM      1  C   UNL     1      -7.447 -64.546 -10.019  1.00  0.00     0.000 C 
ENDROOT
BRANCH   1   2
ATOM      2  C   UNL     1      -8.789 -64.352  -9.281  1.00  0.00     0.000 C 
BRANCH   2   3
ATOM      3  C   UNL     1      -8.808 -64.946  -7.862  1.00  0.00     0.000 C 
BRANCH   3   4
ATOM      4  C   UNL     1      -9.152 -63.903  -6.784  1.00  0.00     0.000 C 
BRANCH   4   5
ATOM      5  C   UNL     1      -7.959 -63.004  -6.419  1.00  0.00     0.000 C 
BRANCH   5   6
ATOM      6  C   UNL     1      -7.420 -63.181  -4.984  1.00  0.00     0.000 C 
BRANCH   6   7
ATOM      7  C   UNL     1      -6.261 -62.242  -4.598  1.00  0.00     0.000 C 
BRANCH   7   8
ATOM      8  C   UNL     1      -5.084 -62.216  -5.593  1.00  0.00     0.000 C 
BRANCH   8   9
ATOM      9  C   UNL     1      -3.726 -61.813  -4.984  1.00  0.00     0.000 C 
BRANCH   9  10
ATOM     10  C   UNL     1      -2.637 -62.902  -5.040  1.00  0.00     0.000 C 
BRANCH  10  11
ATOM     11  C   UNL     1      -2.545 -63.659  -6.376  1.00  0.00     0.000 C 
BRANCH  11  12
ATOM     12  C   UNL     1      -1.514 -63.047  -7.337  1.00  0.00     0.006 C 
BRANCH  12  13
ATOM     13  C   UNL     1      -0.160 -62.864  -6.644  1.00  0.00     0.053 C 
BRANCH  13  14
ATOM     14  C   UNL     1       0.564 -64.170  -6.549  1.00  0.00     0.041 C 
ATOM     15  O   UNL     1       0.431 -65.038  -7.452  1.00  0.00    -0.550 OA
ATOM     16  O   UNL     1       1.372 -64.437  -5.450  1.00  0.00    -0.550 OA
ENDBRANCH  13  14
ENDBRANCH  12  13
ENDBRANCH  11  12
ENDBRANCH  10  11
ENDBRANCH   9  10
ENDBRANCH   8   9
ENDBRANCH   7   8
ENDBRANCH   6   7
ENDBRANCH   5   6
ENDBRANCH   4   5
ENDBRANCH   3   4
ENDBRANCH   2   3
ENDBRANCH   1   2
BRANCH   1  17
ATOM     17  C   UNL     1      -6.455 -63.408  -9.718  1.00  0.00     0.000 C 
BRANCH  17  18
ATOM     18  C   UNL     1      -5.256 -63.871  -8.863  1.00  0.00     0.000 C 
BRANCH  18  19
ATOM     19  C   UNL     1      -5.268 -65.378  -8.545  1.00  0.00     0.000 C 
BRANCH  19  20
ATOM     20  C   UNL     1      -5.333 -65.721  -7.044  1.00  0.00     0.000 C 
BRANCH  20  21
ATOM     21  C   UNL     1      -4.587 -67.008  -6.636  1.00  0.00     0.000 C 
BRANCH  21  22
ATOM     22  C   UNL     1      -4.066 -67.026  -5.184  1.00  0.00    -0.000 C 
BRANCH  22  23
ATOM     23  C   UNL     1      -4.569 -65.872  -4.298  1.00  0.00    -0.000 C 
BRANCH  23  24
ATOM     24  C   UNL     1      -4.632 -66.190  -2.791  1.00  0.00    -0.000 C 
BRANCH  24  25
ATOM     25  C   UNL     1      -4.951 -64.963  -1.909  1.00  0.00    -0.000 C 
BRANCH  25  26
ATOM     26  C   UNL     1      -6.459 -64.669  -1.828  1.00  0.00    -0.000 C 
BRANCH  26  27
ATOM     27  C   UNL     1      -6.871 -64.024  -0.493  1.00  0.00    -0.000 C 
BRANCH  27  28
ATOM     28  C   UNL     1      -7.550 -62.643  -0.616  1.00  0.00    -0.000 C 
BRANCH  28  29
ATOM     29  C   UNL     1      -6.620 -61.497  -1.053  1.00  0.00    -0.003 C 
ATOM     30  C   UNL     1      -7.318 -60.138  -1.064  1.00  0.00     0.004 C 
ENDBRANCH  28  29
ENDBRANCH  27  28
ENDBRANCH  26  27
ENDBRANCH  25  26
ENDBRANCH  24  25
ENDBRANCH  23  24
ENDBRANCH  22  23
ENDBRANCH  21  22
ENDBRANCH  20  21
ENDBRANCH  19  20
ENDBRANCH  18  19
ENDBRANCH  17  18
ENDBRANCH   1  17
TORSDOF 26
ENDMDL
MODEL 9
REMARK VINA RESULT:    -3.046      2.038      6.850
REMARK INTER + INTRA:         -13.309
REMARK INTER:                  -8.546
REMARK INTRA:                  -4.762
REMARK UNBOUND:                -5.632
REMARK SMILES CCCCCCCCCCCCCCCCCCCCCCCCCCCC(=O)[O-]
REMARK SMILES IDX 15 1 16 2 17 3 18 4 19 5 20 6 21 7 22 8 23 9 24 10 25 11
REMARK SMILES IDX 26 12 27 13 28 14 29 15 30 16 14 17 13 18 12 19 11 20 10 21
REMARK SMILES IDX 9 22 8 23 7 24 6 25 5 26 4 27 3 28 2 29 1 30
REMARK H PARENT
REMARK Flexibility Score: inf
ROOT
ATOM      1  C   UNL     1      -8.763 -63.077  -6.747  1.00  0.00     0.000 C 
ENDROOT
BRANCH   1   2
ATOM      2  C   UNL     1      -7.458 -62.482  -6.173  1.00  0.00     0.000 C 
BRANCH   2   3
ATOM      3  C   UNL     1      -6.912 -63.246  -4.954  1.00  0.00     0.000 C 
BRANCH   3   4
ATOM      4  C   UNL     1      -5.667 -62.582  -4.343  1.00  0.00     0.000 C 
BRANCH   4   5
ATOM      5  C   UNL     1      -5.273 -63.186  -2.985  1.00  0.00     0.000 C 
BRANCH   5   6
ATOM      6  C   UNL     1      -5.501 -64.706  -2.852  1.00  0.00     0.000 C 
BRANCH   6   7
ATOM      7  C   UNL     1      -4.243 -65.577  -3.028  1.00  0.00     0.000 C 
BRANCH   7   8
ATOM      8  C   UNL     1      -4.445 -66.851  -3.873  1.00  0.00     0.000 C 
BRANCH   8   9
ATOM      9  C   UNL     1      -3.723 -66.848  -5.235  1.00  0.00     0.000 C 
BRANCH   9  10
ATOM     10  C   UNL     1      -4.600 -66.446  -6.437  1.00  0.00     0.000 C 
BRANCH  10  11
ATOM     11  C   UNL     1      -4.440 -64.987  -6.898  1.00  0.00     0.000 C 
BRANCH  11  12
ATOM     12  C   UNL     1      -3.131 -64.348  -6.407  1.00  0.00     0.006 C 
BRANCH  12  13
ATOM     13  C   UNL     1      -2.117 -64.231  -7.550  1.00  0.00     0.053 C 
BRANCH  13  14
ATOM     14  C   UNL     1      -0.725 -64.134  -7.011  1.00  0.00     0.041 C 
ATOM     15  O   UNL     1      -0.444 -63.286  -6.122  1.00  0.00    -0.550 OA
ATOM     16  O   UNL     1       0.270 -64.968  -7.505  1.00  0.00    -0.550 OA
ENDBRANCH  13  14
ENDBRANCH  12  13
ENDBRANCH  11  12
ENDBRANCH  10  11
ENDBRANCH   9  10
ENDBRANCH   8   9
ENDBRANCH   7   8
ENDBRANCH   6   7
ENDBRANCH   5   6
ENDBRANCH   4   5
ENDBRANCH   3   4
ENDBRANCH   2   3
ENDBRANCH   1   2
BRANCH   1  17
ATOM     17  C   UNL     1      -9.022 -62.609  -8.191  1.00  0.00     0.000 C 
BRANCH  17  18
ATOM     18  C   UNL     1      -9.060 -63.777  -9.199  1.00  0.00     0.000 C 
BRANCH  18  19
ATOM     19  C   UNL     1      -8.696 -65.140  -8.581  1.00  0.00     0.000 C 
BRANCH  19  20
ATOM     20  C   UNL     1      -7.291 -65.658  -8.941  1.00  0.00     0.000 C 
BRANCH  20  21
ATOM     21  C   UNL     1      -6.850 -65.395 -10.396  1.00  0.00     0.000 C 
BRANCH  21  22
ATOM     22  C   UNL     1      -5.614 -64.486 -10.548  1.00  0.00    -0.000 C 
BRANCH  22  23
ATOM     23  C   UNL     1      -4.333 -65.202 -11.015  1.00  0.00    -0.000 C 
BRANCH  23  24
ATOM     24  C   UNL     1      -3.849 -66.334 -10.089  1.00  0.00    -0.000 C 
BRANCH  24  25
ATOM     25  C   UNL     1      -4.153 -67.750 -10.627  1.00  0.00    -0.000 C 
BRANCH  25  26
ATOM     26  C   UNL     1      -4.300 -68.791  -9.503  1.00  0.00    -0.000 C 
BRANCH  26  27
ATOM     27  C   UNL     1      -5.770 -69.084  -9.150  1.00  0.00    -0.000 C 
BRANCH  27  28
ATOM     28  C   UNL     1      -6.728 -69.168 -10.357  1.00  0.00    -0.000 C 
BRANCH  28  29
ATOM     29  C   UNL     1      -8.142 -69.682 -10.031  1.00  0.00    -0.003 C 
ATOM     30  C   UNL     1      -9.197 -68.577 -10.065  1.00  0.00     0.004 C 
ENDBRANCH  28  29
ENDBRANCH  27  28
ENDBRANCH  26  27
ENDBRANCH  25  26
ENDBRANCH  24  25
ENDBRANCH  23  24
ENDBRANCH  22  23
ENDBRANCH  21  22
ENDBRANCH  20  21
ENDBRANCH  19  20
ENDBRANCH  18  19
ENDBRANCH  17  18
ENDBRANCH   1  17
TORSDOF 26
ENDMDL
