MODEL 1
REMARK VINA RESULT:    -7.492      0.000      0.000
REMARK INTER + INTRA:         -13.351
REMARK INTER:                 -11.872
REMARK INTRA:                  -1.478
REMARK UNBOUND:                -1.478
REMARK SMILES C[C@H]1O[C@H](O[C@@H]2[C@@H](Oc3cc(O)c4c(c3)O[C@@H](c3ccc(O)cc3)CC4=O)O[C@H](CO)[C@H](O)[C@H]2O)[C@H](O)[C@@H](O)[C@@H]1O
REMARK SMILES IDX 6 1 34 2 32 3 29 4 28 5 7 6 5 7 4 8 1 9 2 10 40 11 3 12
REMARK SMILES IDX 38 13 36 14 41 15 39 17 37 19 35 21 8 23 9 24 10 25 15 26
REMARK SMILES IDX 11 27 14 28 13 29 16 30 26 31 17 32 27 33 25 34 12 35 18 37
REMARK SMILES IDX 19 38 24 39 20 40 23 41 21 42 22 43 33 45 30 47 31 48
REMARK H PARENT 41 16 39 18 37 20 35 22 12 36 22 44 33 46 31 49
REMARK Flexibility Score: inf
ROOT
ATOM      1  C   UNL     1     -15.910  56.741  19.039  1.00  0.00     0.221 C 
ATOM      2  C   UNL     1     -15.764  57.090  17.549  1.00  0.00     0.181 C 
ATOM      3  C   UNL     1     -17.120  57.074  16.815  1.00  0.00     0.177 C 
ATOM      4  C   UNL     1     -18.095  56.042  17.453  1.00  0.00     0.179 C 
ATOM      5  O   UNL     1     -17.405  54.961  18.067  1.00  0.00    -0.332 OA
ATOM      6  C   UNL     1     -16.646  55.375  19.201  1.00  0.00     0.339 C 
ENDROOT
BRANCH   1   7
ATOM      7  O   UNL     1     -14.602  56.660  19.585  1.00  0.00    -0.337 OA
BRANCH   7   8
ATOM      8  C   UNL     1     -14.176  55.329  19.812  1.00  0.00     0.282 C 
ATOM      9  C   UNL     1     -11.333  55.503  17.528  1.00  0.00     0.041 C 
ATOM     10  C   UNL     1     -12.060  55.605  18.878  1.00  0.00     0.150 C 
ATOM     11  C   UNL     1     -11.232  54.944  20.003  1.00  0.00     0.174 C 
ATOM     12  O   UNL     1     -13.304  54.945  18.763  1.00  0.00    -0.344 OA
ATOM     13  C   UNL     1     -12.123  54.469  21.182  1.00  0.00     0.179 C 
ATOM     14  C   UNL     1     -13.514  55.162  21.223  1.00  0.00     0.202 C 
BRANCH  11  15
ATOM     15  O   UNL     1     -10.271  55.863  20.483  1.00  0.00    -0.388 OA
ATOM     16  H   UNL     1     -10.765  56.565  20.987  1.00  0.00     0.211 HD
ENDBRANCH  11  15
BRANCH  13  17
ATOM     17  O   UNL     1     -12.292  53.074  21.090  1.00  0.00    -0.387 OA
ATOM     18  H   UNL     1     -12.147  52.703  21.999  1.00  0.00     0.211 HD
ENDBRANCH  13  17
BRANCH  14  19
ATOM     19  O   UNL     1     -13.446  56.394  21.919  1.00  0.00    -0.385 OA
ATOM     20  H   UNL     1     -14.145  56.991  21.542  1.00  0.00     0.211 HD
ENDBRANCH  14  19
ENDBRANCH   7   8
ENDBRANCH   1   7
BRANCH   2  21
ATOM     21  O   UNL     1     -15.134  58.341  17.393  1.00  0.00    -0.387 OA
ATOM     22  H   UNL     1     -15.834  59.041  17.457  1.00  0.00     0.211 HD
ENDBRANCH   2  21
BRANCH   6  23
ATOM     23  O   UNL     1     -17.424  55.297  20.412  1.00  0.00    -0.462 OA
BRANCH  23  24
ATOM     24  C   UNL     1     -17.859  54.094  20.984  1.00  0.00     0.130 A 
ATOM     25  C   UNL     1     -18.375  53.067  20.181  1.00  0.00     0.093 A 
ATOM     26  C   UNL     1     -17.737  53.898  22.364  1.00  0.00     0.094 A 
ATOM     27  C   UNL     1     -18.649  51.804  20.723  1.00  0.00     0.133 A 
ATOM     28  C   UNL     1     -17.998  52.633  22.918  1.00  0.00     0.138 A 
ATOM     29  C   UNL     1     -18.437  51.572  22.101  1.00  0.00     0.102 A 
ATOM     30  O   UNL     1     -17.783  52.414  24.282  1.00  0.00    -0.484 OA
ATOM     31  C   UNL     1     -18.668  50.249  22.736  1.00  0.00     0.174 C 
ATOM     32  C   UNL     1     -17.567  51.113  24.806  1.00  0.00     0.211 C 
ATOM     33  O   UNL     1     -18.998  49.243  22.051  1.00  0.00    -0.294 OA
ATOM     34  C   UNL     1     -18.588  50.118  24.230  1.00  0.00     0.131 C 
BRANCH  27  35
ATOM     35  O   UNL     1     -19.122  50.791  19.893  1.00  0.00    -0.507 OA
ATOM     36  H   UNL     1     -19.028  50.835  18.891  1.00  0.00     0.293 HD
ENDBRANCH  27  35
BRANCH  32  37
ATOM     37  C   UNL     1     -17.625  51.152  26.313  1.00  0.00    -0.007 A 
ATOM     38  C   UNL     1     -16.501  51.566  27.064  1.00  0.00     0.011 A 
ATOM     39  C   UNL     1     -18.790  50.749  26.994  1.00  0.00     0.011 A 
ATOM     40  C   UNL     1     -16.560  51.601  28.458  1.00  0.00     0.046 A 
ATOM     41  C   UNL     1     -18.838  50.762  28.390  1.00  0.00     0.046 A 
ATOM     42  C   UNL     1     -17.732  51.203  29.125  1.00  0.00     0.115 A 
BRANCH  42  43
ATOM     43  O   UNL     1     -17.805  51.245  30.513  1.00  0.00    -0.508 OA
ATOM     44  H   UNL     1     -16.986  51.433  31.076  1.00  0.00     0.293 HD
ENDBRANCH  42  43
ENDBRANCH  32  37
ENDBRANCH  23  24
ENDBRANCH   6  23
BRANCH   3  45
ATOM     45  O   UNL     1     -16.880  56.805  15.456  1.00  0.00    -0.387 OA
ATOM     46  H   UNL     1     -16.133  56.150  15.418  1.00  0.00     0.211 HD
ENDBRANCH   3  45
BRANCH   4  47
ATOM     47  C   UNL     1     -19.120  55.462  16.469  1.00  0.00     0.191 C 
BRANCH  47  48
ATOM     48  O   UNL     1     -18.660  54.242  15.951  1.00  0.00    -0.394 OA
ATOM     49  H   UNL     1     -17.919  54.470  15.337  1.00  0.00     0.210 HD
ENDBRANCH  47  48
ENDBRANCH   4  47
TORSDOF 14
ENDMDL
MODEL 2
REMARK VINA RESULT:    -7.346      4.823     11.433
REMARK INTER + INTRA:         -13.119
REMARK INTER:                 -11.881
REMARK INTRA:                  -1.238
REMARK UNBOUND:                -1.478
REMARK SMILES C[C@H]1O[C@H](O[C@@H]2[C@@H](Oc3cc(O)c4c(c3)O[C@@H](c3ccc(O)cc3)CC4=O)O[C@H](CO)[C@H](O)[C@H]2O)[C@H](O)[C@@H](O)[C@@H]1O
REMARK SMILES IDX 6 1 34 2 32 3 29 4 28 5 7 6 5 7 4 8 1 9 2 10 40 11 3 12
REMARK SMILES IDX 38 13 36 14 41 15 39 17 37 19 35 21 8 23 9 24 10 25 15 26
REMARK SMILES IDX 11 27 14 28 13 29 16 30 26 31 17 32 27 33 25 34 12 35 18 37
REMARK SMILES IDX 19 38 24 39 20 40 23 41 21 42 22 43 33 45 30 47 31 48
REMARK H PARENT 41 16 39 18 37 20 35 22 12 36 22 44 33 46 31 49
REMARK Flexibility Score: inf
ROOT
ATOM      1  C   UNL     1     -14.624  55.285  19.047  1.00  0.00     0.221 C 
ATOM      2  C   UNL     1     -14.554  54.823  20.511  1.00  0.00     0.181 C 
ATOM      3  C   UNL     1     -13.148  55.022  21.114  1.00  0.00     0.177 C 
ATOM      4  C   UNL     1     -12.043  54.886  20.026  1.00  0.00     0.179 C 
ATOM      5  O   UNL     1     -12.440  54.031  18.962  1.00  0.00    -0.332 OA
ATOM      6  C   UNL     1     -13.521  54.572  18.205  1.00  0.00     0.339 C 
ENDROOT
BRANCH   1   7
ATOM      7  O   UNL     1     -15.912  54.944  18.557  1.00  0.00    -0.337 OA
BRANCH   7   8
ATOM      8  C   UNL     1     -16.799  56.047  18.511  1.00  0.00     0.282 C 
ATOM      9  C   UNL     1     -14.714  58.047  16.278  1.00  0.00     0.041 C 
ATOM     10  C   UNL     1     -15.820  57.047  16.648  1.00  0.00     0.150 C 
ATOM     11  C   UNL     1     -17.110  57.326  15.843  1.00  0.00     0.174 C 
ATOM     12  O   UNL     1     -16.094  57.178  18.029  1.00  0.00    -0.344 OA
ATOM     13  C   UNL     1     -18.378  56.809  16.573  1.00  0.00     0.179 C 
ATOM     14  C   UNL     1     -18.074  55.734  17.655  1.00  0.00     0.202 C 
BRANCH  11  15
ATOM     15  O   UNL     1     -17.016  56.710  14.574  1.00  0.00    -0.388 OA
ATOM     16  H   UNL     1     -16.072  56.415  14.461  1.00  0.00     0.211 HD
ENDBRANCH  11  15
BRANCH  13  17
ATOM     17  O   UNL     1     -19.038  57.902  17.166  1.00  0.00    -0.387 OA
ATOM     18  H   UNL     1     -19.591  57.542  17.908  1.00  0.00     0.211 HD
ENDBRANCH  13  17
BRANCH  14  19
ATOM     19  O   UNL     1     -18.015  54.440  17.080  1.00  0.00    -0.385 OA
ATOM     20  H   UNL     1     -17.183  54.389  16.540  1.00  0.00     0.211 HD
ENDBRANCH  14  19
ENDBRANCH   7   8
ENDBRANCH   1   7
BRANCH   2  21
ATOM     21  O   UNL     1     -15.522  55.491  21.288  1.00  0.00    -0.387 OA
ATOM     22  H   UNL     1     -15.770  54.892  22.040  1.00  0.00     0.211 HD
ENDBRANCH   2  21
BRANCH   6  23
ATOM     23  O   UNL     1     -13.045  55.376  17.108  1.00  0.00    -0.462 OA
BRANCH  23  24
ATOM     24  C   UNL     1     -11.887  55.088  16.373  1.00  0.00     0.130 A 
ATOM     25  C   UNL     1     -11.834  53.964  15.536  1.00  0.00     0.093 A 
ATOM     26  C   UNL     1     -10.788  55.951  16.441  1.00  0.00     0.094 A 
ATOM     27  C   UNL     1     -10.749  53.766  14.672  1.00  0.00     0.133 A 
ATOM     28  C   UNL     1      -9.700  55.771  15.571  1.00  0.00     0.138 A 
ATOM     29  C   UNL     1      -9.679  54.689  14.668  1.00  0.00     0.102 A 
ATOM     30  O   UNL     1      -8.647  56.691  15.574  1.00  0.00    -0.484 OA
ATOM     31  C   UNL     1      -8.516  54.564  13.751  1.00  0.00     0.174 C 
ATOM     32  C   UNL     1      -7.787  56.849  14.456  1.00  0.00     0.211 C 
ATOM     33  O   UNL     1      -8.467  53.659  12.876  1.00  0.00    -0.294 OA
ATOM     34  C   UNL     1      -7.338  55.480  13.919  1.00  0.00     0.131 C 
BRANCH  27  35
ATOM     35  O   UNL     1     -10.743  52.662  13.823  1.00  0.00    -0.507 OA
ATOM     36  H   UNL     1     -10.859  51.723  14.168  1.00  0.00     0.293 HD
ENDBRANCH  27  35
BRANCH  32  37
ATOM     37  C   UNL     1      -6.607  57.708  14.835  1.00  0.00    -0.007 A 
ATOM     38  C   UNL     1      -5.872  57.438  16.013  1.00  0.00     0.011 A 
ATOM     39  C   UNL     1      -6.240  58.808  14.039  1.00  0.00     0.011 A 
ATOM     40  C   UNL     1      -4.780  58.235  16.359  1.00  0.00     0.046 A 
ATOM     41  C   UNL     1      -5.161  59.621  14.401  1.00  0.00     0.046 A 
ATOM     42  C   UNL     1      -4.419  59.327  15.550  1.00  0.00     0.115 A 
BRANCH  42  43
ATOM     43  O   UNL     1      -3.326  60.122  15.880  1.00  0.00    -0.508 OA
ATOM     44  H   UNL     1      -3.067  60.283  16.845  1.00  0.00     0.293 HD
ENDBRANCH  42  43
ENDBRANCH  32  37
ENDBRANCH  23  24
ENDBRANCH   6  23
BRANCH   3  45
ATOM     45  O   UNL     1     -12.982  54.090  22.155  1.00  0.00    -0.387 OA
ATOM     46  H   UNL     1     -13.731  53.440  22.084  1.00  0.00     0.211 HD
ENDBRANCH   3  45
BRANCH   4  47
ATOM     47  C   UNL     1     -10.695  54.389  20.566  1.00  0.00     0.191 C 
BRANCH  47  48
ATOM     48  O   UNL     1     -10.377  55.050  21.762  1.00  0.00    -0.394 OA
ATOM     49  H   UNL     1     -10.813  55.936  21.706  1.00  0.00     0.210 HD
ENDBRANCH  47  48
ENDBRANCH   4  47
TORSDOF 14
ENDMDL
MODEL 3
REMARK VINA RESULT:    -6.809      4.577     11.936
REMARK INTER + INTRA:         -12.268
REMARK INTER:                 -12.346
REMARK INTRA:                   0.078
REMARK UNBOUND:                -1.478
REMARK SMILES C[C@H]1O[C@H](O[C@@H]2[C@@H](Oc3cc(O)c4c(c3)O[C@@H](c3ccc(O)cc3)CC4=O)O[C@H](CO)[C@H](O)[C@H]2O)[C@H](O)[C@@H](O)[C@@H]1O
REMARK SMILES IDX 6 1 34 2 32 3 29 4 28 5 7 6 5 7 4 8 1 9 2 10 40 11 3 12
REMARK SMILES IDX 38 13 36 14 41 15 39 17 37 19 35 21 8 23 9 24 10 25 15 26
REMARK SMILES IDX 11 27 14 28 13 29 16 30 26 31 17 32 27 33 25 34 12 35 18 37
REMARK SMILES IDX 19 38 24 39 20 40 23 41 21 42 22 43 33 45 30 47 31 48
REMARK H PARENT 41 16 39 18 37 20 35 22 12 36 22 44 33 46 31 49
REMARK Flexibility Score: inf
ROOT
ATOM      1  C   UNL     1     -14.131  55.746  18.997  1.00  0.00     0.221 C 
ATOM      2  C   UNL     1     -14.324  55.143  20.398  1.00  0.00     0.181 C 
ATOM      3  C   UNL     1     -13.018  55.154  21.218  1.00  0.00     0.177 C 
ATOM      4  C   UNL     1     -11.772  55.023  20.296  1.00  0.00     0.179 C 
ATOM      5  O   UNL     1     -12.062  54.312  19.100  1.00  0.00    -0.332 OA
ATOM      6  C   UNL     1     -12.968  55.018  18.255  1.00  0.00     0.339 C 
ENDROOT
BRANCH   1   7
ATOM      7  O   UNL     1     -15.350  55.571  18.289  1.00  0.00    -0.337 OA
BRANCH   7   8
ATOM      8  C   UNL     1     -16.391  55.055  19.097  1.00  0.00     0.282 C 
ATOM      9  C   UNL     1     -19.086  56.593  17.171  1.00  0.00     0.041 C 
ATOM     10  C   UNL     1     -18.096  55.487  17.569  1.00  0.00     0.150 C 
ATOM     11  C   UNL     1     -18.800  54.111  17.625  1.00  0.00     0.174 C 
ATOM     12  O   UNL     1     -17.573  55.797  18.845  1.00  0.00    -0.344 OA
ATOM     13  C   UNL     1     -18.073  53.123  18.576  1.00  0.00     0.179 C 
ATOM     14  C   UNL     1     -16.598  53.518  18.869  1.00  0.00     0.202 C 
BRANCH  11  15
ATOM     15  O   UNL     1     -18.854  53.556  16.327  1.00  0.00    -0.388 OA
ATOM     16  H   UNL     1     -18.846  52.566  16.431  1.00  0.00     0.211 HD
ENDBRANCH  11  15
BRANCH  13  17
ATOM     17  O   UNL     1     -18.790  53.045  19.785  1.00  0.00    -0.387 OA
ATOM     18  H   UNL     1     -19.747  52.923  19.550  1.00  0.00     0.211 HD
ENDBRANCH  13  17
BRANCH  14  19
ATOM     19  O   UNL     1     -15.730  53.015  17.868  1.00  0.00    -0.385 OA
ATOM     20  H   UNL     1     -15.233  53.786  17.487  1.00  0.00     0.211 HD
ENDBRANCH  14  19
ENDBRANCH   7   8
ENDBRANCH   1   7
BRANCH   2  21
ATOM     21  O   UNL     1     -15.348  55.819  21.091  1.00  0.00    -0.387 OA
ATOM     22  H   UNL     1     -16.217  55.500  20.732  1.00  0.00     0.211 HD
ENDBRANCH   2  21
BRANCH   6  23
ATOM     23  O   UNL     1     -12.268  55.876  17.332  1.00  0.00    -0.462 OA
BRANCH  23  24
ATOM     24  C   UNL     1     -11.219  55.445  16.508  1.00  0.00     0.130 A 
ATOM     25  C   UNL     1     -11.277  54.196  15.873  1.00  0.00     0.093 A 
ATOM     26  C   UNL     1     -10.124  56.286  16.281  1.00  0.00     0.094 A 
ATOM     27  C   UNL     1     -10.318  53.835  14.917  1.00  0.00     0.133 A 
ATOM     28  C   UNL     1      -9.163  55.940  15.315  1.00  0.00     0.138 A 
ATOM     29  C   UNL     1      -9.262  54.723  14.614  1.00  0.00     0.102 A 
ATOM     30  O   UNL     1      -8.123  56.828  15.022  1.00  0.00    -0.484 OA
ATOM     31  C   UNL     1      -8.234  54.423  13.583  1.00  0.00     0.174 C 
ATOM     32  C   UNL     1      -7.423  56.778  13.788  1.00  0.00     0.211 C 
ATOM     33  O   UNL     1      -8.301  53.383  12.875  1.00  0.00    -0.294 OA
ATOM     34  C   UNL     1      -7.047  55.331  13.434  1.00  0.00     0.131 C 
BRANCH  27  35
ATOM     35  O   UNL     1     -10.424  52.604  14.273  1.00  0.00    -0.507 OA
ATOM     36  H   UNL     1      -9.719  51.891  14.367  1.00  0.00     0.293 HD
ENDBRANCH  27  35
BRANCH  32  37
ATOM     37  C   UNL     1      -6.205  57.665  13.855  1.00  0.00    -0.007 A 
ATOM     38  C   UNL     1      -6.314  59.001  14.307  1.00  0.00     0.011 A 
ATOM     39  C   UNL     1      -4.949  57.185  13.440  1.00  0.00     0.011 A 
ATOM     40  C   UNL     1      -5.183  59.817  14.368  1.00  0.00     0.046 A 
ATOM     41  C   UNL     1      -3.823  58.012  13.479  1.00  0.00     0.046 A 
ATOM     42  C   UNL     1      -3.933  59.322  13.958  1.00  0.00     0.115 A 
BRANCH  42  43
ATOM     43  O   UNL     1      -2.798  60.124  14.024  1.00  0.00    -0.508 OA
ATOM     44  H   UNL     1      -2.563  60.631  14.868  1.00  0.00     0.293 HD
ENDBRANCH  42  43
ENDBRANCH  32  37
ENDBRANCH  23  24
ENDBRANCH   6  23
BRANCH   3  45
ATOM     45  O   UNL     1     -13.087  54.117  22.166  1.00  0.00    -0.387 OA
ATOM     46  H   UNL     1     -13.865  54.313  22.753  1.00  0.00     0.211 HD
ENDBRANCH   3  45
BRANCH   4  47
ATOM     47  C   UNL     1     -10.565  54.356  20.971  1.00  0.00     0.191 C 
BRANCH  47  48
ATOM     48  O   UNL     1      -9.916  55.269  21.816  1.00  0.00    -0.394 OA
ATOM     49  H   UNL     1      -9.108  54.804  22.148  1.00  0.00     0.210 HD
ENDBRANCH  47  48
ENDBRANCH   4  47
TORSDOF 14
ENDMDL
MODEL 4
REMARK VINA RESULT:    -6.679      5.001     10.283
REMARK INTER + INTRA:         -12.063
REMARK INTER:                 -11.229
REMARK INTRA:                  -0.833
REMARK UNBOUND:                -1.478
REMARK SMILES C[C@H]1O[C@H](O[C@@H]2[C@@H](Oc3cc(O)c4c(c3)O[C@@H](c3ccc(O)cc3)CC4=O)O[C@H](CO)[C@H](O)[C@H]2O)[C@H](O)[C@@H](O)[C@@H]1O
REMARK SMILES IDX 6 1 34 2 32 3 29 4 28 5 7 6 5 7 4 8 1 9 2 10 40 11 3 12
REMARK SMILES IDX 38 13 36 14 41 15 39 17 37 19 35 21 8 23 9 24 10 25 15 26
REMARK SMILES IDX 11 27 14 28 13 29 16 30 26 31 17 32 27 33 25 34 12 35 18 37
REMARK SMILES IDX 19 38 24 39 20 40 23 41 21 42 22 43 33 45 30 47 31 48
REMARK H PARENT 41 16 39 18 37 20 35 22 12 36 22 44 33 46 31 49
REMARK Flexibility Score: inf
ROOT
ATOM      1  C   UNL     1     -15.261  56.740  18.017  1.00  0.00     0.221 C 
ATOM      2  C   UNL     1     -16.572  56.026  18.383  1.00  0.00     0.181 C 
ATOM      3  C   UNL     1     -17.645  56.190  17.288  1.00  0.00     0.177 C 
ATOM      4  C   UNL     1     -17.484  57.543  16.536  1.00  0.00     0.179 C 
ATOM      5  O   UNL     1     -16.891  58.543  17.355  1.00  0.00    -0.332 OA
ATOM      6  C   UNL     1     -15.539  58.239  17.689  1.00  0.00     0.339 C 
ENDROOT
BRANCH   1   7
ATOM      7  O   UNL     1     -14.394  56.635  19.137  1.00  0.00    -0.337 OA
BRANCH   7   8
ATOM      8  C   UNL     1     -14.103  55.295  19.489  1.00  0.00     0.282 C 
ATOM      9  C   UNL     1     -10.896  55.192  17.744  1.00  0.00     0.041 C 
ATOM     10  C   UNL     1     -11.842  55.403  18.937  1.00  0.00     0.150 C 
ATOM     11  C   UNL     1     -11.269  54.754  20.218  1.00  0.00     0.174 C 
ATOM     12  O   UNL     1     -13.087  54.809  18.629  1.00  0.00    -0.344 OA
ATOM     13  C   UNL     1     -12.382  54.391  21.237  1.00  0.00     0.179 C 
ATOM     14  C   UNL     1     -13.711  55.162  21.001  1.00  0.00     0.202 C 
BRANCH  11  15
ATOM     15  O   UNL     1     -10.350  55.640  20.825  1.00  0.00    -0.388 OA
ATOM     16  H   UNL     1      -9.629  55.814  20.162  1.00  0.00     0.211 HD
ENDBRANCH  11  15
BRANCH  13  17
ATOM     17  O   UNL     1     -12.622  53.005  21.172  1.00  0.00    -0.387 OA
ATOM     18  H   UNL     1     -13.351  52.866  20.512  1.00  0.00     0.211 HD
ENDBRANCH  13  17
BRANCH  14  19
ATOM     19  O   UNL     1     -13.687  56.423  21.649  1.00  0.00    -0.385 OA
ATOM     20  H   UNL     1     -13.389  57.096  20.983  1.00  0.00     0.211 HD
ENDBRANCH  14  19
ENDBRANCH   7   8
ENDBRANCH   1   7
BRANCH   2  21
ATOM     21  O   UNL     1     -16.337  54.661  18.644  1.00  0.00    -0.387 OA
ATOM     22  H   UNL     1     -15.537  54.599  19.227  1.00  0.00     0.211 HD
ENDBRANCH   2  21
BRANCH   6  23
ATOM     23  O   UNL     1     -14.621  58.781  16.718  1.00  0.00    -0.462 OA
BRANCH  23  24
ATOM     24  C   UNL     1     -13.632  58.027  16.074  1.00  0.00     0.130 A 
ATOM     25  C   UNL     1     -13.977  56.907  15.304  1.00  0.00     0.093 A 
ATOM     26  C   UNL     1     -12.292  58.419  16.162  1.00  0.00     0.094 A 
ATOM     27  C   UNL     1     -13.015  56.254  14.520  1.00  0.00     0.133 A 
ATOM     28  C   UNL     1     -11.321  57.780  15.372  1.00  0.00     0.138 A 
ATOM     29  C   UNL     1     -11.677  56.707  14.532  1.00  0.00     0.102 A 
ATOM     30  O   UNL     1      -9.999  58.238  15.390  1.00  0.00    -0.484 OA
ATOM     31  C   UNL     1     -10.614  56.088  13.697  1.00  0.00     0.174 C 
ATOM     32  C   UNL     1      -9.104  57.979  14.320  1.00  0.00     0.211 C 
ATOM     33  O   UNL     1     -10.879  55.169  12.877  1.00  0.00    -0.294 OA
ATOM     34  C   UNL     1      -9.184  56.506  13.887  1.00  0.00     0.131 C 
BRANCH  27  35
ATOM     35  O   UNL     1     -13.395  55.169  13.735  1.00  0.00    -0.507 OA
ATOM     36  H   UNL     1     -12.752  54.431  13.497  1.00  0.00     0.293 HD
ENDBRANCH  27  35
BRANCH  32  37
ATOM     37  C   UNL     1      -7.701  58.359  14.724  1.00  0.00    -0.007 A 
ATOM     38  C   UNL     1      -7.061  59.473  14.133  1.00  0.00     0.011 A 
ATOM     39  C   UNL     1      -6.998  57.593  15.673  1.00  0.00     0.011 A 
ATOM     40  C   UNL     1      -5.763  59.822  14.511  1.00  0.00     0.046 A 
ATOM     41  C   UNL     1      -5.690  57.929  16.032  1.00  0.00     0.046 A 
ATOM     42  C   UNL     1      -5.076  59.052  15.466  1.00  0.00     0.115 A 
BRANCH  42  43
ATOM     43  O   UNL     1      -3.787  59.396  15.857  1.00  0.00    -0.508 OA
ATOM     44  H   UNL     1      -3.525  60.362  16.012  1.00  0.00     0.293 HD
ENDBRANCH  42  43
ENDBRANCH  32  37
ENDBRANCH  23  24
ENDBRANCH   6  23
BRANCH   3  45
ATOM     45  O   UNL     1     -18.910  56.067  17.892  1.00  0.00    -0.387 OA
ATOM     46  H   UNL     1     -19.580  56.044  17.158  1.00  0.00     0.211 HD
ENDBRANCH   3  45
BRANCH   4  47
ATOM     47  C   UNL     1     -18.796  58.101  15.969  1.00  0.00     0.191 C 
BRANCH  47  48
ATOM     48  O   UNL     1     -19.086  59.345  16.549  1.00  0.00    -0.394 OA
ATOM     49  H   UNL     1     -18.846  59.261  17.504  1.00  0.00     0.210 HD
ENDBRANCH  47  48
ENDBRANCH   4  47
TORSDOF 14
ENDMDL
MODEL 5
REMARK VINA RESULT:    -6.503      4.449     11.325
REMARK INTER + INTRA:         -11.784
REMARK INTER:                 -11.729
REMARK INTRA:                  -0.055
REMARK UNBOUND:                -1.478
REMARK SMILES C[C@H]1O[C@H](O[C@@H]2[C@@H](Oc3cc(O)c4c(c3)O[C@@H](c3ccc(O)cc3)CC4=O)O[C@H](CO)[C@H](O)[C@H]2O)[C@H](O)[C@@H](O)[C@@H]1O
REMARK SMILES IDX 6 1 34 2 32 3 29 4 28 5 7 6 5 7 4 8 1 9 2 10 40 11 3 12
REMARK SMILES IDX 38 13 36 14 41 15 39 17 37 19 35 21 8 23 9 24 10 25 15 26
REMARK SMILES IDX 11 27 14 28 13 29 16 30 26 31 17 32 27 33 25 34 12 35 18 37
REMARK SMILES IDX 19 38 24 39 20 40 23 41 21 42 22 43 33 45 30 47 31 48
REMARK H PARENT 41 16 39 18 37 20 35 22 12 36 22 44 33 46 31 49
REMARK Flexibility Score: inf
ROOT
ATOM      1  C   UNL     1     -14.452  56.809  17.326  1.00  0.00     0.221 C 
ATOM      2  C   UNL     1     -14.652  58.291  16.974  1.00  0.00     0.181 C 
ATOM      3  C   UNL     1     -13.736  58.740  15.817  1.00  0.00     0.177 C 
ATOM      4  C   UNL     1     -12.402  57.939  15.810  1.00  0.00     0.179 C 
ATOM      5  O   UNL     1     -12.037  57.494  17.110  1.00  0.00    -0.332 OA
ATOM      6  C   UNL     1     -12.947  56.527  17.628  1.00  0.00     0.339 C 
ENDROOT
BRANCH   1   7
ATOM      7  O   UNL     1     -15.242  56.536  18.474  1.00  0.00    -0.337 OA
BRANCH   7   8
ATOM      8  C   UNL     1     -16.034  55.370  18.339  1.00  0.00     0.282 C 
ATOM      9  C   UNL     1     -14.123  53.399  20.747  1.00  0.00     0.041 C 
ATOM     10  C   UNL     1     -15.245  54.335  20.271  1.00  0.00     0.150 C 
ATOM     11  C   UNL     1     -16.607  53.914  20.870  1.00  0.00     0.174 C 
ATOM     12  O   UNL     1     -15.313  54.267  18.861  1.00  0.00    -0.344 OA
ATOM     13  C   UNL     1     -17.799  54.379  19.992  1.00  0.00     0.179 C 
ATOM     14  C   UNL     1     -17.436  55.536  19.018  1.00  0.00     0.202 C 
BRANCH  11  15
ATOM     15  O   UNL     1     -16.741  54.459  22.167  1.00  0.00    -0.388 OA
ATOM     16  H   UNL     1     -16.278  53.839  22.793  1.00  0.00     0.211 HD
ENDBRANCH  11  15
BRANCH  13  17
ATOM     17  O   UNL     1     -18.280  53.278  19.257  1.00  0.00    -0.387 OA
ATOM     18  H   UNL     1     -18.912  52.789  19.846  1.00  0.00     0.211 HD
ENDBRANCH  13  17
BRANCH  14  19
ATOM     19  O   UNL     1     -17.563  56.795  19.658  1.00  0.00    -0.385 OA
ATOM     20  H   UNL     1     -18.436  56.804  20.132  1.00  0.00     0.211 HD
ENDBRANCH  14  19
ENDBRANCH   7   8
ENDBRANCH   1   7
BRANCH   2  21
ATOM     21  O   UNL     1     -16.002  58.548  16.662  1.00  0.00    -0.387 OA
ATOM     22  H   UNL     1     -16.494  57.688  16.721  1.00  0.00     0.211 HD
ENDBRANCH   2  21
BRANCH   6  23
ATOM     23  O   UNL     1     -12.547  55.186  17.281  1.00  0.00    -0.462 OA
BRANCH  23  24
ATOM     24  C   UNL     1     -11.429  54.886  16.492  1.00  0.00     0.130 A 
ATOM     25  C   UNL     1     -11.387  53.706  15.733  1.00  0.00     0.093 A 
ATOM     26  C   UNL     1     -10.363  55.789  16.424  1.00  0.00     0.094 A 
ATOM     27  C   UNL     1     -10.353  53.484  14.813  1.00  0.00     0.133 A 
ATOM     28  C   UNL     1      -9.326  55.583  15.497  1.00  0.00     0.138 A 
ATOM     29  C   UNL     1      -9.323  54.440  14.673  1.00  0.00     0.102 A 
ATOM     30  O   UNL     1      -8.313  56.537  15.366  1.00  0.00    -0.484 OA
ATOM     31  C   UNL     1      -8.218  54.290  13.690  1.00  0.00     0.174 C 
ATOM     32  C   UNL     1      -7.534  56.642  14.183  1.00  0.00     0.211 C 
ATOM     33  O   UNL     1      -8.191  53.326  12.879  1.00  0.00    -0.294 OA
ATOM     34  C   UNL     1      -7.068  55.255  13.713  1.00  0.00     0.131 C 
BRANCH  27  35
ATOM     35  O   UNL     1     -10.360  52.323  14.045  1.00  0.00    -0.507 OA
ATOM     36  H   UNL     1     -10.767  52.295  13.123  1.00  0.00     0.293 HD
ENDBRANCH  27  35
BRANCH  32  37
ATOM     37  C   UNL     1      -6.366  57.566  14.421  1.00  0.00    -0.007 A 
ATOM     38  C   UNL     1      -6.046  58.575  13.483  1.00  0.00     0.011 A 
ATOM     39  C   UNL     1      -5.560  57.418  15.566  1.00  0.00     0.011 A 
ATOM     40  C   UNL     1      -4.964  59.428  13.708  1.00  0.00     0.046 A 
ATOM     41  C   UNL     1      -4.462  58.258  15.777  1.00  0.00     0.046 A 
ATOM     42  C   UNL     1      -4.172  59.274  14.859  1.00  0.00     0.115 A 
BRANCH  42  43
ATOM     43  O   UNL     1      -3.098  60.125  15.098  1.00  0.00    -0.508 OA
ATOM     44  H   UNL     1      -2.152  59.772  15.159  1.00  0.00     0.293 HD
ENDBRANCH  42  43
ENDBRANCH  32  37
ENDBRANCH  23  24
ENDBRANCH   6  23
BRANCH   3  45
ATOM     45  O   UNL     1     -13.521  60.125  15.940  1.00  0.00    -0.387 OA
ATOM     46  H   UNL     1     -14.316  60.577  15.551  1.00  0.00     0.211 HD
ENDBRANCH   3  45
BRANCH   4  47
ATOM     47  C   UNL     1     -11.216  58.709  15.214  1.00  0.00     0.191 C 
BRANCH  47  48
ATOM     48  O   UNL     1     -10.743  59.658  16.132  1.00  0.00    -0.394 OA
ATOM     49  H   UNL     1     -10.275  59.145  16.836  1.00  0.00     0.210 HD
ENDBRANCH  47  48
ENDBRANCH   4  47
TORSDOF 14
ENDMDL
MODEL 6
REMARK VINA RESULT:    -6.266      4.487     11.949
REMARK INTER + INTRA:         -11.407
REMARK INTER:                 -10.572
REMARK INTRA:                  -0.835
REMARK UNBOUND:                -1.478
REMARK SMILES C[C@H]1O[C@H](O[C@@H]2[C@@H](Oc3cc(O)c4c(c3)O[C@@H](c3ccc(O)cc3)CC4=O)O[C@H](CO)[C@H](O)[C@H]2O)[C@H](O)[C@@H](O)[C@@H]1O
REMARK SMILES IDX 6 1 34 2 32 3 29 4 28 5 7 6 5 7 4 8 1 9 2 10 40 11 3 12
REMARK SMILES IDX 38 13 36 14 41 15 39 17 37 19 35 21 8 23 9 24 10 25 15 26
REMARK SMILES IDX 11 27 14 28 13 29 16 30 26 31 17 32 27 33 25 34 12 35 18 37
REMARK SMILES IDX 19 38 24 39 20 40 23 41 21 42 22 43 33 45 30 47 31 48
REMARK H PARENT 41 16 39 18 37 20 35 22 12 36 22 44 33 46 31 49
REMARK Flexibility Score: inf
ROOT
ATOM      1  C   UNL     1     -13.550  54.821  19.855  1.00  0.00     0.221 C 
ATOM      2  C   UNL     1     -13.466  53.656  20.853  1.00  0.00     0.181 C 
ATOM      3  C   UNL     1     -12.311  53.839  21.859  1.00  0.00     0.177 C 
ATOM      4  C   UNL     1     -11.129  54.627  21.224  1.00  0.00     0.179 C 
ATOM      5  O   UNL     1     -11.059  54.447  19.816  1.00  0.00    -0.332 OA
ATOM      6  C   UNL     1     -12.178  55.017  19.140  1.00  0.00     0.339 C 
ENDROOT
BRANCH   1   7
ATOM      7  O   UNL     1     -14.555  54.493  18.906  1.00  0.00    -0.337 OA
BRANCH   7   8
ATOM      8  C   UNL     1     -15.858  54.480  19.459  1.00  0.00     0.282 C 
ATOM      9  C   UNL     1     -16.884  57.641  17.945  1.00  0.00     0.041 C 
ATOM     10  C   UNL     1     -16.721  56.116  18.043  1.00  0.00     0.150 C 
ATOM     11  C   UNL     1     -18.028  55.394  17.639  1.00  0.00     0.174 C 
ATOM     12  O   UNL     1     -16.399  55.788  19.379  1.00  0.00    -0.344 OA
ATOM     13  C   UNL     1     -18.140  53.987  18.284  1.00  0.00     0.179 C 
ATOM     14  C   UNL     1     -16.776  53.416  18.765  1.00  0.00     0.202 C 
BRANCH  11  15
ATOM     15  O   UNL     1     -18.082  55.270  16.232  1.00  0.00    -0.388 OA
ATOM     16  H   UNL     1     -18.808  55.872  15.914  1.00  0.00     0.211 HD
ENDBRANCH  11  15
BRANCH  13  17
ATOM     17  O   UNL     1     -19.032  54.055  19.371  1.00  0.00    -0.387 OA
ATOM     18  H   UNL     1     -18.762  53.350  20.015  1.00  0.00     0.211 HD
ENDBRANCH  13  17
BRANCH  14  19
ATOM     19  O   UNL     1     -16.102  52.754  17.708  1.00  0.00    -0.385 OA
ATOM     20  H   UNL     1     -15.130  52.928  17.816  1.00  0.00     0.211 HD
ENDBRANCH  14  19
ENDBRANCH   7   8
ENDBRANCH   1   7
BRANCH   2  21
ATOM     21  O   UNL     1     -14.690  53.495  21.532  1.00  0.00    -0.387 OA
ATOM     22  H   UNL     1     -15.327  53.059  20.908  1.00  0.00     0.211 HD
ENDBRANCH   2  21
BRANCH   6  23
ATOM     23  O   UNL     1     -11.928  56.387  18.770  1.00  0.00    -0.462 OA
BRANCH  23  24
ATOM     24  C   UNL     1     -11.672  56.808  17.458  1.00  0.00     0.130 A 
ATOM     25  C   UNL     1     -12.729  57.129  16.593  1.00  0.00     0.093 A 
ATOM     26  C   UNL     1     -10.352  56.951  17.019  1.00  0.00     0.094 A 
ATOM     27  C   UNL     1     -12.478  57.713  15.344  1.00  0.00     0.133 A 
ATOM     28  C   UNL     1     -10.087  57.546  15.773  1.00  0.00     0.138 A 
ATOM     29  C   UNL     1     -11.146  57.947  14.935  1.00  0.00     0.102 A 
ATOM     30  O   UNL     1      -8.765  57.775  15.380  1.00  0.00    -0.484 OA
ATOM     31  C   UNL     1     -10.807  58.598  13.642  1.00  0.00     0.174 C 
ATOM     32  C   UNL     1      -8.434  58.755  14.408  1.00  0.00     0.211 C 
ATOM     33  O   UNL     1     -11.705  59.039  12.877  1.00  0.00    -0.294 OA
ATOM     34  C   UNL     1      -9.375  58.660  13.196  1.00  0.00     0.131 C 
BRANCH  27  35
ATOM     35  O   UNL     1     -13.549  58.058  14.523  1.00  0.00    -0.507 OA
ATOM     36  H   UNL     1     -14.032  58.937  14.618  1.00  0.00     0.293 HD
ENDBRANCH  27  35
BRANCH  32  37
ATOM     37  C   UNL     1      -6.990  58.602  14.000  1.00  0.00    -0.007 A 
ATOM     38  C   UNL     1      -6.536  57.402  13.404  1.00  0.00     0.011 A 
ATOM     39  C   UNL     1      -6.067  59.639  14.233  1.00  0.00     0.011 A 
ATOM     40  C   UNL     1      -5.199  57.265  13.027  1.00  0.00     0.046 A 
ATOM     41  C   UNL     1      -4.724  59.491  13.877  1.00  0.00     0.046 A 
ATOM     42  C   UNL     1      -4.290  58.313  13.259  1.00  0.00     0.115 A 
BRANCH  42  43
ATOM     43  O   UNL     1      -2.958  58.191  12.877  1.00  0.00    -0.508 OA
ATOM     44  H   UNL     1      -2.629  58.564  11.996  1.00  0.00     0.293 HD
ENDBRANCH  42  43
ENDBRANCH  32  37
ENDBRANCH  23  24
ENDBRANCH   6  23
BRANCH   3  45
ATOM     45  O   UNL     1     -11.916  52.565  22.310  1.00  0.00    -0.387 OA
ATOM     46  H   UNL     1     -10.991  52.415  21.979  1.00  0.00     0.211 HD
ENDBRANCH   3  45
BRANCH   4  47
ATOM     47  C   UNL     1      -9.758  54.283  21.822  1.00  0.00     0.191 C 
BRANCH  47  48
ATOM     48  O   UNL     1      -9.378  52.985  21.450  1.00  0.00    -0.394 OA
ATOM     49  H   UNL     1      -9.129  53.039  20.494  1.00  0.00     0.210 HD
ENDBRANCH  47  48
ENDBRANCH   4  47
TORSDOF 14
ENDMDL
MODEL 7
REMARK VINA RESULT:    -6.250      5.849     12.341
REMARK INTER + INTRA:         -11.382
REMARK INTER:                 -10.896
REMARK INTRA:                  -0.485
REMARK UNBOUND:                -1.478
REMARK SMILES C[C@H]1O[C@H](O[C@@H]2[C@@H](Oc3cc(O)c4c(c3)O[C@@H](c3ccc(O)cc3)CC4=O)O[C@H](CO)[C@H](O)[C@H]2O)[C@H](O)[C@@H](O)[C@@H]1O
REMARK SMILES IDX 6 1 34 2 32 3 29 4 28 5 7 6 5 7 4 8 1 9 2 10 40 11 3 12
REMARK SMILES IDX 38 13 36 14 41 15 39 17 37 19 35 21 8 23 9 24 10 25 15 26
REMARK SMILES IDX 11 27 14 28 13 29 16 30 26 31 17 32 27 33 25 34 12 35 18 37
REMARK SMILES IDX 19 38 24 39 20 40 23 41 21 42 22 43 33 45 30 47 31 48
REMARK H PARENT 41 16 39 18 37 20 35 22 12 36 22 44 33 46 31 49
REMARK Flexibility Score: inf
ROOT
ATOM      1  C   UNL     1     -12.930  56.449  16.000  1.00  0.00     0.221 C 
ATOM      2  C   UNL     1     -13.608  57.754  16.445  1.00  0.00     0.181 C 
ATOM      3  C   UNL     1     -13.268  58.931  15.509  1.00  0.00     0.177 C 
ATOM      4  C   UNL     1     -11.850  58.767  14.888  1.00  0.00     0.179 C 
ATOM      5  O   UNL     1     -10.980  58.021  15.728  1.00  0.00    -0.332 OA
ATOM      6  C   UNL     1     -11.390  56.662  15.865  1.00  0.00     0.339 C 
ENDROOT
BRANCH   1   7
ATOM      7  O   UNL     1     -13.204  55.470  16.991  1.00  0.00    -0.337 OA
BRANCH   7   8
ATOM      8  C   UNL     1     -12.517  55.704  18.207  1.00  0.00     0.282 C 
ATOM      9  C   UNL     1     -15.404  57.113  19.943  1.00  0.00     0.041 C 
ATOM     10  C   UNL     1     -14.435  56.008  19.494  1.00  0.00     0.150 C 
ATOM     11  C   UNL     1     -14.055  55.092  20.680  1.00  0.00     0.174 C 
ATOM     12  O   UNL     1     -13.268  56.621  18.984  1.00  0.00    -0.344 OA
ATOM     13  C   UNL     1     -12.682  54.400  20.466  1.00  0.00     0.179 C 
ATOM     14  C   UNL     1     -12.229  54.371  18.979  1.00  0.00     0.202 C 
BRANCH  11  15
ATOM     15  O   UNL     1     -15.053  54.106  20.854  1.00  0.00    -0.388 OA
ATOM     16  H   UNL     1     -15.895  54.582  21.090  1.00  0.00     0.211 HD
ENDBRANCH  11  15
BRANCH  13  17
ATOM     17  O   UNL     1     -11.712  55.065  21.242  1.00  0.00    -0.387 OA
ATOM     18  H   UNL     1     -11.899  54.847  22.192  1.00  0.00     0.211 HD
ENDBRANCH  13  17
BRANCH  14  19
ATOM     19  O   UNL     1     -12.772  53.247  18.306  1.00  0.00    -0.385 OA
ATOM     20  H   UNL     1     -13.210  53.577  17.478  1.00  0.00     0.211 HD
ENDBRANCH  14  19
ENDBRANCH   7   8
ENDBRANCH   1   7
BRANCH   2  21
ATOM     21  O   UNL     1     -15.004  57.582  16.532  1.00  0.00    -0.387 OA
ATOM     22  H   UNL     1     -15.258  57.654  17.489  1.00  0.00     0.211 HD
ENDBRANCH   2  21
BRANCH   6  23
ATOM     23  O   UNL     1     -10.794  55.827  14.853  1.00  0.00    -0.462 OA
BRANCH  23  24
ATOM     24  C   UNL     1      -9.472  55.963  14.407  1.00  0.00     0.130 A 
ATOM     25  C   UNL     1      -8.986  57.209  13.986  1.00  0.00     0.093 A 
ATOM     26  C   UNL     1      -8.617  54.856  14.423  1.00  0.00     0.094 A 
ATOM     27  C   UNL     1      -7.624  57.387  13.705  1.00  0.00     0.133 A 
ATOM     28  C   UNL     1      -7.248  55.024  14.154  1.00  0.00     0.138 A 
ATOM     29  C   UNL     1      -6.738  56.293  13.812  1.00  0.00     0.102 A 
ATOM     30  O   UNL     1      -6.379  53.934  14.265  1.00  0.00    -0.484 OA
ATOM     31  C   UNL     1      -5.277  56.417  13.568  1.00  0.00     0.174 C 
ATOM     32  C   UNL     1      -4.986  54.106  14.474  1.00  0.00     0.211 C 
ATOM     33  O   UNL     1      -4.748  57.534  13.323  1.00  0.00    -0.294 OA
ATOM     34  C   UNL     1      -4.423  55.182  13.531  1.00  0.00     0.131 C 
BRANCH  27  35
ATOM     35  O   UNL     1      -7.163  58.646  13.329  1.00  0.00    -0.507 OA
ATOM     36  H   UNL     1      -6.431  59.120  13.834  1.00  0.00     0.293 HD
ENDBRANCH  27  35
BRANCH  32  37
ATOM     37  C   UNL     1      -4.275  52.788  14.294  1.00  0.00    -0.007 A 
ATOM     38  C   UNL     1      -4.492  52.008  13.134  1.00  0.00     0.011 A 
ATOM     39  C   UNL     1      -3.409  52.301  15.291  1.00  0.00     0.011 A 
ATOM     40  C   UNL     1      -3.832  50.790  12.971  1.00  0.00     0.046 A 
ATOM     41  C   UNL     1      -2.768  51.069  15.137  1.00  0.00     0.046 A 
ATOM     42  C   UNL     1      -2.964  50.319  13.972  1.00  0.00     0.115 A 
BRANCH  42  43
ATOM     43  O   UNL     1      -2.292  49.111  13.816  1.00  0.00    -0.508 OA
ATOM     44  H   UNL     1      -1.337  49.081  13.483  1.00  0.00     0.293 HD
ENDBRANCH  42  43
ENDBRANCH  32  37
ENDBRANCH  23  24
ENDBRANCH   6  23
BRANCH   3  45
ATOM     45  O   UNL     1     -13.388  60.125  16.244  1.00  0.00    -0.387 OA
ATOM     46  H   UNL     1     -12.546  60.233  16.761  1.00  0.00     0.211 HD
ENDBRANCH   3  45
BRANCH   4  47
ATOM     47  C   UNL     1     -11.164  60.095  14.542  1.00  0.00     0.191 C 
BRANCH  47  48
ATOM     48  O   UNL     1      -9.866  60.125  15.074  1.00  0.00    -0.394 OA
ATOM     49  H   UNL     1      -9.679  61.073  15.281  1.00  0.00     0.210 HD
ENDBRANCH  47  48
ENDBRANCH   4  47
TORSDOF 14
ENDMDL
MODEL 8
REMARK VINA RESULT:    -6.086      4.905     12.011
REMARK INTER + INTRA:         -11.122
REMARK INTER:                  -9.822
REMARK INTRA:                  -1.300
REMARK UNBOUND:                -1.478
REMARK SMILES C[C@H]1O[C@H](O[C@@H]2[C@@H](Oc3cc(O)c4c(c3)O[C@@H](c3ccc(O)cc3)CC4=O)O[C@H](CO)[C@H](O)[C@H]2O)[C@H](O)[C@@H](O)[C@@H]1O
REMARK SMILES IDX 6 1 34 2 32 3 29 4 28 5 7 6 5 7 4 8 1 9 2 10 40 11 3 12
REMARK SMILES IDX 38 13 36 14 41 15 39 17 37 19 35 21 8 23 9 24 10 25 15 26
REMARK SMILES IDX 11 27 14 28 13 29 16 30 26 31 17 32 27 33 25 34 12 35 18 37
REMARK SMILES IDX 19 38 24 39 20 40 23 41 21 42 22 43 33 45 30 47 31 48
REMARK H PARENT 41 16 39 18 37 20 35 22 12 36 22 44 33 46 31 49
REMARK Flexibility Score: inf
ROOT
ATOM      1  C   UNL     1     -13.857  56.577  19.424  1.00  0.00     0.221 C 
ATOM      2  C   UNL     1     -14.219  55.675  20.615  1.00  0.00     0.181 C 
ATOM      3  C   UNL     1     -12.973  55.022  21.245  1.00  0.00     0.177 C 
ATOM      4  C   UNL     1     -11.861  54.783  20.183  1.00  0.00     0.179 C 
ATOM      5  O   UNL     1     -12.397  54.598  18.879  1.00  0.00    -0.332 OA
ATOM      6  C   UNL     1     -13.024  55.776  18.376  1.00  0.00     0.339 C 
ENDROOT
BRANCH   1   7
ATOM      7  O   UNL     1     -15.075  57.023  18.844  1.00  0.00    -0.337 OA
BRANCH   7   8
ATOM      8  C   UNL     1     -15.304  56.486  17.555  1.00  0.00     0.282 C 
ATOM      9  C   UNL     1     -18.420  54.807  18.452  1.00  0.00     0.041 C 
ATOM     10  C   UNL     1     -17.541  55.952  17.926  1.00  0.00     0.150 C 
ATOM     11  C   UNL     1     -18.132  56.551  16.629  1.00  0.00     0.174 C 
ATOM     12  O   UNL     1     -16.252  55.438  17.660  1.00  0.00    -0.344 OA
ATOM     13  C   UNL     1     -17.045  57.226  15.751  1.00  0.00     0.179 C 
ATOM     14  C   UNL     1     -15.753  57.590  16.536  1.00  0.00     0.202 C 
BRANCH  11  15
ATOM     15  O   UNL     1     -19.125  57.501  16.957  1.00  0.00    -0.388 OA
ATOM     16  H   UNL     1     -19.832  57.021  17.468  1.00  0.00     0.211 HD
ENDBRANCH  11  15
BRANCH  13  17
ATOM     17  O   UNL     1     -16.723  56.365  14.684  1.00  0.00    -0.387 OA
ATOM     18  H   UNL     1     -16.819  56.890  13.847  1.00  0.00     0.211 HD
ENDBRANCH  13  17
BRANCH  14  19
ATOM     19  O   UNL     1     -15.877  58.857  17.158  1.00  0.00    -0.385 OA
ATOM     20  H   UNL     1     -15.923  58.707  18.139  1.00  0.00     0.211 HD
ENDBRANCH  14  19
ENDBRANCH   7   8
ENDBRANCH   1   7
BRANCH   2  21
ATOM     21  O   UNL     1     -14.940  56.400  21.584  1.00  0.00    -0.387 OA
ATOM     22  H   UNL     1     -15.569  55.772  22.025  1.00  0.00     0.211 HD
ENDBRANCH   2  21
BRANCH   6  23
ATOM     23  O   UNL     1     -12.090  56.602  17.652  1.00  0.00    -0.462 OA
BRANCH  23  24
ATOM     24  C   UNL     1     -11.143  56.101  16.748  1.00  0.00     0.130 A 
ATOM     25  C   UNL     1     -11.356  54.877  16.098  1.00  0.00     0.093 A 
ATOM     26  C   UNL     1      -9.997  56.848  16.459  1.00  0.00     0.094 A 
ATOM     27  C   UNL     1     -10.501  54.457  15.069  1.00  0.00     0.133 A 
ATOM     28  C   UNL     1      -9.139  56.443  15.422  1.00  0.00     0.138 A 
ATOM     29  C   UNL     1      -9.394  55.256  14.707  1.00  0.00     0.102 A 
ATOM     30  O   UNL     1      -8.047  57.243  15.071  1.00  0.00    -0.484 OA
ATOM     31  C   UNL     1      -8.470  54.892  13.602  1.00  0.00     0.174 C 
ATOM     32  C   UNL     1      -7.441  57.162  13.790  1.00  0.00     0.211 C 
ATOM     33  O   UNL     1      -8.678  53.879  12.882  1.00  0.00    -0.294 OA
ATOM     34  C   UNL     1      -7.220  55.696  13.385  1.00  0.00     0.131 C 
BRANCH  27  35
ATOM     35  O   UNL     1     -10.760  53.256  14.413  1.00  0.00    -0.507 OA
ATOM     36  H   UNL     1     -11.268  52.505  14.854  1.00  0.00     0.293 HD
ENDBRANCH  27  35
BRANCH  32  37
ATOM     37  C   UNL     1      -6.147  57.938  13.786  1.00  0.00    -0.007 A 
ATOM     38  C   UNL     1      -5.023  57.453  13.079  1.00  0.00     0.011 A 
ATOM     39  C   UNL     1      -6.032  59.138  14.511  1.00  0.00     0.011 A 
ATOM     40  C   UNL     1      -3.828  58.175  13.077  1.00  0.00     0.046 A 
ATOM     41  C   UNL     1      -4.828  59.847  14.529  1.00  0.00     0.046 A 
ATOM     42  C   UNL     1      -3.730  59.377  13.800  1.00  0.00     0.115 A 
BRANCH  42  43
ATOM     43  O   UNL     1      -2.547  60.109  13.796  1.00  0.00    -0.508 OA
ATOM     44  H   UNL     1      -1.708  59.753  14.235  1.00  0.00     0.293 HD
ENDBRANCH  42  43
ENDBRANCH  32  37
ENDBRANCH  23  24
ENDBRANCH   6  23
BRANCH   3  45
ATOM     45  O   UNL     1     -13.373  53.826  21.870  1.00  0.00    -0.387 OA
ATOM     46  H   UNL     1     -12.609  53.195  21.803  1.00  0.00     0.211 HD
ENDBRANCH   3  45
BRANCH   4  47
ATOM     47  C   UNL     1     -10.942  53.596  20.498  1.00  0.00     0.191 C 
BRANCH  47  48
ATOM     48  O   UNL     1     -10.326  53.777  21.746  1.00  0.00    -0.394 OA
ATOM     49  H   UNL     1      -9.469  53.286  21.700  1.00  0.00     0.210 HD
ENDBRANCH  47  48
ENDBRANCH   4  47
TORSDOF 14
ENDMDL
MODEL 9
REMARK VINA RESULT:    -5.838      5.485     12.354
REMARK INTER + INTRA:         -10.729
REMARK INTER:                  -9.982
REMARK INTRA:                  -0.747
REMARK UNBOUND:                -1.478
REMARK SMILES C[C@H]1O[C@H](O[C@@H]2[C@@H](Oc3cc(O)c4c(c3)O[C@@H](c3ccc(O)cc3)CC4=O)O[C@H](CO)[C@H](O)[C@H]2O)[C@H](O)[C@@H](O)[C@@H]1O
REMARK SMILES IDX 6 1 34 2 32 3 29 4 28 5 7 6 5 7 4 8 1 9 2 10 40 11 3 12
REMARK SMILES IDX 38 13 36 14 41 15 39 17 37 19 35 21 8 23 9 24 10 25 15 26
REMARK SMILES IDX 11 27 14 28 13 29 16 30 26 31 17 32 27 33 25 34 12 35 18 37
REMARK SMILES IDX 19 38 24 39 20 40 23 41 21 42 22 43 33 45 30 47 31 48
REMARK H PARENT 41 16 39 18 37 20 35 22 12 36 22 44 33 46 31 49
REMARK Flexibility Score: inf
ROOT
ATOM      1  C   UNL     1     -11.379  55.483  16.385  1.00  0.00     0.221 C 
ATOM      2  C   UNL     1     -11.430  53.963  16.610  1.00  0.00     0.181 C 
ATOM      3  C   UNL     1     -10.740  53.186  15.470  1.00  0.00     0.177 C 
ATOM      4  C   UNL     1     -10.858  53.946  14.117  1.00  0.00     0.179 C 
ATOM      5  O   UNL     1     -12.022  54.759  14.059  1.00  0.00    -0.332 OA
ATOM      6  C   UNL     1     -11.977  55.839  14.989  1.00  0.00     0.339 C 
ENDROOT
BRANCH   1   7
ATOM      7  O   UNL     1     -12.145  56.089  17.415  1.00  0.00    -0.337 OA
BRANCH   7   8
ATOM      8  C   UNL     1     -13.482  55.626  17.458  1.00  0.00     0.282 C 
ATOM      9  C   UNL     1     -13.296  54.415  20.898  1.00  0.00     0.041 C 
ATOM     10  C   UNL     1     -13.579  55.428  19.777  1.00  0.00     0.150 C 
ATOM     11  C   UNL     1     -14.931  56.141  20.006  1.00  0.00     0.174 C 
ATOM     12  O   UNL     1     -13.619  54.731  18.549  1.00  0.00    -0.344 OA
ATOM     13  C   UNL     1     -15.545  56.667  18.681  1.00  0.00     0.179 C 
ATOM     14  C   UNL     1     -14.507  56.810  17.533  1.00  0.00     0.202 C 
BRANCH  11  15
ATOM     15  O   UNL     1     -14.749  57.222  20.898  1.00  0.00    -0.388 OA
ATOM     16  H   UNL     1     -15.002  56.899  21.805  1.00  0.00     0.211 HD
ENDBRANCH  11  15
BRANCH  13  17
ATOM     17  O   UNL     1     -16.575  55.794  18.280  1.00  0.00    -0.387 OA
ATOM     18  H   UNL     1     -17.419  56.141  18.670  1.00  0.00     0.211 HD
ENDBRANCH  13  17
BRANCH  14  19
ATOM     19  O   UNL     1     -13.852  58.066  17.595  1.00  0.00    -0.385 OA
ATOM     20  H   UNL     1     -14.274  58.659  16.919  1.00  0.00     0.211 HD
ENDBRANCH  14  19
ENDBRANCH   7   8
ENDBRANCH   1   7
BRANCH   2  21
ATOM     21  O   UNL     1     -10.856  53.627  17.853  1.00  0.00    -0.387 OA
ATOM     22  H   UNL     1     -11.173  54.291  18.520  1.00  0.00     0.211 HD
ENDBRANCH   2  21
BRANCH   6  23
ATOM     23  O   UNL     1     -11.378  57.013  14.405  1.00  0.00    -0.462 OA
BRANCH  23  24
ATOM     24  C   UNL     1      -9.997  57.246  14.363  1.00  0.00     0.130 A 
ATOM     25  C   UNL     1      -9.490  58.549  14.473  1.00  0.00     0.093 A 
ATOM     26  C   UNL     1      -9.113  56.167  14.256  1.00  0.00     0.094 A 
ATOM     27  C   UNL     1      -8.113  58.771  14.606  1.00  0.00     0.133 A 
ATOM     28  C   UNL     1      -7.731  56.376  14.399  1.00  0.00     0.138 A 
ATOM     29  C   UNL     1      -7.222  57.675  14.594  1.00  0.00     0.102 A 
ATOM     30  O   UNL     1      -6.859  55.283  14.387  1.00  0.00    -0.484 OA
ATOM     31  C   UNL     1      -5.754  57.833  14.769  1.00  0.00     0.174 C 
ATOM     32  C   UNL     1      -5.569  55.349  14.977  1.00  0.00     0.211 C 
ATOM     33  O   UNL     1      -5.242  58.958  15.012  1.00  0.00    -0.294 OA
ATOM     34  C   UNL     1      -4.852  56.648  14.574  1.00  0.00     0.131 C 
BRANCH  27  35
ATOM     35  O   UNL     1      -7.641  60.073  14.754  1.00  0.00    -0.507 OA
ATOM     36  H   UNL     1      -7.894  60.647  15.543  1.00  0.00     0.293 HD
ENDBRANCH  27  35
BRANCH  32  37
ATOM     37  C   UNL     1      -4.767  54.132  14.589  1.00  0.00    -0.007 A 
ATOM     38  C   UNL     1      -4.077  53.385  15.572  1.00  0.00     0.011 A 
ATOM     39  C   UNL     1      -4.669  53.741  13.240  1.00  0.00     0.011 A 
ATOM     40  C   UNL     1      -3.336  52.259  15.208  1.00  0.00     0.046 A 
ATOM     41  C   UNL     1      -3.906  52.628  12.876  1.00  0.00     0.046 A 
ATOM     42  C   UNL     1      -3.253  51.875  13.858  1.00  0.00     0.115 A 
BRANCH  42  43
ATOM     43  O   UNL     1      -2.527  50.749  13.486  1.00  0.00    -0.508 OA
ATOM     44  H   UNL     1      -2.960  49.990  12.975  1.00  0.00     0.293 HD
ENDBRANCH  42  43
ENDBRANCH  32  37
ENDBRANCH  23  24
ENDBRANCH   6  23
BRANCH   3  45
ATOM     45  O   UNL     1     -11.310  51.902  15.408  1.00  0.00    -0.387 OA
ATOM     46  H   UNL     1     -10.566  51.262  15.246  1.00  0.00     0.211 HD
ENDBRANCH   3  45
BRANCH   4  47
ATOM     47  C   UNL     1     -10.849  53.030  12.886  1.00  0.00     0.191 C 
BRANCH  47  48
ATOM     48  O   UNL     1      -9.785  52.119  12.966  1.00  0.00    -0.394 OA
ATOM     49  H   UNL     1      -9.957  51.571  13.772  1.00  0.00     0.210 HD
ENDBRANCH  47  48
ENDBRANCH   4  47
TORSDOF 14
ENDMDL
