MODEL 1
REMARK VINA RESULT:    -4.463      0.000      0.000
REMARK INTER + INTRA:          -4.593
REMARK INTER:                  -4.593
REMARK INTRA:                   0.000
REMARK UNBOUND:                 0.000
REMARK SMILES O=c1ccc2ccc(O)cc2o1
REMARK SMILES IDX 6 1 7 2 8 3 10 4 11 5 5 6 4 7 3 8 2 9 1 10 12 11 9 12
REMARK H PARENT 9 13
REMARK Flexibility Score: inf
ROOT
ATOM      1  C   UNL     1      -6.062 -19.184 -23.125  1.00  0.00     0.016 A 
ATOM      2  C   UNL     1      -4.878 -19.831 -22.757  1.00  0.00     0.047 A 
ATOM      3  C   UNL     1      -3.932 -19.177 -21.959  1.00  0.00     0.119 A 
ATOM      4  C   UNL     1      -4.171 -17.865 -21.524  1.00  0.00     0.094 A 
ATOM      5  C   UNL     1      -5.352 -17.209 -21.888  1.00  0.00     0.142 A 
ATOM      6  C   UNL     1      -6.304 -17.872 -22.693  1.00  0.00     0.018 A 
ATOM      7  C   UNL     1      -7.475 -17.191 -23.040  1.00  0.00     0.019 A 
ATOM      8  C   UNL     1      -7.668 -15.887 -22.585  1.00  0.00     0.094 A 
ATOM      9  C   UNL     1      -6.682 -15.293 -21.790  1.00  0.00     0.336 A 
ATOM     10  O   UNL     1      -6.838 -14.117 -21.370  1.00  0.00    -0.246 OA
ATOM     11  O   UNL     1      -5.576 -15.963 -21.475  1.00  0.00    -0.423 OA
ENDROOT
BRANCH   3  12
ATOM     12  O   UNL     1      -2.760 -19.839 -21.602  1.00  0.00    -0.508 OA
ATOM     13  H   UNL     1      -2.777 -20.676 -21.031  1.00  0.00     0.293 HD
ENDBRANCH   3  12
TORSDOF 1
ENDMDL
MODEL 2
REMARK VINA RESULT:    -4.356     21.367     22.679
REMARK INTER + INTRA:          -4.483
REMARK INTER:                  -4.483
REMARK INTRA:                   0.000
REMARK UNBOUND:                 0.000
REMARK SMILES O=c1ccc2ccc(O)cc2o1
REMARK SMILES IDX 6 1 7 2 8 3 10 4 11 5 5 6 4 7 3 8 2 9 1 10 12 11 9 12
REMARK H PARENT 9 13
REMARK Flexibility Score: inf
ROOT
ATOM      1  C   UNL     1      -4.101  -1.080  -5.798  1.00  0.00     0.016 A 
ATOM      2  C   UNL     1      -4.784  -0.799  -6.986  1.00  0.00     0.047 A 
ATOM      3  C   UNL     1      -5.793  -1.655  -7.441  1.00  0.00     0.119 A 
ATOM      4  C   UNL     1      -6.124  -2.802  -6.704  1.00  0.00     0.094 A 
ATOM      5  C   UNL     1      -5.445  -3.092  -5.516  1.00  0.00     0.142 A 
ATOM      6  C   UNL     1      -4.427  -2.226  -5.059  1.00  0.00     0.018 A 
ATOM      7  C   UNL     1      -3.767  -2.543  -3.868  1.00  0.00     0.019 A 
ATOM      8  C   UNL     1      -4.129  -3.694  -3.170  1.00  0.00     0.094 A 
ATOM      9  C   UNL     1      -5.148  -4.505  -3.682  1.00  0.00     0.336 A 
ATOM     10  O   UNL     1      -5.489  -5.549  -3.067  1.00  0.00    -0.246 OA
ATOM     11  O   UNL     1      -5.760  -4.182  -4.819  1.00  0.00    -0.423 OA
ENDROOT
BRANCH   3  12
ATOM     12  O   UNL     1      -6.464  -1.357  -8.625  1.00  0.00    -0.508 OA
ATOM     13  H   UNL     1      -6.768  -0.414  -8.839  1.00  0.00     0.293 HD
ENDBRANCH   3  12
TORSDOF 1
ENDMDL
MODEL 3
REMARK VINA RESULT:    -4.287     21.565     22.455
REMARK INTER + INTRA:          -4.412
REMARK INTER:                  -4.412
REMARK INTRA:                   0.000
REMARK UNBOUND:                 0.000
REMARK SMILES O=c1ccc2ccc(O)cc2o1
REMARK SMILES IDX 6 1 7 2 8 3 10 4 11 5 5 6 4 7 3 8 2 9 1 10 12 11 9 12
REMARK H PARENT 9 13
REMARK Flexibility Score: inf
ROOT
ATOM      1  C   UNL     1      -3.711  -2.462  -3.971  1.00  0.00     0.016 A 
ATOM      2  C   UNL     1      -3.971  -3.618  -3.227  1.00  0.00     0.047 A 
ATOM      3  C   UNL     1      -4.973  -4.508  -3.629  1.00  0.00     0.119 A 
ATOM      4  C   UNL     1      -5.723  -4.243  -4.784  1.00  0.00     0.094 A 
ATOM      5  C   UNL     1      -5.472  -3.089  -5.534  1.00  0.00     0.142 A 
ATOM      6  C   UNL     1      -4.459  -2.193  -5.126  1.00  0.00     0.018 A 
ATOM      7  C   UNL     1      -4.232  -1.048  -5.897  1.00  0.00     0.019 A 
ATOM      8  C   UNL     1      -5.003  -0.826  -7.037  1.00  0.00     0.094 A 
ATOM      9  C   UNL     1      -5.989  -1.758  -7.381  1.00  0.00     0.336 A 
ATOM     10  O   UNL     1      -6.695  -1.575  -8.406  1.00  0.00    -0.246 OA
ATOM     11  O   UNL     1      -6.186  -2.839  -6.630  1.00  0.00    -0.423 OA
ENDROOT
BRANCH   3  12
ATOM     12  O   UNL     1      -5.215  -5.654  -2.875  1.00  0.00    -0.508 OA
ATOM     13  H   UNL     1      -4.459  -6.252  -2.563  1.00  0.00     0.293 HD
ENDBRANCH   3  12
TORSDOF 1
ENDMDL
MODEL 4
REMARK VINA RESULT:    -4.119     12.372     13.101
REMARK INTER + INTRA:          -4.239
REMARK INTER:                  -4.239
REMARK INTRA:                   0.000
REMARK UNBOUND:                 0.000
REMARK SMILES O=c1ccc2ccc(O)cc2o1
REMARK SMILES IDX 6 1 7 2 8 3 10 4 11 5 5 6 4 7 3 8 2 9 1 10 12 11 9 12
REMARK H PARENT 9 13
REMARK Flexibility Score: inf
ROOT
ATOM      1  C   UNL     1      -5.475 -19.981 -10.710  1.00  0.00     0.016 A 
ATOM      2  C   UNL     1      -6.585 -20.044 -11.559  1.00  0.00     0.047 A 
ATOM      3  C   UNL     1      -7.683 -19.201 -11.351  1.00  0.00     0.119 A 
ATOM      4  C   UNL     1      -7.673 -18.287 -10.287  1.00  0.00     0.094 A 
ATOM      5  C   UNL     1      -6.568 -18.217  -9.433  1.00  0.00     0.142 A 
ATOM      6  C   UNL     1      -5.461 -19.069  -9.645  1.00  0.00     0.018 A 
ATOM      7  C   UNL     1      -4.371 -18.976  -8.774  1.00  0.00     0.019 A 
ATOM      8  C   UNL     1      -4.406 -18.053  -7.730  1.00  0.00     0.094 A 
ATOM      9  C   UNL     1      -5.535 -17.240  -7.581  1.00  0.00     0.336 A 
ATOM     10  O   UNL     1      -5.586 -16.401  -6.645  1.00  0.00    -0.246 OA
ATOM     11  O   UNL     1      -6.560 -17.350  -8.423  1.00  0.00    -0.423 OA
ENDROOT
BRANCH   3  12
ATOM     12  O   UNL     1      -8.779 -19.278 -12.208  1.00  0.00    -0.508 OA
ATOM     13  H   UNL     1      -9.679 -19.615 -11.887  1.00  0.00     0.293 HD
ENDBRANCH   3  12
TORSDOF 1
ENDMDL
MODEL 5
REMARK VINA RESULT:    -3.945     13.168     13.860
REMARK INTER + INTRA:          -4.060
REMARK INTER:                  -4.060
REMARK INTRA:                   0.000
REMARK UNBOUND:                 0.000
REMARK SMILES O=c1ccc2ccc(O)cc2o1
REMARK SMILES IDX 6 1 7 2 8 3 10 4 11 5 5 6 4 7 3 8 2 9 1 10 12 11 9 12
REMARK H PARENT 9 13
REMARK Flexibility Score: inf
ROOT
ATOM      1  C   UNL     1      -6.538 -17.204  -7.315  1.00  0.00     0.016 A 
ATOM      2  C   UNL     1      -5.399 -17.182  -6.503  1.00  0.00     0.047 A 
ATOM      3  C   UNL     1      -4.253 -17.896  -6.871  1.00  0.00     0.119 A 
ATOM      4  C   UNL     1      -4.243 -18.640  -8.060  1.00  0.00     0.094 A 
ATOM      5  C   UNL     1      -5.378 -18.670  -8.878  1.00  0.00     0.142 A 
ATOM      6  C   UNL     1      -6.533 -17.947  -8.504  1.00  0.00     0.018 A 
ATOM      7  C   UNL     1      -7.651 -17.997  -9.342  1.00  0.00     0.019 A 
ATOM      8  C   UNL     1      -7.596 -18.750 -10.513  1.00  0.00     0.094 A 
ATOM      9  C   UNL     1      -6.417 -19.440 -10.821  1.00  0.00     0.336 A 
ATOM     10  O   UNL     1      -6.347 -20.125 -11.874  1.00  0.00    -0.246 OA
ATOM     11  O   UNL     1      -5.367 -19.377 -10.006  1.00  0.00    -0.423 OA
ENDROOT
BRANCH   3  12
ATOM     12  O   UNL     1      -3.128 -17.859  -6.050  1.00  0.00    -0.508 OA
ATOM     13  H   UNL     1      -2.560 -17.024  -5.967  1.00  0.00     0.293 HD
ENDBRANCH   3  12
TORSDOF 1
ENDMDL
MODEL 6
REMARK VINA RESULT:    -3.832     13.822     14.511
REMARK INTER + INTRA:          -3.944
REMARK INTER:                  -3.944
REMARK INTRA:                   0.000
REMARK UNBOUND:                 0.000
REMARK SMILES O=c1ccc2ccc(O)cc2o1
REMARK SMILES IDX 6 1 7 2 8 3 10 4 11 5 5 6 4 7 3 8 2 9 1 10 12 11 9 12
REMARK H PARENT 9 13
REMARK Flexibility Score: inf
ROOT
ATOM      1  C   UNL     1      -3.777 -18.649  -8.697  1.00  0.00     0.016 A 
ATOM      2  C   UNL     1      -4.410 -19.347  -9.731  1.00  0.00     0.047 A 
ATOM      3  C   UNL     1      -5.801 -19.287  -9.877  1.00  0.00     0.119 A 
ATOM      4  C   UNL     1      -6.567 -18.525  -8.984  1.00  0.00     0.094 A 
ATOM      5  C   UNL     1      -5.943 -17.824  -7.946  1.00  0.00     0.142 A 
ATOM      6  C   UNL     1      -4.539 -17.886  -7.801  1.00  0.00     0.018 A 
ATOM      7  C   UNL     1      -3.945 -17.175  -6.754  1.00  0.00     0.019 A 
ATOM      8  C   UNL     1      -4.747 -16.431  -5.890  1.00  0.00     0.094 A 
ATOM      9  C   UNL     1      -6.131 -16.415  -6.094  1.00  0.00     0.336 A 
ATOM     10  O   UNL     1      -6.872 -15.749  -5.325  1.00  0.00    -0.246 OA
ATOM     11  O   UNL     1      -6.672 -17.101  -7.098  1.00  0.00    -0.423 OA
ENDROOT
BRANCH   3  12
ATOM     12  O   UNL     1      -6.412 -19.988 -10.915  1.00  0.00    -0.508 OA
ATOM     13  H   UNL     1      -7.064 -20.742 -10.732  1.00  0.00     0.293 HD
ENDBRANCH   3  12
TORSDOF 1
ENDMDL
MODEL 7
REMARK VINA RESULT:    -3.818     13.916     14.922
REMARK INTER + INTRA:          -3.930
REMARK INTER:                  -3.930
REMARK INTRA:                   0.000
REMARK UNBOUND:                 0.000
REMARK SMILES O=c1ccc2ccc(O)cc2o1
REMARK SMILES IDX 6 1 7 2 8 3 10 4 11 5 5 6 4 7 3 8 2 9 1 10 12 11 9 12
REMARK H PARENT 9 13
REMARK Flexibility Score: inf
ROOT
ATOM      1  C   UNL     1      -3.959 -17.093  -6.816  1.00  0.00     0.016 A 
ATOM      2  C   UNL     1      -4.740 -16.344  -5.929  1.00  0.00     0.047 A 
ATOM      3  C   UNL     1      -6.137 -16.363  -6.028  1.00  0.00     0.119 A 
ATOM      4  C   UNL     1      -6.759 -17.136  -7.019  1.00  0.00     0.094 A 
ATOM      5  C   UNL     1      -5.986 -17.887  -7.910  1.00  0.00     0.142 A 
ATOM      6  C   UNL     1      -4.577 -17.866  -7.809  1.00  0.00     0.018 A 
ATOM      7  C   UNL     1      -3.831 -18.628  -8.714  1.00  0.00     0.019 A 
ATOM      8  C   UNL     1      -4.493 -19.380  -9.683  1.00  0.00     0.094 A 
ATOM      9  C   UNL     1      -5.892 -19.354  -9.724  1.00  0.00     0.336 A 
ATOM     10  O   UNL     1      -6.508 -20.026 -10.591  1.00  0.00    -0.246 OA
ATOM     11  O   UNL     1      -6.578 -18.620  -8.851  1.00  0.00    -0.423 OA
ENDROOT
BRANCH   3  12
ATOM     12  O   UNL     1      -6.897 -15.611  -5.135  1.00  0.00    -0.508 OA
ATOM     13  H   UNL     1      -6.500 -15.247  -4.277  1.00  0.00     0.293 HD
ENDBRANCH   3  12
TORSDOF 1
ENDMDL
MODEL 8
REMARK VINA RESULT:    -3.803     15.699     16.625
REMARK INTER + INTRA:          -3.914
REMARK INTER:                  -3.914
REMARK INTRA:                   0.000
REMARK UNBOUND:                 0.000
REMARK SMILES O=c1ccc2ccc(O)cc2o1
REMARK SMILES IDX 6 1 7 2 8 3 10 4 11 5 5 6 4 7 3 8 2 9 1 10 12 11 9 12
REMARK H PARENT 9 13
REMARK Flexibility Score: inf
ROOT
ATOM      1  C   UNL     1      -3.881 -15.991  -5.058  1.00  0.00     0.016 A 
ATOM      2  C   UNL     1      -4.500 -15.337  -3.987  1.00  0.00     0.047 A 
ATOM      3  C   UNL     1      -5.892 -15.200  -3.951  1.00  0.00     0.119 A 
ATOM      4  C   UNL     1      -6.675 -15.720  -4.992  1.00  0.00     0.094 A 
ATOM      5  C   UNL     1      -6.065 -16.375  -6.068  1.00  0.00     0.142 A 
ATOM      6  C   UNL     1      -4.659 -16.512  -6.102  1.00  0.00     0.018 A 
ATOM      7  C   UNL     1      -4.079 -17.171  -7.190  1.00  0.00     0.019 A 
ATOM      8  C   UNL     1      -4.897 -17.671  -8.202  1.00  0.00     0.094 A 
ATOM      9  C   UNL     1      -6.282 -17.500  -8.102  1.00  0.00     0.336 A 
ATOM     10  O   UNL     1      -7.037 -17.944  -9.005  1.00  0.00    -0.246 OA
ATOM     11  O   UNL     1      -6.809 -16.867  -7.056  1.00  0.00    -0.423 OA
ENDROOT
BRANCH   3  12
ATOM     12  O   UNL     1      -6.489 -14.547  -2.875  1.00  0.00    -0.508 OA
ATOM     13  H   UNL     1      -5.939 -14.169  -2.113  1.00  0.00     0.293 HD
ENDBRANCH   3  12
TORSDOF 1
ENDMDL
MODEL 9
REMARK VINA RESULT:    -3.788     13.957     14.449
REMARK INTER + INTRA:          -3.899
REMARK INTER:                  -3.899
REMARK INTRA:                   0.000
REMARK UNBOUND:                 0.000
REMARK SMILES O=c1ccc2ccc(O)cc2o1
REMARK SMILES IDX 6 1 7 2 8 3 10 4 11 5 5 6 4 7 3 8 2 9 1 10 12 11 9 12
REMARK H PARENT 9 13
REMARK Flexibility Score: inf
ROOT
ATOM      1  C   UNL     1      -6.308 -18.923  -9.344  1.00  0.00     0.016 A 
ATOM      2  C   UNL     1      -5.067 -19.399  -9.780  1.00  0.00     0.047 A 
ATOM      3  C   UNL     1      -3.895 -19.044  -9.102  1.00  0.00     0.119 A 
ATOM      4  C   UNL     1      -3.962 -18.207  -7.978  1.00  0.00     0.094 A 
ATOM      5  C   UNL     1      -5.198 -17.725  -7.536  1.00  0.00     0.142 A 
ATOM      6  C   UNL     1      -6.379 -18.085  -8.222  1.00  0.00     0.018 A 
ATOM      7  C   UNL     1      -7.600 -17.587  -7.755  1.00  0.00     0.019 A 
ATOM      8  C   UNL     1      -7.617 -16.757  -6.635  1.00  0.00     0.094 A 
ATOM      9  C   UNL     1      -6.408 -16.443  -6.005  1.00  0.00     0.336 A 
ATOM     10  O   UNL     1      -6.402 -15.696  -4.993  1.00  0.00    -0.246 OA
ATOM     11  O   UNL     1      -5.259 -16.930  -6.470  1.00  0.00    -0.423 OA
ENDROOT
BRANCH   3  12
ATOM     12  O   UNL     1      -2.669 -19.530  -9.551  1.00  0.00    -0.508 OA
ATOM     13  H   UNL     1      -1.819 -19.399  -9.015  1.00  0.00     0.293 HD
ENDBRANCH   3  12
TORSDOF 1
ENDMDL
