MODEL 1
REMARK VINA RESULT:    -7.861      0.000      0.000
REMARK INTER + INTRA:         -13.761
REMARK INTER:                 -11.997
REMARK INTRA:                  -1.763
REMARK UNBOUND:                -1.763
REMARK SMILES CC(=O)CCC=C(C)CCC=C(C)CCC=C(C)C
REMARK SMILES IDX 10 1 11 2 12 3 13 4 14 5 15 6 16 7 18 8 17 9 19 10 9 11 7 12
REMARK SMILES IDX 6 13 8 14 5 15 4 16 2 17 3 18 1 19
REMARK H PARENT
REMARK Flexibility Score: inf
ROOT
ATOM      1  C   UNL     1      21.960 -21.943  20.357  1.00  0.00     0.032 C 
ENDROOT
BRANCH   1   2
ATOM      2  C   UNL     1      22.465 -22.726  21.545  1.00  0.00    -0.028 C 
ATOM      3  C   UNL     1      23.049 -23.941  21.450  1.00  0.00    -0.077 C 
ATOM      4  C   UNL     1      23.476 -24.632  22.721  1.00  0.00     0.039 C 
BRANCH   3   5
ATOM      5  C   UNL     1      23.309 -24.627  20.120  1.00  0.00     0.034 C 
BRANCH   5   6
ATOM      6  C   UNL     1      24.713 -24.315  19.578  1.00  0.00     0.032 C 
BRANCH   6   7
ATOM      7  C   UNL     1      25.144 -25.310  18.526  1.00  0.00    -0.028 C 
ATOM      8  C   UNL     1      26.739 -26.538  17.088  1.00  0.00     0.039 C 
ATOM      9  C   UNL     1      26.429 -25.544  18.177  1.00  0.00    -0.080 C 
ATOM     10  C   UNL     1      27.587 -24.883  18.883  1.00  0.00     0.039 C 
ENDBRANCH   6   7
ENDBRANCH   5   6
ENDBRANCH   3   5
ENDBRANCH   1   2
BRANCH   1  11
ATOM     11  C   UNL     1      23.022 -20.960  19.849  1.00  0.00     0.034 C 
BRANCH  11  12
ATOM     12  C   UNL     1      23.293 -21.173  18.374  1.00  0.00    -0.077 C 
ATOM     13  C   UNL     1      22.526 -22.049  17.686  1.00  0.00    -0.028 C 
ATOM     14  C   UNL     1      24.403 -20.392  17.711  1.00  0.00     0.039 C 
BRANCH  13  15
ATOM     15  C   UNL     1      22.716 -22.396  16.229  1.00  0.00     0.035 C 
BRANCH  15  16
ATOM     16  C   UNL     1      21.470 -23.068  15.638  1.00  0.00     0.079 C 
BRANCH  16  17
ATOM     17  C   UNL     1      21.725 -24.511  15.292  1.00  0.00     0.130 C 
ATOM     18  O   UNL     1      20.922 -25.121  14.601  1.00  0.00    -0.300 OA
ATOM     19  C   UNL     1      22.964 -25.201  15.779  1.00  0.00     0.087 C 
ENDBRANCH  16  17
ENDBRANCH  15  16
ENDBRANCH  13  15
ENDBRANCH  11  12
ENDBRANCH   1  11
TORSDOF 9
ENDMDL
MODEL 2
REMARK VINA RESULT:    -7.855      2.545      5.885
REMARK INTER + INTRA:         -13.751
REMARK INTER:                 -12.330
REMARK INTRA:                  -1.421
REMARK UNBOUND:                -1.763
REMARK SMILES CC(=O)CCC=C(C)CCC=C(C)CCC=C(C)C
REMARK SMILES IDX 10 1 11 2 12 3 13 4 14 5 15 6 16 7 18 8 17 9 19 10 9 11 7 12
REMARK SMILES IDX 6 13 8 14 5 15 4 16 2 17 3 18 1 19
REMARK H PARENT
REMARK Flexibility Score: inf
ROOT
ATOM      1  C   UNL     1      28.589 -21.705  18.757  1.00  0.00     0.032 C 
ENDROOT
BRANCH   1   2
ATOM      2  C   UNL     1      28.154 -20.424  19.428  1.00  0.00    -0.028 C 
ATOM      3  C   UNL     1      26.888 -19.952  19.395  1.00  0.00    -0.077 C 
ATOM      4  C   UNL     1      26.595 -18.640  20.078  1.00  0.00     0.039 C 
BRANCH   3   5
ATOM      5  C   UNL     1      25.750 -20.697  18.719  1.00  0.00     0.034 C 
BRANCH   5   6
ATOM      6  C   UNL     1      24.547 -19.781  18.442  1.00  0.00     0.032 C 
BRANCH   6   7
ATOM      7  C   UNL     1      24.475 -19.368  16.991  1.00  0.00    -0.028 C 
ATOM      8  C   UNL     1      23.869 -19.581  14.602  1.00  0.00     0.039 C 
ATOM      9  C   UNL     1      23.846 -20.075  16.025  1.00  0.00    -0.080 C 
ATOM     10  C   UNL     1      23.062 -21.328  16.328  1.00  0.00     0.039 C 
ENDBRANCH   6   7
ENDBRANCH   5   6
ENDBRANCH   3   5
ENDBRANCH   1   2
BRANCH   1  11
ATOM     11  C   UNL     1      28.674 -22.857  19.764  1.00  0.00     0.034 C 
BRANCH  11  12
ATOM     12  C   UNL     1      27.797 -24.015  19.335  1.00  0.00    -0.077 C 
ATOM     13  C   UNL     1      26.459 -23.831  19.262  1.00  0.00    -0.028 C 
ATOM     14  C   UNL     1      28.442 -25.336  18.988  1.00  0.00     0.039 C 
BRANCH  13  15
ATOM     15  C   UNL     1      25.464 -24.907  18.900  1.00  0.00     0.035 C 
BRANCH  15  16
ATOM     16  C   UNL     1      24.086 -24.319  18.569  1.00  0.00     0.079 C 
BRANCH  16  17
ATOM     17  C   UNL     1      23.378 -23.827  19.803  1.00  0.00     0.130 C 
ATOM     18  O   UNL     1      22.983 -22.672  19.857  1.00  0.00    -0.300 OA
ATOM     19  C   UNL     1      23.141 -24.750  20.961  1.00  0.00     0.087 C 
ENDBRANCH  16  17
ENDBRANCH  15  16
ENDBRANCH  13  15
ENDBRANCH  11  12
ENDBRANCH   1  11
TORSDOF 9
ENDMDL
MODEL 3
REMARK VINA RESULT:    -7.778      2.252      5.713
REMARK INTER + INTRA:         -13.634
REMARK INTER:                 -11.867
REMARK INTRA:                  -1.767
REMARK UNBOUND:                -1.763
REMARK SMILES CC(=O)CCC=C(C)CCC=C(C)CCC=C(C)C
REMARK SMILES IDX 10 1 11 2 12 3 13 4 14 5 15 6 16 7 18 8 17 9 19 10 9 11 7 12
REMARK SMILES IDX 6 13 8 14 5 15 4 16 2 17 3 18 1 19
REMARK H PARENT
REMARK Flexibility Score: inf
ROOT
ATOM      1  C   UNL     1      28.687 -21.866  18.851  1.00  0.00     0.032 C 
ENDROOT
BRANCH   1   2
ATOM      2  C   UNL     1      28.345 -20.589  19.581  1.00  0.00    -0.028 C 
ATOM      3  C   UNL     1      27.172 -19.933  19.438  1.00  0.00    -0.077 C 
ATOM      4  C   UNL     1      26.973 -18.647  20.199  1.00  0.00     0.039 C 
BRANCH   3   5
ATOM      5  C   UNL     1      26.044 -20.447  18.561  1.00  0.00     0.034 C 
BRANCH   5   6
ATOM      6  C   UNL     1      24.727 -19.701  18.821  1.00  0.00     0.032 C 
BRANCH   6   7
ATOM      7  C   UNL     1      23.682 -20.600  19.439  1.00  0.00    -0.028 C 
ATOM      8  C   UNL     1      22.023 -21.319  21.128  1.00  0.00     0.039 C 
ATOM      9  C   UNL     1      23.023 -20.330  20.588  1.00  0.00    -0.080 C 
ATOM     10  C   UNL     1      23.209 -19.032  21.334  1.00  0.00     0.039 C 
ENDBRANCH   6   7
ENDBRANCH   5   6
ENDBRANCH   3   5
ENDBRANCH   1   2
BRANCH   1  11
ATOM     11  C   UNL     1      28.705 -23.063  19.808  1.00  0.00     0.034 C 
BRANCH  11  12
ATOM     12  C   UNL     1      27.792 -24.165  19.312  1.00  0.00    -0.077 C 
ATOM     13  C   UNL     1      26.467 -23.920  19.206  1.00  0.00    -0.028 C 
ATOM     14  C   UNL     1      28.390 -25.501  18.937  1.00  0.00     0.039 C 
BRANCH  13  15
ATOM     15  C   UNL     1      25.438 -24.938  18.775  1.00  0.00     0.035 C 
BRANCH  15  16
ATOM     16  C   UNL     1      24.029 -24.333  18.718  1.00  0.00     0.079 C 
BRANCH  16  17
ATOM     17  C   UNL     1      23.499 -24.284  17.310  1.00  0.00     0.130 C 
ATOM     18  O   UNL     1      23.611 -25.261  16.584  1.00  0.00    -0.300 OA
ATOM     19  C   UNL     1      22.822 -23.049  16.796  1.00  0.00     0.087 C 
ENDBRANCH  16  17
ENDBRANCH  15  16
ENDBRANCH  13  15
ENDBRANCH  11  12
ENDBRANCH   1  11
TORSDOF 9
ENDMDL
MODEL 4
REMARK VINA RESULT:    -7.753      3.336      6.297
REMARK INTER + INTRA:         -13.596
REMARK INTER:                 -12.068
REMARK INTRA:                  -1.528
REMARK UNBOUND:                -1.763
REMARK SMILES CC(=O)CCC=C(C)CCC=C(C)CCC=C(C)C
REMARK SMILES IDX 10 1 11 2 12 3 13 4 14 5 15 6 16 7 18 8 17 9 19 10 9 11 7 12
REMARK SMILES IDX 6 13 8 14 5 15 4 16 2 17 3 18 1 19
REMARK H PARENT
REMARK Flexibility Score: inf
ROOT
ATOM      1  C   UNL     1      24.323 -23.885  19.315  1.00  0.00     0.032 C 
ENDROOT
BRANCH   1   2
ATOM      2  C   UNL     1      23.448 -24.757  20.185  1.00  0.00    -0.028 C 
ATOM      3  C   UNL     1      22.692 -24.286  21.200  1.00  0.00    -0.077 C 
ATOM      4  C   UNL     1      21.892 -25.271  22.014  1.00  0.00     0.039 C 
BRANCH   3   5
ATOM      5  C   UNL     1      22.600 -22.808  21.540  1.00  0.00     0.034 C 
BRANCH   5   6
ATOM      6  C   UNL     1      21.480 -22.106  20.757  1.00  0.00     0.032 C 
BRANCH   6   7
ATOM      7  C   UNL     1      21.019 -20.842  21.443  1.00  0.00    -0.028 C 
ATOM      8  C   UNL     1      19.438 -19.037  22.042  1.00  0.00     0.039 C 
ATOM      9  C   UNL     1      19.775 -20.325  21.337  1.00  0.00    -0.080 C 
ATOM     10  C   UNL     1      18.676 -21.025  20.577  1.00  0.00     0.039 C 
ENDBRANCH   6   7
ENDBRANCH   5   6
ENDBRANCH   3   5
ENDBRANCH   1   2
BRANCH   1  11
ATOM     11  C   UNL     1      23.590 -23.465  18.036  1.00  0.00     0.034 C 
BRANCH  11  12
ATOM     12  C   UNL     1      23.711 -21.973  17.809  1.00  0.00    -0.077 C 
ATOM     13  C   UNL     1      24.471 -21.241  18.655  1.00  0.00    -0.028 C 
ATOM     14  C   UNL     1      22.990 -21.347  16.639  1.00  0.00     0.039 C 
BRANCH  13  15
ATOM     15  C   UNL     1      24.639 -19.743  18.579  1.00  0.00     0.035 C 
BRANCH  15  16
ATOM     16  C   UNL     1      24.818 -19.120  19.970  1.00  0.00     0.079 C 
BRANCH  16  17
ATOM     17  C   UNL     1      26.256 -18.769  20.243  1.00  0.00     0.130 C 
ATOM     18  O   UNL     1      26.523 -17.846  20.999  1.00  0.00    -0.300 OA
ATOM     19  C   UNL     1      27.363 -19.553  19.606  1.00  0.00     0.087 C 
ENDBRANCH  16  17
ENDBRANCH  15  16
ENDBRANCH  13  15
ENDBRANCH  11  12
ENDBRANCH   1  11
TORSDOF 9
ENDMDL
MODEL 5
REMARK VINA RESULT:    -7.746      3.158      6.228
REMARK INTER + INTRA:         -13.584
REMARK INTER:                 -11.788
REMARK INTRA:                  -1.796
REMARK UNBOUND:                -1.763
REMARK SMILES CC(=O)CCC=C(C)CCC=C(C)CCC=C(C)C
REMARK SMILES IDX 10 1 11 2 12 3 13 4 14 5 15 6 16 7 18 8 17 9 19 10 9 11 7 12
REMARK SMILES IDX 6 13 8 14 5 15 4 16 2 17 3 18 1 19
REMARK H PARENT
REMARK Flexibility Score: inf
ROOT
ATOM      1  C   UNL     1      22.342 -21.836  16.647  1.00  0.00     0.032 C 
ENDROOT
BRANCH   1   2
ATOM      2  C   UNL     1      23.241 -21.095  15.687  1.00  0.00    -0.028 C 
ATOM      3  C   UNL     1      24.030 -20.058  16.045  1.00  0.00    -0.077 C 
ATOM      4  C   UNL     1      24.853 -19.382  14.978  1.00  0.00     0.039 C 
BRANCH   3   5
ATOM      5  C   UNL     1      24.135 -19.560  17.476  1.00  0.00     0.034 C 
BRANCH   5   6
ATOM      6  C   UNL     1      25.302 -20.218  18.229  1.00  0.00     0.032 C 
BRANCH   6   7
ATOM      7  C   UNL     1      25.845 -19.324  19.318  1.00  0.00    -0.028 C 
ATOM      8  C   UNL     1      27.547 -18.421  20.871  1.00  0.00     0.039 C 
ATOM      9  C   UNL     1      27.125 -19.338  19.752  1.00  0.00    -0.080 C 
ATOM     10  C   UNL     1      28.180 -20.208  19.113  1.00  0.00     0.039 C 
ENDBRANCH   6   7
ENDBRANCH   5   6
ENDBRANCH   3   5
ENDBRANCH   1   2
BRANCH   1  11
ATOM     11  C   UNL     1      23.037 -23.081  17.210  1.00  0.00     0.034 C 
BRANCH  11  12
ATOM     12  C   UNL     1      23.226 -22.963  18.708  1.00  0.00    -0.077 C 
ATOM     13  C   UNL     1      22.385 -22.175  19.415  1.00  0.00    -0.028 C 
ATOM     14  C   UNL     1      24.340 -23.739  19.371  1.00  0.00     0.039 C 
BRANCH  13  15
ATOM     15  C   UNL     1      22.487 -21.926  20.900  1.00  0.00     0.035 C 
BRANCH  15  16
ATOM     16  C   UNL     1      21.235 -21.229  21.447  1.00  0.00     0.079 C 
BRANCH  16  17
ATOM     17  C   UNL     1      21.478 -19.767  21.708  1.00  0.00     0.130 C 
ATOM     18  O   UNL     1      20.568 -19.063  22.120  1.00  0.00    -0.300 OA
ATOM     19  C   UNL     1      22.835 -19.171  21.480  1.00  0.00     0.087 C 
ENDBRANCH  16  17
ENDBRANCH  15  16
ENDBRANCH  13  15
ENDBRANCH  11  12
ENDBRANCH   1  11
TORSDOF 9
ENDMDL
MODEL 6
REMARK VINA RESULT:    -7.736      2.396      5.161
REMARK INTER + INTRA:         -13.570
REMARK INTER:                 -12.225
REMARK INTRA:                  -1.345
REMARK UNBOUND:                -1.763
REMARK SMILES CC(=O)CCC=C(C)CCC=C(C)CCC=C(C)C
REMARK SMILES IDX 10 1 11 2 12 3 13 4 14 5 15 6 16 7 18 8 17 9 19 10 9 11 7 12
REMARK SMILES IDX 6 13 8 14 5 15 4 16 2 17 3 18 1 19
REMARK H PARENT
REMARK Flexibility Score: inf
ROOT
ATOM      1  C   UNL     1      28.393 -22.918  19.921  1.00  0.00     0.032 C 
ENDROOT
BRANCH   1   2
ATOM      2  C   UNL     1      27.940 -24.124  19.133  1.00  0.00    -0.028 C 
ATOM      3  C   UNL     1      26.644 -24.465  18.958  1.00  0.00    -0.077 C 
ATOM      4  C   UNL     1      26.331 -25.716  18.177  1.00  0.00     0.039 C 
BRANCH   3   5
ATOM      5  C   UNL     1      25.496 -23.630  19.497  1.00  0.00     0.034 C 
BRANCH   5   6
ATOM      6  C   UNL     1      24.130 -24.256  19.175  1.00  0.00     0.032 C 
BRANCH   6   7
ATOM      7  C   UNL     1      23.549 -24.984  20.365  1.00  0.00    -0.028 C 
ATOM      8  C   UNL     1      22.277 -25.226  22.473  1.00  0.00     0.039 C 
ATOM      9  C   UNL     1      22.773 -24.407  21.310  1.00  0.00    -0.080 C 
ATOM     10  C   UNL     1      22.331 -22.967  21.218  1.00  0.00     0.039 C 
ENDBRANCH   6   7
ENDBRANCH   5   6
ENDBRANCH   3   5
ENDBRANCH   1   2
BRANCH   1  11
ATOM     11  C   UNL     1      28.837 -21.783  18.992  1.00  0.00     0.034 C 
BRANCH  11  12
ATOM     12  C   UNL     1      28.001 -20.540  19.220  1.00  0.00    -0.077 C 
ATOM     13  C   UNL     1      26.675 -20.586  18.961  1.00  0.00    -0.028 C 
ATOM     14  C   UNL     1      28.671 -19.291  19.742  1.00  0.00     0.039 C 
BRANCH  13  15
ATOM     15  C   UNL     1      25.734 -19.413  19.095  1.00  0.00     0.035 C 
BRANCH  15  16
ATOM     16  C   UNL     1      24.267 -19.843  18.964  1.00  0.00     0.079 C 
BRANCH  16  17
ATOM     17  C   UNL     1      23.922 -20.228  17.550  1.00  0.00     0.130 C 
ATOM     18  O   UNL     1      23.410 -21.315  17.324  1.00  0.00    -0.300 OA
ATOM     19  C   UNL     1      24.189 -19.281  16.419  1.00  0.00     0.087 C 
ENDBRANCH  16  17
ENDBRANCH  15  16
ENDBRANCH  13  15
ENDBRANCH  11  12
ENDBRANCH   1  11
TORSDOF 9
ENDMDL
MODEL 7
REMARK VINA RESULT:    -7.700      2.536      5.511
REMARK INTER + INTRA:         -13.514
REMARK INTER:                 -11.741
REMARK INTRA:                  -1.773
REMARK UNBOUND:                -1.763
REMARK SMILES CC(=O)CCC=C(C)CCC=C(C)CCC=C(C)C
REMARK SMILES IDX 10 1 11 2 12 3 13 4 14 5 15 6 16 7 18 8 17 9 19 10 9 11 7 12
REMARK SMILES IDX 6 13 8 14 5 15 4 16 2 17 3 18 1 19
REMARK H PARENT
REMARK Flexibility Score: inf
ROOT
ATOM      1  C   UNL     1      24.243 -24.152  19.341  1.00  0.00     0.032 C 
ENDROOT
BRANCH   1   2
ATOM      2  C   UNL     1      23.403 -24.965  20.298  1.00  0.00    -0.028 C 
ATOM      3  C   UNL     1      22.713 -24.433  21.330  1.00  0.00    -0.077 C 
ATOM      4  C   UNL     1      21.942 -25.363  22.232  1.00  0.00     0.039 C 
BRANCH   3   5
ATOM      5  C   UNL     1      22.667 -22.940  21.605  1.00  0.00     0.034 C 
BRANCH   5   6
ATOM      6  C   UNL     1      21.495 -22.258  20.882  1.00  0.00     0.032 C 
BRANCH   6   7
ATOM      7  C   UNL     1      21.112 -20.951  21.536  1.00  0.00    -0.028 C 
ATOM      8  C   UNL     1      19.653 -19.026  22.068  1.00  0.00     0.039 C 
ATOM      9  C   UNL     1      19.911 -20.348  21.394  1.00  0.00    -0.080 C 
ATOM     10  C   UNL     1      18.780 -20.981  20.621  1.00  0.00     0.039 C 
ENDBRANCH   6   7
ENDBRANCH   5   6
ENDBRANCH   3   5
ENDBRANCH   1   2
BRANCH   1  11
ATOM     11  C   UNL     1      23.514 -23.934  18.011  1.00  0.00     0.034 C 
BRANCH  11  12
ATOM     12  C   UNL     1      23.240 -22.462  17.780  1.00  0.00    -0.077 C 
ATOM     13  C   UNL     1      24.013 -21.546  18.406  1.00  0.00    -0.028 C 
ATOM     14  C   UNL     1      22.121 -22.060  16.848  1.00  0.00     0.039 C 
BRANCH  13  15
ATOM     15  C   UNL     1      23.822 -20.051  18.308  1.00  0.00     0.035 C 
BRANCH  15  16
ATOM     16  C   UNL     1      24.766 -19.424  17.274  1.00  0.00     0.079 C 
BRANCH  16  17
ATOM     17  C   UNL     1      24.075 -19.188  15.958  1.00  0.00     0.130 C 
ATOM     18  O   UNL     1      23.245 -18.296  15.859  1.00  0.00    -0.300 OA
ATOM     19  C   UNL     1      24.410 -20.029  14.763  1.00  0.00     0.087 C 
ENDBRANCH  16  17
ENDBRANCH  15  16
ENDBRANCH  13  15
ENDBRANCH  11  12
ENDBRANCH   1  11
TORSDOF 9
ENDMDL
MODEL 8
REMARK VINA RESULT:    -7.691      2.569      4.445
REMARK INTER + INTRA:         -13.501
REMARK INTER:                 -12.331
REMARK INTRA:                  -1.171
REMARK UNBOUND:                -1.763
REMARK SMILES CC(=O)CCC=C(C)CCC=C(C)CCC=C(C)C
REMARK SMILES IDX 10 1 11 2 12 3 13 4 14 5 15 6 16 7 18 8 17 9 19 10 9 11 7 12
REMARK SMILES IDX 6 13 8 14 5 15 4 16 2 17 3 18 1 19
REMARK H PARENT
REMARK Flexibility Score: inf
ROOT
ATOM      1  C   UNL     1      18.136 -22.261  19.102  1.00  0.00     0.032 C 
ENDROOT
BRANCH   1   2
ATOM      2  C   UNL     1      18.605 -21.273  20.143  1.00  0.00    -0.028 C 
ATOM      3  C   UNL     1      19.893 -21.146  20.532  1.00  0.00    -0.077 C 
ATOM      4  C   UNL     1      20.221 -20.143  21.609  1.00  0.00     0.039 C 
BRANCH   3   5
ATOM      5  C   UNL     1      21.021 -21.955  19.916  1.00  0.00     0.034 C 
BRANCH   5   6
ATOM      6  C   UNL     1      22.254 -22.012  20.831  1.00  0.00     0.032 C 
BRANCH   6   7
ATOM      7  C   UNL     1      22.251 -23.241  21.708  1.00  0.00    -0.028 C 
ATOM      8  C   UNL     1      22.773 -25.576  22.339  1.00  0.00     0.039 C 
ATOM      9  C   UNL     1      22.873 -24.401  21.400  1.00  0.00    -0.080 C 
ATOM     10  C   UNL     1      23.725 -24.553  20.164  1.00  0.00     0.039 C 
ENDBRANCH   6   7
ENDBRANCH   5   6
ENDBRANCH   3   5
ENDBRANCH   1   2
BRANCH   1  11
ATOM     11  C   UNL     1      17.705 -21.549  17.815  1.00  0.00     0.034 C 
BRANCH  11  12
ATOM     12  C   UNL     1      18.525 -22.025  16.634  1.00  0.00    -0.077 C 
ATOM     13  C   UNL     1      17.892 -22.605  15.588  1.00  0.00    -0.028 C 
ATOM     14  C   UNL     1      20.023 -21.827  16.651  1.00  0.00     0.039 C 
BRANCH  13  15
ATOM     15  C   UNL     1      18.586 -23.169  14.372  1.00  0.00     0.035 C 
BRANCH  15  16
ATOM     16  C   UNL     1      18.464 -24.697  14.307  1.00  0.00     0.079 C 
BRANCH  16  17
ATOM     17  C   UNL     1      19.813 -25.364  14.267  1.00  0.00     0.130 C 
ATOM     18  O   UNL     1      19.934 -26.460  13.740  1.00  0.00    -0.300 OA
ATOM     19  C   UNL     1      21.013 -24.685  14.857  1.00  0.00     0.087 C 
ENDBRANCH  16  17
ENDBRANCH  15  16
ENDBRANCH  13  15
ENDBRANCH  11  12
ENDBRANCH   1  11
TORSDOF 9
ENDMDL
MODEL 9
REMARK VINA RESULT:    -7.563      3.174      4.269
REMARK INTER + INTRA:         -13.305
REMARK INTER:                 -11.596
REMARK INTRA:                  -1.709
REMARK UNBOUND:                -1.763
REMARK SMILES CC(=O)CCC=C(C)CCC=C(C)CCC=C(C)C
REMARK SMILES IDX 10 1 11 2 12 3 13 4 14 5 15 6 16 7 18 8 17 9 19 10 9 11 7 12
REMARK SMILES IDX 6 13 8 14 5 15 4 16 2 17 3 18 1 19
REMARK H PARENT
REMARK Flexibility Score: inf
ROOT
ATOM      1  C   UNL     1      21.916 -21.891  20.383  1.00  0.00     0.032 C 
ENDROOT
BRANCH   1   2
ATOM      2  C   UNL     1      22.186 -23.068  21.290  1.00  0.00    -0.028 C 
ATOM      3  C   UNL     1      22.854 -24.177  20.903  1.00  0.00    -0.077 C 
ATOM      4  C   UNL     1      23.025 -25.295  21.900  1.00  0.00     0.039 C 
BRANCH   3   5
ATOM      5  C   UNL     1      23.456 -24.332  19.517  1.00  0.00     0.034 C 
BRANCH   5   6
ATOM      6  C   UNL     1      24.947 -23.963  19.493  1.00  0.00     0.032 C 
BRANCH   6   7
ATOM      7  C   UNL     1      25.762 -24.961  18.704  1.00  0.00    -0.028 C 
ATOM      8  C   UNL     1      27.820 -26.052  17.870  1.00  0.00     0.039 C 
ATOM      9  C   UNL     1      27.111 -25.035  18.726  1.00  0.00    -0.080 C 
ATOM     10  C   UNL     1      27.948 -24.164  19.630  1.00  0.00     0.039 C 
ENDBRANCH   6   7
ENDBRANCH   5   6
ENDBRANCH   3   5
ENDBRANCH   1   2
BRANCH   1  11
ATOM     11  C   UNL     1      22.149 -20.563  21.112  1.00  0.00     0.034 C 
BRANCH  11  12
ATOM     12  C   UNL     1      23.332 -19.824  20.523  1.00  0.00    -0.077 C 
ATOM     13  C   UNL     1      23.875 -20.271  19.367  1.00  0.00    -0.028 C 
ATOM     14  C   UNL     1      23.864 -18.603  21.235  1.00  0.00     0.039 C 
BRANCH  13  15
ATOM     15  C   UNL     1      25.084 -19.665  18.696  1.00  0.00     0.035 C 
BRANCH  15  16
ATOM     16  C   UNL     1      26.268 -20.641  18.670  1.00  0.00     0.079 C 
BRANCH  16  17
ATOM     17  C   UNL     1      27.461 -20.091  19.404  1.00  0.00     0.130 C 
ATOM     18  O   UNL     1      28.525 -20.692  19.371  1.00  0.00    -0.300 OA
ATOM     19  C   UNL     1      27.358 -18.802  20.163  1.00  0.00     0.087 C 
ENDBRANCH  16  17
ENDBRANCH  15  16
ENDBRANCH  13  15
ENDBRANCH  11  12
ENDBRANCH   1  11
TORSDOF 9
ENDMDL
