MODEL 1
REMARK VINA RESULT:    -4.882      0.000      0.000
REMARK INTER + INTRA:         -13.130
REMARK INTER:                 -10.589
REMARK INTRA:                  -2.541
REMARK UNBOUND:                -2.541
REMARK SMILES CCCCCCCCCCCCCCCCCCCCCC(=O)[O-]
REMARK SMILES IDX 12 1 11 2 10 3 9 4 8 5 7 6 6 7 5 8 4 9 3 10 2 11 1 12 13 13
REMARK SMILES IDX 14 14 15 15 16 16 17 17 18 18 19 19 20 20 21 21 22 22 23 23
REMARK SMILES IDX 24 24
REMARK H PARENT
REMARK Flexibility Score: inf
ROOT
ATOM      1  C   UNL     1       7.037  -1.882  51.388  1.00  0.00     0.000 C 
ENDROOT
BRANCH   1   2
ATOM      2  C   UNL     1       5.747  -2.470  50.776  1.00  0.00     0.000 C 
BRANCH   2   3
ATOM      3  C   UNL     1       5.783  -3.986  50.508  1.00  0.00     0.000 C 
BRANCH   3   4
ATOM      4  C   UNL     1       5.313  -4.408  49.102  1.00  0.00    -0.000 C 
BRANCH   4   5
ATOM      5  C   UNL     1       4.647  -3.268  48.303  1.00  0.00    -0.000 C 
BRANCH   5   6
ATOM      6  C   UNL     1       5.559  -2.717  47.197  1.00  0.00    -0.000 C 
BRANCH   6   7
ATOM      7  C   UNL     1       5.820  -1.217  47.395  1.00  0.00    -0.000 C 
BRANCH   7   8
ATOM      8  C   UNL     1       7.311  -0.889  47.590  1.00  0.00    -0.000 C 
BRANCH   8   9
ATOM      9  C   UNL     1       8.281  -2.047  47.278  1.00  0.00    -0.000 C 
BRANCH   9  10
ATOM     10  C   UNL     1       9.374  -2.289  48.338  1.00  0.00    -0.000 C 
BRANCH  10  11
ATOM     11  C   UNL     1       9.347  -3.684  48.985  1.00  0.00    -0.003 C 
ATOM     12  C   UNL     1       8.756  -4.754  48.068  1.00  0.00     0.004 C 
ENDBRANCH  10  11
ENDBRANCH   9  10
ENDBRANCH   8   9
ENDBRANCH   7   8
ENDBRANCH   6   7
ENDBRANCH   5   6
ENDBRANCH   4   5
ENDBRANCH   3   4
ENDBRANCH   2   3
ENDBRANCH   1   2
BRANCH   1  13
ATOM     13  C   UNL     1       6.822  -0.706  52.357  1.00  0.00     0.000 C 
BRANCH  13  14
ATOM     14  C   UNL     1       7.792  -0.723  53.547  1.00  0.00     0.000 C 
BRANCH  14  15
ATOM     15  C   UNL     1       8.138   0.703  53.994  1.00  0.00     0.000 C 
BRANCH  15  16
ATOM     16  C   UNL     1       9.237   0.693  55.067  1.00  0.00     0.000 C 
BRANCH  16  17
ATOM     17  C   UNL     1      10.327   1.746  54.805  1.00  0.00     0.000 C 
BRANCH  17  18
ATOM     18  C   UNL     1       9.966   2.695  53.648  1.00  0.00     0.000 C 
BRANCH  18  19
ATOM     19  C   UNL     1      10.223   4.170  53.995  1.00  0.00     0.000 C 
BRANCH  19  20
ATOM     20  C   UNL     1       8.965   5.041  53.836  1.00  0.00     0.006 C 
BRANCH  20  21
ATOM     21  C   UNL     1       7.777   4.250  53.272  1.00  0.00     0.053 C 
BRANCH  21  22
ATOM     22  C   UNL     1       6.565   5.113  53.097  1.00  0.00     0.041 C 
ATOM     23  O   UNL     1       5.475   4.606  52.721  1.00  0.00    -0.550 OA
ATOM     24  O   UNL     1       6.630   6.472  53.378  1.00  0.00    -0.550 OA
ENDBRANCH  21  22
ENDBRANCH  20  21
ENDBRANCH  19  20
ENDBRANCH  18  19
ENDBRANCH  17  18
ENDBRANCH  16  17
ENDBRANCH  15  16
ENDBRANCH  14  15
ENDBRANCH  13  14
ENDBRANCH   1  13
TORSDOF 20
ENDMDL
MODEL 2
REMARK VINA RESULT:    -4.873      2.583      8.046
REMARK INTER + INTRA:         -13.111
REMARK INTER:                 -10.943
REMARK INTRA:                  -2.168
REMARK UNBOUND:                -2.541
REMARK SMILES CCCCCCCCCCCCCCCCCCCCCC(=O)[O-]
REMARK SMILES IDX 12 1 11 2 10 3 9 4 8 5 7 6 6 7 5 8 4 9 3 10 2 11 1 12 13 13
REMARK SMILES IDX 14 14 15 15 16 16 17 17 18 18 19 19 20 20 21 21 22 22 23 23
REMARK SMILES IDX 24 24
REMARK H PARENT
REMARK Flexibility Score: inf
ROOT
ATOM      1  C   UNL     1       5.826  -1.637  50.492  1.00  0.00     0.000 C 
ENDROOT
BRANCH   1   2
ATOM      2  C   UNL     1       6.914  -1.728  51.584  1.00  0.00     0.000 C 
BRANCH   2   3
ATOM      3  C   UNL     1       6.770  -0.717  52.736  1.00  0.00     0.000 C 
BRANCH   3   4
ATOM      4  C   UNL     1       8.049  -0.492  53.566  1.00  0.00    -0.000 C 
BRANCH   4   5
ATOM      5  C   UNL     1       8.098   0.881  54.271  1.00  0.00    -0.000 C 
BRANCH   5   6
ATOM      6  C   UNL     1       9.252   0.982  55.278  1.00  0.00    -0.000 C 
BRANCH   6   7
ATOM      7  C   UNL     1      10.182   2.155  54.935  1.00  0.00    -0.000 C 
BRANCH   7   8
ATOM      8  C   UNL     1       9.765   2.893  53.650  1.00  0.00    -0.000 C 
BRANCH   8   9
ATOM      9  C   UNL     1       9.248   4.331  53.861  1.00  0.00    -0.000 C 
BRANCH   9  10
ATOM     10  C   UNL     1       8.255   4.832  52.793  1.00  0.00    -0.000 C 
BRANCH  10  11
ATOM     11  C   UNL     1       6.905   5.321  53.344  1.00  0.00    -0.003 C 
ATOM     12  C   UNL     1       5.715   4.548  52.776  1.00  0.00     0.004 C 
ENDBRANCH  10  11
ENDBRANCH   9  10
ENDBRANCH   8   9
ENDBRANCH   7   8
ENDBRANCH   6   7
ENDBRANCH   5   6
ENDBRANCH   4   5
ENDBRANCH   3   4
ENDBRANCH   2   3
ENDBRANCH   1   2
BRANCH   1  13
ATOM     13  C   UNL     1       5.440  -2.977  49.842  1.00  0.00     0.000 C 
BRANCH  13  14
ATOM     14  C   UNL     1       5.322  -4.125  50.855  1.00  0.00     0.000 C 
BRANCH  14  15
ATOM     15  C   UNL     1       6.267  -5.277  50.491  1.00  0.00     0.000 C 
BRANCH  15  16
ATOM     16  C   UNL     1       6.973  -5.009  49.153  1.00  0.00     0.000 C 
BRANCH  16  17
ATOM     17  C   UNL     1       8.502  -4.935  49.298  1.00  0.00     0.000 C 
BRANCH  17  18
ATOM     18  C   UNL     1       9.165  -4.142  48.157  1.00  0.00     0.000 C 
BRANCH  18  19
ATOM     19  C   UNL     1       9.579  -2.726  48.588  1.00  0.00     0.000 C 
BRANCH  19  20
ATOM     20  C   UNL     1       8.525  -1.666  48.222  1.00  0.00     0.006 C 
BRANCH  20  21
ATOM     21  C   UNL     1       7.825  -1.978  46.893  1.00  0.00     0.053 C 
BRANCH  21  22
ATOM     22  C   UNL     1       6.573  -1.173  46.719  1.00  0.00     0.041 C 
ATOM     23  O   UNL     1       6.616   0.084  46.771  1.00  0.00    -0.550 OA
ATOM     24  O   UNL     1       5.364  -1.811  46.472  1.00  0.00    -0.550 OA
ENDBRANCH  21  22
ENDBRANCH  20  21
ENDBRANCH  19  20
ENDBRANCH  18  19
ENDBRANCH  17  18
ENDBRANCH  16  17
ENDBRANCH  15  16
ENDBRANCH  14  15
ENDBRANCH  13  14
ENDBRANCH   1  13
TORSDOF 20
ENDMDL
MODEL 3
REMARK VINA RESULT:    -4.713      0.777      2.165
REMARK INTER + INTRA:         -12.764
REMARK INTER:                 -10.349
REMARK INTRA:                  -2.415
REMARK UNBOUND:                -2.541
REMARK SMILES CCCCCCCCCCCCCCCCCCCCCC(=O)[O-]
REMARK SMILES IDX 12 1 11 2 10 3 9 4 8 5 7 6 6 7 5 8 4 9 3 10 2 11 1 12 13 13
REMARK SMILES IDX 14 14 15 15 16 16 17 17 18 18 19 19 20 20 21 21 22 22 23 23
REMARK SMILES IDX 24 24
REMARK H PARENT
REMARK Flexibility Score: inf
ROOT
ATOM      1  C   UNL     1       6.965  -1.707  51.146  1.00  0.00     0.000 C 
ENDROOT
BRANCH   1   2
ATOM      2  C   UNL     1       5.766  -2.365  50.431  1.00  0.00     0.000 C 
BRANCH   2   3
ATOM      3  C   UNL     1       5.842  -3.898  50.304  1.00  0.00     0.000 C 
BRANCH   3   4
ATOM      4  C   UNL     1       5.747  -4.435  48.863  1.00  0.00    -0.000 C 
BRANCH   4   5
ATOM      5  C   UNL     1       6.999  -5.214  48.407  1.00  0.00    -0.000 C 
BRANCH   5   6
ATOM      6  C   UNL     1       8.250  -4.838  49.215  1.00  0.00    -0.000 C 
BRANCH   6   7
ATOM      7  C   UNL     1       9.301  -4.163  48.322  1.00  0.00    -0.000 C 
BRANCH   7   8
ATOM      8  C   UNL     1       9.183  -2.629  48.311  1.00  0.00    -0.000 C 
BRANCH   8   9
ATOM      9  C   UNL     1       8.304  -2.048  47.185  1.00  0.00    -0.000 C 
BRANCH   9  10
ATOM     10  C   UNL     1       7.470  -0.812  47.577  1.00  0.00    -0.000 C 
BRANCH  10  11
ATOM     11  C   UNL     1       6.238  -0.557  46.692  1.00  0.00    -0.003 C 
ATOM     12  C   UNL     1       5.640  -1.843  46.120  1.00  0.00     0.004 C 
ENDBRANCH  10  11
ENDBRANCH   9  10
ENDBRANCH   8   9
ENDBRANCH   7   8
ENDBRANCH   6   7
ENDBRANCH   5   6
ENDBRANCH   4   5
ENDBRANCH   3   4
ENDBRANCH   2   3
ENDBRANCH   1   2
BRANCH   1  13
ATOM     13  C   UNL     1       6.606  -0.864  52.383  1.00  0.00     0.000 C 
BRANCH  13  14
ATOM     14  C   UNL     1       7.761  -0.749  53.388  1.00  0.00     0.000 C 
BRANCH  14  15
ATOM     15  C   UNL     1       7.925   0.697  53.873  1.00  0.00     0.000 C 
BRANCH  15  16
ATOM     16  C   UNL     1       8.825   0.764  55.116  1.00  0.00     0.000 C 
BRANCH  16  17
ATOM     17  C   UNL     1       9.516   2.129  55.271  1.00  0.00     0.000 C 
BRANCH  17  18
ATOM     18  C   UNL     1       9.979   2.713  53.924  1.00  0.00     0.000 C 
BRANCH  18  19
ATOM     19  C   UNL     1      10.228   4.228  53.995  1.00  0.00     0.000 C 
BRANCH  19  20
ATOM     20  C   UNL     1       8.949   5.048  53.756  1.00  0.00     0.006 C 
BRANCH  20  21
ATOM     21  C   UNL     1       8.092   4.471  52.622  1.00  0.00     0.053 C 
BRANCH  21  22
ATOM     22  C   UNL     1       6.632   4.499  52.956  1.00  0.00     0.041 C 
ATOM     23  O   UNL     1       5.963   3.432  52.963  1.00  0.00    -0.550 OA
ATOM     24  O   UNL     1       6.015   5.699  53.288  1.00  0.00    -0.550 OA
ENDBRANCH  21  22
ENDBRANCH  20  21
ENDBRANCH  19  20
ENDBRANCH  18  19
ENDBRANCH  17  18
ENDBRANCH  16  17
ENDBRANCH  15  16
ENDBRANCH  14  15
ENDBRANCH  13  14
ENDBRANCH   1  13
TORSDOF 20
ENDMDL
MODEL 4
REMARK VINA RESULT:    -4.673      2.970      8.680
REMARK INTER + INTRA:         -12.677
REMARK INTER:                 -10.525
REMARK INTRA:                  -2.152
REMARK UNBOUND:                -2.541
REMARK SMILES CCCCCCCCCCCCCCCCCCCCCC(=O)[O-]
REMARK SMILES IDX 12 1 11 2 10 3 9 4 8 5 7 6 6 7 5 8 4 9 3 10 2 11 1 12 13 13
REMARK SMILES IDX 14 14 15 15 16 16 17 17 18 18 19 19 20 20 21 21 22 22 23 23
REMARK SMILES IDX 24 24
REMARK H PARENT
REMARK Flexibility Score: inf
ROOT
ATOM      1  C   UNL     1       6.634  -0.777  52.353  1.00  0.00     0.000 C 
ENDROOT
BRANCH   1   2
ATOM      2  C   UNL     1       7.758  -0.746  53.410  1.00  0.00     0.000 C 
BRANCH   2   3
ATOM      3  C   UNL     1       8.138   0.657  53.920  1.00  0.00     0.000 C 
BRANCH   3   4
ATOM      4  C   UNL     1       8.964   0.673  55.220  1.00  0.00    -0.000 C 
BRANCH   4   5
ATOM      5  C   UNL     1      10.292   1.451  55.102  1.00  0.00    -0.000 C 
BRANCH   5   6
ATOM      6  C   UNL     1      10.295   2.736  55.942  1.00  0.00    -0.000 C 
BRANCH   6   7
ATOM      7  C   UNL     1      10.527   3.971  55.059  1.00  0.00    -0.000 C 
BRANCH   7   8
ATOM      8  C   UNL     1      10.595   3.632  53.560  1.00  0.00    -0.000 C 
BRANCH   8   9
ATOM      9  C   UNL     1       9.343   4.017  52.746  1.00  0.00    -0.000 C 
BRANCH   9  10
ATOM     10  C   UNL     1       8.270   4.800  53.528  1.00  0.00    -0.000 C 
BRANCH  10  11
ATOM     11  C   UNL     1       6.915   4.083  53.659  1.00  0.00    -0.003 C 
ATOM     12  C   UNL     1       5.840   4.672  52.745  1.00  0.00     0.004 C 
ENDBRANCH  10  11
ENDBRANCH   9  10
ENDBRANCH   8   9
ENDBRANCH   7   8
ENDBRANCH   6   7
ENDBRANCH   5   6
ENDBRANCH   4   5
ENDBRANCH   3   4
ENDBRANCH   2   3
ENDBRANCH   1   2
BRANCH   1  13
ATOM     13  C   UNL     1       6.717  -1.936  51.345  1.00  0.00     0.000 C 
BRANCH  13  14
ATOM     14  C   UNL     1       5.536  -1.966  50.364  1.00  0.00     0.000 C 
BRANCH  14  15
ATOM     15  C   UNL     1       5.212  -3.403  49.937  1.00  0.00     0.000 C 
BRANCH  15  16
ATOM     16  C   UNL     1       4.435  -3.424  48.612  1.00  0.00     0.000 C 
BRANCH  16  17
ATOM     17  C   UNL     1       5.343  -3.693  47.400  1.00  0.00     0.000 C 
BRANCH  17  18
ATOM     18  C   UNL     1       5.163  -2.648  46.284  1.00  0.00     0.000 C 
BRANCH  18  19
ATOM     19  C   UNL     1       5.785  -1.289  46.643  1.00  0.00     0.000 C 
BRANCH  19  20
ATOM     20  C   UNL     1       7.319  -1.293  46.524  1.00  0.00     0.006 C 
BRANCH  20  21
ATOM     21  C   UNL     1       8.009  -1.280  47.894  1.00  0.00     0.053 C 
BRANCH  21  22
ATOM     22  C   UNL     1       8.941  -2.442  48.060  1.00  0.00     0.041 C 
ATOM     23  O   UNL     1       8.775  -3.489  47.381  1.00  0.00    -0.550 OA
ATOM     24  O   UNL     1      10.011  -2.357  48.943  1.00  0.00    -0.550 OA
ENDBRANCH  21  22
ENDBRANCH  20  21
ENDBRANCH  19  20
ENDBRANCH  18  19
ENDBRANCH  17  18
ENDBRANCH  16  17
ENDBRANCH  15  16
ENDBRANCH  14  15
ENDBRANCH  13  14
ENDBRANCH   1  13
TORSDOF 20
ENDMDL
MODEL 5
REMARK VINA RESULT:    -4.543      2.007      3.038
REMARK INTER + INTRA:         -12.395
REMARK INTER:                  -9.775
REMARK INTRA:                  -2.620
REMARK UNBOUND:                -2.541
REMARK SMILES CCCCCCCCCCCCCCCCCCCCCC(=O)[O-]
REMARK SMILES IDX 12 1 11 2 10 3 9 4 8 5 7 6 6 7 5 8 4 9 3 10 2 11 1 12 13 13
REMARK SMILES IDX 14 14 15 15 16 16 17 17 18 18 19 19 20 20 21 21 22 22 23 23
REMARK SMILES IDX 24 24
REMARK H PARENT
REMARK Flexibility Score: inf
ROOT
ATOM      1  C   UNL     1       5.685  -1.632  50.728  1.00  0.00     0.000 C 
ENDROOT
BRANCH   1   2
ATOM      2  C   UNL     1       5.240  -2.959  50.075  1.00  0.00     0.000 C 
BRANCH   2   3
ATOM      3  C   UNL     1       5.714  -4.234  50.796  1.00  0.00     0.000 C 
BRANCH   3   4
ATOM      4  C   UNL     1       6.612  -5.160  49.953  1.00  0.00    -0.000 C 
BRANCH   4   5
ATOM      5  C   UNL     1       6.576  -4.851  48.441  1.00  0.00    -0.000 C 
BRANCH   5   6
ATOM      6  C   UNL     1       7.979  -4.651  47.850  1.00  0.00    -0.000 C 
BRANCH   6   7
ATOM      7  C   UNL     1       8.861  -3.820  48.793  1.00  0.00    -0.000 C 
BRANCH   7   8
ATOM      8  C   UNL     1       8.898  -2.327  48.420  1.00  0.00    -0.000 C 
BRANCH   8   9
ATOM      9  C   UNL     1       8.193  -1.967  47.096  1.00  0.00    -0.000 C 
BRANCH   9  10
ATOM     10  C   UNL     1       7.363  -0.668  47.130  1.00  0.00    -0.000 C 
BRANCH  10  11
ATOM     11  C   UNL     1       5.839  -0.876  47.138  1.00  0.00    -0.003 C 
ATOM     12  C   UNL     1       5.375  -1.916  46.119  1.00  0.00     0.004 C 
ENDBRANCH  10  11
ENDBRANCH   9  10
ENDBRANCH   8   9
ENDBRANCH   7   8
ENDBRANCH   6   7
ENDBRANCH   5   6
ENDBRANCH   4   5
ENDBRANCH   3   4
ENDBRANCH   2   3
ENDBRANCH   1   2
BRANCH   1  13
ATOM     13  C   UNL     1       7.108  -1.638  51.314  1.00  0.00     0.000 C 
BRANCH  13  14
ATOM     14  C   UNL     1       7.133  -1.411  52.833  1.00  0.00     0.000 C 
BRANCH  14  15
ATOM     15  C   UNL     1       7.364   0.069  53.163  1.00  0.00     0.000 C 
BRANCH  15  16
ATOM     16  C   UNL     1       8.457   0.233  54.229  1.00  0.00     0.000 C 
BRANCH  16  17
ATOM     17  C   UNL     1       9.067   1.644  54.237  1.00  0.00     0.000 C 
BRANCH  17  18
ATOM     18  C   UNL     1       8.038   2.732  54.596  1.00  0.00     0.000 C 
BRANCH  18  19
ATOM     19  C   UNL     1       7.817   3.733  53.451  1.00  0.00     0.000 C 
BRANCH  19  20
ATOM     20  C   UNL     1       9.104   4.483  53.066  1.00  0.00     0.006 C 
BRANCH  20  21
ATOM     21  C   UNL     1       9.632   5.356  54.212  1.00  0.00     0.053 C 
BRANCH  21  22
ATOM     22  C   UNL     1      11.031   4.984  54.598  1.00  0.00     0.041 C 
ATOM     23  O   UNL     1      11.233   4.126  55.497  1.00  0.00    -0.550 OA
ATOM     24  O   UNL     1      12.112   5.563  53.944  1.00  0.00    -0.550 OA
ENDBRANCH  21  22
ENDBRANCH  20  21
ENDBRANCH  19  20
ENDBRANCH  18  19
ENDBRANCH  17  18
ENDBRANCH  16  17
ENDBRANCH  15  16
ENDBRANCH  14  15
ENDBRANCH  13  14
ENDBRANCH   1  13
TORSDOF 20
ENDMDL
MODEL 6
REMARK VINA RESULT:    -4.486      2.281      2.470
REMARK INTER + INTRA:         -12.273
REMARK INTER:                  -9.890
REMARK INTRA:                  -2.383
REMARK UNBOUND:                -2.541
REMARK SMILES CCCCCCCCCCCCCCCCCCCCCC(=O)[O-]
REMARK SMILES IDX 12 1 11 2 10 3 9 4 8 5 7 6 6 7 5 8 4 9 3 10 2 11 1 12 13 13
REMARK SMILES IDX 14 14 15 15 16 16 17 17 18 18 19 19 20 20 21 21 22 22 23 23
REMARK SMILES IDX 24 24
REMARK H PARENT
REMARK Flexibility Score: inf
ROOT
ATOM      1  C   UNL     1       7.191  -1.636  51.435  1.00  0.00     0.000 C 
ENDROOT
BRANCH   1   2
ATOM      2  C   UNL     1       5.819  -1.867  50.768  1.00  0.00     0.000 C 
BRANCH   2   3
ATOM      3  C   UNL     1       5.635  -3.247  50.111  1.00  0.00     0.000 C 
BRANCH   3   4
ATOM      4  C   UNL     1       4.701  -3.264  48.885  1.00  0.00    -0.000 C 
BRANCH   4   5
ATOM      5  C   UNL     1       5.390  -3.734  47.586  1.00  0.00    -0.000 C 
BRANCH   5   6
ATOM      6  C   UNL     1       5.316  -2.683  46.470  1.00  0.00    -0.000 C 
BRANCH   6   7
ATOM      7  C   UNL     1       5.656  -1.285  47.006  1.00  0.00    -0.000 C 
BRANCH   7   8
ATOM      8  C   UNL     1       7.129  -0.900  46.785  1.00  0.00    -0.000 C 
BRANCH   8   9
ATOM      9  C   UNL     1       8.084  -1.277  47.935  1.00  0.00    -0.000 C 
BRANCH   9  10
ATOM     10  C   UNL     1       8.991  -2.494  47.660  1.00  0.00    -0.000 C 
BRANCH  10  11
ATOM     11  C   UNL     1       9.391  -3.297  48.909  1.00  0.00    -0.003 C 
ATOM     12  C   UNL     1       8.813  -4.712  48.917  1.00  0.00     0.004 C 
ENDBRANCH  10  11
ENDBRANCH   9  10
ENDBRANCH   8   9
ENDBRANCH   7   8
ENDBRANCH   6   7
ENDBRANCH   5   6
ENDBRANCH   4   5
ENDBRANCH   3   4
ENDBRANCH   2   3
ENDBRANCH   1   2
BRANCH   1  13
ATOM     13  C   UNL     1       7.136  -1.239  52.921  1.00  0.00     0.000 C 
BRANCH  13  14
ATOM     14  C   UNL     1       7.393   0.257  53.153  1.00  0.00     0.000 C 
BRANCH  14  15
ATOM     15  C   UNL     1       8.421   0.471  54.271  1.00  0.00     0.000 C 
BRANCH  15  16
ATOM     16  C   UNL     1       8.294   1.877  54.876  1.00  0.00     0.000 C 
BRANCH  16  17
ATOM     17  C   UNL     1       7.482   2.832  53.985  1.00  0.00     0.000 C 
BRANCH  17  18
ATOM     18  C   UNL     1       8.191   4.181  53.764  1.00  0.00     0.000 C 
BRANCH  18  19
ATOM     19  C   UNL     1       9.119   4.164  52.540  1.00  0.00     0.000 C 
BRANCH  19  20
ATOM     20  C   UNL     1       8.554   4.973  51.359  1.00  0.00     0.006 C 
BRANCH  20  21
ATOM     21  C   UNL     1       9.657   5.483  50.423  1.00  0.00     0.053 C 
BRANCH  21  22
ATOM     22  C   UNL     1       9.466   4.996  49.019  1.00  0.00     0.041 C 
ATOM     23  O   UNL     1      10.150   4.032  48.584  1.00  0.00    -0.550 OA
ATOM     24  O   UNL     1       8.513   5.589  48.199  1.00  0.00    -0.550 OA
ENDBRANCH  21  22
ENDBRANCH  20  21
ENDBRANCH  19  20
ENDBRANCH  18  19
ENDBRANCH  17  18
ENDBRANCH  16  17
ENDBRANCH  15  16
ENDBRANCH  14  15
ENDBRANCH  13  14
ENDBRANCH   1  13
TORSDOF 20
ENDMDL
MODEL 7
REMARK VINA RESULT:    -4.471      1.223      3.098
REMARK INTER + INTRA:         -12.239
REMARK INTER:                  -9.587
REMARK INTRA:                  -2.652
REMARK UNBOUND:                -2.541
REMARK SMILES CCCCCCCCCCCCCCCCCCCCCC(=O)[O-]
REMARK SMILES IDX 12 1 11 2 10 3 9 4 8 5 7 6 6 7 5 8 4 9 3 10 2 11 1 12 13 13
REMARK SMILES IDX 14 14 15 15 16 16 17 17 18 18 19 19 20 20 21 21 22 22 23 23
REMARK SMILES IDX 24 24
REMARK H PARENT
REMARK Flexibility Score: inf
ROOT
ATOM      1  C   UNL     1       7.823  -2.342  50.140  1.00  0.00     0.000 C 
ENDROOT
BRANCH   1   2
ATOM      2  C   UNL     1       8.203  -3.617  49.356  1.00  0.00     0.000 C 
BRANCH   2   3
ATOM      3  C   UNL     1       8.686  -3.378  47.914  1.00  0.00     0.000 C 
BRANCH   3   4
ATOM      4  C   UNL     1       8.470  -1.946  47.386  1.00  0.00    -0.000 C 
BRANCH   4   5
ATOM      5  C   UNL     1       7.307  -1.825  46.379  1.00  0.00    -0.000 C 
BRANCH   5   6
ATOM      6  C   UNL     1       6.082  -1.121  46.980  1.00  0.00    -0.000 C 
BRANCH   6   7
ATOM      7  C   UNL     1       4.981  -2.134  47.326  1.00  0.00    -0.000 C 
BRANCH   7   8
ATOM      8  C   UNL     1       5.277  -3.547  46.794  1.00  0.00    -0.000 C 
BRANCH   8   9
ATOM      9  C   UNL     1       4.852  -4.699  47.727  1.00  0.00    -0.000 C 
BRANCH   9  10
ATOM     10  C   UNL     1       3.900  -4.297  48.871  1.00  0.00    -0.000 C 
BRANCH  10  11
ATOM     11  C   UNL     1       3.942  -5.220  50.101  1.00  0.00    -0.003 C 
ATOM     12  C   UNL     1       5.347  -5.735  50.410  1.00  0.00     0.004 C 
ENDBRANCH  10  11
ENDBRANCH   9  10
ENDBRANCH   8   9
ENDBRANCH   7   8
ENDBRANCH   6   7
ENDBRANCH   5   6
ENDBRANCH   4   5
ENDBRANCH   3   4
ENDBRANCH   2   3
ENDBRANCH   1   2
BRANCH   1  13
ATOM     13  C   UNL     1       6.339  -2.233  50.531  1.00  0.00     0.000 C 
BRANCH  13  14
ATOM     14  C   UNL     1       6.104  -1.342  51.759  1.00  0.00     0.000 C 
BRANCH  14  15
ATOM     15  C   UNL     1       7.376  -1.237  52.611  1.00  0.00     0.000 C 
BRANCH  15  16
ATOM     16  C   UNL     1       7.472   0.137  53.291  1.00  0.00     0.000 C 
BRANCH  16  17
ATOM     17  C   UNL     1       8.571   0.188  54.366  1.00  0.00     0.000 C 
BRANCH  17  18
ATOM     18  C   UNL     1       8.856   1.620  54.852  1.00  0.00     0.000 C 
BRANCH  18  19
ATOM     19  C   UNL     1       9.885   2.346  53.972  1.00  0.00     0.000 C 
BRANCH  19  20
ATOM     20  C   UNL     1       9.583   3.848  53.827  1.00  0.00     0.006 C 
BRANCH  20  21
ATOM     21  C   UNL     1       8.092   4.161  54.010  1.00  0.00     0.053 C 
BRANCH  21  22
ATOM     22  C   UNL     1       7.412   4.420  52.700  1.00  0.00     0.041 C 
ATOM     23  O   UNL     1       6.161   4.316  52.604  1.00  0.00    -0.550 OA
ATOM     24  O   UNL     1       8.157   4.806  51.592  1.00  0.00    -0.550 OA
ENDBRANCH  21  22
ENDBRANCH  20  21
ENDBRANCH  19  20
ENDBRANCH  18  19
ENDBRANCH  17  18
ENDBRANCH  16  17
ENDBRANCH  15  16
ENDBRANCH  14  15
ENDBRANCH  13  14
ENDBRANCH   1  13
TORSDOF 20
ENDMDL
MODEL 8
REMARK VINA RESULT:    -4.466     10.870     14.621
REMARK INTER + INTRA:         -12.228
REMARK INTER:                 -10.463
REMARK INTRA:                  -1.765
REMARK UNBOUND:                -2.541
REMARK SMILES CCCCCCCCCCCCCCCCCCCCCC(=O)[O-]
REMARK SMILES IDX 12 1 11 2 10 3 9 4 8 5 7 6 6 7 5 8 4 9 3 10 2 11 1 12 13 13
REMARK SMILES IDX 14 14 15 15 16 16 17 17 18 18 19 19 20 20 21 21 22 22 23 23
REMARK SMILES IDX 24 24
REMARK H PARENT
REMARK Flexibility Score: inf
ROOT
ATOM      1  C   UNL     1       1.893  10.452  46.973  1.00  0.00     0.000 C 
ENDROOT
BRANCH   1   2
ATOM      2  C   UNL     1       1.534  11.344  48.181  1.00  0.00     0.000 C 
BRANCH   2   3
ATOM      3  C   UNL     1       2.557  11.329  49.331  1.00  0.00     0.000 C 
BRANCH   3   4
ATOM      4  C   UNL     1       3.227  12.686  49.622  1.00  0.00    -0.000 C 
BRANCH   4   5
ATOM      5  C   UNL     1       4.744  12.702  49.343  1.00  0.00    -0.000 C 
BRANCH   5   6
ATOM      6  C   UNL     1       5.077  13.227  47.939  1.00  0.00    -0.000 C 
BRANCH   6   7
ATOM      7  C   UNL     1       5.214  12.072  46.937  1.00  0.00    -0.000 C 
BRANCH   7   8
ATOM      8  C   UNL     1       5.815  10.802  47.565  1.00  0.00    -0.000 C 
BRANCH   8   9
ATOM      9  C   UNL     1       7.313  10.577  47.277  1.00  0.00    -0.000 C 
BRANCH   9  10
ATOM     10  C   UNL     1       7.624   9.890  45.932  1.00  0.00    -0.000 C 
BRANCH  10  11
ATOM     11  C   UNL     1       8.853   8.965  45.948  1.00  0.00    -0.003 C 
ATOM     12  C   UNL     1       8.487   7.492  46.127  1.00  0.00     0.004 C 
ENDBRANCH  10  11
ENDBRANCH   9  10
ENDBRANCH   8   9
ENDBRANCH   7   8
ENDBRANCH   6   7
ENDBRANCH   5   6
ENDBRANCH   4   5
ENDBRANCH   3   4
ENDBRANCH   2   3
ENDBRANCH   1   2
BRANCH   1  13
ATOM     13  C   UNL     1       1.002   9.210  46.791  1.00  0.00     0.000 C 
BRANCH  13  14
ATOM     14  C   UNL     1       0.383   8.717  48.107  1.00  0.00     0.000 C 
BRANCH  14  15
ATOM     15  C   UNL     1      -1.146   8.643  48.001  1.00  0.00     0.000 C 
BRANCH  15  16
ATOM     16  C   UNL     1      -1.614   8.940  46.569  1.00  0.00     0.000 C 
BRANCH  16  17
ATOM     17  C   UNL     1      -2.744   8.003  46.112  1.00  0.00     0.000 C 
BRANCH  17  18
ATOM     18  C   UNL     1      -2.607   7.588  44.636  1.00  0.00     0.000 C 
BRANCH  18  19
ATOM     19  C   UNL     1      -1.144   7.561  44.166  1.00  0.00     0.000 C 
BRANCH  19  20
ATOM     20  C   UNL     1      -0.924   6.611  42.976  1.00  0.00     0.006 C 
BRANCH  20  21
ATOM     21  C   UNL     1      -0.813   7.364  41.644  1.00  0.00     0.053 C 
BRANCH  21  22
ATOM     22  C   UNL     1      -1.712   6.781  40.596  1.00  0.00     0.041 C 
ATOM     23  O   UNL     1      -2.861   7.260  40.409  1.00  0.00    -0.550 OA
ATOM     24  O   UNL     1      -1.270   5.725  39.808  1.00  0.00    -0.550 OA
ENDBRANCH  21  22
ENDBRANCH  20  21
ENDBRANCH  19  20
ENDBRANCH  18  19
ENDBRANCH  17  18
ENDBRANCH  16  17
ENDBRANCH  15  16
ENDBRANCH  14  15
ENDBRANCH  13  14
ENDBRANCH   1  13
TORSDOF 20
ENDMDL
MODEL 9
REMARK VINA RESULT:    -4.438      9.442     12.891
REMARK INTER + INTRA:         -12.167
REMARK INTER:                  -9.454
REMARK INTRA:                  -2.714
REMARK UNBOUND:                -2.541
REMARK SMILES CCCCCCCCCCCCCCCCCCCCCC(=O)[O-]
REMARK SMILES IDX 12 1 11 2 10 3 9 4 8 5 7 6 6 7 5 8 4 9 3 10 2 11 1 12 13 13
REMARK SMILES IDX 14 14 15 15 16 16 17 17 18 18 19 19 20 20 21 21 22 22 23 23
REMARK SMILES IDX 24 24
REMARK H PARENT
REMARK Flexibility Score: inf
ROOT
ATOM      1  C   UNL     1       6.464  10.287  47.644  1.00  0.00     0.000 C 
ENDROOT
BRANCH   1   2
ATOM      2  C   UNL     1       6.086  10.996  46.325  1.00  0.00     0.000 C 
BRANCH   2   3
ATOM      3  C   UNL     1       7.274  11.370  45.420  1.00  0.00     0.000 C 
BRANCH   3   4
ATOM      4  C   UNL     1       8.529  11.862  46.166  1.00  0.00    -0.000 C 
BRANCH   4   5
ATOM      5  C   UNL     1       9.796  11.905  45.286  1.00  0.00    -0.000 C 
BRANCH   5   6
ATOM      6  C   UNL     1      10.899  10.968  45.801  1.00  0.00    -0.000 C 
BRANCH   6   7
ATOM      7  C   UNL     1      11.215   9.873  44.772  1.00  0.00    -0.000 C 
BRANCH   7   8
ATOM      8  C   UNL     1      11.125   8.454  45.362  1.00  0.00    -0.000 C 
BRANCH   8   9
ATOM      9  C   UNL     1       9.890   7.641  44.925  1.00  0.00    -0.000 C 
BRANCH   9  10
ATOM     10  C   UNL     1       8.622   7.872  45.772  1.00  0.00    -0.000 C 
BRANCH  10  11
ATOM     11  C   UNL     1       8.536   7.021  47.050  1.00  0.00    -0.003 C 
ATOM     12  C   UNL     1       9.027   7.763  48.293  1.00  0.00     0.004 C 
ENDBRANCH  10  11
ENDBRANCH   9  10
ENDBRANCH   8   9
ENDBRANCH   7   8
ENDBRANCH   6   7
ENDBRANCH   5   6
ENDBRANCH   4   5
ENDBRANCH   3   4
ENDBRANCH   2   3
ENDBRANCH   1   2
BRANCH   1  13
ATOM     13  C   UNL     1       6.271  11.129  48.917  1.00  0.00     0.000 C 
BRANCH  13  14
ATOM     14  C   UNL     1       5.508  12.438  48.662  1.00  0.00     0.000 C 
BRANCH  14  15
ATOM     15  C   UNL     1       4.409  12.645  49.711  1.00  0.00     0.000 C 
BRANCH  15  16
ATOM     16  C   UNL     1       3.107  13.133  49.057  1.00  0.00     0.000 C 
BRANCH  16  17
ATOM     17  C   UNL     1       3.147  13.039  47.523  1.00  0.00     0.000 C 
BRANCH  17  18
ATOM     18  C   UNL     1       2.146  12.009  46.967  1.00  0.00     0.000 C 
BRANCH  18  19
ATOM     19  C   UNL     1       2.532  10.564  47.321  1.00  0.00     0.000 C 
BRANCH  19  20
ATOM     20  C   UNL     1       1.530   9.534  46.771  1.00  0.00     0.006 C 
BRANCH  20  21
ATOM     21  C   UNL     1       0.763   8.815  47.889  1.00  0.00     0.053 C 
BRANCH  21  22
ATOM     22  C   UNL     1      -0.675   9.232  47.937  1.00  0.00     0.041 C 
ATOM     23  O   UNL     1      -1.553   8.432  48.355  1.00  0.00    -0.550 OA
ATOM     24  O   UNL     1      -1.043  10.514  47.547  1.00  0.00    -0.550 OA
ENDBRANCH  21  22
ENDBRANCH  20  21
ENDBRANCH  19  20
ENDBRANCH  18  19
ENDBRANCH  17  18
ENDBRANCH  16  17
ENDBRANCH  15  16
ENDBRANCH  14  15
ENDBRANCH  13  14
ENDBRANCH   1  13
TORSDOF 20
ENDMDL
