MODEL 1
REMARK VINA RESULT:    -5.429      0.000      0.000
REMARK INTER + INTRA:          -6.099
REMARK INTER:                  -5.905
REMARK INTRA:                  -0.194
REMARK UNBOUND:                -0.194
REMARK SMILES Cc1ccc(C(C)C)c(O)c1
REMARK SMILES IDX 1 1 2 2 11 3 9 4 5 5 4 6 3 7 10 8 6 10 7 11 8 12
REMARK H PARENT 10 9
REMARK Flexibility Score: inf
ROOT
ATOM      1  C   UNL     1     261.168 -27.594  50.986  1.00  0.00     0.044 C 
ATOM      2  C   UNL     1     260.746 -27.784  52.414  1.00  0.00    -0.047 A 
ATOM      3  C   UNL     1     259.675 -28.631  52.726  1.00  0.00     0.049 A 
ATOM      4  C   UNL     1     259.296 -28.844  54.060  1.00  0.00     0.119 A 
ATOM      5  C   UNL     1     260.005 -28.209  55.107  1.00  0.00    -0.004 A 
ATOM      6  C   UNL     1     261.092 -27.375  54.779  1.00  0.00     0.008 A 
ATOM      7  C   UNL     1     261.461 -27.170  53.448  1.00  0.00     0.004 A 
ENDROOT
BRANCH   4   8
ATOM      8  O   UNL     1     258.220 -29.686  54.338  1.00  0.00    -0.508 OA
ATOM      9  H   UNL     1     257.376 -29.675  53.777  1.00  0.00     0.293 HD
ENDBRANCH   4   8
BRANCH   5  10
ATOM     10  C   UNL     1     259.642 -28.399  56.573  1.00  0.00     0.017 C 
ATOM     11  C   UNL     1     259.480 -27.058  57.300  1.00  0.00     0.012 C 
ATOM     12  C   UNL     1     260.641 -29.314  57.294  1.00  0.00     0.012 C 
ENDBRANCH   5  10
TORSDOF 2
ENDMDL
MODEL 2
REMARK VINA RESULT:    -5.101      8.614      9.695
REMARK INTER + INTRA:          -5.742
REMARK INTER:                  -5.546
REMARK INTRA:                  -0.196
REMARK UNBOUND:                -0.194
REMARK SMILES Cc1ccc(C(C)C)c(O)c1
REMARK SMILES IDX 1 1 2 2 11 3 9 4 5 5 4 6 3 7 10 8 6 10 7 11 8 12
REMARK H PARENT 10 9
REMARK Flexibility Score: inf
ROOT
ATOM      1  C   UNL     1     253.541 -25.914  54.530  1.00  0.00     0.044 C 
ATOM      2  C   UNL     1     253.391 -24.881  53.451  1.00  0.00    -0.047 A 
ATOM      3  C   UNL     1     254.398 -24.710  52.493  1.00  0.00     0.049 A 
ATOM      4  C   UNL     1     254.251 -23.773  51.459  1.00  0.00     0.119 A 
ATOM      5  C   UNL     1     253.071 -22.997  51.371  1.00  0.00    -0.004 A 
ATOM      6  C   UNL     1     252.059 -23.193  52.330  1.00  0.00     0.008 A 
ATOM      7  C   UNL     1     252.215 -24.129  53.354  1.00  0.00     0.004 A 
ENDROOT
BRANCH   4   8
ATOM      8  O   UNL     1     255.275 -23.619  50.526  1.00  0.00    -0.508 OA
ATOM      9  H   UNL     1     255.268 -22.870  49.844  1.00  0.00     0.293 HD
ENDBRANCH   4   8
BRANCH   5  10
ATOM     10  C   UNL     1     252.853 -21.964  50.273  1.00  0.00     0.017 C 
ATOM     11  C   UNL     1     253.376 -20.580  50.680  1.00  0.00     0.012 C 
ATOM     12  C   UNL     1     251.385 -21.903  49.831  1.00  0.00     0.012 C 
ENDBRANCH   5  10
TORSDOF 2
ENDMDL
MODEL 3
REMARK VINA RESULT:    -5.061      7.511      9.085
REMARK INTER + INTRA:          -5.698
REMARK INTER:                  -5.502
REMARK INTRA:                  -0.197
REMARK UNBOUND:                -0.194
REMARK SMILES Cc1ccc(C(C)C)c(O)c1
REMARK SMILES IDX 1 1 2 2 11 3 9 4 5 5 4 6 3 7 10 8 6 10 7 11 8 12
REMARK H PARENT 10 9
REMARK Flexibility Score: inf
ROOT
ATOM      1  C   UNL     1     253.632 -26.005  54.586  1.00  0.00     0.044 C 
ATOM      2  C   UNL     1     253.643 -25.565  53.151  1.00  0.00    -0.047 A 
ATOM      3  C   UNL     1     253.667 -24.202  52.831  1.00  0.00     0.049 A 
ATOM      4  C   UNL     1     253.715 -23.782  51.493  1.00  0.00     0.119 A 
ATOM      5  C   UNL     1     253.750 -24.740  50.452  1.00  0.00    -0.004 A 
ATOM      6  C   UNL     1     253.744 -26.106  50.789  1.00  0.00     0.008 A 
ATOM      7  C   UNL     1     253.697 -26.514  52.124  1.00  0.00     0.004 A 
ENDROOT
BRANCH   4   8
ATOM      8  O   UNL     1     253.728 -22.418  51.206  1.00  0.00    -0.508 OA
ATOM      9  H   UNL     1     254.059 -21.735  51.878  1.00  0.00     0.293 HD
ENDBRANCH   4   8
BRANCH   5  10
ATOM     10  C   UNL     1     253.801 -24.346  48.981  1.00  0.00     0.017 C 
ATOM     11  C   UNL     1     252.955 -25.284  48.110  1.00  0.00     0.012 C 
ATOM     12  C   UNL     1     255.243 -24.247  48.467  1.00  0.00     0.012 C 
ENDBRANCH   5  10
TORSDOF 2
ENDMDL
MODEL 4
REMARK VINA RESULT:    -4.962      7.330      8.847
REMARK INTER + INTRA:          -5.591
REMARK INTER:                  -5.396
REMARK INTRA:                  -0.195
REMARK UNBOUND:                -0.194
REMARK SMILES Cc1ccc(C(C)C)c(O)c1
REMARK SMILES IDX 1 1 2 2 11 3 9 4 5 5 4 6 3 7 10 8 6 10 7 11 8 12
REMARK H PARENT 10 9
REMARK Flexibility Score: inf
ROOT
ATOM      1  C   UNL     1     254.310 -25.286  54.619  1.00  0.00     0.044 C 
ATOM      2  C   UNL     1     254.087 -25.296  53.135  1.00  0.00    -0.047 A 
ATOM      3  C   UNL     1     253.797 -26.495  52.473  1.00  0.00     0.049 A 
ATOM      4  C   UNL     1     253.550 -26.508  51.091  1.00  0.00     0.119 A 
ATOM      5  C   UNL     1     253.582 -25.300  50.356  1.00  0.00    -0.004 A 
ATOM      6  C   UNL     1     253.856 -24.099  51.038  1.00  0.00     0.008 A 
ATOM      7  C   UNL     1     254.099 -24.096  52.413  1.00  0.00     0.004 A 
ENDROOT
BRANCH   4   8
ATOM      8  O   UNL     1     253.275 -27.720  50.459  1.00  0.00    -0.508 OA
ATOM      9  H   UNL     1     253.110 -28.570  50.985  1.00  0.00     0.293 HD
ENDBRANCH   4   8
BRANCH   5  10
ATOM     10  C   UNL     1     253.324 -25.250  48.856  1.00  0.00     0.017 C 
ATOM     11  C   UNL     1     254.367 -24.394  48.126  1.00  0.00     0.012 C 
ATOM     12  C   UNL     1     251.896 -24.790  48.538  1.00  0.00     0.012 C 
ENDBRANCH   5  10
TORSDOF 2
ENDMDL
MODEL 5
REMARK VINA RESULT:    -4.951      3.829      4.691
REMARK INTER + INTRA:          -5.579
REMARK INTER:                  -5.383
REMARK INTRA:                  -0.196
REMARK UNBOUND:                -0.194
REMARK SMILES Cc1ccc(C(C)C)c(O)c1
REMARK SMILES IDX 1 1 2 2 11 3 9 4 5 5 4 6 3 7 10 8 6 10 7 11 8 12
REMARK H PARENT 10 9
REMARK Flexibility Score: inf
ROOT
ATOM      1  C   UNL     1     263.278 -26.206  56.753  1.00  0.00     0.044 C 
ATOM      2  C   UNL     1     262.257 -26.914  57.595  1.00  0.00    -0.047 A 
ATOM      3  C   UNL     1     261.788 -28.179  57.220  1.00  0.00     0.049 A 
ATOM      4  C   UNL     1     260.862 -28.865  58.020  1.00  0.00     0.119 A 
ATOM      5  C   UNL     1     260.400 -28.284  59.225  1.00  0.00    -0.004 A 
ATOM      6  C   UNL     1     260.895 -27.019  59.599  1.00  0.00     0.008 A 
ATOM      7  C   UNL     1     261.818 -26.346  58.796  1.00  0.00     0.004 A 
ENDROOT
BRANCH   4   8
ATOM      8  O   UNL     1     260.406 -30.119  57.615  1.00  0.00    -0.508 OA
ATOM      9  H   UNL     1     260.517 -30.444  56.662  1.00  0.00     0.293 HD
ENDBRANCH   4   8
BRANCH   5  10
ATOM     10  C   UNL     1     259.395 -28.977  60.135  1.00  0.00     0.017 C 
ATOM     11  C   UNL     1     257.950 -28.629  59.758  1.00  0.00     0.012 C 
ATOM     12  C   UNL     1     259.676 -28.693  61.616  1.00  0.00     0.012 C 
ENDBRANCH   5  10
TORSDOF 2
ENDMDL
MODEL 6
REMARK VINA RESULT:    -4.855      2.624      5.022
REMARK INTER + INTRA:          -5.474
REMARK INTER:                  -5.282
REMARK INTRA:                  -0.192
REMARK UNBOUND:                -0.194
REMARK SMILES Cc1ccc(C(C)C)c(O)c1
REMARK SMILES IDX 1 1 2 2 11 3 9 4 5 5 4 6 3 7 10 8 6 10 7 11 8 12
REMARK H PARENT 10 9
REMARK Flexibility Score: inf
ROOT
ATOM      1  C   UNL     1     258.522 -28.698  59.524  1.00  0.00     0.044 C 
ATOM      2  C   UNL     1     259.557 -28.270  58.525  1.00  0.00    -0.047 A 
ATOM      3  C   UNL     1     260.735 -29.011  58.368  1.00  0.00     0.049 A 
ATOM      4  C   UNL     1     261.691 -28.640  57.410  1.00  0.00     0.119 A 
ATOM      5  C   UNL     1     261.464 -27.515  56.583  1.00  0.00    -0.004 A 
ATOM      6  C   UNL     1     260.266 -26.791  56.738  1.00  0.00     0.008 A 
ATOM      7  C   UNL     1     259.321 -27.169  57.694  1.00  0.00     0.004 A 
ENDROOT
BRANCH   4   8
ATOM      8  O   UNL     1     262.858 -29.392  57.285  1.00  0.00    -0.508 OA
ATOM      9  H   UNL     1     263.774 -28.985  57.439  1.00  0.00     0.293 HD
ENDBRANCH   4   8
BRANCH   5  10
ATOM     10  C   UNL     1     262.463 -27.063  55.526  1.00  0.00     0.017 C 
ATOM     11  C   UNL     1     263.139 -25.740  55.910  1.00  0.00     0.012 C 
ATOM     12  C   UNL     1     261.826 -26.986  54.133  1.00  0.00     0.012 C 
ENDBRANCH   5  10
TORSDOF 2
ENDMDL
MODEL 7
REMARK VINA RESULT:    -4.851      7.782      8.656
REMARK INTER + INTRA:          -5.470
REMARK INTER:                  -5.278
REMARK INTRA:                  -0.192
REMARK UNBOUND:                -0.194
REMARK SMILES Cc1ccc(C(C)C)c(O)c1
REMARK SMILES IDX 1 1 2 2 11 3 9 4 5 5 4 6 3 7 10 8 6 10 7 11 8 12
REMARK H PARENT 10 9
REMARK Flexibility Score: inf
ROOT
ATOM      1  C   UNL     1     252.828 -25.074  46.725  1.00  0.00     0.044 C 
ATOM      2  C   UNL     1     253.169 -25.121  48.186  1.00  0.00    -0.047 A 
ATOM      3  C   UNL     1     254.159 -24.278  48.707  1.00  0.00     0.049 A 
ATOM      4  C   UNL     1     254.459 -24.288  50.078  1.00  0.00     0.119 A 
ATOM      5  C   UNL     1     253.750 -25.147  50.951  1.00  0.00    -0.004 A 
ATOM      6  C   UNL     1     252.744 -25.974  50.416  1.00  0.00     0.008 A 
ATOM      7  C   UNL     1     252.452 -25.957  49.051  1.00  0.00     0.004 A 
ENDROOT
BRANCH   4   8
ATOM      8  O   UNL     1     255.457 -23.444  50.564  1.00  0.00    -0.508 OA
ATOM      9  H   UNL     1     255.430 -22.443  50.410  1.00  0.00     0.293 HD
ENDBRANCH   4   8
BRANCH   5  10
ATOM     10  C   UNL     1     254.030 -25.203  52.447  1.00  0.00     0.017 C 
ATOM     11  C   UNL     1     254.369 -26.626  52.910  1.00  0.00     0.012 C 
ATOM     12  C   UNL     1     252.880 -24.603  53.265  1.00  0.00     0.012 C 
ENDBRANCH   5  10
TORSDOF 2
ENDMDL
MODEL 8
REMARK VINA RESULT:    -4.835      8.499      9.142
REMARK INTER + INTRA:          -5.453
REMARK INTER:                  -5.264
REMARK INTRA:                  -0.189
REMARK UNBOUND:                -0.194
REMARK SMILES Cc1ccc(C(C)C)c(O)c1
REMARK SMILES IDX 1 1 2 2 11 3 9 4 5 5 4 6 3 7 10 8 6 10 7 11 8 12
REMARK H PARENT 10 9
REMARK Flexibility Score: inf
ROOT
ATOM      1  C   UNL     1     250.731 -21.467  50.407  1.00  0.00     0.044 C 
ATOM      2  C   UNL     1     251.682 -22.414  51.079  1.00  0.00    -0.047 A 
ATOM      3  C   UNL     1     252.977 -22.588  50.577  1.00  0.00     0.049 A 
ATOM      4  C   UNL     1     253.886 -23.442  51.220  1.00  0.00     0.119 A 
ATOM      5  C   UNL     1     253.500 -24.130  52.395  1.00  0.00    -0.004 A 
ATOM      6  C   UNL     1     252.201 -23.931  52.899  1.00  0.00     0.008 A 
ATOM      7  C   UNL     1     251.304 -23.077  52.252  1.00  0.00     0.004 A 
ENDROOT
BRANCH   4   8
ATOM      8  O   UNL     1     255.165 -23.602  50.690  1.00  0.00    -0.508 OA
ATOM      9  H   UNL     1     255.997 -23.462  51.252  1.00  0.00     0.293 HD
ENDBRANCH   4   8
BRANCH   5  10
ATOM     10  C   UNL     1     254.440 -25.071  53.137  1.00  0.00     0.017 C 
ATOM     11  C   UNL     1     254.408 -26.488  52.551  1.00  0.00     0.012 C 
ATOM     12  C   UNL     1     254.164 -25.079  54.646  1.00  0.00     0.012 C 
ENDBRANCH   5  10
TORSDOF 2
ENDMDL
