MODEL 1
REMARK VINA RESULT:    -3.604      0.000      0.000
REMARK INTER + INTRA:          -4.353
REMARK INTER:                  -4.237
REMARK INTRA:                  -0.117
REMARK UNBOUND:                -0.117
REMARK SMILES O=C([O-])CCC(=O)[O-]
REMARK SMILES IDX 4 1 2 2 1 3 3 4 5 5 6 6 7 7 8 8
REMARK H PARENT
REMARK Flexibility Score: inf
ROOT
ATOM      1  C   UNL     1      -0.465   5.847  11.710  1.00  0.00     0.059 C 
ENDROOT
BRANCH   1   2
ATOM      2  C   UNL     1      -1.082   4.741  10.908  1.00  0.00     0.042 C 
ATOM      3  O   UNL     1      -1.811   3.882  11.471  1.00  0.00    -0.550 OA
ATOM      4  O   UNL     1      -0.818   4.636   9.549  1.00  0.00    -0.550 OA
ENDBRANCH   1   2
BRANCH   1   5
ATOM      5  C   UNL     1       0.845   6.336  11.083  1.00  0.00     0.059 C 
BRANCH   5   6
ATOM      6  C   UNL     1       0.693   7.698  10.477  1.00  0.00     0.042 C 
ATOM      7  O   UNL     1       0.312   7.820   9.283  1.00  0.00    -0.550 OA
ATOM      8  O   UNL     1       1.013   8.829  11.217  1.00  0.00    -0.550 OA
ENDBRANCH   5   6
ENDBRANCH   1   5
TORSDOF 3
ENDMDL
MODEL 2
REMARK VINA RESULT:    -3.588      1.765      3.878
REMARK INTER + INTRA:          -4.334
REMARK INTER:                  -4.238
REMARK INTRA:                  -0.096
REMARK UNBOUND:                -0.117
REMARK SMILES O=C([O-])CCC(=O)[O-]
REMARK SMILES IDX 4 1 2 2 1 3 3 4 5 5 6 6 7 7 8 8
REMARK H PARENT
REMARK Flexibility Score: inf
ROOT
ATOM      1  C   UNL     1       0.735   5.127   9.398  1.00  0.00     0.059 C 
ENDROOT
BRANCH   1   2
ATOM      2  C   UNL     1       0.883   6.313   8.494  1.00  0.00     0.042 C 
ATOM      3  O   UNL     1       1.166   6.151   7.278  1.00  0.00    -0.550 OA
ATOM      4  O   UNL     1       0.748   7.598   9.003  1.00  0.00    -0.550 OA
ENDBRANCH   1   2
BRANCH   1   5
ATOM      5  C   UNL     1      -0.737   4.745   9.592  1.00  0.00     0.059 C 
BRANCH   5   6
ATOM      6  C   UNL     1      -1.123   4.747  11.040  1.00  0.00     0.042 C 
ATOM      7  O   UNL     1      -1.883   3.852  11.494  1.00  0.00    -0.550 OA
ATOM      8  O   UNL     1      -0.677   5.761  11.878  1.00  0.00    -0.550 OA
ENDBRANCH   5   6
ENDBRANCH   1   5
TORSDOF 3
ENDMDL
MODEL 3
REMARK VINA RESULT:    -3.584      7.991      9.498
REMARK INTER + INTRA:          -4.330
REMARK INTER:                  -4.208
REMARK INTRA:                  -0.122
REMARK UNBOUND:                -0.117
REMARK SMILES O=C([O-])CCC(=O)[O-]
REMARK SMILES IDX 4 1 2 2 1 3 3 4 5 5 6 6 7 7 8 8
REMARK H PARENT
REMARK Flexibility Score: inf
ROOT
ATOM      1  C   UNL     1       8.108   7.627   6.242  1.00  0.00     0.059 C 
ENDROOT
BRANCH   1   2
ATOM      2  C   UNL     1       7.627   8.729   5.346  1.00  0.00     0.042 C 
ATOM      3  O   UNL     1       8.438   9.587   4.909  1.00  0.00    -0.550 OA
ATOM      4  O   UNL     1       6.279   8.831   5.030  1.00  0.00    -0.550 OA
ENDBRANCH   1   2
BRANCH   1   5
ATOM      5  C   UNL     1       7.005   7.154   7.197  1.00  0.00     0.059 C 
BRANCH   5   6
ATOM      6  C   UNL     1       6.543   5.769   6.865  1.00  0.00     0.042 C 
ATOM      7  O   UNL     1       6.887   4.797   7.588  1.00  0.00    -0.550 OA
ATOM      8  O   UNL     1       5.767   5.545   5.735  1.00  0.00    -0.550 OA
ENDBRANCH   5   6
ENDBRANCH   1   5
TORSDOF 3
ENDMDL
MODEL 4
REMARK VINA RESULT:    -3.583      0.119      3.968
REMARK INTER + INTRA:          -4.328
REMARK INTER:                  -4.209
REMARK INTRA:                  -0.119
REMARK UNBOUND:                -0.117
REMARK SMILES O=C([O-])CCC(=O)[O-]
REMARK SMILES IDX 4 1 2 2 1 3 3 4 5 5 6 6 7 7 8 8
REMARK H PARENT
REMARK Flexibility Score: inf
ROOT
ATOM      1  C   UNL     1       0.903   6.416  11.088  1.00  0.00     0.059 C 
ENDROOT
BRANCH   1   2
ATOM      2  C   UNL     1       0.712   7.793  10.528  1.00  0.00     0.042 C 
ATOM      3  O   UNL     1       0.300   7.945   9.348  1.00  0.00    -0.550 OA
ATOM      4  O   UNL     1       1.027   8.907  11.295  1.00  0.00    -0.550 OA
ENDBRANCH   1   2
BRANCH   1   5
ATOM      5  C   UNL     1      -0.382   5.884  11.731  1.00  0.00     0.059 C 
BRANCH   5   6
ATOM      6  C   UNL     1      -0.998   4.790  10.915  1.00  0.00     0.042 C 
ATOM      7  O   UNL     1      -1.805   3.982  11.445  1.00  0.00    -0.550 OA
ATOM      8  O   UNL     1      -0.649   4.637   9.580  1.00  0.00    -0.550 OA
ENDBRANCH   5   6
ENDBRANCH   1   5
TORSDOF 3
ENDMDL
MODEL 5
REMARK VINA RESULT:    -3.578      1.785      2.420
REMARK INTER + INTRA:          -4.322
REMARK INTER:                  -4.214
REMARK INTRA:                  -0.108
REMARK UNBOUND:                -0.117
REMARK SMILES O=C([O-])CCC(=O)[O-]
REMARK SMILES IDX 4 1 2 2 1 3 3 4 5 5 6 6 7 7 8 8
REMARK H PARENT
REMARK Flexibility Score: inf
ROOT
ATOM      1  C   UNL     1      -0.615   4.713   9.643  1.00  0.00     0.059 C 
ENDROOT
BRANCH   1   2
ATOM      2  C   UNL     1      -1.086   4.782  11.064  1.00  0.00     0.042 C 
ATOM      3  O   UNL     1      -1.895   3.924  11.505  1.00  0.00    -0.550 OA
ATOM      4  O   UNL     1      -0.663   5.817  11.888  1.00  0.00    -0.550 OA
ENDBRANCH   1   2
BRANCH   1   5
ATOM      5  C   UNL     1      -0.735   6.070   8.941  1.00  0.00     0.059 C 
BRANCH   5   6
ATOM      6  C   UNL     1       0.607   6.620   8.567  1.00  0.00     0.042 C 
ATOM      7  O   UNL     1       1.173   7.468   9.306  1.00  0.00    -0.550 OA
ATOM      8  O   UNL     1       1.213   6.229   7.380  1.00  0.00    -0.550 OA
ENDBRANCH   5   6
ENDBRANCH   1   5
TORSDOF 3
ENDMDL
MODEL 6
REMARK VINA RESULT:    -3.545      7.271      8.951
REMARK INTER + INTRA:          -4.283
REMARK INTER:                  -4.193
REMARK INTRA:                  -0.091
REMARK UNBOUND:                -0.117
REMARK SMILES O=C([O-])CCC(=O)[O-]
REMARK SMILES IDX 4 1 2 2 1 3 3 4 5 5 6 6 7 7 8 8
REMARK H PARENT
REMARK Flexibility Score: inf
ROOT
ATOM      1  C   UNL     1       6.236   8.484   5.058  1.00  0.00     0.059 C 
ENDROOT
BRANCH   1   2
ATOM      2  C   UNL     1       7.695   8.558   5.397  1.00  0.00     0.042 C 
ATOM      3  O   UNL     1       8.211   7.699   6.159  1.00  0.00    -0.550 OA
ATOM      4  O   UNL     1       8.472   9.598   4.905  1.00  0.00    -0.550 OA
ENDBRANCH   1   2
BRANCH   1   5
ATOM      5  C   UNL     1       5.372   8.321   6.313  1.00  0.00     0.059 C 
BRANCH   5   6
ATOM      6  C   UNL     1       4.453   7.144   6.203  1.00  0.00     0.042 C 
ATOM      7  O   UNL     1       3.227   7.317   5.972  1.00  0.00    -0.550 OA
ATOM      8  O   UNL     1       4.942   5.858   6.397  1.00  0.00    -0.550 OA
ENDBRANCH   5   6
ENDBRANCH   1   5
TORSDOF 3
ENDMDL
MODEL 7
REMARK VINA RESULT:    -3.544      8.597      9.353
REMARK INTER + INTRA:          -4.283
REMARK INTER:                  -4.248
REMARK INTRA:                  -0.035
REMARK UNBOUND:                -0.117
REMARK SMILES O=C([O-])CCC(=O)[O-]
REMARK SMILES IDX 4 1 2 2 1 3 3 4 5 5 6 6 7 7 8 8
REMARK H PARENT
REMARK Flexibility Score: inf
ROOT
ATOM      1  C   UNL     1       8.247   7.399   6.819  1.00  0.00     0.059 C 
ENDROOT
BRANCH   1   2
ATOM      2  C   UNL     1       8.861   6.559   7.898  1.00  0.00     0.042 C 
ATOM      3  O   UNL     1       8.491   5.367   8.059  1.00  0.00    -0.550 OA
ATOM      4  O   UNL     1       9.811   7.106   8.750  1.00  0.00    -0.550 OA
ENDBRANCH   1   2
BRANCH   1   5
ATOM      5  C   UNL     1       6.781   7.022   6.575  1.00  0.00     0.059 C 
BRANCH   5   6
ATOM      6  C   UNL     1       6.305   7.491   5.235  1.00  0.00     0.042 C 
ATOM      7  O   UNL     1       6.163   8.722   5.009  1.00  0.00    -0.550 OA
ATOM      8  O   UNL     1       5.979   6.569   4.249  1.00  0.00    -0.550 OA
ENDBRANCH   5   6
ENDBRANCH   1   5
TORSDOF 3
ENDMDL
MODEL 8
REMARK VINA RESULT:    -3.523      8.235      8.764
REMARK INTER + INTRA:          -4.258
REMARK INTER:                  -4.198
REMARK INTRA:                  -0.061
REMARK UNBOUND:                -0.117
REMARK SMILES O=C([O-])CCC(=O)[O-]
REMARK SMILES IDX 4 1 2 2 1 3 3 4 5 5 6 6 7 7 8 8
REMARK H PARENT
REMARK Flexibility Score: inf
ROOT
ATOM      1  C   UNL     1       8.084   6.591   7.584  1.00  0.00     0.059 C 
ENDROOT
BRANCH   1   2
ATOM      2  C   UNL     1       7.765   5.201   8.045  1.00  0.00     0.042 C 
ATOM      3  O   UNL     1       8.305   4.740   9.085  1.00  0.00    -0.550 OA
ATOM      4  O   UNL     1       6.905   4.402   7.304  1.00  0.00    -0.550 OA
ENDBRANCH   1   2
BRANCH   1   5
ATOM      5  C   UNL     1       6.850   7.288   6.999  1.00  0.00     0.059 C 
BRANCH   5   6
ATOM      6  C   UNL     1       7.179   8.030   5.740  1.00  0.00     0.042 C 
ATOM      7  O   UNL     1       8.363   8.055   5.310  1.00  0.00    -0.550 OA
ATOM      8  O   UNL     1       6.187   8.727   5.063  1.00  0.00    -0.550 OA
ENDBRANCH   5   6
ENDBRANCH   1   5
TORSDOF 3
ENDMDL
MODEL 9
REMARK VINA RESULT:    -3.519      8.232      9.345
REMARK INTER + INTRA:          -4.253
REMARK INTER:                  -4.191
REMARK INTRA:                  -0.063
REMARK UNBOUND:                -0.117
REMARK SMILES O=C([O-])CCC(=O)[O-]
REMARK SMILES IDX 4 1 2 2 1 3 3 4 5 5 6 6 7 7 8 8
REMARK H PARENT
REMARK Flexibility Score: inf
ROOT
ATOM      1  C   UNL     1       6.917   7.343   7.088  1.00  0.00     0.059 C 
ENDROOT
BRANCH   1   2
ATOM      2  C   UNL     1       7.186   8.030   5.783  1.00  0.00     0.042 C 
ATOM      3  O   UNL     1       8.352   8.057   5.310  1.00  0.00    -0.550 OA
ATOM      4  O   UNL     1       6.156   8.676   5.112  1.00  0.00    -0.550 OA
ENDBRANCH   1   2
BRANCH   1   5
ATOM      5  C   UNL     1       8.151   6.586   7.592  1.00  0.00     0.059 C 
BRANCH   5   6
ATOM      6  C   UNL     1       7.803   5.204   8.052  1.00  0.00     0.042 C 
ATOM      7  O   UNL     1       8.343   4.725   9.084  1.00  0.00    -0.550 OA
ATOM      8  O   UNL     1       6.914   4.429   7.318  1.00  0.00    -0.550 OA
ENDBRANCH   5   6
ENDBRANCH   1   5
TORSDOF 3
ENDMDL
