MODEL 1
REMARK VINA RESULT:    -5.079      0.000      0.000
REMARK INTER + INTRA:          -5.741
REMARK INTER:                  -5.525
REMARK INTRA:                  -0.217
REMARK UNBOUND:                -0.217
REMARK SMILES O=C([O-])c1ccccc1O
REMARK SMILES IDX 4 1 9 2 5 3 8 4 6 5 7 6 2 7 1 8 3 9 10 10
REMARK H PARENT 10 11
REMARK Flexibility Score: inf
ROOT
ATOM      1  C   UNL     1     -33.244  -3.319 -18.754  1.00  0.00     0.039 A 
ATOM      2  C   UNL     1     -32.466  -2.530 -19.636  1.00  0.00     0.124 A 
ATOM      3  C   UNL     1     -32.638  -3.828 -17.587  1.00  0.00     0.014 A 
ATOM      4  C   UNL     1     -31.119  -2.271 -19.340  1.00  0.00     0.047 A 
ATOM      5  C   UNL     1     -31.296  -3.562 -17.305  1.00  0.00     0.001 A 
ATOM      6  C   UNL     1     -30.538  -2.785 -18.179  1.00  0.00     0.004 A 
ENDROOT
BRANCH   1   7
ATOM      7  C   UNL     1     -34.673  -3.619 -19.027  1.00  0.00     0.075 C 
ATOM      8  O   UNL     1     -35.530  -2.697 -19.015  1.00  0.00    -0.545 OA
ATOM      9  O   UNL     1     -35.094  -4.915 -19.302  1.00  0.00    -0.545 OA
ENDBRANCH   1   7
BRANCH   2  10
ATOM     10  O   UNL     1     -33.022  -2.005 -20.802  1.00  0.00    -0.507 OA
ATOM     11  H   UNL     1     -33.511  -1.118 -20.806  1.00  0.00     0.293 HD
ENDBRANCH   2  10
TORSDOF 2
ENDMDL
MODEL 2
REMARK VINA RESULT:    -5.051      8.311      9.678
REMARK INTER + INTRA:          -5.710
REMARK INTER:                  -5.459
REMARK INTRA:                  -0.251
REMARK UNBOUND:                -0.217
REMARK SMILES O=C([O-])c1ccccc1O
REMARK SMILES IDX 4 1 9 2 5 3 8 4 6 5 7 6 2 7 1 8 3 9 10 10
REMARK H PARENT 10 11
REMARK Flexibility Score: inf
ROOT
ATOM      1  C   UNL     1     -38.478  -7.896 -13.646  1.00  0.00     0.039 A 
ATOM      2  C   UNL     1     -38.920  -6.592 -13.316  1.00  0.00     0.124 A 
ATOM      3  C   UNL     1     -39.434  -8.922 -13.783  1.00  0.00     0.014 A 
ATOM      4  C   UNL     1     -40.290  -6.344 -13.130  1.00  0.00     0.047 A 
ATOM      5  C   UNL     1     -40.793  -8.661 -13.596  1.00  0.00     0.001 A 
ATOM      6  C   UNL     1     -41.221  -7.375 -13.270  1.00  0.00     0.004 A 
ENDROOT
BRANCH   1   7
ATOM      7  C   UNL     1     -37.039  -8.203 -13.852  1.00  0.00     0.075 C 
ATOM      8  O   UNL     1     -36.186  -7.857 -12.993  1.00  0.00    -0.545 OA
ATOM      9  O   UNL     1     -36.604  -8.877 -14.988  1.00  0.00    -0.545 OA
ENDBRANCH   1   7
BRANCH   2  10
ATOM     10  O   UNL     1     -38.012  -5.545 -13.169  1.00  0.00    -0.507 OA
ATOM     11  H   UNL     1     -37.631  -5.293 -12.265  1.00  0.00     0.293 HD
ENDBRANCH   2  10
TORSDOF 2
ENDMDL
MODEL 3
REMARK VINA RESULT:    -4.958      7.224      8.551
REMARK INTER + INTRA:          -5.610
REMARK INTER:                  -5.363
REMARK INTRA:                  -0.247
REMARK UNBOUND:                -0.217
REMARK SMILES O=C([O-])c1ccccc1O
REMARK SMILES IDX 4 1 9 2 5 3 8 4 6 5 7 6 2 7 1 8 3 9 10 10
REMARK H PARENT 10 11
REMARK Flexibility Score: inf
ROOT
ATOM      1  C   UNL     1     -38.685  -7.391 -14.054  1.00  0.00     0.039 A 
ATOM      2  C   UNL     1     -38.493  -7.933 -15.347  1.00  0.00     0.124 A 
ATOM      3  C   UNL     1     -37.633  -6.665 -13.460  1.00  0.00     0.014 A 
ATOM      4  C   UNL     1     -37.271  -7.743 -16.012  1.00  0.00     0.047 A 
ATOM      5  C   UNL     1     -36.422  -6.483 -14.133  1.00  0.00     0.001 A 
ATOM      6  C   UNL     1     -36.241  -7.021 -15.406  1.00  0.00     0.004 A 
ENDROOT
BRANCH   1   7
ATOM      7  C   UNL     1     -39.961  -7.567 -13.314  1.00  0.00     0.075 C 
ATOM      8  O   UNL     1     -40.422  -6.632 -12.609  1.00  0.00    -0.545 OA
ATOM      9  O   UNL     1     -40.671  -8.761 -13.382  1.00  0.00    -0.545 OA
ENDBRANCH   1   7
BRANCH   2  10
ATOM     10  O   UNL     1     -39.505  -8.657 -15.975  1.00  0.00    -0.507 OA
ATOM     11  H   UNL     1     -39.315  -9.269 -16.760  1.00  0.00     0.293 HD
ENDBRANCH   2  10
TORSDOF 2
ENDMDL
MODEL 4
REMARK VINA RESULT:    -4.853      7.945      8.934
REMARK INTER + INTRA:          -5.495
REMARK INTER:                  -5.297
REMARK INTRA:                  -0.198
REMARK UNBOUND:                -0.217
REMARK SMILES O=C([O-])c1ccccc1O
REMARK SMILES IDX 4 1 9 2 5 3 8 4 6 5 7 6 2 7 1 8 3 9 10 10
REMARK H PARENT 10 11
REMARK Flexibility Score: inf
ROOT
ATOM      1  C   UNL     1     -38.980  -6.925 -13.678  1.00  0.00     0.039 A 
ATOM      2  C   UNL     1     -38.875  -8.018 -14.572  1.00  0.00     0.124 A 
ATOM      3  C   UNL     1     -37.835  -6.142 -13.428  1.00  0.00     0.014 A 
ATOM      4  C   UNL     1     -37.646  -8.304 -15.187  1.00  0.00     0.047 A 
ATOM      5  C   UNL     1     -36.619  -6.437 -14.048  1.00  0.00     0.001 A 
ATOM      6  C   UNL     1     -36.524  -7.516 -14.926  1.00  0.00     0.004 A 
ENDROOT
BRANCH   1   7
ATOM      7  C   UNL     1     -40.260  -6.586 -13.005  1.00  0.00     0.075 C 
ATOM      8  O   UNL     1     -40.263  -5.880 -11.962  1.00  0.00    -0.545 OA
ATOM      9  O   UNL     1     -41.476  -7.037 -13.506  1.00  0.00    -0.545 OA
ENDBRANCH   1   7
BRANCH   2  10
ATOM     10  O   UNL     1     -39.980  -8.821 -14.850  1.00  0.00    -0.507 OA
ATOM     11  H   UNL     1     -40.343  -8.921 -15.791  1.00  0.00     0.293 HD
ENDBRANCH   2  10
TORSDOF 2
ENDMDL
MODEL 5
REMARK VINA RESULT:    -4.843      7.355      8.664
REMARK INTER + INTRA:          -5.484
REMARK INTER:                  -5.232
REMARK INTRA:                  -0.252
REMARK UNBOUND:                -0.217
REMARK SMILES O=C([O-])c1ccccc1O
REMARK SMILES IDX 4 1 9 2 5 3 8 4 6 5 7 6 2 7 1 8 3 9 10 10
REMARK H PARENT 10 11
REMARK Flexibility Score: inf
ROOT
ATOM      1  C   UNL     1     -38.873  -7.710 -14.180  1.00  0.00     0.039 A 
ATOM      2  C   UNL     1     -38.671  -6.657 -15.105  1.00  0.00     0.124 A 
ATOM      3  C   UNL     1     -37.856  -8.673 -14.017  1.00  0.00     0.014 A 
ATOM      4  C   UNL     1     -37.476  -6.589 -15.839  1.00  0.00     0.047 A 
ATOM      5  C   UNL     1     -36.672  -8.593 -14.754  1.00  0.00     0.001 A 
ATOM      6  C   UNL     1     -36.482  -7.553 -15.663  1.00  0.00     0.004 A 
ENDROOT
BRANCH   1   7
ATOM      7  C   UNL     1     -40.121  -7.822 -13.383  1.00  0.00     0.075 C 
ATOM      8  O   UNL     1     -40.758  -8.907 -13.348  1.00  0.00    -0.545 OA
ATOM      9  O   UNL     1     -40.612  -6.739 -12.663  1.00  0.00    -0.545 OA
ENDBRANCH   1   7
BRANCH   2  10
ATOM     10  O   UNL     1     -39.648  -5.682 -15.300  1.00  0.00    -0.507 OA
ATOM     11  H   UNL     1     -40.627  -5.922 -15.405  1.00  0.00     0.293 HD
ENDBRANCH   2  10
TORSDOF 2
ENDMDL
MODEL 6
REMARK VINA RESULT:    -4.760      7.206      9.006
REMARK INTER + INTRA:          -5.394
REMARK INTER:                  -5.145
REMARK INTRA:                  -0.249
REMARK UNBOUND:                -0.217
REMARK SMILES O=C([O-])c1ccccc1O
REMARK SMILES IDX 4 1 9 2 5 3 8 4 6 5 7 6 2 7 1 8 3 9 10 10
REMARK H PARENT 10 11
REMARK Flexibility Score: inf
ROOT
ATOM      1  C   UNL     1     -38.166  -7.046 -14.222  1.00  0.00     0.039 A 
ATOM      2  C   UNL     1     -39.445  -7.631 -14.062  1.00  0.00     0.124 A 
ATOM      3  C   UNL     1     -37.890  -5.830 -13.564  1.00  0.00     0.014 A 
ATOM      4  C   UNL     1     -40.409  -6.999 -13.260  1.00  0.00     0.047 A 
ATOM      5  C   UNL     1     -38.858  -5.213 -12.769  1.00  0.00     0.001 A 
ATOM      6  C   UNL     1     -40.115  -5.795 -12.617  1.00  0.00     0.004 A 
ENDROOT
BRANCH   1   7
ATOM      7  C   UNL     1     -37.116  -7.679 -15.061  1.00  0.00     0.075 C 
ATOM      8  O   UNL     1     -36.773  -8.873 -14.856  1.00  0.00    -0.545 OA
ATOM      9  O   UNL     1     -36.494  -6.974 -16.085  1.00  0.00    -0.545 OA
ENDBRANCH   1   7
BRANCH   2  10
ATOM     10  O   UNL     1     -39.764  -8.833 -14.693  1.00  0.00    -0.507 OA
ATOM     11  H   UNL     1     -40.324  -9.543 -14.235  1.00  0.00     0.293 HD
ENDBRANCH   2  10
TORSDOF 2
ENDMDL
MODEL 7
REMARK VINA RESULT:    -4.712      7.495      9.143
REMARK INTER + INTRA:          -5.341
REMARK INTER:                  -5.086
REMARK INTRA:                  -0.255
REMARK UNBOUND:                -0.217
REMARK SMILES O=C([O-])c1ccccc1O
REMARK SMILES IDX 4 1 9 2 5 3 8 4 6 5 7 6 2 7 1 8 3 9 10 10
REMARK H PARENT 10 11
REMARK Flexibility Score: inf
ROOT
ATOM      1  C   UNL     1     -38.048  -6.778 -13.581  1.00  0.00     0.039 A 
ATOM      2  C   UNL     1     -37.925  -8.146 -13.923  1.00  0.00     0.124 A 
ATOM      3  C   UNL     1     -39.305  -6.293 -13.167  1.00  0.00     0.014 A 
ATOM      4  C   UNL     1     -39.045  -8.990 -13.847  1.00  0.00     0.047 A 
ATOM      5  C   UNL     1     -40.410  -7.143 -13.096  1.00  0.00     0.001 A 
ATOM      6  C   UNL     1     -40.281  -8.490 -13.435  1.00  0.00     0.004 A 
ENDROOT
BRANCH   1   7
ATOM      7  C   UNL     1     -36.890  -5.849 -13.647  1.00  0.00     0.075 C 
ATOM      8  O   UNL     1     -37.015  -4.714 -14.177  1.00  0.00    -0.545 OA
ATOM      9  O   UNL     1     -35.651  -6.209 -13.128  1.00  0.00    -0.545 OA
ENDBRANCH   1   7
BRANCH   2  10
ATOM     10  O   UNL     1     -36.702  -8.672 -14.337  1.00  0.00    -0.507 OA
ATOM     11  H   UNL     1     -35.846  -8.131 -14.290  1.00  0.00     0.293 HD
ENDBRANCH   2  10
TORSDOF 2
ENDMDL
MODEL 8
REMARK VINA RESULT:    -4.682      7.533      9.158
REMARK INTER + INTRA:          -5.310
REMARK INTER:                  -5.095
REMARK INTRA:                  -0.215
REMARK UNBOUND:                -0.217
REMARK SMILES O=C([O-])c1ccccc1O
REMARK SMILES IDX 4 1 9 2 5 3 8 4 6 5 7 6 2 7 1 8 3 9 10 10
REMARK H PARENT 10 11
REMARK Flexibility Score: inf
ROOT
ATOM      1  C   UNL     1     -37.855  -7.216 -13.694  1.00  0.00     0.039 A 
ATOM      2  C   UNL     1     -38.906  -6.351 -13.303  1.00  0.00     0.124 A 
ATOM      3  C   UNL     1     -38.140  -8.581 -13.895  1.00  0.00     0.014 A 
ATOM      4  C   UNL     1     -40.201  -6.861 -13.122  1.00  0.00     0.047 A 
ATOM      5  C   UNL     1     -39.434  -9.075 -13.711  1.00  0.00     0.001 A 
ATOM      6  C   UNL     1     -40.463  -8.217 -13.325  1.00  0.00     0.004 A 
ENDROOT
BRANCH   1   7
ATOM      7  C   UNL     1     -36.470  -6.720 -13.898  1.00  0.00     0.075 C 
ATOM      8  O   UNL     1     -35.798  -6.292 -12.922  1.00  0.00    -0.545 OA
ATOM      9  O   UNL     1     -35.887  -6.716 -15.160  1.00  0.00    -0.545 OA
ENDBRANCH   1   7
BRANCH   2  10
ATOM     10  O   UNL     1     -38.672  -4.993 -13.093  1.00  0.00    -0.507 OA
ATOM     11  H   UNL     1     -38.896  -4.544 -12.212  1.00  0.00     0.293 HD
ENDBRANCH   2  10
TORSDOF 2
ENDMDL
MODEL 9
REMARK VINA RESULT:    -4.661      1.936      2.486
REMARK INTER + INTRA:          -5.286
REMARK INTER:                  -5.058
REMARK INTRA:                  -0.228
REMARK UNBOUND:                -0.217
REMARK SMILES O=C([O-])c1ccccc1O
REMARK SMILES IDX 4 1 9 2 5 3 8 4 6 5 7 6 2 7 1 8 3 9 10 10
REMARK H PARENT 10 11
REMARK Flexibility Score: inf
ROOT
ATOM      1  C   UNL     1     -32.823  -3.091 -18.453  1.00  0.00     0.039 A 
ATOM      2  C   UNL     1     -31.576  -3.097 -17.783  1.00  0.00     0.124 A 
ATOM      3  C   UNL     1     -32.859  -2.731 -19.815  1.00  0.00     0.014 A 
ATOM      4  C   UNL     1     -30.407  -2.747 -18.477  1.00  0.00     0.047 A 
ATOM      5  C   UNL     1     -31.688  -2.385 -20.494  1.00  0.00     0.001 A 
ATOM      6  C   UNL     1     -30.464  -2.393 -19.826  1.00  0.00     0.004 A 
ENDROOT
BRANCH   1   7
ATOM      7  C   UNL     1     -34.085  -3.454 -17.759  1.00  0.00     0.075 C 
ATOM      8  O   UNL     1     -35.182  -2.969 -18.139  1.00  0.00    -0.545 OA
ATOM      9  O   UNL     1     -34.083  -4.332 -16.680  1.00  0.00    -0.545 OA
ENDBRANCH   1   7
BRANCH   2  10
ATOM     10  O   UNL     1     -31.490  -3.446 -16.436  1.00  0.00    -0.507 OA
ATOM     11  H   UNL     1     -32.176  -3.131 -15.760  1.00  0.00     0.293 HD
ENDBRANCH   2  10
TORSDOF 2
ENDMDL
