MODEL 1
REMARK VINA RESULT:    -5.115      0.000      0.000
REMARK INTER + INTRA:          -6.640
REMARK INTER:                  -6.909
REMARK INTRA:                   0.269
REMARK UNBOUND:                 0.269
REMARK SMILES C=C1C(=O)O[C@@H]2[C@@H]1CCC(C)=CCC[C@@]1(C)O[C@@H]21
REMARK SMILES IDX 6 1 7 2 2 3 1 4 3 5 4 6 5 7 8 8 9 9 10 10 11 11 12 12 18 14
REMARK SMILES IDX 15 15 17 16 16 17 14 18 13 19
REMARK H PARENT
REMARK Flexibility Score: 70.00
ROOT
ATOM      1  C   UNL     1       2.976   7.025  22.016  1.00  0.00     0.216 C 
ATOM      2  C   UNL     1       4.425   6.456  22.200  1.00  0.00     0.070 C 
ATOM      3  C   UNL     1       5.007   7.390  23.221  1.00  0.00     0.037 C 
ATOM      4  C   UNL     1       6.298   7.521  23.525  1.00  0.00     0.021 C 
ATOM      5  C   UNL     1       3.909   8.077  23.850  1.00  0.00     0.334 C 
ATOM      6  O   UNL     1       3.989   8.838  24.851  1.00  0.00    -0.247 OA
ATOM      7  O   UNL     1       2.729   7.770  23.210  1.00  0.00    -0.455 OA
ENDROOT
BRANCH   2   8
ATOM      8  C   UNL     1       4.439   5.026  22.800  1.00  0.00     0.017 C 
BRANCH   8   9
ATOM      9  C   UNL     1       3.488   4.006  22.152  1.00  0.00     0.031 C 
BRANCH   9  10
ATOM     10  C   UNL     1       3.935   3.561  20.773  1.00  0.00    -0.077 C 
ATOM     11  C   UNL     1       5.054   2.556  20.674  1.00  0.00     0.039 C 
ATOM     12  C   UNL     1       3.370   3.995  19.623  1.00  0.00    -0.028 CG0
ATOM     13  G   UNL     1       2.349   5.101  19.505  1.00  0.00     0.000 G0
ENDBRANCH   9  10
ENDBRANCH   8   9
ENDBRANCH   2   8
BRANCH   1  14
ATOM     14  C   UNL     1       2.839   8.026  20.837  1.00  0.00     0.192 C 
ATOM     15  C   UNL     1       2.720   7.712  19.374  1.00  0.00     0.096 C 
ATOM     16  O   UNL     1       1.587   7.830  20.195  1.00  0.00    -0.362 OA
ATOM     17  C   UNL     1       2.865   8.904  18.425  1.00  0.00     0.045 C 
BRANCH  15  18
ATOM     18  C   UNL     1       2.968   6.310  18.770  1.00  0.00     0.042 C 
BRANCH  18  19
ATOM     19  C   UNL     1       2.350   5.103  19.502  1.00  0.00     0.030 CG0
ATOM     20  G   UNL     1       3.376   4.002  19.623  1.00  0.00     0.000 G0
ENDBRANCH  18  19
ENDBRANCH  15  18
ENDBRANCH   1  14
TORSDOF 0
ENDMDL
MODEL 2
REMARK VINA RESULT:    -5.051      2.835      4.605
REMARK INTER + INTRA:          -6.554
REMARK INTER:                  -7.281
REMARK INTRA:                   0.728
REMARK UNBOUND:                 0.269
REMARK SMILES C=C1C(=O)O[C@@H]2[C@@H]1CCC(C)=CCC[C@@]1(C)O[C@@H]21
REMARK SMILES IDX 6 1 7 2 2 3 1 4 3 5 4 6 5 7 8 8 9 9 10 10 11 11 12 12 18 14
REMARK SMILES IDX 15 15 17 16 16 17 14 18 13 19
REMARK H PARENT
REMARK Flexibility Score: 70.00
ROOT
ATOM      1  C   UNL     1       4.029   6.839  19.868  1.00  0.00     0.216 C 
ATOM      2  C   UNL     1       3.235   6.108  21.005  1.00  0.00     0.070 C 
ATOM      3  C   UNL     1       2.782   4.852  20.321  1.00  0.00     0.037 C 
ATOM      4  C   UNL     1       1.841   4.013  20.753  1.00  0.00     0.021 C 
ATOM      5  C   UNL     1       3.590   4.690  19.140  1.00  0.00     0.334 C 
ATOM      6  O   UNL     1       3.601   3.683  18.383  1.00  0.00    -0.247 OA
ATOM      7  O   UNL     1       4.384   5.800  18.954  1.00  0.00    -0.455 OA
ENDROOT
BRANCH   2   8
ATOM      8  C   UNL     1       4.134   5.701  22.202  1.00  0.00     0.017 C 
BRANCH   8   9
ATOM      9  C   UNL     1       4.089   6.622  23.433  1.00  0.00     0.031 C 
BRANCH   9  10
ATOM     10  C   UNL     1       4.971   7.848  23.298  1.00  0.00    -0.077 C 
ATOM     11  C   UNL     1       6.322   7.834  23.968  1.00  0.00     0.039 C 
ATOM     12  C   UNL     1       4.626   8.948  22.590  1.00  0.00    -0.028 CG0
ATOM     13  G   UNL     1       3.272   9.214  21.978  1.00  0.00     0.000 G0
ENDBRANCH   9  10
ENDBRANCH   8   9
ENDBRANCH   2   8
BRANCH   1  14
ATOM     14  C   UNL     1       3.180   7.861  19.066  1.00  0.00     0.192 C 
ATOM     15  C   UNL     1       2.995   9.324  19.345  1.00  0.00     0.096 C 
ATOM     16  O   UNL     1       4.031   8.858  18.520  1.00  0.00    -0.362 OA
ATOM     17  C   UNL     1       1.893  10.020  18.541  1.00  0.00     0.045 C 
BRANCH  15  18
ATOM     18  C   UNL     1       3.439  10.015  20.656  1.00  0.00     0.042 C 
BRANCH  18  19
ATOM     19  C   UNL     1       3.273   9.221  21.966  1.00  0.00     0.030 CG0
ATOM     20  G   UNL     1       4.629   8.942  22.567  1.00  0.00     0.000 G0
ENDBRANCH  18  19
ENDBRANCH  15  18
ENDBRANCH   1  14
TORSDOF 0
ENDMDL
MODEL 3
REMARK VINA RESULT:    -4.930      2.292      4.097
REMARK INTER + INTRA:          -6.390
REMARK INTER:                  -6.612
REMARK INTRA:                   0.222
REMARK UNBOUND:                 0.269
REMARK SMILES C=C1C(=O)O[C@@H]2[C@@H]1CCC(C)=CCC[C@@]1(C)O[C@@H]21
REMARK SMILES IDX 6 1 7 2 2 3 1 4 3 5 4 6 5 7 8 8 9 9 10 10 11 11 12 12 18 14
REMARK SMILES IDX 15 15 17 16 16 17 14 18 13 19
REMARK H PARENT
REMARK Flexibility Score: 70.00
ROOT
ATOM      1  C   UNL     1       3.299   5.438  21.603  1.00  0.00     0.216 C 
ATOM      2  C   UNL     1       3.185   4.661  20.246  1.00  0.00     0.070 C 
ATOM      3  C   UNL     1       4.219   3.585  20.406  1.00  0.00     0.037 C 
ATOM      4  C   UNL     1       4.722   2.823  19.436  1.00  0.00     0.021 C 
ATOM      5  C   UNL     1       4.527   3.491  21.810  1.00  0.00     0.334 C 
ATOM      6  O   UNL     1       5.247   2.611  22.352  1.00  0.00    -0.247 OA
ATOM      7  O   UNL     1       3.900   4.504  22.502  1.00  0.00    -0.455 OA
ENDROOT
BRANCH   2   8
ATOM      8  C   UNL     1       1.807   3.972  20.061  1.00  0.00     0.017 C 
BRANCH   8   9
ATOM      9  C   UNL     1       0.572   4.884  20.153  1.00  0.00     0.031 C 
BRANCH   9  10
ATOM     10  C   UNL     1       0.442   5.838  18.981  1.00  0.00    -0.077 C 
ATOM     11  C   UNL     1      -0.115   5.307  17.685  1.00  0.00     0.039 C 
ATOM     12  C   UNL     1       0.774   7.149  19.038  1.00  0.00    -0.028 CG0
ATOM     13  G   UNL     1       1.479   7.830  20.186  1.00  0.00     0.000 G0
ENDBRANCH   9  10
ENDBRANCH   8   9
ENDBRANCH   2   8
BRANCH   1  14
ATOM     14  C   UNL     1       4.247   6.666  21.545  1.00  0.00     0.192 C 
ATOM     15  C   UNL     1       4.039   7.954  20.803  1.00  0.00     0.096 C 
ATOM     16  O   UNL     1       3.601   7.789  22.127  1.00  0.00    -0.362 OA
ATOM     17  C   UNL     1       5.259   8.875  20.716  1.00  0.00     0.045 C 
BRANCH  15  18
ATOM     18  C   UNL     1       2.927   8.173  19.750  1.00  0.00     0.042 C 
BRANCH  18  19
ATOM     19  C   UNL     1       1.481   7.849  20.169  1.00  0.00     0.030 CG0
ATOM     20  G   UNL     1       0.773   7.136  19.043  1.00  0.00     0.000 G0
ENDBRANCH  18  19
ENDBRANCH  15  18
ENDBRANCH   1  14
TORSDOF 0
ENDMDL
MODEL 4
REMARK VINA RESULT:    -4.918      2.453      5.167
REMARK INTER + INTRA:          -6.374
REMARK INTER:                  -6.841
REMARK INTRA:                   0.467
REMARK UNBOUND:                 0.269
REMARK SMILES C=C1C(=O)O[C@@H]2[C@@H]1CCC(C)=CCC[C@@]1(C)O[C@@H]21
REMARK SMILES IDX 6 1 7 2 2 3 1 4 3 5 4 6 5 7 8 8 9 9 10 10 11 11 12 12 18 14
REMARK SMILES IDX 15 15 17 16 16 17 14 18 13 19
REMARK H PARENT
REMARK Flexibility Score: 70.00
ROOT
ATOM      1  C   UNL     1       3.001   6.082  21.624  1.00  0.00     0.216 C 
ATOM      2  C   UNL     1       3.229   6.453  20.118  1.00  0.00     0.070 C 
ATOM      3  C   UNL     1       3.759   5.170  19.549  1.00  0.00     0.037 C 
ATOM      4  C   UNL     1       4.373   5.021  18.375  1.00  0.00     0.021 C 
ATOM      5  C   UNL     1       3.435   4.120  20.480  1.00  0.00     0.334 C 
ATOM      6  O   UNL     1       3.593   2.886  20.287  1.00  0.00    -0.247 OA
ATOM      7  O   UNL     1       2.896   4.656  21.629  1.00  0.00    -0.455 OA
ENDROOT
BRANCH   2   8
ATOM      8  C   UNL     1       1.910   6.794  19.375  1.00  0.00     0.017 C 
BRANCH   8   9
ATOM      9  C   UNL     1       1.286   8.164  19.689  1.00  0.00     0.031 C 
BRANCH   9  10
ATOM     10  C   UNL     1       2.181   9.331  19.317  1.00  0.00    -0.077 C 
ATOM     11  C   UNL     1       2.157   9.825  17.893  1.00  0.00     0.039 C 
ATOM     12  C   UNL     1       2.984   9.972  20.197  1.00  0.00    -0.028 CG0
ATOM     13  G   UNL     1       3.259   9.540  21.617  1.00  0.00     0.000 G0
ENDBRANCH   9  10
ENDBRANCH   8   9
ENDBRANCH   2   8
BRANCH   1  14
ATOM     14  C   UNL     1       4.196   6.439  22.547  1.00  0.00     0.192 C 
ATOM     15  C   UNL     1       4.895   7.761  22.676  1.00  0.00     0.096 C 
ATOM     16  O   UNL     1       3.792   7.430  23.480  1.00  0.00    -0.362 OA
ATOM     17  C   UNL     1       6.205   7.746  23.469  1.00  0.00     0.045 C 
BRANCH  15  18
ATOM     18  C   UNL     1       4.686   8.946  21.705  1.00  0.00     0.042 C 
BRANCH  18  19
ATOM     19  C   UNL     1       3.273   9.556  21.625  1.00  0.00     0.030 CG0
ATOM     20  G   UNL     1       2.984   9.986  20.207  1.00  0.00     0.000 G0
ENDBRANCH  18  19
ENDBRANCH  15  18
ENDBRANCH   1  14
TORSDOF 0
ENDMDL
MODEL 5
REMARK VINA RESULT:    -4.771      1.689      2.069
REMARK INTER + INTRA:          -6.176
REMARK INTER:                  -6.500
REMARK INTRA:                   0.325
REMARK UNBOUND:                 0.269
REMARK SMILES C=C1C(=O)O[C@@H]2[C@@H]1CCC(C)=CCC[C@@]1(C)O[C@@H]21
REMARK SMILES IDX 6 1 7 2 2 3 1 4 3 5 4 6 5 7 8 8 9 9 10 10 11 11 12 12 18 14
REMARK SMILES IDX 15 15 17 16 16 17 14 18 13 19
REMARK H PARENT
REMARK Flexibility Score: 70.00
ROOT
ATOM      1  C   UNL     1       2.456   7.216  20.417  1.00  0.00     0.216 C 
ATOM      2  C   UNL     1       3.966   6.970  20.759  1.00  0.00     0.070 C 
ATOM      3  C   UNL     1       4.480   8.366  20.961  1.00  0.00     0.037 C 
ATOM      4  C   UNL     1       5.759   8.738  20.997  1.00  0.00     0.021 C 
ATOM      5  C   UNL     1       3.337   9.219  21.162  1.00  0.00     0.334 C 
ATOM      6  O   UNL     1       3.371  10.432  21.500  1.00  0.00    -0.247 OA
ATOM      7  O   UNL     1       2.174   8.512  20.951  1.00  0.00    -0.455 OA
ENDROOT
BRANCH   2   8
ATOM      8  C   UNL     1       4.164   6.194  22.088  1.00  0.00     0.017 C 
BRANCH   8   9
ATOM      9  C   UNL     1       3.287   4.945  22.284  1.00  0.00     0.031 C 
BRANCH   9  10
ATOM     10  C   UNL     1       3.679   3.790  21.383  1.00  0.00    -0.077 C 
ATOM     11  C   UNL     1       4.904   2.987  21.741  1.00  0.00     0.039 C 
ATOM     12  C   UNL     1       2.976   3.420  20.287  1.00  0.00    -0.028 CG0
ATOM     13  G   UNL     1       1.820   4.180  19.684  1.00  0.00     0.000 G0
ENDBRANCH   9  10
ENDBRANCH   8   9
ENDBRANCH   2   8
BRANCH   1  14
ATOM     14  C   UNL     1       2.162   7.294  18.895  1.00  0.00     0.192 C 
ATOM     15  C   UNL     1       1.949   6.155  17.940  1.00  0.00     0.096 C 
ATOM     16  O   UNL     1       0.879   6.744  18.634  1.00  0.00    -0.362 OA
ATOM     17  C   UNL     1       1.940   6.526  16.455  1.00  0.00     0.045 C 
BRANCH  15  18
ATOM     18  C   UNL     1       2.239   4.676  18.284  1.00  0.00     0.042 C 
BRANCH  18  19
ATOM     19  C   UNL     1       1.830   4.180  19.685  1.00  0.00     0.030 CG0
ATOM     20  G   UNL     1       2.966   3.400  20.300  1.00  0.00     0.000 G0
ENDBRANCH  18  19
ENDBRANCH  15  18
ENDBRANCH   1  14
TORSDOF 0
ENDMDL
MODEL 6
REMARK VINA RESULT:    -4.754      2.091      4.352
REMARK INTER + INTRA:          -6.152
REMARK INTER:                  -6.406
REMARK INTRA:                   0.254
REMARK UNBOUND:                 0.269
REMARK SMILES C=C1C(=O)O[C@@H]2[C@@H]1CCC(C)=CCC[C@@]1(C)O[C@@H]21
REMARK SMILES IDX 6 1 7 2 2 3 1 4 3 5 4 6 5 7 8 8 9 9 10 10 11 11 12 12 18 14
REMARK SMILES IDX 15 15 17 16 16 17 14 18 13 19
REMARK H PARENT
REMARK Flexibility Score: 70.00
ROOT
ATOM      1  C   UNL     1       2.164   6.319  20.293  1.00  0.00     0.216 C 
ATOM      2  C   UNL     1       3.283   7.415  20.367  1.00  0.00     0.070 C 
ATOM      3  C   UNL     1       2.871   8.366  19.282  1.00  0.00     0.037 C 
ATOM      4  C   UNL     1       3.627   9.322  18.742  1.00  0.00     0.021 C 
ATOM      5  C   UNL     1       1.492   8.093  18.972  1.00  0.00     0.334 C 
ATOM      6  O   UNL     1       0.756   8.775  18.211  1.00  0.00    -0.247 OA
ATOM      7  O   UNL     1       1.067   6.970  19.648  1.00  0.00    -0.455 OA
ENDROOT
BRANCH   2   8
ATOM      8  C   UNL     1       3.277   8.191  21.709  1.00  0.00     0.017 C 
BRANCH   8   9
ATOM      9  C   UNL     1       3.233   7.340  22.990  1.00  0.00     0.031 C 
BRANCH   9  10
ATOM     10  C   UNL     1       4.532   6.606  23.267  1.00  0.00    -0.077 C 
ATOM     11  C   UNL     1       5.683   7.386  23.850  1.00  0.00     0.039 C 
ATOM     12  C   UNL     1       4.710   5.284  23.044  1.00  0.00    -0.028 CG0
ATOM     13  G   UNL     1       3.740   4.371  22.334  1.00  0.00     0.000 G0
ENDBRANCH   9  10
ENDBRANCH   8   9
ENDBRANCH   2   8
BRANCH   1  14
ATOM     14  C   UNL     1       2.536   5.101  19.405  1.00  0.00     0.192 C 
ATOM     15  C   UNL     1       3.438   3.952  19.751  1.00  0.00     0.096 C 
ATOM     16  O   UNL     1       2.058   3.910  20.014  1.00  0.00    -0.362 OA
ATOM     17  C   UNL     1       3.825   3.037  18.586  1.00  0.00     0.045 C 
BRANCH  15  18
ATOM     18  C   UNL     1       4.359   3.923  20.993  1.00  0.00     0.042 C 
BRANCH  18  19
ATOM     19  C   UNL     1       3.751   4.366  22.337  1.00  0.00     0.030 CG0
ATOM     20  G   UNL     1       4.716   5.277  23.056  1.00  0.00     0.000 G0
ENDBRANCH  18  19
ENDBRANCH  15  18
ENDBRANCH   1  14
TORSDOF 0
ENDMDL
MODEL 7
REMARK VINA RESULT:    -4.704      2.543      5.588
REMARK INTER + INTRA:          -6.084
REMARK INTER:                  -6.303
REMARK INTRA:                   0.219
REMARK UNBOUND:                 0.269
REMARK SMILES C=C1C(=O)O[C@@H]2[C@@H]1CCC(C)=CCC[C@@]1(C)O[C@@H]21
REMARK SMILES IDX 6 1 7 2 2 3 1 4 3 5 4 6 5 7 8 8 9 9 10 10 11 11 12 12 18 14
REMARK SMILES IDX 15 15 17 16 16 17 14 18 13 19
REMARK H PARENT
REMARK Flexibility Score: 70.00
ROOT
ATOM      1  C   UNL     1       1.650   4.880  20.518  1.00  0.00     0.216 C 
ATOM      2  C   UNL     1       2.121   5.962  19.485  1.00  0.00     0.070 C 
ATOM      3  C   UNL     1       1.647   5.386  18.182  1.00  0.00     0.037 C 
ATOM      4  C   UNL     1       2.031   5.769  16.965  1.00  0.00     0.021 C 
ATOM      5  C   UNL     1       0.661   4.382  18.489  1.00  0.00     0.334 C 
ATOM      6  O   UNL     1      -0.062   3.777  17.654  1.00  0.00    -0.247 OA
ATOM      7  O   UNL     1       0.598   4.180  19.850  1.00  0.00    -0.455 OA
ENDROOT
BRANCH   2   8
ATOM      8  C   UNL     1       1.418   7.330  19.684  1.00  0.00     0.017 C 
BRANCH   8   9
ATOM      9  C   UNL     1       1.497   7.938  21.094  1.00  0.00     0.031 C 
BRANCH   9  10
ATOM     10  C   UNL     1       2.886   8.425  21.461  1.00  0.00    -0.077 C 
ATOM     11  C   UNL     1       3.351   9.747  20.905  1.00  0.00     0.039 C 
ATOM     12  C   UNL     1       3.727   7.751  22.280  1.00  0.00    -0.028 CG0
ATOM     13  G   UNL     1       3.509   6.356  22.813  1.00  0.00     0.000 G0
ENDBRANCH   9  10
ENDBRANCH   8   9
ENDBRANCH   2   8
BRANCH   1  14
ATOM     14  C   UNL     1       2.734   3.824  20.859  1.00  0.00     0.192 C 
ATOM     15  C   UNL     1       3.977   4.013  21.679  1.00  0.00     0.096 C 
ATOM     16  O   UNL     1       2.764   3.614  22.263  1.00  0.00    -0.362 OA
ATOM     17  C   UNL     1       4.990   2.866  21.626  1.00  0.00     0.045 C 
BRANCH  15  18
ATOM     18  C   UNL     1       4.514   5.393  22.125  1.00  0.00     0.042 C 
BRANCH  18  19
ATOM     19  C   UNL     1       3.524   6.350  22.816  1.00  0.00     0.030 CG0
ATOM     20  G   UNL     1       3.724   7.752  22.295  1.00  0.00     0.000 G0
ENDBRANCH  18  19
ENDBRANCH  15  18
ENDBRANCH   1  14
TORSDOF 0
ENDMDL
MODEL 8
REMARK VINA RESULT:    -4.679      2.100      4.251
REMARK INTER + INTRA:          -6.051
REMARK INTER:                  -6.810
REMARK INTRA:                   0.760
REMARK UNBOUND:                 0.269
REMARK SMILES C=C1C(=O)O[C@@H]2[C@@H]1CCC(C)=CCC[C@@]1(C)O[C@@H]21
REMARK SMILES IDX 6 1 7 2 2 3 1 4 3 5 4 6 5 7 8 8 9 9 10 10 11 11 12 12 18 14
REMARK SMILES IDX 15 15 17 16 16 17 14 18 13 19
REMARK H PARENT
REMARK Flexibility Score: 70.00
ROOT
ATOM      1  C   UNL     1       4.540   7.716  20.632  1.00  0.00     0.216 C 
ATOM      2  C   UNL     1       3.058   7.219  20.750  1.00  0.00     0.070 C 
ATOM      3  C   UNL     1       2.319   8.216  19.907  1.00  0.00     0.037 C 
ATOM      4  C   UNL     1       1.001   8.416  19.894  1.00  0.00     0.021 C 
ATOM      5  C   UNL     1       3.290   8.879  19.074  1.00  0.00     0.334 C 
ATOM      6  O   UNL     1       3.035   9.680  18.137  1.00  0.00    -0.247 OA
ATOM      7  O   UNL     1       4.563   8.495  19.434  1.00  0.00    -0.455 OA
ENDROOT
BRANCH   2   8
ATOM      8  C   UNL     1       2.842   5.815  20.127  1.00  0.00     0.017 C 
BRANCH   8   9
ATOM      9  C   UNL     1       2.641   4.654  21.115  1.00  0.00     0.031 C 
BRANCH   9  10
ATOM     10  C   UNL     1       3.941   4.111  21.676  1.00  0.00    -0.077 C 
ATOM     11  C   UNL     1       4.464   2.805  21.133  1.00  0.00     0.039 C 
ATOM     12  C   UNL     1       4.675   4.744  22.620  1.00  0.00    -0.028 CG0
ATOM     13  G   UNL     1       4.253   5.972  23.388  1.00  0.00     0.000 G0
ENDBRANCH   9  10
ENDBRANCH   8   9
ENDBRANCH   2   8
BRANCH   1  14
ATOM     14  C   UNL     1       4.979   8.663  21.781  1.00  0.00     0.192 C 
ATOM     15  C   UNL     1       5.532   8.284  23.124  1.00  0.00     0.096 C 
ATOM     16  O   UNL     1       6.370   8.503  22.019  1.00  0.00    -0.362 OA
ATOM     17  C   UNL     1       5.626   9.419  24.148  1.00  0.00     0.045 C 
BRANCH  15  18
ATOM     18  C   UNL     1       5.523   6.843  23.685  1.00  0.00     0.042 C 
BRANCH  18  19
ATOM     19  C   UNL     1       4.277   5.981  23.405  1.00  0.00     0.030 CG0
ATOM     20  G   UNL     1       4.675   4.750  22.626  1.00  0.00     0.000 G0
ENDBRANCH  18  19
ENDBRANCH  15  18
ENDBRANCH   1  14
TORSDOF 0
ENDMDL
MODEL 9
REMARK VINA RESULT:    -4.479      3.173      4.848
REMARK INTER + INTRA:          -5.781
REMARK INTER:                  -5.999
REMARK INTRA:                   0.217
REMARK UNBOUND:                 0.269
REMARK SMILES C=C1C(=O)O[C@@H]2[C@@H]1CCC(C)=CCC[C@@]1(C)O[C@@H]21
REMARK SMILES IDX 6 1 7 2 2 3 1 4 3 5 4 6 5 7 8 8 9 9 10 10 11 11 12 12 18 14
REMARK SMILES IDX 15 15 17 16 16 17 14 18 13 19
REMARK H PARENT
REMARK Flexibility Score: 70.00
ROOT
ATOM      1  C   UNL     1       3.594   4.896  18.707  1.00  0.00     0.216 C 
ATOM      2  C   UNL     1       3.312   5.252  20.208  1.00  0.00     0.070 C 
ATOM      3  C   UNL     1       3.684   3.981  20.913  1.00  0.00     0.037 C 
ATOM      4  C   UNL     1       3.372   3.653  22.166  1.00  0.00     0.021 C 
ATOM      5  C   UNL     1       4.488   3.204  20.004  1.00  0.00     0.334 C 
ATOM      6  O   UNL     1       5.101   2.140  20.284  1.00  0.00    -0.247 OA
ATOM      7  O   UNL     1       4.514   3.804  18.764  1.00  0.00    -0.455 OA
ENDROOT
BRANCH   2   8
ATOM      8  C   UNL     1       4.233   6.379  20.742  1.00  0.00     0.017 C 
BRANCH   8   9
ATOM      9  C   UNL     1       4.312   7.657  19.889  1.00  0.00     0.031 C 
BRANCH   9  10
ATOM     10  C   UNL     1       3.044   8.489  19.936  1.00  0.00    -0.077 C 
ATOM     11  C   UNL     1       2.801   9.354  21.147  1.00  0.00     0.039 C 
ATOM     12  C   UNL     1       2.128   8.519  18.941  1.00  0.00    -0.028 CG0
ATOM     13  G   UNL     1       2.114   7.623  17.727  1.00  0.00     0.000 G0
ENDBRANCH   9  10
ENDBRANCH   8   9
ENDBRANCH   2   8
BRANCH   1  14
ATOM     14  C   UNL     1       2.347   4.380  17.940  1.00  0.00     0.192 C 
ATOM     15  C   UNL     1       1.184   5.181  17.430  1.00  0.00     0.096 C 
ATOM     16  O   UNL     1       2.323   4.952  16.640  1.00  0.00    -0.362 OA
ATOM     17  C   UNL     1      -0.020   4.369  16.945  1.00  0.00     0.045 C 
BRANCH  15  18
ATOM     18  C   UNL     1       0.918   6.655  17.814  1.00  0.00     0.042 C 
BRANCH  18  19
ATOM     19  C   UNL     1       2.101   7.638  17.715  1.00  0.00     0.030 CG0
ATOM     20  G   UNL     1       2.130   8.524  18.936  1.00  0.00     0.000 G0
ENDBRANCH  18  19
ENDBRANCH  15  18
ENDBRANCH   1  14
TORSDOF 0
ENDMDL
