MODEL 1
REMARK VINA RESULT:    -5.678      0.000      0.000
REMARK INTER + INTRA:         -10.916
REMARK INTER:                  -9.993
REMARK INTRA:                  -0.923
REMARK UNBOUND:                -0.923
REMARK SMILES CCCCCCC=CCCCCCCCC(=O)[O-]
REMARK SMILES IDX 10 1 11 2 12 3 13 4 14 5 15 6 16 7 17 8 18 9 9 10 8 11 7 12
REMARK SMILES IDX 6 13 5 14 4 15 3 16 2 17 1 18
REMARK H PARENT
REMARK Flexibility Score: inf
ROOT
ATOM      1  C   UNL     1     -11.766  11.014   7.428  1.00  0.00     0.004 C 
ENDROOT
BRANCH   1   2
ATOM      2  C   UNL     1     -11.968  10.694   5.935  1.00  0.00     0.000 C 
BRANCH   2   3
ATOM      3  C   UNL     1     -11.222  11.670   5.010  1.00  0.00     0.000 C 
BRANCH   3   4
ATOM      4  C   UNL     1     -10.851  11.044   3.653  1.00  0.00     0.000 C 
BRANCH   4   5
ATOM      5  C   UNL     1      -9.381  11.222   3.228  1.00  0.00     0.006 C 
BRANCH   5   6
ATOM      6  C   UNL     1      -9.209  12.212   2.069  1.00  0.00     0.053 C 
BRANCH   6   7
ATOM      7  C   UNL     1      -8.837  13.565   2.589  1.00  0.00     0.041 C 
ATOM      8  O   UNL     1      -7.759  13.728   3.219  1.00  0.00    -0.550 OA
ATOM      9  O   UNL     1      -9.705  14.637   2.422  1.00  0.00    -0.550 OA
ENDBRANCH   6   7
ENDBRANCH   5   6
ENDBRANCH   4   5
ENDBRANCH   3   4
ENDBRANCH   2   3
ENDBRANCH   1   2
BRANCH   1  10
ATOM     10  C   UNL     1     -10.848  12.219   7.707  1.00  0.00     0.027 C 
BRANCH  10  11
ATOM     11  C   UNL     1     -10.861  12.649   9.152  1.00  0.00    -0.031 C 
ATOM     12  C   UNL     1     -10.084  13.612   9.684  1.00  0.00    -0.031 C 
BRANCH  12  13
ATOM     13  C   UNL     1      -9.099  14.461   8.916  1.00  0.00     0.027 C 
BRANCH  13  14
ATOM     14  C   UNL     1      -7.849  14.762   9.755  1.00  0.00     0.004 C 
BRANCH  14  15
ATOM     15  C   UNL     1      -7.642  13.728  10.875  1.00  0.00     0.000 C 
BRANCH  15  16
ATOM     16  C   UNL     1      -7.080  14.354  12.161  1.00  0.00    -0.000 C 
BRANCH  16  17
ATOM     17  C   UNL     1      -7.821  13.883  13.421  1.00  0.00    -0.003 C 
ATOM     18  C   UNL     1      -8.230  12.418  13.302  1.00  0.00     0.004 C 
ENDBRANCH  16  17
ENDBRANCH  15  16
ENDBRANCH  14  15
ENDBRANCH  13  14
ENDBRANCH  12  13
ENDBRANCH  10  11
ENDBRANCH   1  10
TORSDOF 13
ENDMDL
MODEL 2
REMARK VINA RESULT:    -5.644      3.148      7.527
REMARK INTER + INTRA:         -10.857
REMARK INTER:                  -9.965
REMARK INTRA:                  -0.892
REMARK UNBOUND:                -0.923
REMARK SMILES CCCCCCC=CCCCCCCCC(=O)[O-]
REMARK SMILES IDX 10 1 11 2 12 3 13 4 14 5 15 6 16 7 17 8 18 9 9 10 8 11 7 12
REMARK SMILES IDX 6 13 5 14 4 15 3 16 2 17 1 18
REMARK H PARENT
REMARK Flexibility Score: inf
ROOT
ATOM      1  C   UNL     1     -12.002  10.318   6.052  1.00  0.00     0.004 C 
ENDROOT
BRANCH   1   2
ATOM      2  C   UNL     1     -12.193  10.451   7.575  1.00  0.00     0.000 C 
BRANCH   2   3
ATOM      3  C   UNL     1     -13.120  11.616   7.960  1.00  0.00     0.000 C 
BRANCH   3   4
ATOM      4  C   UNL     1     -12.402  12.710   8.772  1.00  0.00     0.000 C 
BRANCH   4   5
ATOM      5  C   UNL     1     -10.876  12.539   8.897  1.00  0.00     0.006 C 
BRANCH   5   6
ATOM      6  C   UNL     1     -10.145  13.863   9.156  1.00  0.00     0.053 C 
BRANCH   6   7
ATOM      7  C   UNL     1      -9.302  13.761  10.388  1.00  0.00     0.041 C 
ATOM      8  O   UNL     1      -9.311  12.708  11.076  1.00  0.00    -0.550 OA
ATOM      9  O   UNL     1      -8.544  14.849  10.803  1.00  0.00    -0.550 OA
ENDBRANCH   6   7
ENDBRANCH   5   6
ENDBRANCH   4   5
ENDBRANCH   3   4
ENDBRANCH   2   3
ENDBRANCH   1   2
BRANCH   1  10
ATOM     10  C   UNL     1     -11.230  11.479   5.399  1.00  0.00     0.027 C 
BRANCH  10  11
ATOM     11  C   UNL     1     -10.881  11.219   3.955  1.00  0.00    -0.031 C 
ATOM     12  C   UNL     1     -10.181  12.051   3.161  1.00  0.00    -0.031 C 
BRANCH  12  13
ATOM     13  C   UNL     1      -9.581  13.369   3.593  1.00  0.00     0.027 C 
BRANCH  13  14
ATOM     14  C   UNL     1      -8.054  13.272   3.715  1.00  0.00     0.004 C 
BRANCH  14  15
ATOM     15  C   UNL     1      -7.342  13.695   2.418  1.00  0.00     0.000 C 
BRANCH  15  16
ATOM     16  C   UNL     1      -8.185  14.656   1.566  1.00  0.00    -0.000 C 
BRANCH  16  17
ATOM     17  C   UNL     1      -7.447  15.132   0.306  1.00  0.00    -0.003 C 
ATOM     18  C   UNL     1      -5.950  15.271   0.566  1.00  0.00     0.004 C 
ENDBRANCH  16  17
ENDBRANCH  15  16
ENDBRANCH  14  15
ENDBRANCH  13  14
ENDBRANCH  12  13
ENDBRANCH  10  11
ENDBRANCH   1  10
TORSDOF 13
ENDMDL
MODEL 3
REMARK VINA RESULT:    -5.641      3.263      7.625
REMARK INTER + INTRA:         -10.851
REMARK INTER:                  -9.859
REMARK INTRA:                  -0.992
REMARK UNBOUND:                -0.923
REMARK SMILES CCCCCCC=CCCCCCCCC(=O)[O-]
REMARK SMILES IDX 10 1 11 2 12 3 13 4 14 5 15 6 16 7 17 8 18 9 9 10 8 11 7 12
REMARK SMILES IDX 6 13 5 14 4 15 3 16 2 17 1 18
REMARK H PARENT
REMARK Flexibility Score: inf
ROOT
ATOM      1  C   UNL     1     -11.533  11.653   8.154  1.00  0.00     0.004 C 
ENDROOT
BRANCH   1   2
ATOM      2  C   UNL     1     -11.006  12.602   9.245  1.00  0.00     0.000 C 
BRANCH   2   3
ATOM      3  C   UNL     1     -10.006  13.638   8.703  1.00  0.00     0.000 C 
BRANCH   3   4
ATOM      4  C   UNL     1     -10.118  15.004   9.405  1.00  0.00     0.000 C 
BRANCH   4   5
ATOM      5  C   UNL     1      -8.926  15.380  10.303  1.00  0.00     0.006 C 
BRANCH   5   6
ATOM      6  C   UNL     1      -7.774  14.369  10.224  1.00  0.00     0.053 C 
BRANCH   6   7
ATOM      7  C   UNL     1      -7.652  13.617  11.512  1.00  0.00     0.041 C 
ATOM      8  O   UNL     1      -8.565  12.831  11.876  1.00  0.00    -0.550 OA
ATOM      9  O   UNL     1      -6.550  13.821  12.334  1.00  0.00    -0.550 OA
ENDBRANCH   6   7
ENDBRANCH   5   6
ENDBRANCH   4   5
ENDBRANCH   3   4
ENDBRANCH   2   3
ENDBRANCH   1   2
BRANCH   1  10
ATOM     10  C   UNL     1     -10.967  11.917   6.746  1.00  0.00     0.027 C 
BRANCH  10  11
ATOM     11  C   UNL     1     -11.557  11.014   5.692  1.00  0.00    -0.031 C 
ATOM     12  C   UNL     1     -11.220  11.016   4.388  1.00  0.00    -0.031 C 
BRANCH  12  13
ATOM     13  C   UNL     1     -10.157  11.888   3.763  1.00  0.00     0.027 C 
BRANCH  13  14
ATOM     14  C   UNL     1      -9.195  11.061   2.900  1.00  0.00     0.004 C 
BRANCH  14  15
ATOM     15  C   UNL     1      -7.767  11.637   2.911  1.00  0.00     0.000 C 
BRANCH  15  16
ATOM     16  C   UNL     1      -7.721  13.095   3.393  1.00  0.00    -0.000 C 
BRANCH  16  17
ATOM     17  C   UNL     1      -7.594  14.096   2.236  1.00  0.00    -0.003 C 
ATOM     18  C   UNL     1      -8.903  14.848   2.013  1.00  0.00     0.004 C 
ENDBRANCH  16  17
ENDBRANCH  15  16
ENDBRANCH  14  15
ENDBRANCH  13  14
ENDBRANCH  12  13
ENDBRANCH  10  11
ENDBRANCH   1  10
TORSDOF 13
ENDMDL
MODEL 4
REMARK VINA RESULT:    -5.516      5.429      7.317
REMARK INTER + INTRA:         -10.632
REMARK INTER:                  -9.767
REMARK INTRA:                  -0.864
REMARK UNBOUND:                -0.923
REMARK SMILES CCCCCCC=CCCCCCCCC(=O)[O-]
REMARK SMILES IDX 10 1 11 2 12 3 13 4 14 5 15 6 16 7 17 8 18 9 9 10 8 11 7 12
REMARK SMILES IDX 6 13 5 14 4 15 3 16 2 17 1 18
REMARK H PARENT
REMARK Flexibility Score: inf
ROOT
ATOM      1  C   UNL     1     -10.863  11.480   3.788  1.00  0.00     0.004 C 
ENDROOT
BRANCH   1   2
ATOM      2  C   UNL     1     -10.842  11.394   5.325  1.00  0.00     0.000 C 
BRANCH   2   3
ATOM      3  C   UNL     1     -12.220  11.063   5.923  1.00  0.00     0.000 C 
BRANCH   3   4
ATOM      4  C   UNL     1     -12.188  10.911   7.455  1.00  0.00     0.000 C 
BRANCH   4   5
ATOM      5  C   UNL     1     -12.900   9.662   8.005  1.00  0.00     0.006 C 
BRANCH   5   6
ATOM      6  C   UNL     1     -13.353   8.696   6.902  1.00  0.00     0.053 C 
BRANCH   6   7
ATOM      7  C   UNL     1     -14.150   7.573   7.488  1.00  0.00     0.041 C 
ATOM      8  O   UNL     1     -14.973   7.795   8.414  1.00  0.00    -0.550 OA
ATOM      9  O   UNL     1     -13.949   6.272   7.044  1.00  0.00    -0.550 OA
ENDBRANCH   6   7
ENDBRANCH   5   6
ENDBRANCH   4   5
ENDBRANCH   3   4
ENDBRANCH   2   3
ENDBRANCH   1   2
BRANCH   1  10
ATOM     10  C   UNL     1     -10.269  12.777   3.209  1.00  0.00     0.027 C 
BRANCH  10  11
ATOM     11  C   UNL     1      -9.191  13.374   4.080  1.00  0.00    -0.031 C 
ATOM     12  C   UNL     1      -7.868  13.292   3.846  1.00  0.00    -0.031 C 
BRANCH  12  13
ATOM     13  C   UNL     1      -7.233  12.630   2.646  1.00  0.00     0.027 C 
BRANCH  13  14
ATOM     14  C   UNL     1      -7.041  11.126   2.876  1.00  0.00     0.004 C 
BRANCH  14  15
ATOM     15  C   UNL     1      -5.554  10.729   2.900  1.00  0.00     0.000 C 
BRANCH  15  16
ATOM     16  C   UNL     1      -4.910  10.935   4.280  1.00  0.00    -0.000 C 
BRANCH  16  17
ATOM     17  C   UNL     1      -4.517   9.612   4.953  1.00  0.00    -0.003 C 
ATOM     18  C   UNL     1      -3.902   9.856   6.328  1.00  0.00     0.004 C 
ENDBRANCH  16  17
ENDBRANCH  15  16
ENDBRANCH  14  15
ENDBRANCH  13  14
ENDBRANCH  12  13
ENDBRANCH  10  11
ENDBRANCH   1  10
TORSDOF 13
ENDMDL
MODEL 5
REMARK VINA RESULT:    -5.505      4.590      6.774
REMARK INTER + INTRA:         -10.612
REMARK INTER:                  -9.600
REMARK INTRA:                  -1.012
REMARK UNBOUND:                -0.923
REMARK SMILES CCCCCCC=CCCCCCCCC(=O)[O-]
REMARK SMILES IDX 10 1 11 2 12 3 13 4 14 5 15 6 16 7 17 8 18 9 9 10 8 11 7 12
REMARK SMILES IDX 6 13 5 14 4 15 3 16 2 17 1 18
REMARK H PARENT
REMARK Flexibility Score: inf
ROOT
ATOM      1  C   UNL     1      -7.528  12.904   2.778  1.00  0.00     0.004 C 
ENDROOT
BRANCH   1   2
ATOM      2  C   UNL     1      -8.228  13.265   4.101  1.00  0.00     0.000 C 
BRANCH   2   3
ATOM      3  C   UNL     1      -9.746  13.453   3.940  1.00  0.00     0.000 C 
BRANCH   3   4
ATOM      4  C   UNL     1     -10.427  12.261   3.243  1.00  0.00     0.000 C 
BRANCH   4   5
ATOM      5  C   UNL     1     -10.791  11.082   4.165  1.00  0.00     0.006 C 
BRANCH   5   6
ATOM      6  C   UNL     1     -11.159  11.525   5.587  1.00  0.00     0.053 C 
BRANCH   6   7
ATOM      7  C   UNL     1     -12.018  10.494   6.248  1.00  0.00     0.041 C 
ATOM      8  O   UNL     1     -12.767   9.756   5.558  1.00  0.00    -0.550 OA
ATOM      9  O   UNL     1     -12.029  10.383   7.633  1.00  0.00    -0.550 OA
ENDBRANCH   6   7
ENDBRANCH   5   6
ENDBRANCH   4   5
ENDBRANCH   3   4
ENDBRANCH   2   3
ENDBRANCH   1   2
BRANCH   1  10
ATOM     10  C   UNL     1      -6.412  11.851   2.909  1.00  0.00     0.027 C 
BRANCH  10  11
ATOM     11  C   UNL     1      -6.907  10.438   2.728  1.00  0.00    -0.031 C 
ATOM     12  C   UNL     1      -6.254   9.329   3.121  1.00  0.00    -0.031 C 
BRANCH  12  13
ATOM     13  C   UNL     1      -4.934   9.307   3.855  1.00  0.00     0.027 C 
BRANCH  13  14
ATOM     14  C   UNL     1      -4.949   8.282   4.997  1.00  0.00     0.004 C 
BRANCH  14  15
ATOM     15  C   UNL     1      -3.560   8.105   5.634  1.00  0.00     0.000 C 
BRANCH  15  16
ATOM     16  C   UNL     1      -3.632   7.572   7.074  1.00  0.00    -0.000 C 
BRANCH  16  17
ATOM     17  C   UNL     1      -4.782   8.197   7.878  1.00  0.00    -0.003 C 
ATOM     18  C   UNL     1      -4.313   9.437   8.634  1.00  0.00     0.004 C 
ENDBRANCH  16  17
ENDBRANCH  15  16
ENDBRANCH  14  15
ENDBRANCH  13  14
ENDBRANCH  12  13
ENDBRANCH  10  11
ENDBRANCH   1  10
TORSDOF 13
ENDMDL
MODEL 6
REMARK VINA RESULT:    -5.501      4.234      6.899
REMARK INTER + INTRA:         -10.605
REMARK INTER:                  -9.407
REMARK INTRA:                  -1.198
REMARK UNBOUND:                -0.923
REMARK SMILES CCCCCCC=CCCCCCCCC(=O)[O-]
REMARK SMILES IDX 10 1 11 2 12 3 13 4 14 5 15 6 16 7 17 8 18 9 9 10 8 11 7 12
REMARK SMILES IDX 6 13 5 14 4 15 3 16 2 17 1 18
REMARK H PARENT
REMARK Flexibility Score: inf
ROOT
ATOM      1  C   UNL     1      -6.471  11.592   2.976  1.00  0.00     0.004 C 
ENDROOT
BRANCH   1   2
ATOM      2  C   UNL     1      -7.166  10.423   2.255  1.00  0.00     0.000 C 
BRANCH   2   3
ATOM      3  C   UNL     1      -6.708   9.048   2.772  1.00  0.00     0.000 C 
BRANCH   3   4
ATOM      4  C   UNL     1      -5.384   9.112   3.555  1.00  0.00     0.000 C 
BRANCH   4   5
ATOM      5  C   UNL     1      -4.944   7.790   4.209  1.00  0.00     0.006 C 
BRANCH   5   6
ATOM      6  C   UNL     1      -5.228   7.743   5.716  1.00  0.00     0.053 C 
BRANCH   6   7
ATOM      7  C   UNL     1      -4.189   8.517   6.466  1.00  0.00     0.041 C 
ATOM      8  O   UNL     1      -4.523   9.261   7.425  1.00  0.00    -0.550 OA
ATOM      9  O   UNL     1      -2.858   8.454   6.074  1.00  0.00    -0.550 OA
ENDBRANCH   6   7
ENDBRANCH   5   6
ENDBRANCH   4   5
ENDBRANCH   3   4
ENDBRANCH   2   3
ENDBRANCH   1   2
BRANCH   1  10
ATOM     10  C   UNL     1      -7.146  12.962   2.775  1.00  0.00     0.027 C 
BRANCH  10  11
ATOM     11  C   UNL     1      -7.913  13.427   3.988  1.00  0.00    -0.031 C 
ATOM     12  C   UNL     1      -9.238  13.277   4.174  1.00  0.00    -0.031 C 
BRANCH  12  13
ATOM     13  C   UNL     1     -10.179  12.574   3.224  1.00  0.00     0.027 C 
BRANCH  13  14
ATOM     14  C   UNL     1     -10.824  11.348   3.884  1.00  0.00     0.004 C 
BRANCH  14  15
ATOM     15  C   UNL     1     -10.845  11.460   5.418  1.00  0.00     0.000 C 
BRANCH  15  16
ATOM     16  C   UNL     1     -12.106  10.839   6.039  1.00  0.00    -0.000 C 
BRANCH  16  17
ATOM     17  C   UNL     1     -12.011  10.711   7.567  1.00  0.00    -0.003 C 
ATOM     18  C   UNL     1     -11.268  11.898   8.172  1.00  0.00     0.004 C 
ENDBRANCH  16  17
ENDBRANCH  15  16
ENDBRANCH  14  15
ENDBRANCH  13  14
ENDBRANCH  12  13
ENDBRANCH  10  11
ENDBRANCH   1  10
TORSDOF 13
ENDMDL
MODEL 7
REMARK VINA RESULT:    -5.413      5.585      8.061
REMARK INTER + INTRA:         -10.450
REMARK INTER:                  -9.174
REMARK INTRA:                  -1.276
REMARK UNBOUND:                -0.923
REMARK SMILES CCCCCCC=CCCCCCCCC(=O)[O-]
REMARK SMILES IDX 10 1 11 2 12 3 13 4 14 5 15 6 16 7 17 8 18 9 9 10 8 11 7 12
REMARK SMILES IDX 6 13 5 14 4 15 3 16 2 17 1 18
REMARK H PARENT
REMARK Flexibility Score: inf
ROOT
ATOM      1  C   UNL     1     -10.858  10.957   3.792  1.00  0.00     0.004 C 
ENDROOT
BRANCH   1   2
ATOM      2  C   UNL     1     -11.207  11.473   5.200  1.00  0.00     0.000 C 
BRANCH   2   3
ATOM      3  C   UNL     1     -12.276  10.617   5.901  1.00  0.00     0.000 C 
BRANCH   3   4
ATOM      4  C   UNL     1     -12.073  10.535   7.425  1.00  0.00     0.000 C 
BRANCH   4   5
ATOM      5  C   UNL     1     -12.981   9.528   8.155  1.00  0.00     0.006 C 
BRANCH   5   6
ATOM      6  C   UNL     1     -13.570   8.465   7.219  1.00  0.00     0.053 C 
BRANCH   6   7
ATOM      7  C   UNL     1     -14.326   7.440   8.004  1.00  0.00     0.041 C 
ATOM      8  O   UNL     1     -14.604   6.326   7.489  1.00  0.00    -0.550 OA
ATOM      9  O   UNL     1     -14.767   7.735   9.288  1.00  0.00    -0.550 OA
ENDBRANCH   6   7
ENDBRANCH   5   6
ENDBRANCH   4   5
ENDBRANCH   3   4
ENDBRANCH   2   3
ENDBRANCH   1   2
BRANCH   1  10
ATOM     10  C   UNL     1      -9.623  11.620   3.154  1.00  0.00     0.027 C 
BRANCH  10  11
ATOM     11  C   UNL     1      -9.131  12.819   3.924  1.00  0.00    -0.031 C 
ATOM     12  C   UNL     1      -8.872  14.030   3.396  1.00  0.00    -0.031 C 
BRANCH  12  13
ATOM     13  C   UNL     1      -9.077  14.413   1.949  1.00  0.00     0.027 C 
BRANCH  13  14
ATOM     14  C   UNL     1      -7.788  14.972   1.332  1.00  0.00     0.004 C 
BRANCH  14  15
ATOM     15  C   UNL     1      -7.023  13.908   0.526  1.00  0.00     0.000 C 
BRANCH  15  16
ATOM     16  C   UNL     1      -5.955  13.186   1.364  1.00  0.00    -0.000 C 
BRANCH  16  17
ATOM     17  C   UNL     1      -6.323  11.725   1.659  1.00  0.00    -0.003 C 
ATOM     18  C   UNL     1      -5.829  11.302   3.039  1.00  0.00     0.004 C 
ENDBRANCH  16  17
ENDBRANCH  15  16
ENDBRANCH  14  15
ENDBRANCH  13  14
ENDBRANCH  12  13
ENDBRANCH  10  11
ENDBRANCH   1  10
TORSDOF 13
ENDMDL
MODEL 8
REMARK VINA RESULT:    -5.402      5.660      8.241
REMARK INTER + INTRA:         -10.432
REMARK INTER:                  -9.441
REMARK INTRA:                  -0.990
REMARK UNBOUND:                -0.923
REMARK SMILES CCCCCCC=CCCCCCCCC(=O)[O-]
REMARK SMILES IDX 10 1 11 2 12 3 13 4 14 5 15 6 16 7 17 8 18 9 9 10 8 11 7 12
REMARK SMILES IDX 6 13 5 14 4 15 3 16 2 17 1 18
REMARK H PARENT
REMARK Flexibility Score: inf
ROOT
ATOM      1  C   UNL     1      -5.949   9.440   3.496  1.00  0.00     0.004 C 
ENDROOT
BRANCH   1   2
ATOM      2  C   UNL     1      -4.944   8.432   4.083  1.00  0.00     0.000 C 
BRANCH   2   3
ATOM      3  C   UNL     1      -3.928   9.087   5.034  1.00  0.00     0.000 C 
BRANCH   3   4
ATOM      4  C   UNL     1      -4.437   9.178   6.485  1.00  0.00     0.000 C 
BRANCH   4   5
ATOM      5  C   UNL     1      -4.256   7.899   7.324  1.00  0.00     0.006 C 
BRANCH   5   6
ATOM      6  C   UNL     1      -5.586   7.310   7.812  1.00  0.00     0.053 C 
BRANCH   6   7
ATOM      7  C   UNL     1      -5.661   5.852   7.485  1.00  0.00     0.041 C 
ATOM      8  O   UNL     1      -6.778   5.286   7.364  1.00  0.00    -0.550 OA
ATOM      9  O   UNL     1      -4.495   5.106   7.363  1.00  0.00    -0.550 OA
ENDBRANCH   6   7
ENDBRANCH   5   6
ENDBRANCH   4   5
ENDBRANCH   3   4
ENDBRANCH   2   3
ENDBRANCH   1   2
BRANCH   1  10
ATOM     10  C   UNL     1      -5.461  10.900   3.486  1.00  0.00     0.027 C 
BRANCH  10  11
ATOM     11  C   UNL     1      -6.115  11.735   2.414  1.00  0.00    -0.031 C 
ATOM     12  C   UNL     1      -7.046  12.684   2.626  1.00  0.00    -0.031 C 
BRANCH  12  13
ATOM     13  C   UNL     1      -7.563  13.112   3.980  1.00  0.00     0.027 C 
BRANCH  13  14
ATOM     14  C   UNL     1      -9.092  13.015   4.049  1.00  0.00     0.004 C 
BRANCH  14  15
ATOM     15  C   UNL     1      -9.635  11.831   3.229  1.00  0.00     0.000 C 
BRANCH  15  16
ATOM     16  C   UNL     1     -10.830  11.142   3.905  1.00  0.00    -0.000 C 
BRANCH  16  17
ATOM     17  C   UNL     1     -10.993  11.549   5.377  1.00  0.00    -0.003 C 
ATOM     18  C   UNL     1     -11.950  10.610   6.104  1.00  0.00     0.004 C 
ENDBRANCH  16  17
ENDBRANCH  15  16
ENDBRANCH  14  15
ENDBRANCH  13  14
ENDBRANCH  12  13
ENDBRANCH  10  11
ENDBRANCH   1  10
TORSDOF 13
ENDMDL
MODEL 9
REMARK VINA RESULT:    -5.399      4.432      6.549
REMARK INTER + INTRA:         -10.425
REMARK INTER:                  -9.644
REMARK INTRA:                  -0.781
REMARK UNBOUND:                -0.923
REMARK SMILES CCCCCCC=CCCCCCCCC(=O)[O-]
REMARK SMILES IDX 10 1 11 2 12 3 13 4 14 5 15 6 16 7 17 8 18 9 9 10 8 11 7 12
REMARK SMILES IDX 6 13 5 14 4 15 3 16 2 17 1 18
REMARK H PARENT
REMARK Flexibility Score: inf
ROOT
ATOM      1  C   UNL     1     -10.144  12.477   3.586  1.00  0.00     0.004 C 
ENDROOT
BRANCH   1   2
ATOM      2  C   UNL     1      -9.148  13.306   4.417  1.00  0.00     0.000 C 
BRANCH   2   3
ATOM      3  C   UNL     1      -7.737  13.333   3.804  1.00  0.00     0.000 C 
BRANCH   3   4
ATOM      4  C   UNL     1      -7.480  12.159   2.841  1.00  0.00     0.000 C 
BRANCH   4   5
ATOM      5  C   UNL     1      -6.989  12.558   1.437  1.00  0.00     0.006 C 
BRANCH   5   6
ATOM      6  C   UNL     1      -7.741  13.764   0.860  1.00  0.00     0.053 C 
BRANCH   6   7
ATOM      7  C   UNL     1      -6.775  14.767   0.312  1.00  0.00     0.041 C 
ATOM      8  O   UNL     1      -7.182  15.704  -0.422  1.00  0.00    -0.550 OA
ATOM      9  O   UNL     1      -5.416  14.637   0.572  1.00  0.00    -0.550 OA
ENDBRANCH   6   7
ENDBRANCH   5   6
ENDBRANCH   4   5
ENDBRANCH   3   4
ENDBRANCH   2   3
ENDBRANCH   1   2
BRANCH   1  10
ATOM     10  C   UNL     1     -10.854  11.356   4.367  1.00  0.00     0.027 C 
BRANCH  10  11
ATOM     11  C   UNL     1     -10.931  11.623   5.849  1.00  0.00    -0.031 C 
ATOM     12  C   UNL     1     -11.771  11.014   6.707  1.00  0.00    -0.031 C 
BRANCH  12  13
ATOM     13  C   UNL     1     -12.747   9.920   6.344  1.00  0.00     0.027 C 
BRANCH  13  14
ATOM     14  C   UNL     1     -13.081   9.045   7.558  1.00  0.00     0.004 C 
BRANCH  14  15
ATOM     15  C   UNL     1     -13.906   7.806   7.170  1.00  0.00     0.000 C 
BRANCH  15  16
ATOM     16  C   UNL     1     -13.483   6.547   7.942  1.00  0.00    -0.000 C 
BRANCH  16  17
ATOM     17  C   UNL     1     -14.678   5.674   8.351  1.00  0.00    -0.003 C 
ATOM     18  C   UNL     1     -15.151   4.809   7.187  1.00  0.00     0.004 C 
ENDBRANCH  16  17
ENDBRANCH  15  16
ENDBRANCH  14  15
ENDBRANCH  13  14
ENDBRANCH  12  13
ENDBRANCH  10  11
ENDBRANCH   1  10
TORSDOF 13
ENDMDL
