MODEL 1
REMARK VINA RESULT:    -5.544      0.000      0.000
REMARK INTER + INTRA:         -10.053
REMARK INTER:                  -9.432
REMARK INTRA:                  -0.621
REMARK UNBOUND:                -0.621
REMARK SMILES CCCCCCCCCCCCCC(=O)[O-]
REMARK SMILES IDX 8 1 9 2 10 3 11 4 12 5 13 6 14 7 15 8 16 9 7 10 6 11 5 12
REMARK SMILES IDX 4 13 3 14 2 15 1 16
REMARK H PARENT
REMARK Flexibility Score: inf
ROOT
ATOM      1  C   UNL     1      18.753  23.446  70.212  1.00  0.00     0.000 C 
ENDROOT
BRANCH   1   2
ATOM      2  C   UNL     1      18.287  22.192  70.969  1.00  0.00     0.000 C 
BRANCH   2   3
ATOM      3  C   UNL     1      17.249  22.515  72.059  1.00  0.00     0.000 C 
BRANCH   3   4
ATOM      4  C   UNL     1      15.975  21.665  71.930  1.00  0.00     0.000 C 
BRANCH   4   5
ATOM      5  C   UNL     1      16.177  20.423  71.048  1.00  0.00     0.006 C 
BRANCH   5   6
ATOM      6  C   UNL     1      15.477  19.203  71.653  1.00  0.00     0.053 C 
BRANCH   6   7
ATOM      7  C   UNL     1      16.068  17.938  71.113  1.00  0.00     0.041 C 
ATOM      8  O   UNL     1      16.131  17.748  69.871  1.00  0.00    -0.550 OA
ATOM      9  O   UNL     1      16.595  16.991  71.982  1.00  0.00    -0.550 OA
ENDBRANCH   6   7
ENDBRANCH   5   6
ENDBRANCH   4   5
ENDBRANCH   3   4
ENDBRANCH   2   3
ENDBRANCH   1   2
BRANCH   1  10
ATOM     10  C   UNL     1      17.969  24.708  70.613  1.00  0.00     0.000 C 
BRANCH  10  11
ATOM     11  C   UNL     1      18.851  25.969  70.661  1.00  0.00    -0.000 C 
BRANCH  11  12
ATOM     12  C   UNL     1      18.122  27.283  70.327  1.00  0.00    -0.000 C 
BRANCH  12  13
ATOM     13  C   UNL     1      19.084  28.446  70.038  1.00  0.00    -0.000 C 
BRANCH  13  14
ATOM     14  C   UNL     1      18.783  29.081  68.675  1.00  0.00    -0.000 C 
BRANCH  14  15
ATOM     15  C   UNL     1      18.339  28.020  67.661  1.00  0.00    -0.003 C 
ATOM     16  C   UNL     1      18.837  28.357  66.258  1.00  0.00     0.004 C 
ENDBRANCH  14  15
ENDBRANCH  13  14
ENDBRANCH  12  13
ENDBRANCH  11  12
ENDBRANCH  10  11
ENDBRANCH   1  10
TORSDOF 12
ENDMDL
MODEL 2
REMARK VINA RESULT:    -5.422     10.467     12.158
REMARK INTER + INTRA:          -9.846
REMARK INTER:                  -8.614
REMARK INTRA:                  -1.233
REMARK UNBOUND:                -0.621
REMARK SMILES CCCCCCCCCCCCCC(=O)[O-]
REMARK SMILES IDX 8 1 9 2 10 3 11 4 12 5 13 6 14 7 15 8 16 9 7 10 6 11 5 12
REMARK SMILES IDX 4 13 3 14 2 15 1 16
REMARK H PARENT
REMARK Flexibility Score: inf
ROOT
ATOM      1  C   UNL     1      15.730  16.704  62.359  1.00  0.00     0.000 C 
ENDROOT
BRANCH   1   2
ATOM      2  C   UNL     1      14.461  17.294  62.995  1.00  0.00     0.000 C 
BRANCH   2   3
ATOM      3  C   UNL     1      14.002  16.503  64.234  1.00  0.00     0.000 C 
BRANCH   3   4
ATOM      4  C   UNL     1      13.175  15.260  63.867  1.00  0.00     0.000 C 
BRANCH   4   5
ATOM      5  C   UNL     1      13.844  13.950  64.310  1.00  0.00     0.006 C 
BRANCH   5   6
ATOM      6  C   UNL     1      14.128  13.047  63.107  1.00  0.00     0.053 C 
BRANCH   6   7
ATOM      7  C   UNL     1      14.534  11.679  63.562  1.00  0.00     0.041 C 
ATOM      8  O   UNL     1      15.634  11.191  63.195  1.00  0.00    -0.550 OA
ATOM      9  O   UNL     1      13.719  10.965  64.431  1.00  0.00    -0.550 OA
ENDBRANCH   6   7
ENDBRANCH   5   6
ENDBRANCH   4   5
ENDBRANCH   3   4
ENDBRANCH   2   3
ENDBRANCH   1   2
BRANCH   1  10
ATOM     10  C   UNL     1      15.435  15.900  61.079  1.00  0.00     0.000 C 
BRANCH  10  11
ATOM     11  C   UNL     1      16.674  15.162  60.540  1.00  0.00    -0.000 C 
BRANCH  11  12
ATOM     12  C   UNL     1      17.221  15.704  59.207  1.00  0.00    -0.000 C 
BRANCH  12  13
ATOM     13  C   UNL     1      18.715  16.057  59.271  1.00  0.00    -0.000 C 
BRANCH  13  14
ATOM     14  C   UNL     1      18.950  17.293  60.148  1.00  0.00    -0.000 C 
BRANCH  14  15
ATOM     15  C   UNL     1      19.895  16.969  61.311  1.00  0.00    -0.003 C 
ATOM     16  C   UNL     1      19.465  17.690  62.586  1.00  0.00     0.004 C 
ENDBRANCH  14  15
ENDBRANCH  13  14
ENDBRANCH  12  13
ENDBRANCH  11  12
ENDBRANCH  10  11
ENDBRANCH   1  10
TORSDOF 12
ENDMDL
MODEL 3
REMARK VINA RESULT:    -5.318     10.963     12.513
REMARK INTER + INTRA:          -9.670
REMARK INTER:                  -8.508
REMARK INTRA:                  -1.162
REMARK UNBOUND:                -0.621
REMARK SMILES CCCCCCCCCCCCCC(=O)[O-]
REMARK SMILES IDX 8 1 9 2 10 3 11 4 12 5 13 6 14 7 15 8 16 9 7 10 6 11 5 12
REMARK SMILES IDX 4 13 3 14 2 15 1 16
REMARK H PARENT
REMARK Flexibility Score: inf
ROOT
ATOM      1  C   UNL     1      15.409  17.229  61.249  1.00  0.00     0.000 C 
ENDROOT
BRANCH   1   2
ATOM      2  C   UNL     1      15.542  16.571  62.632  1.00  0.00     0.000 C 
BRANCH   2   3
ATOM      3  C   UNL     1      14.291  15.763  63.022  1.00  0.00     0.000 C 
BRANCH   3   4
ATOM      4  C   UNL     1      14.250  15.428  64.522  1.00  0.00     0.000 C 
BRANCH   4   5
ATOM      5  C   UNL     1      13.693  14.024  64.802  1.00  0.00     0.006 C 
BRANCH   5   6
ATOM      6  C   UNL     1      13.549  13.225  63.503  1.00  0.00     0.053 C 
BRANCH   6   7
ATOM      7  C   UNL     1      14.279  11.922  63.606  1.00  0.00     0.041 C 
ATOM      8  O   UNL     1      13.832  11.003  64.340  1.00  0.00    -0.550 OA
ATOM      9  O   UNL     1      15.426  11.706  62.853  1.00  0.00    -0.550 OA
ENDBRANCH   6   7
ENDBRANCH   5   6
ENDBRANCH   4   5
ENDBRANCH   3   4
ENDBRANCH   2   3
ENDBRANCH   1   2
BRANCH   1  10
ATOM     10  C   UNL     1      15.032  16.223  60.146  1.00  0.00     0.000 C 
BRANCH  10  11
ATOM     11  C   UNL     1      16.160  15.220  59.842  1.00  0.00    -0.000 C 
BRANCH  11  12
ATOM     12  C   UNL     1      16.865  15.429  58.490  1.00  0.00    -0.000 C 
BRANCH  12  13
ATOM     13  C   UNL     1      18.217  16.144  58.622  1.00  0.00    -0.000 C 
BRANCH  13  14
ATOM     14  C   UNL     1      18.800  15.961  60.029  1.00  0.00    -0.000 C 
BRANCH  14  15
ATOM     15  C   UNL     1      19.422  17.266  60.540  1.00  0.00    -0.003 C 
ATOM     16  C   UNL     1      19.666  17.207  62.045  1.00  0.00     0.004 C 
ENDBRANCH  14  15
ENDBRANCH  13  14
ENDBRANCH  12  13
ENDBRANCH  11  12
ENDBRANCH  10  11
ENDBRANCH   1  10
TORSDOF 12
ENDMDL
MODEL 4
REMARK VINA RESULT:    -4.980     10.731     13.376
REMARK INTER + INTRA:          -9.095
REMARK INTER:                  -7.766
REMARK INTRA:                  -1.330
REMARK UNBOUND:                -0.621
REMARK SMILES CCCCCCCCCCCCCC(=O)[O-]
REMARK SMILES IDX 8 1 9 2 10 3 11 4 12 5 13 6 14 7 15 8 16 9 7 10 6 11 5 12
REMARK SMILES IDX 4 13 3 14 2 15 1 16
REMARK H PARENT
REMARK Flexibility Score: inf
ROOT
ATOM      1  C   UNL     1      16.458  13.471  59.647  1.00  0.00     0.000 C 
ENDROOT
BRANCH   1   2
ATOM      2  C   UNL     1      17.427  14.292  58.781  1.00  0.00     0.000 C 
BRANCH   2   3
ATOM      3  C   UNL     1      16.875  15.689  58.444  1.00  0.00     0.000 C 
BRANCH   3   4
ATOM      4  C   UNL     1      17.487  16.792  59.323  1.00  0.00     0.000 C 
BRANCH   4   5
ATOM      5  C   UNL     1      18.818  16.370  59.963  1.00  0.00     0.006 C 
BRANCH   5   6
ATOM      6  C   UNL     1      18.696  16.310  61.488  1.00  0.00     0.053 C 
BRANCH   6   7
ATOM      7  C   UNL     1      19.544  17.368  62.124  1.00  0.00     0.041 C 
ATOM      8  O   UNL     1      20.799  17.293  62.066  1.00  0.00    -0.550 OA
ATOM      9  O   UNL     1      18.947  18.462  62.738  1.00  0.00    -0.550 OA
ENDBRANCH   6   7
ENDBRANCH   5   6
ENDBRANCH   4   5
ENDBRANCH   3   4
ENDBRANCH   2   3
ENDBRANCH   1   2
BRANCH   1  10
ATOM     10  C   UNL     1      15.215  14.273  60.073  1.00  0.00     0.000 C 
BRANCH  10  11
ATOM     11  C   UNL     1      15.256  14.695  61.553  1.00  0.00    -0.000 C 
BRANCH  11  12
ATOM     12  C   UNL     1      14.851  16.156  61.822  1.00  0.00    -0.000 C 
BRANCH  12  13
ATOM     13  C   UNL     1      14.913  16.531  63.310  1.00  0.00    -0.000 C 
BRANCH  13  14
ATOM     14  C   UNL     1      13.508  16.587  63.922  1.00  0.00    -0.000 C 
BRANCH  14  15
ATOM     15  C   UNL     1      13.109  15.226  64.505  1.00  0.00    -0.003 C 
ATOM     16  C   UNL     1      14.243  14.629  65.335  1.00  0.00     0.004 C 
ENDBRANCH  14  15
ENDBRANCH  13  14
ENDBRANCH  12  13
ENDBRANCH  11  12
ENDBRANCH  10  11
ENDBRANCH   1  10
TORSDOF 12
ENDMDL
MODEL 5
REMARK VINA RESULT:    -4.927     11.062     13.765
REMARK INTER + INTRA:          -9.004
REMARK INTER:                  -7.536
REMARK INTRA:                  -1.467
REMARK UNBOUND:                -0.621
REMARK SMILES CCCCCCCCCCCCCC(=O)[O-]
REMARK SMILES IDX 8 1 9 2 10 3 11 4 12 5 13 6 14 7 15 8 16 9 7 10 6 11 5 12
REMARK SMILES IDX 4 13 3 14 2 15 1 16
REMARK H PARENT
REMARK Flexibility Score: inf
ROOT
ATOM      1  C   UNL     1      16.068  16.365  62.031  1.00  0.00     0.000 C 
ENDROOT
BRANCH   1   2
ATOM      2  C   UNL     1      15.165  15.722  60.967  1.00  0.00     0.000 C 
BRANCH   2   3
ATOM      3  C   UNL     1      15.601  14.288  60.614  1.00  0.00     0.000 C 
BRANCH   3   4
ATOM      4  C   UNL     1      17.012  14.235  60.005  1.00  0.00     0.000 C 
BRANCH   4   5
ATOM      5  C   UNL     1      17.078  14.865  58.606  1.00  0.00     0.006 C 
BRANCH   5   6
ATOM      6  C   UNL     1      18.305  15.772  58.472  1.00  0.00     0.053 C 
BRANCH   6   7
ATOM      7  C   UNL     1      18.083  17.064  59.194  1.00  0.00     0.041 C 
ATOM      8  O   UNL     1      17.090  17.784  58.912  1.00  0.00    -0.550 OA
ATOM      9  O   UNL     1      18.946  17.450  60.212  1.00  0.00    -0.550 OA
ENDBRANCH   6   7
ENDBRANCH   5   6
ENDBRANCH   4   5
ENDBRANCH   3   4
ENDBRANCH   2   3
ENDBRANCH   1   2
BRANCH   1  10
ATOM     10  C   UNL     1      15.270  17.090  63.130  1.00  0.00     0.000 C 
BRANCH  10  11
ATOM     11  C   UNL     1      13.777  16.715  63.129  1.00  0.00    -0.000 C 
BRANCH  11  12
ATOM     12  C   UNL     1      13.304  15.937  64.370  1.00  0.00    -0.000 C 
BRANCH  12  13
ATOM     13  C   UNL     1      14.299  14.855  64.816  1.00  0.00    -0.000 C 
BRANCH  13  14
ATOM     14  C   UNL     1      13.629  13.477  64.860  1.00  0.00    -0.000 C 
BRANCH  14  15
ATOM     15  C   UNL     1      13.520  12.875  63.453  1.00  0.00    -0.003 C 
ATOM     16  C   UNL     1      14.673  11.914  63.175  1.00  0.00     0.004 C 
ENDBRANCH  14  15
ENDBRANCH  13  14
ENDBRANCH  12  13
ENDBRANCH  11  12
ENDBRANCH  10  11
ENDBRANCH   1  10
TORSDOF 12
ENDMDL
MODEL 6
REMARK VINA RESULT:    -4.919     10.506     12.569
REMARK INTER + INTRA:          -8.992
REMARK INTER:                  -7.724
REMARK INTRA:                  -1.267
REMARK UNBOUND:                -0.621
REMARK SMILES CCCCCCCCCCCCCC(=O)[O-]
REMARK SMILES IDX 8 1 9 2 10 3 11 4 12 5 13 6 14 7 15 8 16 9 7 10 6 11 5 12
REMARK SMILES IDX 4 13 3 14 2 15 1 16
REMARK H PARENT
REMARK Flexibility Score: inf
ROOT
ATOM      1  C   UNL     1      15.500  14.904  59.295  1.00  0.00     0.000 C 
ENDROOT
BRANCH   1   2
ATOM      2  C   UNL     1      15.508  14.943  60.831  1.00  0.00     0.000 C 
BRANCH   2   3
ATOM      3  C   UNL     1      14.974  16.274  61.389  1.00  0.00     0.000 C 
BRANCH   3   4
ATOM      4  C   UNL     1      15.451  16.545  62.825  1.00  0.00     0.000 C 
BRANCH   4   5
ATOM      5  C   UNL     1      14.310  16.482  63.852  1.00  0.00     0.006 C 
BRANCH   5   6
ATOM      6  C   UNL     1      13.326  15.360  63.507  1.00  0.00     0.053 C 
BRANCH   6   7
ATOM      7  C   UNL     1      13.821  14.049  64.033  1.00  0.00     0.041 C 
ATOM      8  O   UNL     1      13.375  12.970  63.562  1.00  0.00    -0.550 OA
ATOM      9  O   UNL     1      14.810  14.018  65.007  1.00  0.00    -0.550 OA
ENDBRANCH   6   7
ENDBRANCH   5   6
ENDBRANCH   4   5
ENDBRANCH   3   4
ENDBRANCH   2   3
ENDBRANCH   1   2
BRANCH   1  10
ATOM     10  C   UNL     1      16.748  14.219  58.710  1.00  0.00     0.000 C 
BRANCH  10  11
ATOM     11  C   UNL     1      17.865  15.217  58.354  1.00  0.00    -0.000 C 
BRANCH  11  12
ATOM     12  C   UNL     1      17.535  16.692  58.650  1.00  0.00    -0.000 C 
BRANCH  12  13
ATOM     13  C   UNL     1      18.469  17.317  59.696  1.00  0.00    -0.000 C 
BRANCH  13  14
ATOM     14  C   UNL     1      19.205  16.234  60.493  1.00  0.00    -0.000 C 
BRANCH  14  15
ATOM     15  C   UNL     1      19.013  16.436  62.001  1.00  0.00    -0.003 C 
ATOM     16  C   UNL     1      20.107  17.328  62.581  1.00  0.00     0.004 C 
ENDBRANCH  14  15
ENDBRANCH  13  14
ENDBRANCH  12  13
ENDBRANCH  11  12
ENDBRANCH  10  11
ENDBRANCH   1  10
TORSDOF 12
ENDMDL
MODEL 7
REMARK VINA RESULT:    -4.893     10.846     13.557
REMARK INTER + INTRA:          -8.946
REMARK INTER:                  -8.041
REMARK INTRA:                  -0.906
REMARK UNBOUND:                -0.621
REMARK SMILES CCCCCCCCCCCCCC(=O)[O-]
REMARK SMILES IDX 8 1 9 2 10 3 11 4 12 5 13 6 14 7 15 8 16 9 7 10 6 11 5 12
REMARK SMILES IDX 4 13 3 14 2 15 1 16
REMARK H PARENT
REMARK Flexibility Score: inf
ROOT
ATOM      1  C   UNL     1      14.712  17.376  62.457  1.00  0.00     0.000 C 
ENDROOT
BRANCH   1   2
ATOM      2  C   UNL     1      14.217  16.973  63.855  1.00  0.00     0.000 C 
BRANCH   2   3
ATOM      3  C   UNL     1      12.903  16.173  63.806  1.00  0.00     0.000 C 
BRANCH   3   4
ATOM      4  C   UNL     1      12.813  15.120  64.923  1.00  0.00     0.000 C 
BRANCH   4   5
ATOM      5  C   UNL     1      13.985  14.128  64.899  1.00  0.00     0.006 C 
BRANCH   5   6
ATOM      6  C   UNL     1      13.991  13.320  63.598  1.00  0.00     0.053 C 
BRANCH   6   7
ATOM      7  C   UNL     1      14.392  11.903  63.862  1.00  0.00     0.041 C 
ATOM      8  O   UNL     1      13.679  11.169  64.595  1.00  0.00    -0.550 OA
ATOM      9  O   UNL     1      15.527  11.377  63.259  1.00  0.00    -0.550 OA
ENDBRANCH   6   7
ENDBRANCH   5   6
ENDBRANCH   4   5
ENDBRANCH   3   4
ENDBRANCH   2   3
ENDBRANCH   1   2
BRANCH   1  10
ATOM     10  C   UNL     1      15.027  16.162  61.564  1.00  0.00     0.000 C 
BRANCH  10  11
ATOM     11  C   UNL     1      15.538  16.564  60.169  1.00  0.00    -0.000 C 
BRANCH  11  12
ATOM     12  C   UNL     1      15.329  15.504  59.072  1.00  0.00    -0.000 C 
BRANCH  12  13
ATOM     13  C   UNL     1      16.147  14.226  59.310  1.00  0.00    -0.000 C 
BRANCH  13  14
ATOM     14  C   UNL     1      15.228  13.020  59.540  1.00  0.00    -0.000 C 
BRANCH  14  15
ATOM     15  C   UNL     1      15.794  11.763  58.869  1.00  0.00    -0.003 C 
ATOM     16  C   UNL     1      15.731  10.562  59.808  1.00  0.00     0.004 C 
ENDBRANCH  14  15
ENDBRANCH  13  14
ENDBRANCH  12  13
ENDBRANCH  11  12
ENDBRANCH  10  11
ENDBRANCH   1  10
TORSDOF 12
ENDMDL
MODEL 8
REMARK VINA RESULT:    -4.885     11.335     14.053
REMARK INTER + INTRA:          -8.933
REMARK INTER:                  -7.722
REMARK INTRA:                  -1.211
REMARK UNBOUND:                -0.621
REMARK SMILES CCCCCCCCCCCCCC(=O)[O-]
REMARK SMILES IDX 8 1 9 2 10 3 11 4 12 5 13 6 14 7 15 8 16 9 7 10 6 11 5 12
REMARK SMILES IDX 4 13 3 14 2 15 1 16
REMARK H PARENT
REMARK Flexibility Score: inf
ROOT
ATOM      1  C   UNL     1      14.313  17.366  63.497  1.00  0.00     0.000 C 
ENDROOT
BRANCH   1   2
ATOM      2  C   UNL     1      15.584  17.003  62.712  1.00  0.00     0.000 C 
BRANCH   2   3
ATOM      3  C   UNL     1      15.297  16.718  61.227  1.00  0.00     0.000 C 
BRANCH   3   4
ATOM      4  C   UNL     1      16.558  16.301  60.453  1.00  0.00     0.000 C 
BRANCH   4   5
ATOM      5  C   UNL     1      16.251  15.851  59.016  1.00  0.00     0.006 C 
BRANCH   5   6
ATOM      6  C   UNL     1      17.079  14.619  58.641  1.00  0.00     0.053 C 
BRANCH   6   7
ATOM      7  C   UNL     1      18.273  15.016  57.830  1.00  0.00     0.041 C 
ATOM      8  O   UNL     1      19.117  14.150  57.480  1.00  0.00    -0.550 OA
ATOM      9  O   UNL     1      18.426  16.334  57.418  1.00  0.00    -0.550 OA
ENDBRANCH   6   7
ENDBRANCH   5   6
ENDBRANCH   4   5
ENDBRANCH   3   4
ENDBRANCH   2   3
ENDBRANCH   1   2
BRANCH   1  10
ATOM     10  C   UNL     1      13.135  16.424  63.190  1.00  0.00     0.000 C 
BRANCH  10  11
ATOM     11  C   UNL     1      12.718  15.575  64.404  1.00  0.00    -0.000 C 
BRANCH  11  12
ATOM     12  C   UNL     1      13.849  14.738  65.029  1.00  0.00    -0.000 C 
BRANCH  12  13
ATOM     13  C   UNL     1      13.696  13.232  64.767  1.00  0.00    -0.000 C 
BRANCH  13  14
ATOM     14  C   UNL     1      13.399  12.959  63.287  1.00  0.00    -0.000 C 
BRANCH  14  15
ATOM     15  C   UNL     1      14.659  12.484  62.554  1.00  0.00    -0.003 C 
ATOM     16  C   UNL     1      14.719  13.052  61.138  1.00  0.00     0.004 C 
ENDBRANCH  14  15
ENDBRANCH  13  14
ENDBRANCH  12  13
ENDBRANCH  11  12
ENDBRANCH  10  11
ENDBRANCH   1  10
TORSDOF 12
ENDMDL
MODEL 9
REMARK VINA RESULT:    -4.800     11.234     13.814
REMARK INTER + INTRA:          -8.789
REMARK INTER:                  -7.338
REMARK INTRA:                  -1.450
REMARK UNBOUND:                -0.621
REMARK SMILES CCCCCCCCCCCCCC(=O)[O-]
REMARK SMILES IDX 8 1 9 2 10 3 11 4 12 5 13 6 14 7 15 8 16 9 7 10 6 11 5 12
REMARK SMILES IDX 4 13 3 14 2 15 1 16
REMARK H PARENT
REMARK Flexibility Score: inf
ROOT
ATOM      1  C   UNL     1      15.938  12.432  60.692  1.00  0.00     0.000 C 
ENDROOT
BRANCH   1   2
ATOM      2  C   UNL     1      16.439  13.436  59.641  1.00  0.00     0.000 C 
BRANCH   2   3
ATOM      3  C   UNL     1      15.485  14.631  59.469  1.00  0.00     0.000 C 
BRANCH   3   4
ATOM      4  C   UNL     1      16.216  15.909  59.024  1.00  0.00     0.000 C 
BRANCH   4   5
ATOM      5  C   UNL     1      17.745  15.773  59.096  1.00  0.00     0.006 C 
BRANCH   5   6
ATOM      6  C   UNL     1      18.370  16.992  59.780  1.00  0.00     0.053 C 
BRANCH   6   7
ATOM      7  C   UNL     1      18.624  16.708  61.227  1.00  0.00     0.041 C 
ATOM      8  O   UNL     1      18.459  15.547  61.683  1.00  0.00    -0.550 OA
ATOM      9  O   UNL     1      19.091  17.715  62.062  1.00  0.00    -0.550 OA
ENDBRANCH   6   7
ENDBRANCH   5   6
ENDBRANCH   4   5
ENDBRANCH   3   4
ENDBRANCH   2   3
ENDBRANCH   1   2
BRANCH   1  10
ATOM     10  C   UNL     1      14.617  12.870  61.350  1.00  0.00     0.000 C 
BRANCH  10  11
ATOM     11  C   UNL     1      14.533  12.477  62.837  1.00  0.00    -0.000 C 
BRANCH  11  12
ATOM     12  C   UNL     1      13.506  13.275  63.660  1.00  0.00    -0.000 C 
BRANCH  12  13
ATOM     13  C   UNL     1      14.151  14.105  64.781  1.00  0.00    -0.000 C 
BRANCH  13  14
ATOM     14  C   UNL     1      13.773  15.585  64.655  1.00  0.00    -0.000 C 
BRANCH  14  15
ATOM     15  C   UNL     1      13.818  16.040  63.192  1.00  0.00    -0.003 C 
ATOM     16  C   UNL     1      15.224  16.482  62.795  1.00  0.00     0.004 C 
ENDBRANCH  14  15
ENDBRANCH  13  14
ENDBRANCH  12  13
ENDBRANCH  11  12
ENDBRANCH  10  11
ENDBRANCH   1  10
TORSDOF 12
ENDMDL
