MODEL 1
REMARK VINA RESULT:    -5.145      0.000      0.000
REMARK INTER + INTRA:          -8.466
REMARK INTER:                  -7.251
REMARK INTRA:                  -1.215
REMARK UNBOUND:                -1.215
REMARK SMILES COc1c(O[C@H]2O[C@@H](C(=O)[O-])[C@H](O)[C@H](O)[C@H]2O)cc(O)c2c(=O)cc(-c3ccccc3)oc12
REMARK SMILES IDX 5 1 6 2 8 3 12 4 7 5 14 6 16 7 9 8 10 9 11 10 13 11 15 13
REMARK SMILES IDX 17 15 4 17 3 18 18 19 33 20 19 21 21 22 32 23 22 24 25 25
REMARK SMILES IDX 24 26 23 27 2 28 1 29 20 30 26 32 27 33 31 34 28 35 30 36
REMARK SMILES IDX 29 37
REMARK H PARENT 13 12 15 14 17 16 20 31
REMARK Flexibility Score: inf
ROOT
ATOM      1  O   UNL     1      45.279  12.180  84.459  1.00  0.00    -0.458 OA
ENDROOT
BRANCH   1   2
ATOM      2  C   UNL     1      46.199  13.265  84.316  1.00  0.00     0.339 C 
ATOM      3  C   UNL     1      46.264  15.559  83.851  1.00  0.00     0.199 C 
ATOM      4  C   UNL     1      46.257  16.056  85.327  1.00  0.00     0.180 C 
ATOM      5  O   UNL     1      45.503  14.372  83.749  1.00  0.00    -0.328 OA
ATOM      6  C   UNL     1      46.185  14.857  86.313  1.00  0.00     0.181 C 
ATOM      7  C   UNL     1      46.846  13.603  85.697  1.00  0.00     0.214 C 
BRANCH   3   8
ATOM      8  C   UNL     1      45.685  16.586  82.921  1.00  0.00     0.073 C 
ATOM      9  O   UNL     1      44.839  16.246  82.041  1.00  0.00    -0.547 OA
ATOM     10  O   UNL     1      46.112  17.910  82.996  1.00  0.00    -0.547 OA
ENDBRANCH   3   8
BRANCH   4  11
ATOM     11  O   UNL     1      47.364  16.887  85.583  1.00  0.00    -0.387 OA
ATOM     12  H   UNL     1      47.159  17.426  86.394  1.00  0.00     0.211 HD
ENDBRANCH   4  11
BRANCH   6  13
ATOM     13  O   UNL     1      46.734  15.174  87.570  1.00  0.00    -0.387 OA
ATOM     14  H   UNL     1      45.989  15.402  88.185  1.00  0.00     0.211 HD
ENDBRANCH   6  13
BRANCH   7  15
ATOM     15  O   UNL     1      46.814  12.507  86.578  1.00  0.00    -0.384 OA
ATOM     16  H   UNL     1      47.688  12.466  87.050  1.00  0.00     0.211 HD
ENDBRANCH   7  15
ENDBRANCH   1   2
BRANCH   1  17
ATOM     17  C   UNL     1      43.915  12.180  84.105  1.00  0.00     0.172 A 
ATOM     18  C   UNL     1      42.855  12.182  85.048  1.00  0.00     0.205 A 
ATOM     19  C   UNL     1      43.631  12.191  82.738  1.00  0.00     0.097 A 
ATOM     20  C   UNL     1      41.515  12.166  84.578  1.00  0.00     0.188 A 
ATOM     21  C   UNL     1      42.317  12.172  82.269  1.00  0.00     0.134 A 
ATOM     22  C   UNL     1      41.245  12.151  83.185  1.00  0.00     0.111 A 
ATOM     23  O   UNL     1      40.500  12.177  85.442  1.00  0.00    -0.452 OA
ATOM     24  C   UNL     1      39.896  12.125  82.770  1.00  0.00     0.197 A 
ATOM     25  C   UNL     1      39.218  12.153  85.084  1.00  0.00     0.138 A 
ATOM     26  C   UNL     1      38.882  12.118  83.724  1.00  0.00     0.100 A 
ATOM     27  O   UNL     1      39.581  12.113  81.548  1.00  0.00    -0.289 OA
BRANCH  18  28
ATOM     28  O   UNL     1      43.180  12.226  86.417  1.00  0.00    -0.490 OA
ATOM     29  C   UNL     1      43.505  11.128  87.260  1.00  0.00     0.278 C 
ENDBRANCH  18  28
BRANCH  21  30
ATOM     30  O   UNL     1      42.087  12.185  80.892  1.00  0.00    -0.507 OA
ATOM     31  H   UNL     1      41.915  13.044  80.380  1.00  0.00     0.293 HD
ENDBRANCH  21  30
BRANCH  25  32
ATOM     32  C   UNL     1      38.171  12.190  86.134  1.00  0.00     0.017 A 
ATOM     33  C   UNL     1      37.632  11.003  86.677  1.00  0.00     0.012 A 
ATOM     34  C   UNL     1      37.697  13.429  86.607  1.00  0.00     0.012 A 
ATOM     35  C   UNL     1      36.628  11.062  87.649  1.00  0.00     0.001 A 
ATOM     36  C   UNL     1      36.694  13.482  87.580  1.00  0.00     0.001 A 
ATOM     37  C   UNL     1      36.157  12.300  88.097  1.00  0.00     0.000 A 
ENDBRANCH  25  32
ENDBRANCH   1  17
TORSDOF 9
ENDMDL
MODEL 2
REMARK VINA RESULT:    -4.982      2.324      8.292
REMARK INTER + INTRA:          -8.236
REMARK INTER:                  -6.833
REMARK INTRA:                  -1.402
REMARK UNBOUND:                -1.215
REMARK SMILES COc1c(O[C@H]2O[C@@H](C(=O)[O-])[C@H](O)[C@H](O)[C@H]2O)cc(O)c2c(=O)cc(-c3ccccc3)oc12
REMARK SMILES IDX 5 1 6 2 8 3 12 4 7 5 14 6 16 7 9 8 10 9 11 10 13 11 15 13
REMARK SMILES IDX 17 15 4 17 3 18 18 19 33 20 19 21 21 22 32 23 22 24 25 25
REMARK SMILES IDX 24 26 23 27 2 28 1 29 20 30 26 32 27 33 31 34 28 35 30 36
REMARK SMILES IDX 29 37
REMARK H PARENT 13 12 15 14 17 16 20 31
REMARK Flexibility Score: inf
ROOT
ATOM      1  O   UNL     1      40.917  12.298  84.655  1.00  0.00    -0.458 OA
ENDROOT
BRANCH   1   2
ATOM      2  C   UNL     1      39.610  12.753  85.014  1.00  0.00     0.339 C 
ATOM      3  C   UNL     1      37.365  12.553  84.379  1.00  0.00     0.199 C 
ATOM      4  C   UNL     1      36.988  11.402  85.360  1.00  0.00     0.180 C 
ATOM      5  O   UNL     1      38.708  12.400  83.967  1.00  0.00    -0.328 OA
ATOM      6  C   UNL     1      38.222  10.967  86.199  1.00  0.00     0.181 C 
ATOM      7  C   UNL     1      39.195  12.151  86.394  1.00  0.00     0.214 C 
BRANCH   3   8
ATOM      8  C   UNL     1      36.483  12.550  83.164  1.00  0.00     0.073 C 
ATOM      9  O   UNL     1      36.969  12.808  82.023  1.00  0.00    -0.547 OA
ATOM     10  O   UNL     1      35.117  12.309  83.297  1.00  0.00    -0.547 OA
ENDBRANCH   3   8
BRANCH   4  11
ATOM     11  O   UNL     1      35.899  11.770  86.172  1.00  0.00    -0.387 OA
ATOM     12  H   UNL     1      35.730  12.741  86.032  1.00  0.00     0.211 HD
ENDBRANCH   4  11
BRANCH   6  13
ATOM     13  O   UNL     1      37.847  10.389  87.427  1.00  0.00    -0.387 OA
ATOM     14  H   UNL     1      36.860  10.448  87.509  1.00  0.00     0.211 HD
ENDBRANCH   6  13
BRANCH   7  15
ATOM     15  O   UNL     1      40.312  11.790  87.170  1.00  0.00    -0.384 OA
ATOM     16  H   UNL     1      40.425  12.473  87.883  1.00  0.00     0.211 HD
ENDBRANCH   7  15
ENDBRANCH   1   2
BRANCH   1  17
ATOM     17  C   UNL     1      42.079  13.086  84.534  1.00  0.00     0.172 A 
ATOM     18  C   UNL     1      43.267  12.858  85.276  1.00  0.00     0.205 A 
ATOM     19  C   UNL     1      42.024  14.132  83.612  1.00  0.00     0.097 A 
ATOM     20  C   UNL     1      44.375  13.725  85.085  1.00  0.00     0.188 A 
ATOM     21  C   UNL     1      43.107  14.990  83.420  1.00  0.00     0.134 A 
ATOM     22  C   UNL     1      44.292  14.801  84.162  1.00  0.00     0.111 A 
ATOM     23  O   UNL     1      45.506  13.529  85.761  1.00  0.00    -0.452 OA
ATOM     24  C   UNL     1      45.418  15.639  84.016  1.00  0.00     0.197 A 
ATOM     25  C   UNL     1      46.585  14.301  85.647  1.00  0.00     0.138 A 
ATOM     26  C   UNL     1      46.563  15.391  84.768  1.00  0.00     0.100 A 
ATOM     27  O   UNL     1      45.417  16.612  83.212  1.00  0.00    -0.289 OA
BRANCH  18  28
ATOM     28  O   UNL     1      43.303  11.760  86.156  1.00  0.00    -0.490 OA
ATOM     29  C   UNL     1      43.813  10.460  85.889  1.00  0.00     0.278 C 
ENDBRANCH  18  28
BRANCH  21  30
ATOM     30  O   UNL     1      43.001  16.021  82.485  1.00  0.00    -0.507 OA
ATOM     31  H   UNL     1      43.810  16.399  82.001  1.00  0.00     0.293 HD
ENDBRANCH  21  30
BRANCH  25  32
ATOM     32  C   UNL     1      47.798  13.973  86.437  1.00  0.00     0.017 A 
ATOM     33  C   UNL     1      48.229  12.639  86.600  1.00  0.00     0.012 A 
ATOM     34  C   UNL     1      48.541  15.005  87.041  1.00  0.00     0.012 A 
ATOM     35  C   UNL     1      49.361  12.350  87.369  1.00  0.00     0.001 A 
ATOM     36  C   UNL     1      49.672  14.711  87.808  1.00  0.00     0.001 A 
ATOM     37  C   UNL     1      50.079  13.385  87.976  1.00  0.00     0.000 A 
ENDBRANCH  25  32
ENDBRANCH   1  17
TORSDOF 9
ENDMDL
MODEL 3
REMARK VINA RESULT:    -4.818      1.143      1.313
REMARK INTER + INTRA:          -8.005
REMARK INTER:                  -6.881
REMARK INTRA:                  -1.124
REMARK UNBOUND:                -1.215
REMARK SMILES COc1c(O[C@H]2O[C@@H](C(=O)[O-])[C@H](O)[C@H](O)[C@H]2O)cc(O)c2c(=O)cc(-c3ccccc3)oc12
REMARK SMILES IDX 5 1 6 2 8 3 12 4 7 5 14 6 16 7 9 8 10 9 11 10 13 11 15 13
REMARK SMILES IDX 17 15 4 17 3 18 18 19 33 20 19 21 21 22 32 23 22 24 25 25
REMARK SMILES IDX 24 26 23 27 2 28 1 29 20 30 26 32 27 33 31 34 28 35 30 36
REMARK SMILES IDX 29 37
REMARK H PARENT 13 12 15 14 17 16 20 31
REMARK Flexibility Score: inf
ROOT
ATOM      1  O   UNL     1      45.703  12.332  84.914  1.00  0.00    -0.458 OA
ENDROOT
BRANCH   1   2
ATOM      2  C   UNL     1      46.689  13.353  84.740  1.00  0.00     0.339 C 
ATOM      3  C   UNL     1      47.301  15.074  83.275  1.00  0.00     0.199 C 
ATOM      4  C   UNL     1      46.561  16.229  84.012  1.00  0.00     0.180 C 
ATOM      5  O   UNL     1      46.567  13.875  83.419  1.00  0.00    -0.328 OA
ATOM      6  C   UNL     1      45.806  15.692  85.261  1.00  0.00     0.181 C 
ATOM      7  C   UNL     1      46.521  14.451  85.839  1.00  0.00     0.214 C 
BRANCH   3   8
ATOM      8  C   UNL     1      47.463  15.369  81.812  1.00  0.00     0.073 C 
ATOM      9  O   UNL     1      47.401  16.563  81.392  1.00  0.00    -0.547 OA
ATOM     10  O   UNL     1      47.635  14.324  80.906  1.00  0.00    -0.547 OA
ENDBRANCH   3   8
BRANCH   4  11
ATOM     11  O   UNL     1      47.451  17.270  84.339  1.00  0.00    -0.387 OA
ATOM     12  H   UNL     1      48.020  17.443  83.541  1.00  0.00     0.211 HD
ENDBRANCH   4  11
BRANCH   6  13
ATOM     13  O   UNL     1      45.621  16.692  86.235  1.00  0.00    -0.387 OA
ATOM     14  H   UNL     1      46.430  16.720  86.807  1.00  0.00     0.211 HD
ENDBRANCH   6  13
BRANCH   7  15
ATOM     15  O   UNL     1      45.870  13.956  86.984  1.00  0.00    -0.384 OA
ATOM     16  H   UNL     1      46.482  14.070  87.759  1.00  0.00     0.211 HD
ENDBRANCH   7  15
ENDBRANCH   1   2
BRANCH   1  17
ATOM     17  C   UNL     1      44.371  12.360  84.454  1.00  0.00     0.172 A 
ATOM     18  C   UNL     1      43.241  12.278  85.307  1.00  0.00     0.205 A 
ATOM     19  C   UNL     1      44.196  12.490  83.075  1.00  0.00     0.097 A 
ATOM     20  C   UNL     1      41.942  12.300  84.733  1.00  0.00     0.188 A 
ATOM     21  C   UNL     1      42.923  12.510  82.504  1.00  0.00     0.134 A 
ATOM     22  C   UNL     1      41.782  12.406  83.327  1.00  0.00     0.111 A 
ATOM     23  O   UNL     1      40.862  12.233  85.512  1.00  0.00    -0.452 OA
ATOM     24  C   UNL     1      40.470  12.415  82.806  1.00  0.00     0.197 A 
ATOM     25  C   UNL     1      39.612  12.238  85.052  1.00  0.00     0.138 A 
ATOM     26  C   UNL     1      39.385  12.322  83.673  1.00  0.00     0.100 A 
ATOM     27  O   UNL     1      40.253  12.510  81.567  1.00  0.00    -0.289 OA
BRANCH  18  28
ATOM     28  O   UNL     1      43.457  12.202  86.696  1.00  0.00    -0.490 OA
ATOM     29  C   UNL     1      43.628  11.027  87.478  1.00  0.00     0.278 C 
ENDBRANCH  18  28
BRANCH  21  30
ATOM     30  O   UNL     1      42.801  12.643  81.119  1.00  0.00    -0.507 OA
ATOM     31  H   UNL     1      43.463  13.179  80.567  1.00  0.00     0.293 HD
ENDBRANCH  21  30
BRANCH  25  32
ATOM     32  C   UNL     1      38.486  12.181  86.016  1.00  0.00     0.017 A 
ATOM     33  C   UNL     1      38.003  10.949  86.510  1.00  0.00     0.012 A 
ATOM     34  C   UNL     1      37.877  13.373  86.453  1.00  0.00     0.012 A 
ATOM     35  C   UNL     1      36.924  10.918  87.400  1.00  0.00     0.001 A 
ATOM     36  C   UNL     1      36.800  13.336  87.343  1.00  0.00     0.001 A 
ATOM     37  C   UNL     1      36.320  12.110  87.812  1.00  0.00     0.000 A 
ENDBRANCH  25  32
ENDBRANCH   1  17
TORSDOF 9
ENDMDL
MODEL 4
REMARK VINA RESULT:    -4.637     12.200     14.188
REMARK INTER + INTRA:          -7.750
REMARK INTER:                  -6.306
REMARK INTRA:                  -1.443
REMARK UNBOUND:                -1.215
REMARK SMILES COc1c(O[C@H]2O[C@@H](C(=O)[O-])[C@H](O)[C@H](O)[C@H]2O)cc(O)c2c(=O)cc(-c3ccccc3)oc12
REMARK SMILES IDX 5 1 6 2 8 3 12 4 7 5 14 6 16 7 9 8 10 9 11 10 13 11 15 13
REMARK SMILES IDX 17 15 4 17 3 18 18 19 33 20 19 21 21 22 32 23 22 24 25 25
REMARK SMILES IDX 24 26 23 27 2 28 1 29 20 30 26 32 27 33 31 34 28 35 30 36
REMARK SMILES IDX 29 37
REMARK H PARENT 13 12 15 14 17 16 20 31
REMARK Flexibility Score: inf
ROOT
ATOM      1  O   UNL     1      48.755  15.479  73.823  1.00  0.00    -0.458 OA
ENDROOT
BRANCH   1   2
ATOM      2  C   UNL     1      49.928  15.414  73.010  1.00  0.00     0.339 C 
ATOM      3  C   UNL     1      50.724  14.471  71.020  1.00  0.00     0.199 C 
ATOM      4  C   UNL     1      50.425  15.689  70.095  1.00  0.00     0.180 C 
ATOM      5  O   UNL     1      49.740  14.394  72.032  1.00  0.00    -0.328 OA
ATOM      6  C   UNL     1      49.762  16.842  70.899  1.00  0.00     0.181 C 
ATOM      7  C   UNL     1      50.218  16.811  72.375  1.00  0.00     0.214 C 
BRANCH   3   8
ATOM      8  C   UNL     1      50.727  13.182  70.249  1.00  0.00     0.073 C 
ATOM      9  O   UNL     1      49.802  12.334  70.421  1.00  0.00    -0.547 OA
ATOM     10  O   UNL     1      51.775  12.898  69.375  1.00  0.00    -0.547 OA
ENDBRANCH   3   8
BRANCH   4  11
ATOM     11  O   UNL     1      51.591  16.111  69.428  1.00  0.00    -0.387 OA
ATOM     12  H   UNL     1      51.325  16.799  68.759  1.00  0.00     0.211 HD
ENDBRANCH   4  11
BRANCH   6  13
ATOM     13  O   UNL     1      49.990  18.097  70.306  1.00  0.00    -0.387 OA
ATOM     14  H   UNL     1      50.724  18.000  69.645  1.00  0.00     0.211 HD
ENDBRANCH   6  13
BRANCH   7  15
ATOM     15  O   UNL     1      49.648  17.859  73.122  1.00  0.00    -0.384 OA
ATOM     16  H   UNL     1      50.385  18.358  73.564  1.00  0.00     0.211 HD
ENDBRANCH   7  15
ENDBRANCH   1   2
BRANCH   1  17
ATOM     17  C   UNL     1      47.506  14.885  73.550  1.00  0.00     0.172 A 
ATOM     18  C   UNL     1      46.417  15.575  72.957  1.00  0.00     0.205 A 
ATOM     19  C   UNL     1      47.377  13.536  73.886  1.00  0.00     0.097 A 
ATOM     20  C   UNL     1      45.197  14.880  72.741  1.00  0.00     0.188 A 
ATOM     21  C   UNL     1      46.181  12.848  73.679  1.00  0.00     0.134 A 
ATOM     22  C   UNL     1      45.076  13.516  73.112  1.00  0.00     0.111 A 
ATOM     23  O   UNL     1      44.162  15.501  72.177  1.00  0.00    -0.452 OA
ATOM     24  C   UNL     1      43.839  12.874  72.885  1.00  0.00     0.197 A 
ATOM     25  C   UNL     1      42.983  14.925  71.950  1.00  0.00     0.138 A 
ATOM     26  C   UNL     1      42.789  13.585  72.310  1.00  0.00     0.100 A 
ATOM     27  O   UNL     1      43.659  11.662  73.187  1.00  0.00    -0.289 OA
BRANCH  18  28
ATOM     28  O   UNL     1      46.603  16.919  72.583  1.00  0.00    -0.490 OA
ATOM     29  C   UNL     1      46.274  18.077  73.341  1.00  0.00     0.278 C 
ENDBRANCH  18  28
BRANCH  21  30
ATOM     30  O   UNL     1      46.104  11.499  74.031  1.00  0.00    -0.507 OA
ATOM     31  H   UNL     1      46.928  10.947  74.245  1.00  0.00     0.293 HD
ENDBRANCH  21  30
BRANCH  25  32
ATOM     32  C   UNL     1      41.907  15.709  71.296  1.00  0.00     0.017 A 
ATOM     33  C   UNL     1      41.297  16.804  71.945  1.00  0.00     0.012 A 
ATOM     34  C   UNL     1      41.477  15.362  70.000  1.00  0.00     0.012 A 
ATOM     35  C   UNL     1      40.268  17.514  71.318  1.00  0.00     0.001 A 
ATOM     36  C   UNL     1      40.449  16.076  69.378  1.00  0.00     0.001 A 
ATOM     37  C   UNL     1      39.841  17.148  70.038  1.00  0.00     0.000 A 
ENDBRANCH  25  32
ENDBRANCH   1  17
TORSDOF 9
ENDMDL
MODEL 5
REMARK VINA RESULT:    -4.630      2.277      4.197
REMARK INTER + INTRA:          -7.740
REMARK INTER:                  -6.223
REMARK INTRA:                  -1.517
REMARK UNBOUND:                -1.215
REMARK SMILES COc1c(O[C@H]2O[C@@H](C(=O)[O-])[C@H](O)[C@H](O)[C@H]2O)cc(O)c2c(=O)cc(-c3ccccc3)oc12
REMARK SMILES IDX 5 1 6 2 8 3 12 4 7 5 14 6 16 7 9 8 10 9 11 10 13 11 15 13
REMARK SMILES IDX 17 15 4 17 3 18 18 19 33 20 19 21 21 22 32 23 22 24 25 25
REMARK SMILES IDX 24 26 23 27 2 28 1 29 20 30 26 32 27 33 31 34 28 35 30 36
REMARK SMILES IDX 29 37
REMARK H PARENT 13 12 15 14 17 16 20 31
REMARK Flexibility Score: inf
ROOT
ATOM      1  O   UNL     1      45.081  12.604  84.804  1.00  0.00    -0.458 OA
ENDROOT
BRANCH   1   2
ATOM      2  C   UNL     1      45.961  11.489  84.654  1.00  0.00     0.339 C 
ATOM      3  C   UNL     1      45.979   9.252  83.961  1.00  0.00     0.199 C 
ATOM      4  C   UNL     1      46.418   9.509  82.488  1.00  0.00     0.180 C 
ATOM      5  O   UNL     1      45.175  10.325  84.407  1.00  0.00    -0.328 OA
ATOM      6  C   UNL     1      46.587  11.031  82.221  1.00  0.00     0.181 C 
ATOM      7  C   UNL     1      46.993  11.771  83.515  1.00  0.00     0.214 C 
BRANCH   3   8
ATOM      8  C   UNL     1      45.196   7.977  84.087  1.00  0.00     0.073 C 
ATOM      9  O   UNL     1      44.515   7.747  85.130  1.00  0.00    -0.547 OA
ATOM     10  O   UNL     1      45.256   7.022  83.074  1.00  0.00    -0.547 OA
ENDBRANCH   3   8
BRANCH   4  11
ATOM     11  O   UNL     1      47.584   8.783  82.177  1.00  0.00    -0.387 OA
ATOM     12  H   UNL     1      47.614   7.988  82.774  1.00  0.00     0.211 HD
ENDBRANCH   4  11
BRANCH   6  13
ATOM     13  O   UNL     1      47.488  11.283  81.168  1.00  0.00    -0.387 OA
ATOM     14  H   UNL     1      47.012  11.136  80.310  1.00  0.00     0.211 HD
ENDBRANCH   6  13
BRANCH   7  15
ATOM     15  O   UNL     1      47.174  13.149  83.296  1.00  0.00    -0.384 OA
ATOM     16  H   UNL     1      48.137  13.306  83.104  1.00  0.00     0.211 HD
ENDBRANCH   7  15
ENDBRANCH   1   2
BRANCH   1  17
ATOM     17  C   UNL     1      43.726  12.666  84.419  1.00  0.00     0.172 A 
ATOM     18  C   UNL     1      42.643  12.460  85.311  1.00  0.00     0.205 A 
ATOM     19  C   UNL     1      43.478  12.962  83.077  1.00  0.00     0.097 A 
ATOM     20  C   UNL     1      41.315  12.531  84.810  1.00  0.00     0.188 A 
ATOM     21  C   UNL     1      42.177  13.031  82.578  1.00  0.00     0.134 A 
ATOM     22  C   UNL     1      41.082  12.807  83.438  1.00  0.00     0.111 A 
ATOM     23  O   UNL     1      40.279  12.352  85.628  1.00  0.00    -0.452 OA
ATOM     24  C   UNL     1      39.745  12.858  82.989  1.00  0.00     0.197 A 
ATOM     25  C   UNL     1      39.006  12.392  85.236  1.00  0.00     0.138 A 
ATOM     26  C   UNL     1      38.707  12.641  83.891  1.00  0.00     0.100 A 
ATOM     27  O   UNL     1      39.462  13.101  81.783  1.00  0.00    -0.289 OA
BRANCH  18  28
ATOM     28  O   UNL     1      42.932  12.218  86.667  1.00  0.00    -0.490 OA
ATOM     29  C   UNL     1      43.279  10.975  87.265  1.00  0.00     0.278 C 
ENDBRANCH  18  28
BRANCH  21  30
ATOM     30  O   UNL     1      41.982  13.331  81.228  1.00  0.00    -0.507 OA
ATOM     31  H   UNL     1      41.060  13.497  80.838  1.00  0.00     0.293 HD
ENDBRANCH  21  30
BRANCH  25  32
ATOM     32  C   UNL     1      37.933  12.198  86.241  1.00  0.00     0.017 A 
ATOM     33  C   UNL     1      37.409  10.916  86.519  1.00  0.00     0.012 A 
ATOM     34  C   UNL     1      37.416  13.308  86.937  1.00  0.00     0.012 A 
ATOM     35  C   UNL     1      36.380  10.760  87.453  1.00  0.00     0.001 A 
ATOM     36  C   UNL     1      36.388  13.145  87.870  1.00  0.00     0.001 A 
ATOM     37  C   UNL     1      35.867  11.874  88.125  1.00  0.00     0.000 A 
ENDBRANCH  25  32
ENDBRANCH   1  17
TORSDOF 9
ENDMDL
MODEL 6
REMARK VINA RESULT:    -4.627      2.018      3.028
REMARK INTER + INTRA:          -7.735
REMARK INTER:                  -7.126
REMARK INTRA:                  -0.609
REMARK UNBOUND:                -1.215
REMARK SMILES COc1c(O[C@H]2O[C@@H](C(=O)[O-])[C@H](O)[C@H](O)[C@H]2O)cc(O)c2c(=O)cc(-c3ccccc3)oc12
REMARK SMILES IDX 5 1 6 2 8 3 12 4 7 5 14 6 16 7 9 8 10 9 11 10 13 11 15 13
REMARK SMILES IDX 17 15 4 17 3 18 18 19 33 20 19 21 21 22 32 23 22 24 25 25
REMARK SMILES IDX 24 26 23 27 2 28 1 29 20 30 26 32 27 33 31 34 28 35 30 36
REMARK SMILES IDX 29 37
REMARK H PARENT 13 12 15 14 17 16 20 31
REMARK Flexibility Score: inf
ROOT
ATOM      1  O   UNL     1      46.193  12.930  86.625  1.00  0.00    -0.458 OA
ENDROOT
BRANCH   1   2
ATOM      2  C   UNL     1      47.535  12.937  86.132  1.00  0.00     0.339 C 
ATOM      3  C   UNL     1      48.749  13.011  84.132  1.00  0.00     0.199 C 
ATOM      4  C   UNL     1      48.966  14.553  84.092  1.00  0.00     0.180 C 
ATOM      5  O   UNL     1      47.498  12.724  84.723  1.00  0.00    -0.328 OA
ATOM      6  C   UNL     1      48.284  15.237  85.311  1.00  0.00     0.181 C 
ATOM      7  C   UNL     1      48.239  14.277  86.521  1.00  0.00     0.214 C 
BRANCH   3   8
ATOM      8  C   UNL     1      48.780  12.415  82.753  1.00  0.00     0.073 C 
ATOM      9  O   UNL     1      49.257  13.076  81.784  1.00  0.00    -0.547 OA
ATOM     10  O   UNL     1      48.239  11.150  82.530  1.00  0.00    -0.547 OA
ENDBRANCH   3   8
BRANCH   4  11
ATOM     11  O   UNL     1      50.335  14.867  84.006  1.00  0.00    -0.387 OA
ATOM     12  H   UNL     1      50.541  15.069  83.054  1.00  0.00     0.211 HD
ENDBRANCH   4  11
BRANCH   6  13
ATOM     13  O   UNL     1      48.895  16.462  85.636  1.00  0.00    -0.387 OA
ATOM     14  H   UNL     1      49.417  16.768  84.850  1.00  0.00     0.211 HD
ENDBRANCH   6  13
BRANCH   7  15
ATOM     15  O   UNL     1      47.646  14.879  87.646  1.00  0.00    -0.384 OA
ATOM     16  H   UNL     1      47.491  14.171  88.327  1.00  0.00     0.211 HD
ENDBRANCH   7  15
ENDBRANCH   1   2
BRANCH   1  17
ATOM     17  C   UNL     1      45.020  13.147  85.875  1.00  0.00     0.172 A 
ATOM     18  C   UNL     1      43.764  12.566  86.191  1.00  0.00     0.205 A 
ATOM     19  C   UNL     1      45.137  13.997  84.774  1.00  0.00     0.097 A 
ATOM     20  C   UNL     1      42.649  12.842  85.355  1.00  0.00     0.188 A 
ATOM     21  C   UNL     1      44.047  14.270  83.948  1.00  0.00     0.134 A 
ATOM     22  C   UNL     1      42.793  13.688  84.225  1.00  0.00     0.111 A 
ATOM     23  O   UNL     1      41.456  12.318  85.634  1.00  0.00    -0.452 OA
ATOM     24  C   UNL     1      41.656  13.923  83.422  1.00  0.00     0.197 A 
ATOM     25  C   UNL     1      40.364  12.518  84.896  1.00  0.00     0.138 A 
ATOM     26  C   UNL     1      40.442  13.328  83.756  1.00  0.00     0.100 A 
ATOM     27  O   UNL     1      41.709  14.666  82.404  1.00  0.00    -0.289 OA
BRANCH  18  28
ATOM     28  O   UNL     1      43.672  11.758  87.339  1.00  0.00    -0.490 OA
ATOM     29  C   UNL     1      43.708  10.338  87.397  1.00  0.00     0.278 C 
ENDBRANCH  18  28
BRANCH  21  30
ATOM     30  O   UNL     1      44.217  15.129  82.860  1.00  0.00    -0.507 OA
ATOM     31  H   UNL     1      45.120  15.522  82.616  1.00  0.00     0.293 HD
ENDBRANCH  21  30
BRANCH  25  32
ATOM     32  C   UNL     1      39.083  11.900  85.316  1.00  0.00     0.017 A 
ATOM     33  C   UNL     1      38.176  11.376  84.370  1.00  0.00     0.012 A 
ATOM     34  C   UNL     1      38.754  11.829  86.683  1.00  0.00     0.012 A 
ATOM     35  C   UNL     1      36.962  10.819  84.786  1.00  0.00     0.001 A 
ATOM     36  C   UNL     1      37.540  11.271  87.094  1.00  0.00     0.001 A 
ATOM     37  C   UNL     1      36.643  10.770  86.147  1.00  0.00     0.000 A 
ENDBRANCH  25  32
ENDBRANCH   1  17
TORSDOF 9
ENDMDL
MODEL 7
REMARK VINA RESULT:    -4.528     12.481     14.206
REMARK INTER + INTRA:          -7.595
REMARK INTER:                  -6.068
REMARK INTRA:                  -1.527
REMARK UNBOUND:                -1.215
REMARK SMILES COc1c(O[C@H]2O[C@@H](C(=O)[O-])[C@H](O)[C@H](O)[C@H]2O)cc(O)c2c(=O)cc(-c3ccccc3)oc12
REMARK SMILES IDX 5 1 6 2 8 3 12 4 7 5 14 6 16 7 9 8 10 9 11 10 13 11 15 13
REMARK SMILES IDX 17 15 4 17 3 18 18 19 33 20 19 21 21 22 32 23 22 24 25 25
REMARK SMILES IDX 24 26 23 27 2 28 1 29 20 30 26 32 27 33 31 34 28 35 30 36
REMARK SMILES IDX 29 37
REMARK H PARENT 13 12 15 14 17 16 20 31
REMARK Flexibility Score: inf
ROOT
ATOM      1  O   UNL     1      48.919  17.343  74.218  1.00  0.00    -0.458 OA
ENDROOT
BRANCH   1   2
ATOM      2  C   UNL     1      50.016  17.772  73.409  1.00  0.00     0.339 C 
ATOM      3  C   UNL     1      50.936  17.488  71.275  1.00  0.00     0.199 C 
ATOM      4  C   UNL     1      50.254  18.719  70.605  1.00  0.00     0.180 C 
ATOM      5  O   UNL     1      50.071  16.943  72.250  1.00  0.00    -0.328 OA
ATOM      6  C   UNL     1      49.336  19.460  71.617  1.00  0.00     0.181 C 
ATOM      7  C   UNL     1      49.862  19.286  73.060  1.00  0.00     0.214 C 
BRANCH   3   8
ATOM      8  C   UNL     1      51.261  16.423  70.267  1.00  0.00     0.073 C 
ATOM      9  O   UNL     1      51.931  16.709  69.231  1.00  0.00    -0.547 OA
ATOM     10  O   UNL     1      50.784  15.126  70.448  1.00  0.00    -0.547 OA
ENDBRANCH   3   8
BRANCH   4  11
ATOM     11  O   UNL     1      51.213  19.576  70.034  1.00  0.00    -0.387 OA
ATOM     12  H   UNL     1      52.045  19.505  70.576  1.00  0.00     0.211 HD
ENDBRANCH   4  11
BRANCH   6  13
ATOM     13  O   UNL     1      49.167  20.816  71.280  1.00  0.00    -0.387 OA
ATOM     14  H   UNL     1      49.564  21.367  72.003  1.00  0.00     0.211 HD
ENDBRANCH   6  13
BRANCH   7  15
ATOM     15  O   UNL     1      49.061  19.966  73.996  1.00  0.00    -0.384 OA
ATOM     16  H   UNL     1      48.172  19.521  74.020  1.00  0.00     0.211 HD
ENDBRANCH   7  15
ENDBRANCH   1   2
BRANCH   1  17
ATOM     17  C   UNL     1      47.879  16.471  73.835  1.00  0.00     0.172 A 
ATOM     18  C   UNL     1      46.642  16.909  73.295  1.00  0.00     0.205 A 
ATOM     19  C   UNL     1      48.124  15.107  73.998  1.00  0.00     0.097 A 
ATOM     20  C   UNL     1      45.658  15.942  72.957  1.00  0.00     0.188 A 
ATOM     21  C   UNL     1      47.162  14.151  73.671  1.00  0.00     0.134 A 
ATOM     22  C   UNL     1      45.915  14.560  73.155  1.00  0.00     0.111 A 
ATOM     23  O   UNL     1      44.491  16.324  72.440  1.00  0.00    -0.452 OA
ATOM     24  C   UNL     1      44.900  13.641  72.811  1.00  0.00     0.197 A 
ATOM     25  C   UNL     1      43.513  15.483  72.107  1.00  0.00     0.138 A 
ATOM     26  C   UNL     1      43.694  14.107  72.294  1.00  0.00     0.100 A 
ATOM     27  O   UNL     1      45.059  12.397  72.957  1.00  0.00    -0.289 OA
BRANCH  18  28
ATOM     28  O   UNL     1      46.453  18.289  73.095  1.00  0.00    -0.490 OA
ATOM     29  C   UNL     1      45.843  19.213  73.987  1.00  0.00     0.278 C 
ENDBRANCH  18  28
BRANCH  21  30
ATOM     30  O   UNL     1      47.457  12.799  73.852  1.00  0.00    -0.507 OA
ATOM     31  H   UNL     1      48.309  12.487  74.307  1.00  0.00     0.293 HD
ENDBRANCH  21  30
BRANCH  25  32
ATOM     32  C   UNL     1      42.263  16.022  71.519  1.00  0.00     0.017 A 
ATOM     33  C   UNL     1      41.547  17.065  72.145  1.00  0.00     0.012 A 
ATOM     34  C   UNL     1      41.770  15.489  70.312  1.00  0.00     0.012 A 
ATOM     35  C   UNL     1      40.357  17.542  71.585  1.00  0.00     0.001 A 
ATOM     36  C   UNL     1      40.580  15.970  69.757  1.00  0.00     0.001 A 
ATOM     37  C   UNL     1      39.872  16.992  70.394  1.00  0.00     0.000 A 
ENDBRANCH  25  32
ENDBRANCH   1  17
TORSDOF 9
ENDMDL
MODEL 8
REMARK VINA RESULT:    -4.449      4.087      7.856
REMARK INTER + INTRA:          -7.484
REMARK INTER:                  -6.062
REMARK INTRA:                  -1.422
REMARK UNBOUND:                -1.215
REMARK SMILES COc1c(O[C@H]2O[C@@H](C(=O)[O-])[C@H](O)[C@H](O)[C@H]2O)cc(O)c2c(=O)cc(-c3ccccc3)oc12
REMARK SMILES IDX 5 1 6 2 8 3 12 4 7 5 14 6 16 7 9 8 10 9 11 10 13 11 15 13
REMARK SMILES IDX 17 15 4 17 3 18 18 19 33 20 19 21 21 22 32 23 22 24 25 25
REMARK SMILES IDX 24 26 23 27 2 28 1 29 20 30 26 32 27 33 31 34 28 35 30 36
REMARK SMILES IDX 29 37
REMARK H PARENT 13 12 15 14 17 16 20 31
REMARK Flexibility Score: inf
ROOT
ATOM      1  O   UNL     1      49.099  18.635  84.765  1.00  0.00    -0.458 OA
ENDROOT
BRANCH   1   2
ATOM      2  C   UNL     1      48.722  19.804  85.497  1.00  0.00     0.339 C 
ATOM      3  C   UNL     1      49.649  21.612  86.660  1.00  0.00     0.199 C 
ATOM      4  C   UNL     1      49.646  22.626  85.477  1.00  0.00     0.180 C 
ATOM      5  O   UNL     1      49.877  20.308  86.163  1.00  0.00    -0.328 OA
ATOM      6  C   UNL     1      49.089  21.964  84.185  1.00  0.00     0.181 C 
ATOM      7  C   UNL     1      48.076  20.851  84.535  1.00  0.00     0.214 C 
BRANCH   3   8
ATOM      8  C   UNL     1      50.718  21.940  87.663  1.00  0.00     0.073 C 
ATOM      9  O   UNL     1      50.876  23.133  88.058  1.00  0.00    -0.547 OA
ATOM     10  O   UNL     1      51.569  20.938  88.125  1.00  0.00    -0.547 OA
ENDBRANCH   3   8
BRANCH   4  11
ATOM     11  O   UNL     1      48.940  23.795  85.820  1.00  0.00    -0.387 OA
ATOM     12  H   UNL     1      48.129  23.522  86.327  1.00  0.00     0.211 HD
ENDBRANCH   4  11
BRANCH   6  13
ATOM     13  O   UNL     1      48.541  22.913  83.302  1.00  0.00    -0.387 OA
ATOM     14  H   UNL     1      47.628  22.616  83.054  1.00  0.00     0.211 HD
ENDBRANCH   6  13
BRANCH   7  15
ATOM     15  O   UNL     1      47.539  20.250  83.382  1.00  0.00    -0.384 OA
ATOM     16  H   UNL     1      48.190  20.372  82.640  1.00  0.00     0.211 HD
ENDBRANCH   7  15
ENDBRANCH   1   2
BRANCH   1  17
ATOM     17  C   UNL     1      48.827  17.297  85.116  1.00  0.00     0.172 A 
ATOM     18  C   UNL     1      47.528  16.727  85.104  1.00  0.00     0.205 A 
ATOM     19  C   UNL     1      49.927  16.518  85.479  1.00  0.00     0.097 A 
ATOM     20  C   UNL     1      47.368  15.370  85.492  1.00  0.00     0.188 A 
ATOM     21  C   UNL     1      49.777  15.186  85.865  1.00  0.00     0.134 A 
ATOM     22  C   UNL     1      48.494  14.600  85.883  1.00  0.00     0.111 A 
ATOM     23  O   UNL     1      46.161  14.807  85.480  1.00  0.00    -0.452 OA
ATOM     24  C   UNL     1      48.280  13.259  86.269  1.00  0.00     0.197 A 
ATOM     25  C   UNL     1      45.925  13.546  85.840  1.00  0.00     0.138 A 
ATOM     26  C   UNL     1      46.990  12.736  86.254  1.00  0.00     0.100 A 
ATOM     27  O   UNL     1      49.234  12.515  86.626  1.00  0.00    -0.289 OA
BRANCH  18  28
ATOM     28  O   UNL     1      46.452  17.529  84.680  1.00  0.00    -0.490 OA
ATOM     29  C   UNL     1      45.492  18.184  85.499  1.00  0.00     0.278 C 
ENDBRANCH  18  28
BRANCH  21  30
ATOM     30  O   UNL     1      50.909  14.449  86.217  1.00  0.00    -0.507 OA
ATOM     31  H   UNL     1      50.929  13.841  87.030  1.00  0.00     0.293 HD
ENDBRANCH  21  30
BRANCH  25  32
ATOM     32  C   UNL     1      44.540  13.019  85.766  1.00  0.00     0.017 A 
ATOM     33  C   UNL     1      43.637  13.462  84.776  1.00  0.00     0.012 A 
ATOM     34  C   UNL     1      44.106  12.057  86.699  1.00  0.00     0.012 A 
ATOM     35  C   UNL     1      42.328  12.970  84.740  1.00  0.00     0.001 A 
ATOM     36  C   UNL     1      42.798  11.567  86.658  1.00  0.00     0.001 A 
ATOM     37  C   UNL     1      41.908  12.026  85.683  1.00  0.00     0.000 A 
ENDBRANCH  25  32
ENDBRANCH   1  17
TORSDOF 9
ENDMDL
MODEL 9
REMARK VINA RESULT:    -4.437      2.844      4.551
REMARK INTER + INTRA:          -7.468
REMARK INTER:                  -6.003
REMARK INTRA:                  -1.465
REMARK UNBOUND:                -1.215
REMARK SMILES COc1c(O[C@H]2O[C@@H](C(=O)[O-])[C@H](O)[C@H](O)[C@H]2O)cc(O)c2c(=O)cc(-c3ccccc3)oc12
REMARK SMILES IDX 5 1 6 2 8 3 12 4 7 5 14 6 16 7 9 8 10 9 11 10 13 11 15 13
REMARK SMILES IDX 17 15 4 17 3 18 18 19 33 20 19 21 21 22 32 23 22 24 25 25
REMARK SMILES IDX 24 26 23 27 2 28 1 29 20 30 26 32 27 33 31 34 28 35 30 36
REMARK SMILES IDX 29 37
REMARK H PARENT 13 12 15 14 17 16 20 31
REMARK Flexibility Score: inf
ROOT
ATOM      1  O   UNL     1      47.452  13.367  84.861  1.00  0.00    -0.458 OA
ENDROOT
BRANCH   1   2
ATOM      2  C   UNL     1      48.303  12.998  85.948  1.00  0.00     0.339 C 
ATOM      3  C   UNL     1      50.527  12.442  86.422  1.00  0.00     0.199 C 
ATOM      4  C   UNL     1      51.001  13.869  86.833  1.00  0.00     0.180 C 
ATOM      5  O   UNL     1      49.544  12.543  85.413  1.00  0.00    -0.328 OA
ATOM      6  C   UNL     1      49.839  14.894  86.703  1.00  0.00     0.181 C 
ATOM      7  C   UNL     1      48.475  14.204  86.926  1.00  0.00     0.214 C 
BRANCH   3   8
ATOM      8  C   UNL     1      51.667  11.612  85.906  1.00  0.00     0.073 C 
ATOM      9  O   UNL     1      52.813  11.698  86.440  1.00  0.00    -0.547 OA
ATOM     10  O   UNL     1      51.476  10.778  84.806  1.00  0.00    -0.547 OA
ENDBRANCH   3   8
BRANCH   4  11
ATOM     11  O   UNL     1      51.559  13.861  88.125  1.00  0.00    -0.387 OA
ATOM     12  H   UNL     1      51.180  14.635  88.623  1.00  0.00     0.211 HD
ENDBRANCH   4  11
BRANCH   6  13
ATOM     13  O   UNL     1      50.014  15.999  87.556  1.00  0.00    -0.387 OA
ATOM     14  H   UNL     1      49.244  16.034  88.180  1.00  0.00     0.211 HD
ENDBRANCH   6  13
BRANCH   7  15
ATOM     15  O   UNL     1      47.406  15.114  86.836  1.00  0.00    -0.384 OA
ATOM     16  H   UNL     1      47.721  15.993  87.178  1.00  0.00     0.211 HD
ENDBRANCH   7  15
ENDBRANCH   1   2
BRANCH   1  17
ATOM     17  C   UNL     1      46.266  12.719  84.462  1.00  0.00     0.172 A 
ATOM     18  C   UNL     1      44.972  13.285  84.604  1.00  0.00     0.205 A 
ATOM     19  C   UNL     1      46.415  11.456  83.887  1.00  0.00     0.097 A 
ATOM     20  C   UNL     1      43.843  12.534  84.181  1.00  0.00     0.188 A 
ATOM     21  C   UNL     1      45.310  10.712  83.471  1.00  0.00     0.134 A 
ATOM     22  C   UNL     1      44.011  11.240  83.622  1.00  0.00     0.111 A 
ATOM     23  O   UNL     1      42.617  13.045  84.294  1.00  0.00    -0.452 OA
ATOM     24  C   UNL     1      42.856  10.533  83.226  1.00  0.00     0.197 A 
ATOM     25  C   UNL     1      41.507  12.403  83.931  1.00  0.00     0.138 A 
ATOM     26  C   UNL     1      41.602  11.115  83.389  1.00  0.00     0.100 A 
ATOM     27  O   UNL     1      42.930   9.379  82.719  1.00  0.00    -0.289 OA
BRANCH  18  28
ATOM     28  O   UNL     1      44.866  14.582  85.138  1.00  0.00    -0.490 OA
ATOM     29  C   UNL     1      44.799  15.807  84.419  1.00  0.00     0.278 C 
ENDBRANCH  18  28
BRANCH  21  30
ATOM     30  O   UNL     1      45.513   9.454  82.901  1.00  0.00    -0.507 OA
ATOM     31  H   UNL     1      44.784   8.748  82.872  1.00  0.00     0.293 HD
ENDBRANCH  21  30
BRANCH  25  32
ATOM     32  C   UNL     1      40.197  13.080  84.083  1.00  0.00     0.017 A 
ATOM     33  C   UNL     1      39.264  12.664  85.058  1.00  0.00     0.012 A 
ATOM     34  C   UNL     1      39.864  14.160  83.242  1.00  0.00     0.012 A 
ATOM     35  C   UNL     1      38.024  13.302  85.168  1.00  0.00     0.001 A 
ATOM     36  C   UNL     1      38.623  14.794  83.357  1.00  0.00     0.001 A 
ATOM     37  C   UNL     1      37.702  14.363  84.316  1.00  0.00     0.000 A 
ENDBRANCH  25  32
ENDBRANCH   1  17
TORSDOF 9
ENDMDL
