MODEL 1
REMARK VINA RESULT:    -3.797      0.000      0.000
REMARK INTER + INTRA:          -5.196
REMARK INTER:                  -5.128
REMARK INTRA:                  -0.068
REMARK UNBOUND:                -0.068
REMARK SMILES CCCCCCCC(=O)[O-]
REMARK SMILES IDX 5 1 6 2 7 3 8 4 9 5 10 6 4 7 3 8 2 9 1 10
REMARK H PARENT
REMARK Flexibility Score: inf
ROOT
ATOM      1  C   UNL     1       5.418   7.339  -9.538  1.00  0.00     0.000 C 
ENDROOT
BRANCH   1   2
ATOM      2  C   UNL     1       5.823   6.355  -8.431  1.00  0.00     0.006 C 
BRANCH   2   3
ATOM      3  C   UNL     1       6.447   7.064  -7.222  1.00  0.00     0.053 C 
BRANCH   3   4
ATOM      4  C   UNL     1       7.697   6.379  -6.761  1.00  0.00     0.041 C 
ATOM      5  O   UNL     1       8.317   6.803  -5.751  1.00  0.00    -0.550 OA
ATOM      6  O   UNL     1       8.156   5.250  -7.427  1.00  0.00    -0.550 OA
ENDBRANCH   3   4
ENDBRANCH   2   3
ENDBRANCH   1   2
BRANCH   1   7
ATOM      7  C   UNL     1       6.629   8.148 -10.026  1.00  0.00     0.000 C 
BRANCH   7   8
ATOM      8  C   UNL     1       6.347   9.659 -10.113  1.00  0.00    -0.000 C 
BRANCH   8   9
ATOM      9  C   UNL     1       5.064  10.119  -9.401  1.00  0.00    -0.003 C 
ATOM     10  C   UNL     1       5.194  10.125  -7.878  1.00  0.00     0.004 C 
ENDBRANCH   8   9
ENDBRANCH   7   8
ENDBRANCH   1   7
TORSDOF 6
ENDMDL
MODEL 2
REMARK VINA RESULT:    -3.729     14.417     15.298
REMARK INTER + INTRA:          -5.104
REMARK INTER:                  -4.620
REMARK INTRA:                  -0.484
REMARK UNBOUND:                -0.068
REMARK SMILES CCCCCCCC(=O)[O-]
REMARK SMILES IDX 5 1 6 2 7 3 8 4 9 5 10 6 4 7 3 8 2 9 1 10
REMARK H PARENT
REMARK Flexibility Score: inf
ROOT
ATOM      1  C   UNL     1      -9.654   9.270  -8.820  1.00  0.00     0.000 C 
ENDROOT
BRANCH   1   2
ATOM      2  C   UNL     1      -8.290   8.814  -9.357  1.00  0.00     0.006 C 
BRANCH   2   3
ATOM      3  C   UNL     1      -8.361   7.439 -10.034  1.00  0.00     0.053 C 
BRANCH   3   4
ATOM      4  C   UNL     1      -7.325   6.500  -9.496  1.00  0.00     0.041 C 
ATOM      5  O   UNL     1      -7.588   5.763  -8.509  1.00  0.00    -0.550 OA
ATOM      6  O   UNL     1      -6.081   6.415 -10.106  1.00  0.00    -0.550 OA
ENDBRANCH   3   4
ENDBRANCH   2   3
ENDBRANCH   1   2
BRANCH   1   7
ATOM      7  C   UNL     1      -9.908   8.709  -7.414  1.00  0.00     0.000 C 
BRANCH   7   8
ATOM      8  C   UNL     1      -8.648   8.714  -6.529  1.00  0.00    -0.000 C 
BRANCH   8   9
ATOM      9  C   UNL     1      -8.670   7.706  -5.367  1.00  0.00    -0.003 C 
ATOM     10  C   UNL     1      -9.691   6.586  -5.566  1.00  0.00     0.004 C 
ENDBRANCH   8   9
ENDBRANCH   7   8
ENDBRANCH   1   7
TORSDOF 6
ENDMDL
MODEL 3
REMARK VINA RESULT:    -3.436     21.102     22.905
REMARK INTER + INTRA:          -4.709
REMARK INTER:                  -4.108
REMARK INTRA:                  -0.601
REMARK UNBOUND:                -0.068
REMARK SMILES CCCCCCCC(=O)[O-]
REMARK SMILES IDX 5 1 6 2 7 3 8 4 9 5 10 6 4 7 3 8 2 9 1 10
REMARK H PARENT
REMARK Flexibility Score: inf
ROOT
ATOM      1  C   UNL     1       4.637  -8.963   8.821  1.00  0.00     0.000 C 
ENDROOT
BRANCH   1   2
ATOM      2  C   UNL     1       4.552  -9.655   7.453  1.00  0.00     0.006 C 
BRANCH   2   3
ATOM      3  C   UNL     1       4.169  -8.682   6.330  1.00  0.00     0.053 C 
BRANCH   3   4
ATOM      4  C   UNL     1       5.368  -8.225   5.558  1.00  0.00     0.041 C 
ATOM      5  O   UNL     1       5.679  -7.005   5.531  1.00  0.00    -0.550 OA
ATOM      6  O   UNL     1       6.162  -9.152   4.896  1.00  0.00    -0.550 OA
ENDBRANCH   3   4
ENDBRANCH   2   3
ENDBRANCH   1   2
BRANCH   1   7
ATOM      7  C   UNL     1       5.986  -9.245   9.498  1.00  0.00     0.000 C 
BRANCH   7   8
ATOM      8  C   UNL     1       6.837  -7.977   9.691  1.00  0.00    -0.000 C 
BRANCH   8   9
ATOM      9  C   UNL     1       7.679  -7.571   8.468  1.00  0.00    -0.003 C 
ATOM     10  C   UNL     1       8.299  -8.767   7.747  1.00  0.00     0.004 C 
ENDBRANCH   8   9
ENDBRANCH   7   8
ENDBRANCH   1   7
TORSDOF 6
ENDMDL
MODEL 4
REMARK VINA RESULT:    -3.313     22.000     23.208
REMARK INTER + INTRA:          -4.543
REMARK INTER:                  -4.071
REMARK INTRA:                  -0.472
REMARK UNBOUND:                -0.068
REMARK SMILES CCCCCCCC(=O)[O-]
REMARK SMILES IDX 5 1 6 2 7 3 8 4 9 5 10 6 4 7 3 8 2 9 1 10
REMARK H PARENT
REMARK Flexibility Score: inf
ROOT
ATOM      1  C   UNL     1       5.417  -7.809   6.251  1.00  0.00     0.000 C 
ENDROOT
BRANCH   1   2
ATOM      2  C   UNL     1       4.124  -8.636   6.209  1.00  0.00     0.006 C 
BRANCH   2   3
ATOM      3  C   UNL     1       4.161  -9.824   7.180  1.00  0.00     0.053 C 
BRANCH   3   4
ATOM      4  C   UNL     1       3.566  -9.474   8.509  1.00  0.00     0.041 C 
ATOM      5  O   UNL     1       4.232  -8.810   9.347  1.00  0.00    -0.550 OA
ATOM      6  O   UNL     1       2.264  -9.851   8.808  1.00  0.00    -0.550 OA
ENDBRANCH   3   4
ENDBRANCH   2   3
ENDBRANCH   1   2
BRANCH   1   7
ATOM      7  C   UNL     1       6.651  -8.708   6.090  1.00  0.00     0.000 C 
BRANCH   7   8
ATOM      8  C   UNL     1       7.589  -8.666   7.311  1.00  0.00    -0.000 C 
BRANCH   8   9
ATOM      9  C   UNL     1       7.346  -7.489   8.271  1.00  0.00    -0.003 C 
ATOM     10  C   UNL     1       7.601  -7.850   9.735  1.00  0.00     0.004 C 
ENDBRANCH   8   9
ENDBRANCH   7   8
ENDBRANCH   1   7
TORSDOF 6
ENDMDL
MODEL 5
REMARK VINA RESULT:    -3.307     21.427     22.648
REMARK INTER + INTRA:          -4.535
REMARK INTER:                  -4.054
REMARK INTRA:                  -0.481
REMARK UNBOUND:                -0.068
REMARK SMILES CCCCCCCC(=O)[O-]
REMARK SMILES IDX 5 1 6 2 7 3 8 4 9 5 10 6 4 7 3 8 2 9 1 10
REMARK H PARENT
REMARK Flexibility Score: inf
ROOT
ATOM      1  C   UNL     1       8.526  -9.732   5.931  1.00  0.00     0.000 C 
ENDROOT
BRANCH   1   2
ATOM      2  C   UNL     1       7.213  -9.564   5.152  1.00  0.00     0.006 C 
BRANCH   2   3
ATOM      3  C   UNL     1       5.983  -9.623   6.067  1.00  0.00     0.053 C 
BRANCH   3   4
ATOM      4  C   UNL     1       5.080  -8.446   5.861  1.00  0.00     0.041 C 
ATOM      5  O   UNL     1       3.859  -8.522   6.158  1.00  0.00    -0.550 OA
ATOM      6  O   UNL     1       5.596  -7.252   5.374  1.00  0.00    -0.550 OA
ENDBRANCH   3   4
ENDBRANCH   2   3
ENDBRANCH   1   2
BRANCH   1   7
ATOM      7  C   UNL     1       8.265  -9.798   7.442  1.00  0.00     0.000 C 
BRANCH   7   8
ATOM      8  C   UNL     1       9.356  -9.096   8.271  1.00  0.00    -0.000 C 
BRANCH   8   9
ATOM      9  C   UNL     1       8.896  -7.818   8.994  1.00  0.00    -0.003 C 
ATOM     10  C   UNL     1       7.504  -7.356   8.564  1.00  0.00     0.004 C 
ENDBRANCH   8   9
ENDBRANCH   7   8
ENDBRANCH   1   7
TORSDOF 6
ENDMDL
MODEL 6
REMARK VINA RESULT:    -3.252     20.948     22.710
REMARK INTER + INTRA:          -4.460
REMARK INTER:                  -4.109
REMARK INTRA:                  -0.351
REMARK UNBOUND:                -0.068
REMARK SMILES CCCCCCCC(=O)[O-]
REMARK SMILES IDX 5 1 6 2 7 3 8 4 9 5 10 6 4 7 3 8 2 9 1 10
REMARK H PARENT
REMARK Flexibility Score: inf
ROOT
ATOM      1  C   UNL     1       7.123  -7.549   8.193  1.00  0.00     0.000 C 
ENDROOT
BRANCH   1   2
ATOM      2  C   UNL     1       6.026  -8.618   8.073  1.00  0.00     0.006 C 
BRANCH   2   3
ATOM      3  C   UNL     1       4.946  -8.230   7.055  1.00  0.00     0.053 C 
BRANCH   3   4
ATOM      4  C   UNL     1       5.530  -7.945   5.706  1.00  0.00     0.041 C 
ATOM      5  O   UNL     1       5.491  -6.780   5.231  1.00  0.00    -0.550 OA
ATOM      6  O   UNL     1       6.150  -8.960   4.989  1.00  0.00    -0.550 OA
ENDBRANCH   3   4
ENDBRANCH   2   3
ENDBRANCH   1   2
BRANCH   1   7
ATOM      7  C   UNL     1       8.147  -7.931   9.272  1.00  0.00     0.000 C 
BRANCH   7   8
ATOM      8  C   UNL     1       9.527  -8.287   8.691  1.00  0.00    -0.000 C 
BRANCH   8   9
ATOM      9  C   UNL     1       9.596  -9.646   7.973  1.00  0.00    -0.003 C 
ATOM     10  C   UNL     1       9.675  -9.515   6.452  1.00  0.00     0.004 C 
ENDBRANCH   8   9
ENDBRANCH   7   8
ENDBRANCH   1   7
TORSDOF 6
ENDMDL
MODEL 7
REMARK VINA RESULT:    -3.216     21.495     22.748
REMARK INTER + INTRA:          -4.412
REMARK INTER:                  -3.828
REMARK INTRA:                  -0.584
REMARK UNBOUND:                -0.068
REMARK SMILES CCCCCCCC(=O)[O-]
REMARK SMILES IDX 5 1 6 2 7 3 8 4 9 5 10 6 4 7 3 8 2 9 1 10
REMARK H PARENT
REMARK Flexibility Score: inf
ROOT
ATOM      1  C   UNL     1       6.684  -9.458   5.624  1.00  0.00     0.000 C 
ENDROOT
BRANCH   1   2
ATOM      2  C   UNL     1       8.035  -9.299   6.337  1.00  0.00     0.006 C 
BRANCH   2   3
ATOM      3  C   UNL     1       7.903  -9.398   7.863  1.00  0.00     0.053 C 
BRANCH   3   4
ATOM      4  C   UNL     1       8.232  -8.101   8.534  1.00  0.00     0.041 C 
ATOM      5  O   UNL     1       7.346  -7.217   8.677  1.00  0.00    -0.550 OA
ATOM      6  O   UNL     1       9.509  -7.882   9.034  1.00  0.00    -0.550 OA
ENDBRANCH   3   4
ENDBRANCH   2   3
ENDBRANCH   1   2
BRANCH   1   7
ATOM      7  C   UNL     1       5.891  -8.144   5.647  1.00  0.00     0.000 C 
BRANCH   7   8
ATOM      8  C   UNL     1       4.431  -8.331   6.099  1.00  0.00    -0.000 C 
BRANCH   8   9
ATOM      9  C   UNL     1       4.202  -9.495   7.079  1.00  0.00    -0.003 C 
ATOM     10  C   UNL     1       4.253  -9.063   8.544  1.00  0.00     0.004 C 
ENDBRANCH   8   9
ENDBRANCH   7   8
ENDBRANCH   1   7
TORSDOF 6
ENDMDL
MODEL 8
REMARK VINA RESULT:    -3.146     21.353     23.076
REMARK INTER + INTRA:          -4.317
REMARK INTER:                  -3.737
REMARK INTRA:                  -0.579
REMARK UNBOUND:                -0.068
REMARK SMILES CCCCCCCC(=O)[O-]
REMARK SMILES IDX 5 1 6 2 7 3 8 4 9 5 10 6 4 7 3 8 2 9 1 10
REMARK H PARENT
REMARK Flexibility Score: inf
ROOT
ATOM      1  C   UNL     1       4.414  -8.883   8.988  1.00  0.00     0.000 C 
ENDROOT
BRANCH   1   2
ATOM      2  C   UNL     1       5.693  -8.824   9.836  1.00  0.00     0.006 C 
BRANCH   2   3
ATOM      3  C   UNL     1       6.954  -9.097   9.006  1.00  0.00     0.053 C 
BRANCH   3   4
ATOM      4  C   UNL     1       7.784  -7.863   8.834  1.00  0.00     0.041 C 
ATOM      5  O   UNL     1       7.312  -6.858   8.239  1.00  0.00    -0.550 OA
ATOM      6  O   UNL     1       9.067  -7.809   9.363  1.00  0.00    -0.550 OA
ENDBRANCH   3   4
ENDBRANCH   2   3
ENDBRANCH   1   2
BRANCH   1   7
ATOM      7  C   UNL     1       4.667  -9.609   7.659  1.00  0.00     0.000 C 
BRANCH   7   8
ATOM      8  C   UNL     1       4.178  -8.813   6.436  1.00  0.00    -0.000 C 
BRANCH   8   9
ATOM      9  C   UNL     1       5.269  -8.008   5.709  1.00  0.00    -0.003 C 
ATOM     10  C   UNL     1       6.520  -8.833   5.408  1.00  0.00     0.004 C 
ENDBRANCH   8   9
ENDBRANCH   7   8
ENDBRANCH   1   7
TORSDOF 6
ENDMDL
MODEL 9
REMARK VINA RESULT:    -3.068     14.911     15.675
REMARK INTER + INTRA:          -4.212
REMARK INTER:                  -3.834
REMARK INTRA:                  -0.377
REMARK UNBOUND:                -0.068
REMARK SMILES CCCCCCCC(=O)[O-]
REMARK SMILES IDX 5 1 6 2 7 3 8 4 9 5 10 6 4 7 3 8 2 9 1 10
REMARK H PARENT
REMARK Flexibility Score: inf
ROOT
ATOM      1  C   UNL     1     -10.000   9.497  -7.078  1.00  0.00     0.000 C 
ENDROOT
BRANCH   1   2
ATOM      2  C   UNL     1      -8.614   9.119  -6.536  1.00  0.00     0.006 C 
BRANCH   2   3
ATOM      3  C   UNL     1      -8.698   8.312  -5.233  1.00  0.00     0.053 C 
BRANCH   3   4
ATOM      4  C   UNL     1      -8.935   6.857  -5.496  1.00  0.00     0.041 C 
ATOM      5  O   UNL     1      -9.095   6.057  -4.537  1.00  0.00    -0.550 OA
ATOM      6  O   UNL     1      -9.014   6.391  -6.801  1.00  0.00    -0.550 OA
ENDBRANCH   3   4
ENDBRANCH   2   3
ENDBRANCH   1   2
BRANCH   1   7
ATOM      7  C   UNL     1     -10.057   9.333  -8.604  1.00  0.00     0.000 C 
BRANCH   7   8
ATOM      8  C   UNL     1      -8.680   9.050  -9.229  1.00  0.00    -0.000 C 
BRANCH   8   9
ATOM      9  C   UNL     1      -8.611   7.778 -10.092  1.00  0.00    -0.003 C 
ATOM     10  C   UNL     1      -7.379   6.922  -9.799  1.00  0.00     0.004 C 
ENDBRANCH   8   9
ENDBRANCH   7   8
ENDBRANCH   1   7
TORSDOF 6
ENDMDL
