MODEL 1
REMARK VINA RESULT:    -4.762      0.000      0.000
REMARK INTER + INTRA:          -4.871
REMARK INTER:                  -5.875
REMARK INTRA:                   1.004
REMARK UNBOUND:                 1.004
REMARK SMILES C=C1[C@H]2CC[C@@H]3[C@H]2C(C)(C)CCC[C@]13C
REMARK SMILES IDX 14 1 6 2 7 3 3 4 2 5 1 6 4 7 5 8 15 9 8 10 9 11 10 12 11 13
REMARK SMILES IDX 13 15 12 16
REMARK H PARENT
REMARK Flexibility Score: 80.00
ROOT
ATOM      1  C   UNL     1     106.956 110.672 128.275  1.00  0.00    -0.008 C 
ATOM      2  C   UNL     1     106.976 110.056 126.823  1.00  0.00     0.003 C 
ATOM      3  C   UNL     1     105.591 109.389 126.663  1.00  0.00     0.006 C 
ATOM      4  C   UNL     1     104.822 110.638 127.074  1.00  0.00     0.019 C 
ATOM      5  C   UNL     1     105.481 110.990 128.377  1.00  0.00    -0.068 C 
ATOM      6  C   UNL     1     104.865 111.587 129.407  1.00  0.00     0.009 C 
ATOM      7  C   UNL     1     105.338 111.653 126.027  1.00  0.00     0.008 C 
ATOM      8  C   UNL     1     106.796 111.190 125.777  1.00  0.00     0.005 C 
ATOM      9  C   UNL     1     107.789 111.974 128.422  1.00  0.00     0.016 C 
ENDROOT
BRANCH   3  10
ATOM     10  C   UNL     1     105.267 108.027 127.386  1.00  0.00    -0.032 C 
ATOM     11  C   UNL     1     105.957 106.881 126.598  1.00  0.00     0.011 C 
ATOM     12  C   UNL     1     103.742 107.765 127.301  1.00  0.00     0.011 C 
BRANCH  10  13
ATOM     13  C   UNL     1     105.660 107.948 128.887  1.00  0.00     0.007 CG0
ATOM     14  G   UNL     1     107.139 108.214 129.170  1.00  0.00     0.000 G0
ENDBRANCH  10  13
ENDBRANCH   3  10
BRANCH   1  15
ATOM     15  C   UNL     1     107.444 109.691 129.381  1.00  0.00     0.011 C 
BRANCH  15  16
ATOM     16  C   UNL     1     107.133 108.209 129.182  1.00  0.00     0.001 CG0
ATOM     17  G   UNL     1     105.657 107.943 128.883  1.00  0.00     0.000 G0
ENDBRANCH  15  16
ENDBRANCH   1  15
TORSDOF 0
ENDMDL
MODEL 2
REMARK VINA RESULT:    -4.723      3.831      5.737
REMARK INTER + INTRA:          -4.823
REMARK INTER:                  -5.833
REMARK INTRA:                   1.010
REMARK UNBOUND:                 1.004
REMARK SMILES C=C1[C@H]2CC[C@@H]3[C@H]2C(C)(C)CCC[C@]13C
REMARK SMILES IDX 14 1 6 2 7 3 3 4 2 5 1 6 4 7 5 8 15 9 8 10 9 11 10 12 11 13
REMARK SMILES IDX 13 15 12 16
REMARK H PARENT
REMARK Flexibility Score: 80.00
ROOT
ATOM      1  C   UNL     1     104.613 105.904 128.569  1.00  0.00    -0.008 C 
ATOM      2  C   UNL     1     103.788 104.594 128.875  1.00  0.00     0.003 C 
ATOM      3  C   UNL     1     102.758 104.505 127.725  1.00  0.00     0.006 C 
ATOM      4  C   UNL     1     103.807 104.643 126.630  1.00  0.00     0.019 C 
ATOM      5  C   UNL     1     104.538 105.884 127.058  1.00  0.00    -0.068 C 
ATOM      6  C   UNL     1     105.114 106.758 126.222  1.00  0.00     0.009 C 
ATOM      7  C   UNL     1     104.730 103.447 126.961  1.00  0.00     0.008 C 
ATOM      8  C   UNL     1     104.638 103.348 128.505  1.00  0.00     0.005 C 
ATOM      9  C   UNL     1     106.096 105.839 129.026  1.00  0.00     0.016 C 
ENDROOT
BRANCH   3  10
ATOM     10  C   UNL     1     101.502 105.456 127.697  1.00  0.00    -0.032 C 
ATOM     11  C   UNL     1     100.467 104.929 128.727  1.00  0.00     0.011 C 
ATOM     12  C   UNL     1     100.829 105.356 126.305  1.00  0.00     0.011 C 
BRANCH  10  13
ATOM     13  C   UNL     1     101.787 106.961 127.958  1.00  0.00     0.007 CG0
ATOM     14  G   UNL     1     102.492 107.252 129.284  1.00  0.00     0.000 G0
ENDBRANCH  10  13
ENDBRANCH   3  10
BRANCH   1  15
ATOM     15  C   UNL     1     104.000 107.193 129.191  1.00  0.00     0.011 C 
BRANCH  15  16
ATOM     16  C   UNL     1     102.478 107.264 129.284  1.00  0.00     0.001 CG0
ATOM     17  G   UNL     1     101.784 106.972 127.952  1.00  0.00     0.000 G0
ENDBRANCH  15  16
ENDBRANCH   1  15
TORSDOF 0
ENDMDL
MODEL 3
REMARK VINA RESULT:    -4.683      1.151      3.798
REMARK INTER + INTRA:          -4.773
REMARK INTER:                  -5.801
REMARK INTRA:                   1.028
REMARK UNBOUND:                 1.004
REMARK SMILES C=C1[C@H]2CC[C@@H]3[C@H]2C(C)(C)CCC[C@]13C
REMARK SMILES IDX 14 1 6 2 7 3 3 4 2 5 1 6 4 7 5 8 15 9 8 10 9 11 10 12 11 13
REMARK SMILES IDX 13 15 12 16
REMARK H PARENT
REMARK Flexibility Score: 80.00
ROOT
ATOM      1  C   UNL     1     105.890 107.809 128.599  1.00  0.00    -0.008 C 
ATOM      2  C   UNL     1     104.580 108.624 128.934  1.00  0.00     0.003 C 
ATOM      3  C   UNL     1     104.457 109.652 127.786  1.00  0.00     0.006 C 
ATOM      4  C   UNL     1     104.579 108.604 126.689  1.00  0.00     0.019 C 
ATOM      5  C   UNL     1     105.836 107.883 127.090  1.00  0.00    -0.068 C 
ATOM      6  C   UNL     1     106.695 107.314 126.234  1.00  0.00     0.009 C 
ATOM      7  C   UNL     1     103.399 107.671 127.047  1.00  0.00     0.008 C 
ATOM      8  C   UNL     1     103.334 107.764 128.593  1.00  0.00     0.005 C 
ATOM      9  C   UNL     1     105.847 106.326 129.058  1.00  0.00     0.016 C 
ENDROOT
BRANCH   3  10
ATOM     10  C   UNL     1     105.397 110.917 127.736  1.00  0.00    -0.032 C 
ATOM     11  C   UNL     1     104.892 111.942 128.787  1.00  0.00     0.011 C 
ATOM     12  C   UNL     1     105.250 111.595 126.351  1.00  0.00     0.011 C 
BRANCH  10  13
ATOM     13  C   UNL     1     106.911 110.642 127.950  1.00  0.00     0.007 CG0
ATOM     14  G   UNL     1     107.250 109.954 129.274  1.00  0.00     0.000 G0
ENDBRANCH  10  13
ENDBRANCH   3  10
BRANCH   1  15
ATOM     15  C   UNL     1     107.187 108.434 129.192  1.00  0.00     0.011 C 
BRANCH  15  16
ATOM     16  C   UNL     1     107.253 109.957 129.270  1.00  0.00     0.001 CG0
ATOM     17  G   UNL     1     106.899 110.639 127.947  1.00  0.00     0.000 G0
ENDBRANCH  15  16
ENDBRANCH   1  15
TORSDOF 0
ENDMDL
MODEL 4
REMARK VINA RESULT:    -4.609      4.490      6.632
REMARK INTER + INTRA:          -4.682
REMARK INTER:                  -5.704
REMARK INTRA:                   1.022
REMARK UNBOUND:                 1.004
REMARK SMILES C=C1[C@H]2CC[C@@H]3[C@H]2C(C)(C)CCC[C@]13C
REMARK SMILES IDX 14 1 6 2 7 3 3 4 2 5 1 6 4 7 5 8 15 9 8 10 9 11 10 12 11 13
REMARK SMILES IDX 13 15 12 16
REMARK H PARENT
REMARK Flexibility Score: 80.00
ROOT
ATOM      1  C   UNL     1     106.710 104.899 128.629  1.00  0.00    -0.008 C 
ATOM      2  C   UNL     1     107.931 104.054 129.163  1.00  0.00     0.003 C 
ATOM      3  C   UNL     1     108.166 102.979 128.077  1.00  0.00     0.006 C 
ATOM      4  C   UNL     1     108.230 103.988 126.939  1.00  0.00     0.019 C 
ATOM      5  C   UNL     1     106.960 104.765 127.144  1.00  0.00    -0.068 C 
ATOM      6  C   UNL     1     106.244 105.330 126.163  1.00  0.00     0.009 C 
ATOM      7  C   UNL     1     109.387 104.894 127.420  1.00  0.00     0.008 C 
ATOM      8  C   UNL     1     109.244 104.859 128.963  1.00  0.00     0.005 C 
ATOM      9  C   UNL     1     106.748 106.396 129.040  1.00  0.00     0.016 C 
ENDROOT
BRANCH   3  10
ATOM     10  C   UNL     1     107.193 101.746 127.945  1.00  0.00    -0.032 C 
ATOM     11  C   UNL     1     107.521 100.742 129.083  1.00  0.00     0.011 C 
ATOM     12  C   UNL     1     107.491 101.015 126.612  1.00  0.00     0.011 C 
BRANCH  10  13
ATOM     13  C   UNL     1     105.676 102.078 127.953  1.00  0.00     0.007 CG0
ATOM     14  G   UNL     1     105.197 102.826 129.198  1.00  0.00     0.000 G0
ENDBRANCH  10  13
ENDBRANCH   3  10
BRANCH   1  15
ATOM     15  C   UNL     1     105.322 104.341 129.064  1.00  0.00     0.011 C 
BRANCH  15  16
ATOM     16  C   UNL     1     105.191 102.825 129.190  1.00  0.00     0.001 CG0
ATOM     17  G   UNL     1     105.683 102.077 127.949  1.00  0.00     0.000 G0
ENDBRANCH  15  16
ENDBRANCH   1  15
TORSDOF 0
ENDMDL
MODEL 5
REMARK VINA RESULT:    -4.586      3.813      5.955
REMARK INTER + INTRA:          -4.654
REMARK INTER:                  -5.659
REMARK INTRA:                   1.004
REMARK UNBOUND:                 1.004
REMARK SMILES C=C1[C@H]2CC[C@@H]3[C@H]2C(C)(C)CCC[C@]13C
REMARK SMILES IDX 14 1 6 2 7 3 3 4 2 5 1 6 4 7 5 8 15 9 8 10 9 11 10 12 11 13
REMARK SMILES IDX 13 15 12 16
REMARK H PARENT
REMARK Flexibility Score: 80.00
ROOT
ATOM      1  C   UNL     1     102.377 105.952 126.357  1.00  0.00    -0.008 C 
ATOM      2  C   UNL     1     101.999 104.815 127.383  1.00  0.00     0.003 C 
ATOM      3  C   UNL     1     103.047 104.944 128.512  1.00  0.00     0.006 C 
ATOM      4  C   UNL     1     102.797 106.431 128.722  1.00  0.00     0.019 C 
ATOM      5  C   UNL     1     102.941 106.967 127.326  1.00  0.00    -0.068 C 
ATOM      6  C   UNL     1     103.396 108.190 127.022  1.00  0.00     0.009 C 
ATOM      7  C   UNL     1     101.285 106.427 129.043  1.00  0.00     0.008 C 
ATOM      8  C   UNL     1     100.748 105.245 128.196  1.00  0.00     0.005 C 
ATOM      9  C   UNL     1     101.160 106.557 125.605  1.00  0.00     0.016 C 
ENDROOT
BRANCH   3  10
ATOM     10  C   UNL     1     104.527 104.446 128.295  1.00  0.00    -0.032 C 
ATOM     11  C   UNL     1     104.542 102.897 128.403  1.00  0.00     0.011 C 
ATOM     12  C   UNL     1     105.409 104.979 129.451  1.00  0.00     0.011 C 
BRANCH  10  13
ATOM     13  C   UNL     1     105.200 104.889 126.967  1.00  0.00     0.007 CG0
ATOM     14  G   UNL     1     104.448 104.470 125.703  1.00  0.00     0.000 G0
ENDBRANCH  10  13
ENDBRANCH   3  10
BRANCH   1  15
ATOM     15  C   UNL     1     103.406 105.507 125.277  1.00  0.00     0.011 C 
BRANCH  15  16
ATOM     16  C   UNL     1     104.453 104.477 125.696  1.00  0.00     0.001 CG0
ATOM     17  G   UNL     1     105.209 104.876 126.965  1.00  0.00     0.000 G0
ENDBRANCH  15  16
ENDBRANCH   1  15
TORSDOF 0
ENDMDL
MODEL 6
REMARK VINA RESULT:    -4.560      3.226      5.067
REMARK INTER + INTRA:          -4.622
REMARK INTER:                  -5.650
REMARK INTRA:                   1.028
REMARK UNBOUND:                 1.004
REMARK SMILES C=C1[C@H]2CC[C@@H]3[C@H]2C(C)(C)CCC[C@]13C
REMARK SMILES IDX 14 1 6 2 7 3 3 4 2 5 1 6 4 7 5 8 15 9 8 10 9 11 10 12 11 13
REMARK SMILES IDX 13 15 12 16
REMARK H PARENT
REMARK Flexibility Score: 80.00
ROOT
ATOM      1  C   UNL     1     107.691 106.670 128.704  1.00  0.00    -0.008 C 
ATOM      2  C   UNL     1     108.568 107.941 129.028  1.00  0.00     0.003 C 
ATOM      3  C   UNL     1     109.548 108.052 127.837  1.00  0.00     0.006 C 
ATOM      4  C   UNL     1     108.448 107.992 126.786  1.00  0.00     0.019 C 
ATOM      5  C   UNL     1     107.699 106.754 127.194  1.00  0.00    -0.068 C 
ATOM      6  C   UNL     1     107.060 105.936 126.348  1.00  0.00     0.009 C 
ATOM      7  C   UNL     1     107.577 109.198 127.210  1.00  0.00     0.008 C 
ATOM      8  C   UNL     1     107.741 109.225 128.751  1.00  0.00     0.005 C 
ATOM      9  C   UNL     1     106.233 106.756 129.231  1.00  0.00     0.016 C 
ENDROOT
BRANCH   3  10
ATOM     10  C   UNL     1     110.773 107.068 127.710  1.00  0.00    -0.032 C 
ATOM     11  C   UNL     1     111.861 107.510 128.725  1.00  0.00     0.011 C 
ATOM     12  C   UNL     1     111.395 107.222 126.300  1.00  0.00     0.011 C 
BRANCH  10  13
ATOM     13  C   UNL     1     110.451 105.561 127.904  1.00  0.00     0.007 CG0
ATOM     14  G   UNL     1     109.811 105.216 129.250  1.00  0.00     0.000 G0
ENDBRANCH  10  13
ENDBRANCH   3  10
BRANCH   1  15
ATOM     15  C   UNL     1     108.292 105.338 129.241  1.00  0.00     0.011 C 
BRANCH  15  16
ATOM     16  C   UNL     1     109.814 105.214 129.246  1.00  0.00     0.001 CG0
ATOM     17  G   UNL     1     110.446 105.564 127.898  1.00  0.00     0.000 G0
ENDBRANCH  15  16
ENDBRANCH   1  15
TORSDOF 0
ENDMDL
MODEL 7
REMARK VINA RESULT:    -4.538      1.462      3.244
REMARK INTER + INTRA:          -4.595
REMARK INTER:                  -5.617
REMARK INTRA:                   1.022
REMARK UNBOUND:                 1.004
REMARK SMILES C=C1[C@H]2CC[C@@H]3[C@H]2C(C)(C)CCC[C@]13C
REMARK SMILES IDX 14 1 6 2 7 3 3 4 2 5 1 6 4 7 5 8 15 9 8 10 9 11 10 12 11 13
REMARK SMILES IDX 13 15 12 16
REMARK H PARENT
REMARK Flexibility Score: 80.00
ROOT
ATOM      1  C   UNL     1     105.768 110.104 126.407  1.00  0.00    -0.008 C 
ATOM      2  C   UNL     1     104.841 110.423 127.643  1.00  0.00     0.003 C 
ATOM      3  C   UNL     1     105.123 109.281 128.646  1.00  0.00     0.006 C 
ATOM      4  C   UNL     1     106.633 109.477 128.611  1.00  0.00     0.019 C 
ATOM      5  C   UNL     1     106.914 109.438 127.135  1.00  0.00    -0.068 C 
ATOM      6  C   UNL     1     108.048 108.982 126.587  1.00  0.00     0.009 C 
ATOM      7  C   UNL     1     106.742 110.957 129.045  1.00  0.00     0.008 C 
ATOM      8  C   UNL     1     105.452 111.591 128.463  1.00  0.00     0.005 C 
ATOM      9  C   UNL     1     106.280 111.365 125.658  1.00  0.00     0.016 C 
ENDROOT
BRANCH   3  10
ATOM     10  C   UNL     1     104.540 107.836 128.405  1.00  0.00    -0.032 C 
ATOM     11  C   UNL     1     103.031 107.853 128.769  1.00  0.00     0.011 C 
ATOM     12  C   UNL     1     105.221 106.851 129.387  1.00  0.00     0.011 C 
BRANCH  10  13
ATOM     13  C   UNL     1     104.732 107.261 126.975  1.00  0.00     0.007 CG0
ATOM     14  G   UNL     1     104.128 108.117 125.860  1.00  0.00     0.000 G0
ENDBRANCH  10  13
ENDBRANCH   3  10
BRANCH   1  15
ATOM     15  C   UNL     1     105.104 109.180 125.344  1.00  0.00     0.011 C 
BRANCH  15  16
ATOM     16  C   UNL     1     104.138 108.114 125.856  1.00  0.00     0.001 CG0
ATOM     17  G   UNL     1     104.731 107.259 126.977  1.00  0.00     0.000 G0
ENDBRANCH  15  16
ENDBRANCH   1  15
TORSDOF 0
ENDMDL
MODEL 8
REMARK VINA RESULT:    -4.522      4.917      7.577
REMARK INTER + INTRA:          -4.575
REMARK INTER:                  -5.609
REMARK INTRA:                   1.034
REMARK UNBOUND:                 1.004
REMARK SMILES C=C1[C@H]2CC[C@@H]3[C@H]2C(C)(C)CCC[C@]13C
REMARK SMILES IDX 14 1 6 2 7 3 3 4 2 5 1 6 4 7 5 8 15 9 8 10 9 11 10 12 11 13
REMARK SMILES IDX 13 15 12 16
REMARK H PARENT
REMARK Flexibility Score: 80.00
ROOT
ATOM      1  C   UNL     1     107.155 102.119 126.716  1.00  0.00    -0.008 C 
ATOM      2  C   UNL     1     107.894 102.011 128.106  1.00  0.00     0.003 C 
ATOM      3  C   UNL     1     107.333 103.188 128.937  1.00  0.00     0.006 C 
ATOM      4  C   UNL     1     105.878 102.812 128.687  1.00  0.00     0.019 C 
ATOM      5  C   UNL     1     105.842 102.701 127.189  1.00  0.00    -0.068 C 
ATOM      6  C   UNL     1     104.774 102.975 126.429  1.00  0.00     0.009 C 
ATOM      7  C   UNL     1     105.853 101.368 129.240  1.00  0.00     0.008 C 
ATOM      8  C   UNL     1     107.280 100.848 128.930  1.00  0.00     0.005 C 
ATOM      9  C   UNL     1     106.909 100.751 126.023  1.00  0.00     0.016 C 
ENDROOT
BRANCH   3  10
ATOM     10  C   UNL     1     107.795 104.667 128.650  1.00  0.00    -0.032 C 
ATOM     11  C   UNL     1     109.221 104.854 129.233  1.00  0.00     0.011 C 
ATOM     12  C   UNL     1     106.870 105.640 129.423  1.00  0.00     0.011 C 
BRANCH  10  13
ATOM     13  C   UNL     1     107.771 105.104 127.159  1.00  0.00     0.007 CG0
ATOM     14  G   UNL     1     108.630 104.243 126.232  1.00  0.00     0.000 G0
ENDBRANCH  10  13
ENDBRANCH   3  10
BRANCH   1  15
ATOM     15  C   UNL     1     107.886 103.028 125.684  1.00  0.00     0.011 C 
BRANCH  15  16
ATOM     16  C   UNL     1     108.624 104.247 126.232  1.00  0.00     0.001 CG0
ATOM     17  G   UNL     1     107.760 105.101 127.162  1.00  0.00     0.000 G0
ENDBRANCH  15  16
ENDBRANCH   1  15
TORSDOF 0
ENDMDL
MODEL 9
REMARK VINA RESULT:    -4.510      3.743      5.754
REMARK INTER + INTRA:          -4.561
REMARK INTER:                  -5.583
REMARK INTRA:                   1.022
REMARK UNBOUND:                 1.004
REMARK SMILES C=C1[C@H]2CC[C@@H]3[C@H]2C(C)(C)CCC[C@]13C
REMARK SMILES IDX 14 1 6 2 7 3 3 4 2 5 1 6 4 7 5 8 15 9 8 10 9 11 10 12 11 13
REMARK SMILES IDX 13 15 12 16
REMARK H PARENT
REMARK Flexibility Score: 80.00
ROOT
ATOM      1  C   UNL     1     110.305 107.153 126.985  1.00  0.00    -0.008 C 
ATOM      2  C   UNL     1     110.095 107.111 128.548  1.00  0.00     0.003 C 
ATOM      3  C   UNL     1     109.327 105.793 128.802  1.00  0.00     0.006 C 
ATOM      4  C   UNL     1     110.322 104.938 128.029  1.00  0.00     0.019 C 
ATOM      5  C   UNL     1     110.402 105.668 126.718  1.00  0.00    -0.068 C 
ATOM      6  C   UNL     1     110.631 105.085 125.533  1.00  0.00     0.009 C 
ATOM      7  C   UNL     1     111.629 105.253 128.793  1.00  0.00     0.008 C 
ATOM      8  C   UNL     1     111.430 106.724 129.240  1.00  0.00     0.005 C 
ATOM      9  C   UNL     1     111.617 107.857 126.542  1.00  0.00     0.016 C 
ENDROOT
BRANCH   3  10
ATOM     10  C   UNL     1     107.794 105.676 128.454  1.00  0.00    -0.032 C 
ATOM     11  C   UNL     1     106.987 106.420 129.551  1.00  0.00     0.011 C 
ATOM     12  C   UNL     1     107.376 104.186 128.530  1.00  0.00     0.011 C 
BRANCH  10  13
ATOM     13  C   UNL     1     107.380 106.194 127.049  1.00  0.00     0.007 CG0
ATOM     14  G   UNL     1     107.730 107.659 126.785  1.00  0.00     0.000 G0
ENDBRANCH  10  13
ENDBRANCH   3  10
BRANCH   1  15
ATOM     15  C   UNL     1     109.138 107.835 126.212  1.00  0.00     0.011 C 
BRANCH  15  16
ATOM     16  C   UNL     1     107.732 107.659 126.781  1.00  0.00     0.001 CG0
ATOM     17  G   UNL     1     107.375 106.196 127.051  1.00  0.00     0.000 G0
ENDBRANCH  15  16
ENDBRANCH   1  15
TORSDOF 0
ENDMDL
