MODEL 1
REMARK VINA RESULT:    -6.854      0.000      0.000
REMARK INTER + INTRA:          -8.714
REMARK INTER:                  -8.457
REMARK INTRA:                  -0.258
REMARK UNBOUND:                -0.258
REMARK SMILES COc1cc(-c2oc3cc(O)cc(O)c3c(=O)c2O)ccc1O
REMARK SMILES IDX 6 1 18 2 16 3 17 4 15 5 13 6 12 7 10 8 9 9 8 10 7 11 5 12
REMARK SMILES IDX 3 13 22 14 4 15 21 16 20 17 2 18 1 19 23 20 19 22 14 24
REMARK SMILES IDX 11 26
REMARK H PARENT 23 21 19 23 14 25 11 27
REMARK Flexibility Score: inf
ROOT
ATOM      1  C   UNL     1      23.004  44.950  10.626  1.00  0.00     0.180 A 
ATOM      2  C   UNL     1      21.890  44.930  11.487  1.00  0.00     0.208 A 
ATOM      3  C   UNL     1      20.686  45.508  11.054  1.00  0.00     0.238 A 
ATOM      4  O   UNL     1      19.685  45.506  11.821  1.00  0.00    -0.285 OA
ATOM      5  C   UNL     1      20.610  46.074   9.764  1.00  0.00     0.111 A 
ATOM      6  C   UNL     1      19.435  46.671   9.250  1.00  0.00     0.134 A 
ATOM      7  C   UNL     1      19.436  47.205   7.952  1.00  0.00     0.093 A 
ATOM      8  C   UNL     1      20.591  47.152   7.162  1.00  0.00     0.123 A 
ATOM      9  C   UNL     1      21.752  46.565   7.665  1.00  0.00     0.094 A 
ATOM     10  C   UNL     1      21.771  46.028   8.957  1.00  0.00     0.146 A 
ATOM     11  O   UNL     1      22.891  45.480   9.412  1.00  0.00    -0.452 OA
ENDROOT
BRANCH   1  12
ATOM     12  C   UNL     1      24.312  44.378  11.019  1.00  0.00     0.025 A 
ATOM     13  C   UNL     1      26.048  42.666  10.815  1.00  0.00     0.161 A 
ATOM     14  C   UNL     1      26.778  43.298  11.838  1.00  0.00     0.157 A 
ATOM     15  C   UNL     1      24.810  43.209  10.416  1.00  0.00     0.062 A 
ATOM     16  C   UNL     1      26.272  44.446  12.452  1.00  0.00     0.051 A 
ATOM     17  C   UNL     1      25.045  44.979  12.052  1.00  0.00     0.016 A 
BRANCH  13  18
ATOM     18  O   UNL     1      26.576  41.506  10.224  1.00  0.00    -0.493 OA
ATOM     19  C   UNL     1      26.535  41.219   8.830  1.00  0.00     0.278 C 
ENDBRANCH  13  18
BRANCH  14  20
ATOM     20  O   UNL     1      28.009  42.795  12.261  1.00  0.00    -0.504 OA
ATOM     21  H   UNL     1      28.298  42.825  13.231  1.00  0.00     0.293 HD
ENDBRANCH  14  20
ENDBRANCH   1  12
BRANCH   2  22
ATOM     22  O   UNL     1      21.977  44.319  12.741  1.00  0.00    -0.502 OA
ATOM     23  H   UNL     1      21.282  44.460  13.464  1.00  0.00     0.293 HD
ENDBRANCH   2  22
BRANCH   6  24
ATOM     24  O   UNL     1      18.269  46.738  10.014  1.00  0.00    -0.507 OA
ATOM     25  H   UNL     1      17.819  47.621  10.223  1.00  0.00     0.293 HD
ENDBRANCH   6  24
BRANCH   8  26
ATOM     26  O   UNL     1      20.592  47.682   5.873  1.00  0.00    -0.508 OA
ATOM     27  H   UNL     1      21.405  48.155   5.496  1.00  0.00     0.293 HD
ENDBRANCH   8  26
TORSDOF 6
ENDMDL
MODEL 2
REMARK VINA RESULT:    -6.748      9.208     11.363
REMARK INTER + INTRA:          -8.584
REMARK INTER:                  -8.207
REMARK INTRA:                  -0.377
REMARK UNBOUND:                -0.258
REMARK SMILES COc1cc(-c2oc3cc(O)cc(O)c3c(=O)c2O)ccc1O
REMARK SMILES IDX 6 1 18 2 16 3 17 4 15 5 13 6 12 7 10 8 9 9 8 10 7 11 5 12
REMARK SMILES IDX 3 13 22 14 4 15 21 16 20 17 2 18 1 19 23 20 19 22 14 24
REMARK SMILES IDX 11 26
REMARK H PARENT 23 21 19 23 14 25 11 27
REMARK Flexibility Score: inf
ROOT
ATOM      1  C   UNL     1      27.368  39.251   2.469  1.00  0.00     0.180 A 
ATOM      2  C   UNL     1      28.386  39.267   1.497  1.00  0.00     0.208 A 
ATOM      3  C   UNL     1      28.682  40.473   0.843  1.00  0.00     0.238 A 
ATOM      4  O   UNL     1      29.583  40.496  -0.039  1.00  0.00    -0.285 OA
ATOM      5  C   UNL     1      27.972  41.643   1.186  1.00  0.00     0.111 A 
ATOM      6  C   UNL     1      28.212  42.898   0.578  1.00  0.00     0.134 A 
ATOM      7  C   UNL     1      27.470  44.019   0.982  1.00  0.00     0.093 A 
ATOM      8  C   UNL     1      26.495  43.906   1.980  1.00  0.00     0.123 A 
ATOM      9  C   UNL     1      26.255  42.670   2.581  1.00  0.00     0.094 A 
ATOM     10  C   UNL     1      26.984  41.541   2.192  1.00  0.00     0.146 A 
ATOM     11  O   UNL     1      26.731  40.377   2.778  1.00  0.00    -0.452 OA
ENDROOT
BRANCH   1  12
ATOM     12  C   UNL     1      26.987  38.013   3.189  1.00  0.00     0.025 A 
ATOM     13  C   UNL     1      25.496  36.100   3.514  1.00  0.00     0.161 A 
ATOM     14  C   UNL     1      26.269  35.700   4.620  1.00  0.00     0.157 A 
ATOM     15  C   UNL     1      25.859  37.264   2.807  1.00  0.00     0.062 A 
ATOM     16  C   UNL     1      27.376  36.457   5.011  1.00  0.00     0.051 A 
ATOM     17  C   UNL     1      27.729  37.609   4.307  1.00  0.00     0.016 A 
BRANCH  13  18
ATOM     18  O   UNL     1      24.382  35.326   3.151  1.00  0.00    -0.493 OA
ATOM     19  C   UNL     1      24.361  34.398   2.072  1.00  0.00     0.278 C 
ENDBRANCH  13  18
BRANCH  14  20
ATOM     20  O   UNL     1      25.948  34.552   5.346  1.00  0.00    -0.504 OA
ATOM     21  H   UNL     1      26.580  33.765   5.418  1.00  0.00     0.293 HD
ENDBRANCH  14  20
ENDBRANCH   1  12
BRANCH   2  22
ATOM     22  O   UNL     1      29.107  38.104   1.210  1.00  0.00    -0.502 OA
ATOM     23  H   UNL     1      30.079  38.124   0.927  1.00  0.00     0.293 HD
ENDBRANCH   2  22
BRANCH   6  24
ATOM     24  O   UNL     1      29.177  43.042  -0.419  1.00  0.00    -0.507 OA
ATOM     25  H   UNL     1      29.786  43.851  -0.459  1.00  0.00     0.293 HD
ENDBRANCH   6  24
BRANCH   8  26
ATOM     26  O   UNL     1      25.759  45.019   2.381  1.00  0.00    -0.508 OA
ATOM     27  H   UNL     1      25.650  45.258   3.359  1.00  0.00     0.293 HD
ENDBRANCH   8  26
TORSDOF 6
ENDMDL
MODEL 3
REMARK VINA RESULT:    -6.718      1.126      2.132
REMARK INTER + INTRA:          -8.546
REMARK INTER:                  -8.597
REMARK INTRA:                   0.051
REMARK UNBOUND:                -0.258
REMARK SMILES COc1cc(-c2oc3cc(O)cc(O)c3c(=O)c2O)ccc1O
REMARK SMILES IDX 6 1 18 2 16 3 17 4 15 5 13 6 12 7 10 8 9 9 8 10 7 11 5 12
REMARK SMILES IDX 3 13 22 14 4 15 21 16 20 17 2 18 1 19 23 20 19 22 14 24
REMARK SMILES IDX 11 26
REMARK H PARENT 23 21 19 23 14 25 11 27
REMARK Flexibility Score: inf
ROOT
ATOM      1  C   UNL     1      22.554  44.981  10.810  1.00  0.00     0.180 A 
ATOM      2  C   UNL     1      21.390  45.073  11.597  1.00  0.00     0.208 A 
ATOM      3  C   UNL     1      20.264  45.722  11.068  1.00  0.00     0.238 A 
ATOM      4  O   UNL     1      19.219  45.822  11.769  1.00  0.00    -0.285 OA
ATOM      5  C   UNL     1      20.312  46.247   9.760  1.00  0.00     0.111 A 
ATOM      6  C   UNL     1      19.220  46.912   9.153  1.00  0.00     0.134 A 
ATOM      7  C   UNL     1      19.344  47.398   7.842  1.00  0.00     0.093 A 
ATOM      8  C   UNL     1      20.538  47.232   7.130  1.00  0.00     0.123 A 
ATOM      9  C   UNL     1      21.617  46.578   7.726  1.00  0.00     0.094 A 
ATOM     10  C   UNL     1      21.514  46.087   9.032  1.00  0.00     0.146 A 
ATOM     11  O   UNL     1      22.558  45.474   9.575  1.00  0.00    -0.452 OA
ENDROOT
BRANCH   1  12
ATOM     12  C   UNL     1      23.788  44.328  11.305  1.00  0.00     0.025 A 
ATOM     13  C   UNL     1      25.412  43.886  13.081  1.00  0.00     0.161 A 
ATOM     14  C   UNL     1      26.168  43.112  12.184  1.00  0.00     0.157 A 
ATOM     15  C   UNL     1      24.224  44.497  12.632  1.00  0.00     0.062 A 
ATOM     16  C   UNL     1      25.747  42.963  10.860  1.00  0.00     0.051 A 
ATOM     17  C   UNL     1      24.570  43.571  10.421  1.00  0.00     0.016 A 
BRANCH  13  18
ATOM     18  O   UNL     1      25.867  44.029  14.403  1.00  0.00    -0.493 OA
ATOM     19  C   UNL     1      25.161  43.576  15.553  1.00  0.00     0.278 C 
ENDBRANCH  13  18
BRANCH  14  20
ATOM     20  O   UNL     1      27.349  42.487  12.588  1.00  0.00    -0.504 OA
ATOM     21  H   UNL     1      27.355  41.729  13.260  1.00  0.00     0.293 HD
ENDBRANCH  14  20
ENDBRANCH   1  12
BRANCH   2  22
ATOM     22  O   UNL     1      21.352  44.502  12.872  1.00  0.00    -0.502 OA
ATOM     23  H   UNL     1      21.330  45.059  13.717  1.00  0.00     0.293 HD
ENDBRANCH   2  22
BRANCH   6  24
ATOM     24  O   UNL     1      18.017  47.092   9.836  1.00  0.00    -0.507 OA
ATOM     25  H   UNL     1      17.496  47.958   9.780  1.00  0.00     0.293 HD
ENDBRANCH   6  24
BRANCH   8  26
ATOM     26  O   UNL     1      20.660  47.715   5.829  1.00  0.00    -0.508 OA
ATOM     27  H   UNL     1      20.324  48.635   5.571  1.00  0.00     0.293 HD
ENDBRANCH   8  26
TORSDOF 6
ENDMDL
MODEL 4
REMARK VINA RESULT:    -6.563      7.879      9.967
REMARK INTER + INTRA:          -8.355
REMARK INTER:                  -8.035
REMARK INTRA:                  -0.320
REMARK UNBOUND:                -0.258
REMARK SMILES COc1cc(-c2oc3cc(O)cc(O)c3c(=O)c2O)ccc1O
REMARK SMILES IDX 6 1 18 2 16 3 17 4 15 5 13 6 12 7 10 8 9 9 8 10 7 11 5 12
REMARK SMILES IDX 3 13 22 14 4 15 21 16 20 17 2 18 1 19 23 20 19 22 14 24
REMARK SMILES IDX 11 26
REMARK H PARENT 23 21 19 23 14 25 11 27
REMARK Flexibility Score: inf
ROOT
ATOM      1  C   UNL     1      26.517  39.632   3.799  1.00  0.00     0.180 A 
ATOM      2  C   UNL     1      26.219  40.615   4.762  1.00  0.00     0.208 A 
ATOM      3  C   UNL     1      26.313  41.969   4.401  1.00  0.00     0.238 A 
ATOM      4  O   UNL     1      26.060  42.858   5.259  1.00  0.00    -0.285 OA
ATOM      5  C   UNL     1      26.681  42.315   3.085  1.00  0.00     0.111 A 
ATOM      6  C   UNL     1      26.795  43.654   2.641  1.00  0.00     0.134 A 
ATOM      7  C   UNL     1      27.157  43.917   1.311  1.00  0.00     0.093 A 
ATOM      8  C   UNL     1      27.408  42.867   0.419  1.00  0.00     0.123 A 
ATOM      9  C   UNL     1      27.298  41.545   0.854  1.00  0.00     0.094 A 
ATOM     10  C   UNL     1      26.938  41.262   2.176  1.00  0.00     0.146 A 
ATOM     11  O   UNL     1      26.846  39.996   2.563  1.00  0.00    -0.452 OA
ENDROOT
BRANCH   1  12
ATOM     12  C   UNL     1      26.458  38.185   4.108  1.00  0.00     0.025 A 
ATOM     13  C   UNL     1      25.233  36.070   4.230  1.00  0.00     0.161 A 
ATOM     14  C   UNL     1      26.378  35.450   4.762  1.00  0.00     0.157 A 
ATOM     15  C   UNL     1      25.280  37.442   3.912  1.00  0.00     0.062 A 
ATOM     16  C   UNL     1      27.542  36.193   4.977  1.00  0.00     0.051 A 
ATOM     17  C   UNL     1      27.580  37.552   4.660  1.00  0.00     0.016 A 
BRANCH  13  18
ATOM     18  O   UNL     1      24.075  35.300   4.036  1.00  0.00    -0.493 OA
ATOM     19  C   UNL     1      23.865  34.420   2.936  1.00  0.00     0.278 C 
ENDBRANCH  13  18
BRANCH  14  20
ATOM     20  O   UNL     1      26.377  34.093   5.088  1.00  0.00    -0.504 OA
ATOM     21  H   UNL     1      25.574  33.639   5.504  1.00  0.00     0.293 HD
ENDBRANCH  14  20
ENDBRANCH   1  12
BRANCH   2  22
ATOM     22  O   UNL     1      25.809  40.245   6.045  1.00  0.00    -0.502 OA
ATOM     23  H   UNL     1      25.145  40.790   6.582  1.00  0.00     0.293 HD
ENDBRANCH   2  22
BRANCH   6  24
ATOM     24  O   UNL     1      26.551  44.722   3.505  1.00  0.00    -0.507 OA
ATOM     25  H   UNL     1      26.255  44.576   4.463  1.00  0.00     0.293 HD
ENDBRANCH   6  24
BRANCH   8  26
ATOM     26  O   UNL     1      27.768  43.128  -0.901  1.00  0.00    -0.508 OA
ATOM     27  H   UNL     1      28.546  42.653  -1.342  1.00  0.00     0.293 HD
ENDBRANCH   8  26
TORSDOF 6
ENDMDL
MODEL 5
REMARK VINA RESULT:    -6.559      2.985      3.557
REMARK INTER + INTRA:          -8.350
REMARK INTER:                  -7.942
REMARK INTRA:                  -0.408
REMARK UNBOUND:                -0.258
REMARK SMILES COc1cc(-c2oc3cc(O)cc(O)c3c(=O)c2O)ccc1O
REMARK SMILES IDX 6 1 18 2 16 3 17 4 15 5 13 6 12 7 10 8 9 9 8 10 7 11 5 12
REMARK SMILES IDX 3 13 22 14 4 15 21 16 20 17 2 18 1 19 23 20 19 22 14 24
REMARK SMILES IDX 11 26
REMARK H PARENT 23 21 19 23 14 25 11 27
REMARK Flexibility Score: inf
ROOT
ATOM      1  C   UNL     1      24.260  45.588   9.078  1.00  0.00     0.180 A 
ATOM      2  C   UNL     1      23.712  44.843  10.140  1.00  0.00     0.208 A 
ATOM      3  C   UNL     1      22.328  44.903  10.368  1.00  0.00     0.238 A 
ATOM      4  O   UNL     1      21.828  44.249  11.324  1.00  0.00    -0.285 OA
ATOM      5  C   UNL     1      21.516  45.688   9.523  1.00  0.00     0.111 A 
ATOM      6  C   UNL     1      20.114  45.799   9.683  1.00  0.00     0.134 A 
ATOM      7  C   UNL     1      19.374  46.593   8.793  1.00  0.00     0.093 A 
ATOM      8  C   UNL     1      20.010  47.276   7.750  1.00  0.00     0.123 A 
ATOM      9  C   UNL     1      21.392  47.169   7.590  1.00  0.00     0.094 A 
ATOM     10  C   UNL     1      22.147  46.384   8.466  1.00  0.00     0.146 A 
ATOM     11  O   UNL     1      23.461  46.305   8.293  1.00  0.00    -0.452 OA
ENDROOT
BRANCH   1  12
ATOM     12  C   UNL     1      25.712  45.590   8.786  1.00  0.00     0.025 A 
ATOM     13  C   UNL     1      27.952  46.531   9.075  1.00  0.00     0.161 A 
ATOM     14  C   UNL     1      28.454  45.591   8.157  1.00  0.00     0.157 A 
ATOM     15  C   UNL     1      26.576  46.528   9.379  1.00  0.00     0.062 A 
ATOM     16  C   UNL     1      27.591  44.674   7.551  1.00  0.00     0.051 A 
ATOM     17  C   UNL     1      26.229  44.678   7.857  1.00  0.00     0.016 A 
BRANCH  13  18
ATOM     18  O   UNL     1      28.841  47.448   9.660  1.00  0.00    -0.493 OA
ATOM     19  C   UNL     1      28.897  48.834   9.341  1.00  0.00     0.278 C 
ENDBRANCH  13  18
BRANCH  14  20
ATOM     20  O   UNL     1      29.810  45.556   7.830  1.00  0.00    -0.504 OA
ATOM     21  H   UNL     1      30.479  45.013   8.362  1.00  0.00     0.293 HD
ENDBRANCH  14  20
ENDBRANCH   1  12
BRANCH   2  22
ATOM     22  O   UNL     1      24.532  44.035  10.932  1.00  0.00    -0.502 OA
ATOM     23  H   UNL     1      25.531  43.963  10.783  1.00  0.00     0.293 HD
ENDBRANCH   2  22
BRANCH   6  24
ATOM     24  O   UNL     1      19.452  45.130  10.713  1.00  0.00    -0.507 OA
ATOM     25  H   UNL     1      19.897  44.952  11.606  1.00  0.00     0.293 HD
ENDBRANCH   6  24
BRANCH   8  26
ATOM     26  O   UNL     1      19.275  48.064   6.867  1.00  0.00    -0.508 OA
ATOM     27  H   UNL     1      18.836  47.669   6.043  1.00  0.00     0.293 HD
ENDBRANCH   8  26
TORSDOF 6
ENDMDL
MODEL 6
REMARK VINA RESULT:    -6.542      2.645      2.843
REMARK INTER + INTRA:          -8.330
REMARK INTER:                  -7.946
REMARK INTRA:                  -0.384
REMARK UNBOUND:                -0.258
REMARK SMILES COc1cc(-c2oc3cc(O)cc(O)c3c(=O)c2O)ccc1O
REMARK SMILES IDX 6 1 18 2 16 3 17 4 15 5 13 6 12 7 10 8 9 9 8 10 7 11 5 12
REMARK SMILES IDX 3 13 22 14 4 15 21 16 20 17 2 18 1 19 23 20 19 22 14 24
REMARK SMILES IDX 11 26
REMARK H PARENT 23 21 19 23 14 25 11 27
REMARK Flexibility Score: inf
ROOT
ATOM      1  C   UNL     1      24.257  45.507   9.082  1.00  0.00     0.180 A 
ATOM      2  C   UNL     1      23.729  44.796  10.177  1.00  0.00     0.208 A 
ATOM      3  C   UNL     1      22.356  44.893  10.450  1.00  0.00     0.238 A 
ATOM      4  O   UNL     1      21.874  44.270  11.435  1.00  0.00    -0.285 OA
ATOM      5  C   UNL     1      21.533  45.677   9.615  1.00  0.00     0.111 A 
ATOM      6  C   UNL     1      20.141  45.824   9.819  1.00  0.00     0.134 A 
ATOM      7  C   UNL     1      19.388  46.615   8.937  1.00  0.00     0.093 A 
ATOM      8  C   UNL     1      20.003  47.261   7.858  1.00  0.00     0.123 A 
ATOM      9  C   UNL     1      21.377  47.120   7.655  1.00  0.00     0.094 A 
ATOM     10  C   UNL     1      22.144  46.337   8.522  1.00  0.00     0.146 A 
ATOM     11  O   UNL     1      23.449  46.224   8.308  1.00  0.00    -0.452 OA
ENDROOT
BRANCH   1  12
ATOM     12  C   UNL     1      25.699  45.470   8.741  1.00  0.00     0.025 A 
ATOM     13  C   UNL     1      27.609  44.420   7.630  1.00  0.00     0.161 A 
ATOM     14  C   UNL     1      28.452  45.410   8.167  1.00  0.00     0.157 A 
ATOM     15  C   UNL     1      26.232  44.453   7.928  1.00  0.00     0.062 A 
ATOM     16  C   UNL     1      27.925  46.406   8.993  1.00  0.00     0.051 A 
ATOM     17  C   UNL     1      26.560  46.432   9.284  1.00  0.00     0.016 A 
BRANCH  13  18
ATOM     18  O   UNL     1      28.169  43.424   6.812  1.00  0.00    -0.493 OA
ATOM     19  C   UNL     1      27.434  42.361   6.217  1.00  0.00     0.278 C 
ENDBRANCH  13  18
BRANCH  14  20
ATOM     20  O   UNL     1      29.821  45.417   7.894  1.00  0.00    -0.504 OA
ATOM     21  H   UNL     1      30.270  46.184   7.410  1.00  0.00     0.293 HD
ENDBRANCH  14  20
ENDBRANCH   1  12
BRANCH   2  22
ATOM     22  O   UNL     1      24.557  43.987  10.959  1.00  0.00    -0.502 OA
ATOM     23  H   UNL     1      24.255  43.092  11.324  1.00  0.00     0.293 HD
ENDBRANCH   2  22
BRANCH   6  24
ATOM     24  O   UNL     1      19.499  45.191  10.885  1.00  0.00    -0.507 OA
ATOM     25  H   UNL     1      18.717  44.564  10.740  1.00  0.00     0.293 HD
ENDBRANCH   6  24
BRANCH   8  26
ATOM     26  O   UNL     1      19.256  48.047   6.983  1.00  0.00    -0.508 OA
ATOM     27  H   UNL     1      19.685  48.784   6.436  1.00  0.00     0.293 HD
ENDBRANCH   8  26
TORSDOF 6
ENDMDL
MODEL 7
REMARK VINA RESULT:    -6.284      1.982      7.167
REMARK INTER + INTRA:          -8.011
REMARK INTER:                  -7.627
REMARK INTRA:                  -0.383
REMARK UNBOUND:                -0.258
REMARK SMILES COc1cc(-c2oc3cc(O)cc(O)c3c(=O)c2O)ccc1O
REMARK SMILES IDX 6 1 18 2 16 3 17 4 15 5 13 6 12 7 10 8 9 9 8 10 7 11 5 12
REMARK SMILES IDX 3 13 22 14 4 15 21 16 20 17 2 18 1 19 23 20 19 22 14 24
REMARK SMILES IDX 11 26
REMARK H PARENT 23 21 19 23 14 25 11 27
REMARK Flexibility Score: inf
ROOT
ATOM      1  C   UNL     1      24.307  44.362  10.740  1.00  0.00     0.180 A 
ATOM      2  C   UNL     1      25.356  45.286  10.912  1.00  0.00     0.208 A 
ATOM      3  C   UNL     1      26.679  44.853  10.730  1.00  0.00     0.238 A 
ATOM      4  O   UNL     1      27.627  45.669  10.892  1.00  0.00    -0.285 OA
ATOM      5  C   UNL     1      26.929  43.514  10.361  1.00  0.00     0.111 A 
ATOM      6  C   UNL     1      28.231  43.000  10.155  1.00  0.00     0.134 A 
ATOM      7  C   UNL     1      28.397  41.658   9.779  1.00  0.00     0.093 A 
ATOM      8  C   UNL     1      27.286  40.824   9.607  1.00  0.00     0.123 A 
ATOM      9  C   UNL     1      26.000  41.327   9.811  1.00  0.00     0.094 A 
ATOM     10  C   UNL     1      25.814  42.662  10.186  1.00  0.00     0.146 A 
ATOM     11  O   UNL     1      24.580  43.112  10.377  1.00  0.00    -0.452 OA
ENDROOT
BRANCH   1  12
ATOM     12  C   UNL     1      22.888  44.739  10.932  1.00  0.00     0.025 A 
ATOM     13  C   UNL     1      20.732  45.484  10.046  1.00  0.00     0.161 A 
ATOM     14  C   UNL     1      20.212  45.500  11.353  1.00  0.00     0.157 A 
ATOM     15  C   UNL     1      22.075  45.108   9.845  1.00  0.00     0.062 A 
ATOM     16  C   UNL     1      21.026  45.155  12.435  1.00  0.00     0.051 A 
ATOM     17  C   UNL     1      22.356  44.784  12.228  1.00  0.00     0.016 A 
BRANCH  13  18
ATOM     18  O   UNL     1      19.894  45.847   8.979  1.00  0.00    -0.493 OA
ATOM     19  C   UNL     1      19.206  44.924   8.142  1.00  0.00     0.278 C 
ENDBRANCH  13  18
BRANCH  14  20
ATOM     20  O   UNL     1      18.887  45.862  11.597  1.00  0.00    -0.504 OA
ATOM     21  H   UNL     1      18.288  45.331  12.218  1.00  0.00     0.293 HD
ENDBRANCH  14  20
ENDBRANCH   1  12
BRANCH   2  22
ATOM     22  O   UNL     1      25.078  46.618  11.229  1.00  0.00    -0.502 OA
ATOM     23  H   UNL     1      25.050  46.955  12.184  1.00  0.00     0.293 HD
ENDBRANCH   2  22
BRANCH   6  24
ATOM     24  O   UNL     1      29.358  43.807  10.318  1.00  0.00    -0.507 OA
ATOM     25  H   UNL     1      29.283  44.811  10.428  1.00  0.00     0.293 HD
ENDBRANCH   6  24
BRANCH   8  26
ATOM     26  O   UNL     1      27.451  39.492   9.234  1.00  0.00    -0.508 OA
ATOM     27  H   UNL     1      27.420  38.743   9.916  1.00  0.00     0.293 HD
ENDBRANCH   8  26
TORSDOF 6
ENDMDL
MODEL 8
REMARK VINA RESULT:    -6.275     10.092     11.904
REMARK INTER + INTRA:          -8.000
REMARK INTER:                  -7.656
REMARK INTRA:                  -0.345
REMARK UNBOUND:                -0.258
REMARK SMILES COc1cc(-c2oc3cc(O)cc(O)c3c(=O)c2O)ccc1O
REMARK SMILES IDX 6 1 18 2 16 3 17 4 15 5 13 6 12 7 10 8 9 9 8 10 7 11 5 12
REMARK SMILES IDX 3 13 22 14 4 15 21 16 20 17 2 18 1 19 23 20 19 22 14 24
REMARK SMILES IDX 11 26
REMARK H PARENT 23 21 19 23 14 25 11 27
REMARK Flexibility Score: inf
ROOT
ATOM      1  C   UNL     1      27.403  39.413   2.161  1.00  0.00     0.180 A 
ATOM      2  C   UNL     1      26.586  40.559   2.202  1.00  0.00     0.208 A 
ATOM      3  C   UNL     1      26.956  41.684   1.448  1.00  0.00     0.238 A 
ATOM      4  O   UNL     1      26.238  42.720   1.487  1.00  0.00    -0.285 OA
ATOM      5  C   UNL     1      28.120  41.638   0.654  1.00  0.00     0.111 A 
ATOM      6  C   UNL     1      28.560  42.725  -0.137  1.00  0.00     0.134 A 
ATOM      7  C   UNL     1      29.725  42.598  -0.909  1.00  0.00     0.093 A 
ATOM      8  C   UNL     1      30.456  41.404  -0.903  1.00  0.00     0.123 A 
ATOM      9  C   UNL     1      30.026  40.329  -0.123  1.00  0.00     0.094 A 
ATOM     10  C   UNL     1      28.868  40.437   0.653  1.00  0.00     0.146 A 
ATOM     11  O   UNL     1      28.486  39.401   1.389  1.00  0.00    -0.452 OA
ENDROOT
BRANCH   1  12
ATOM     12  C   UNL     1      27.089  38.195   2.943  1.00  0.00     0.025 A 
ATOM     13  C   UNL     1      25.798  36.145   3.284  1.00  0.00     0.161 A 
ATOM     14  C   UNL     1      26.489  35.922   4.489  1.00  0.00     0.157 A 
ATOM     15  C   UNL     1      26.100  37.289   2.519  1.00  0.00     0.062 A 
ATOM     16  C   UNL     1      27.456  36.834   4.920  1.00  0.00     0.051 A 
ATOM     17  C   UNL     1      27.750  37.966   4.157  1.00  0.00     0.016 A 
BRANCH  13  18
ATOM     18  O   UNL     1      24.823  35.217   2.882  1.00  0.00    -0.493 OA
ATOM     19  C   UNL     1      25.082  34.070   2.079  1.00  0.00     0.278 C 
ENDBRANCH  13  18
BRANCH  14  20
ATOM     20  O   UNL     1      26.224  34.800   5.275  1.00  0.00    -0.504 OA
ATOM     21  H   UNL     1      25.496  34.794   5.979  1.00  0.00     0.293 HD
ENDBRANCH  14  20
ENDBRANCH   1  12
BRANCH   2  22
ATOM     22  O   UNL     1      25.411  40.562   2.959  1.00  0.00    -0.502 OA
ATOM     23  H   UNL     1      24.500  40.729   2.548  1.00  0.00     0.293 HD
ENDBRANCH   2  22
BRANCH   6  24
ATOM     24  O   UNL     1      27.852  43.928  -0.165  1.00  0.00    -0.507 OA
ATOM     25  H   UNL     1      27.419  44.273  -1.013  1.00  0.00     0.293 HD
ENDBRANCH   6  24
BRANCH   8  26
ATOM     26  O   UNL     1      31.613  41.277  -1.669  1.00  0.00    -0.508 OA
ATOM     27  H   UNL     1      32.508  41.619  -1.339  1.00  0.00     0.293 HD
ENDBRANCH   8  26
TORSDOF 6
ENDMDL
MODEL 9
REMARK VINA RESULT:    -6.159      3.962      7.072
REMARK INTER + INTRA:          -7.857
REMARK INTER:                  -7.625
REMARK INTRA:                  -0.232
REMARK UNBOUND:                -0.258
REMARK SMILES COc1cc(-c2oc3cc(O)cc(O)c3c(=O)c2O)ccc1O
REMARK SMILES IDX 6 1 18 2 16 3 17 4 15 5 13 6 12 7 10 8 9 9 8 10 7 11 5 12
REMARK SMILES IDX 3 13 22 14 4 15 21 16 20 17 2 18 1 19 23 20 19 22 14 24
REMARK SMILES IDX 11 26
REMARK H PARENT 23 21 19 23 14 25 11 27
REMARK Flexibility Score: inf
ROOT
ATOM      1  C   UNL     1      25.270  46.013   9.094  1.00  0.00     0.180 A 
ATOM      2  C   UNL     1      26.035  46.814   9.963  1.00  0.00     0.208 A 
ATOM      3  C   UNL     1      27.369  47.094   9.631  1.00  0.00     0.238 A 
ATOM      4  O   UNL     1      28.067  47.800  10.409  1.00  0.00    -0.285 OA
ATOM      5  C   UNL     1      27.909  46.588   8.430  1.00  0.00     0.111 A 
ATOM      6  C   UNL     1      29.242  46.828   8.020  1.00  0.00     0.134 A 
ATOM      7  C   UNL     1      29.702  46.298   6.805  1.00  0.00     0.093 A 
ATOM      8  C   UNL     1      28.854  45.534   5.995  1.00  0.00     0.123 A 
ATOM      9  C   UNL     1      27.538  45.294   6.396  1.00  0.00     0.094 A 
ATOM     10  C   UNL     1      27.062  45.814   7.604  1.00  0.00     0.146 A 
ATOM     11  O   UNL     1      25.808  45.566   7.962  1.00  0.00    -0.452 OA
ENDROOT
BRANCH   1  12
ATOM     12  C   UNL     1      23.862  45.658   9.384  1.00  0.00     0.025 A 
ATOM     13  C   UNL     1      21.469  45.822   8.899  1.00  0.00     0.161 A 
ATOM     14  C   UNL     1      21.198  45.002  10.009  1.00  0.00     0.157 A 
ATOM     15  C   UNL     1      22.806  46.152   8.597  1.00  0.00     0.062 A 
ATOM     16  C   UNL     1      22.246  44.530  10.804  1.00  0.00     0.051 A 
ATOM     17  C   UNL     1      23.567  44.861  10.499  1.00  0.00     0.016 A 
BRANCH  13  18
ATOM     18  O   UNL     1      20.395  46.291   8.125  1.00  0.00    -0.493 OA
ATOM     19  C   UNL     1      20.492  47.322   7.148  1.00  0.00     0.278 C 
ENDBRANCH  13  18
BRANCH  14  20
ATOM     20  O   UNL     1      19.890  44.648  10.341  1.00  0.00    -0.504 OA
ATOM     21  H   UNL     1      19.339  44.020   9.769  1.00  0.00     0.293 HD
ENDBRANCH  14  20
ENDBRANCH   1  12
BRANCH   2  22
ATOM     22  O   UNL     1      25.461  47.343  11.123  1.00  0.00    -0.502 OA
ATOM     23  H   UNL     1      24.666  46.914  11.581  1.00  0.00     0.293 HD
ENDBRANCH   2  22
BRANCH   6  24
ATOM     24  O   UNL     1      30.111  47.586   8.806  1.00  0.00    -0.507 OA
ATOM     25  H   UNL     1      31.116  47.521   8.704  1.00  0.00     0.293 HD
ENDBRANCH   6  24
BRANCH   8  26
ATOM     26  O   UNL     1      29.310  45.007   4.788  1.00  0.00    -0.508 OA
ATOM     27  H   UNL     1      29.514  45.602   3.994  1.00  0.00     0.293 HD
ENDBRANCH   8  26
TORSDOF 6
ENDMDL
