MODEL 1
REMARK VINA RESULT:    -2.465      0.000      0.000
REMARK INTER + INTRA:          -2.465
REMARK INTER:                  -2.465
REMARK INTRA:                   0.000
REMARK UNBOUND:                 0.000
REMARK SMILES CC(=O)[O-]
REMARK SMILES IDX 1 1 2 2 3 3 4 4
REMARK H PARENT
REMARK Flexibility Score: inf
ROOT
ATOM      1  C   UNL     1     -38.795  18.999 -29.954  1.00  0.00     0.063 C 
ATOM      2  C   UNL     1     -39.071  18.943 -28.491  1.00  0.00     0.038 C 
ATOM      3  O   UNL     1     -38.213  18.462 -27.704  1.00  0.00    -0.550 OA
ATOM      4  O   UNL     1     -40.297  19.370 -27.996  1.00  0.00    -0.550 OA
ENDROOT
TORSDOF 0
ENDMDL
MODEL 2
REMARK VINA RESULT:    -2.412      1.408      1.991
REMARK INTER + INTRA:          -2.412
REMARK INTER:                  -2.412
REMARK INTRA:                   0.000
REMARK UNBOUND:                 0.000
REMARK SMILES CC(=O)[O-]
REMARK SMILES IDX 1 1 2 2 3 3 4 4
REMARK H PARENT
REMARK Flexibility Score: inf
ROOT
ATOM      1  C   UNL     1     -37.899  18.417 -27.819  1.00  0.00     0.063 C 
ATOM      2  C   UNL     1     -39.054  18.951 -28.595  1.00  0.00     0.038 C 
ATOM      3  O   UNL     1     -40.134  19.229 -28.010  1.00  0.00    -0.550 OA
ATOM      4  O   UNL     1     -38.960  19.093 -29.973  1.00  0.00    -0.550 OA
ENDROOT
TORSDOF 0
ENDMDL
MODEL 3
REMARK VINA RESULT:    -2.364     17.256     17.649
REMARK INTER + INTRA:          -2.364
REMARK INTER:                  -2.364
REMARK INTRA:                   0.000
REMARK UNBOUND:                 0.000
REMARK SMILES CC(=O)[O-]
REMARK SMILES IDX 1 1 2 2 3 3 4 4
REMARK H PARENT
REMARK Flexibility Score: inf
ROOT
ATOM      1  C   UNL     1     -52.202  23.831 -38.166  1.00  0.00     0.063 C 
ATOM      2  C   UNL     1     -52.397  22.883 -39.299  1.00  0.00     0.038 C 
ATOM      3  O   UNL     1     -51.466  22.685 -40.125  1.00  0.00    -0.550 OA
ATOM      4  O   UNL     1     -53.623  22.257 -39.480  1.00  0.00    -0.550 OA
ENDROOT
TORSDOF 0
ENDMDL
MODEL 4
REMARK VINA RESULT:    -2.363      1.865      1.952
REMARK INTER + INTRA:          -2.363
REMARK INTER:                  -2.363
REMARK INTRA:                   0.000
REMARK UNBOUND:                 0.000
REMARK SMILES CC(=O)[O-]
REMARK SMILES IDX 1 1 2 2 3 3 4 4
REMARK H PARENT
REMARK Flexibility Score: inf
ROOT
ATOM      1  C   UNL     1     -39.519  19.025 -28.348  1.00  0.00     0.063 C 
ATOM      2  C   UNL     1     -38.052  18.879 -28.128  1.00  0.00     0.038 C 
ATOM      3  O   UNL     1     -37.597  17.841 -27.578  1.00  0.00    -0.550 OA
ATOM      4  O   UNL     1     -37.189  19.908 -28.478  1.00  0.00    -0.550 OA
ENDROOT
TORSDOF 0
ENDMDL
MODEL 5
REMARK VINA RESULT:    -2.346     17.370     17.395
REMARK INTER + INTRA:          -2.346
REMARK INTER:                  -2.346
REMARK INTRA:                   0.000
REMARK UNBOUND:                 0.000
REMARK SMILES CC(=O)[O-]
REMARK SMILES IDX 1 1 2 2 3 3 4 4
REMARK H PARENT
REMARK Flexibility Score: inf
ROOT
ATOM      1  C   UNL     1     -51.791  22.813 -39.804  1.00  0.00     0.063 C 
ATOM      2  C   UNL     1     -52.509  23.332 -38.605  1.00  0.00     0.038 C 
ATOM      3  O   UNL     1     -53.250  22.568 -37.932  1.00  0.00    -0.550 OA
ATOM      4  O   UNL     1     -52.407  24.673 -38.259  1.00  0.00    -0.550 OA
ENDROOT
TORSDOF 0
ENDMDL
MODEL 6
REMARK VINA RESULT:    -2.247      2.990      3.154
REMARK INTER + INTRA:          -2.247
REMARK INTER:                  -2.247
REMARK INTRA:                   0.000
REMARK UNBOUND:                 0.000
REMARK SMILES CC(=O)[O-]
REMARK SMILES IDX 1 1 2 2 3 3 4 4
REMARK H PARENT
REMARK Flexibility Score: inf
ROOT
ATOM      1  C   UNL     1     -38.068  18.426 -29.492  1.00  0.00     0.063 C 
ATOM      2  C   UNL     1     -38.523  18.525 -30.908  1.00  0.00     0.038 C 
ATOM      3  O   UNL     1     -38.943  17.501 -31.510  1.00  0.00    -0.550 OA
ATOM      4  O   UNL     1     -38.436  19.735 -31.584  1.00  0.00    -0.550 OA
ENDROOT
TORSDOF 0
ENDMDL
MODEL 7
REMARK VINA RESULT:    -2.172      2.528      2.956
REMARK INTER + INTRA:          -2.172
REMARK INTER:                  -2.172
REMARK INTRA:                   0.000
REMARK UNBOUND:                 0.000
REMARK SMILES CC(=O)[O-]
REMARK SMILES IDX 1 1 2 2 3 3 4 4
REMARK H PARENT
REMARK Flexibility Score: inf
ROOT
ATOM      1  C   UNL     1     -39.143  18.933 -29.122  1.00  0.00     0.063 C 
ATOM      2  C   UNL     1     -38.381  18.676 -30.377  1.00  0.00     0.038 C 
ATOM      3  O   UNL     1     -38.862  17.924 -31.265  1.00  0.00    -0.550 OA
ATOM      4  O   UNL     1     -37.116  19.223 -30.547  1.00  0.00    -0.550 OA
ENDROOT
TORSDOF 0
ENDMDL
MODEL 8
REMARK VINA RESULT:    -2.158     16.639     17.206
REMARK INTER + INTRA:          -2.158
REMARK INTER:                  -2.158
REMARK INTRA:                   0.000
REMARK UNBOUND:                 0.000
REMARK SMILES CC(=O)[O-]
REMARK SMILES IDX 1 1 2 2 3 3 4 4
REMARK H PARENT
REMARK Flexibility Score: inf
ROOT
ATOM      1  C   UNL     1     -53.415  24.748 -38.655  1.00  0.00     0.063 C 
ATOM      2  C   UNL     1     -52.290  23.891 -38.183  1.00  0.00     0.038 C 
ATOM      3  O   UNL     1     -51.910  23.952 -36.983  1.00  0.00    -0.550 OA
ATOM      4  O   UNL     1     -51.622  23.064 -39.076  1.00  0.00    -0.550 OA
ENDROOT
TORSDOF 0
ENDMDL
MODEL 9
REMARK VINA RESULT:    -2.154      1.949      2.071
REMARK INTER + INTRA:          -2.154
REMARK INTER:                  -2.154
REMARK INTRA:                   0.000
REMARK UNBOUND:                 0.000
REMARK SMILES CC(=O)[O-]
REMARK SMILES IDX 1 1 2 2 3 3 4 4
REMARK H PARENT
REMARK Flexibility Score: inf
ROOT
ATOM      1  C   UNL     1     -39.513  19.037 -28.482  1.00  0.00     0.063 C 
ATOM      2  C   UNL     1     -38.964  20.322 -29.002  1.00  0.00     0.038 C 
ATOM      3  O   UNL     1     -37.722  20.533 -28.981  1.00  0.00    -0.550 OA
ATOM      4  O   UNL     1     -39.823  21.312 -29.461  1.00  0.00    -0.550 OA
ENDROOT
TORSDOF 0
ENDMDL
