MODEL 1
REMARK VINA RESULT:    -3.565      0.000      0.000
REMARK INTER + INTRA:          -4.653
REMARK INTER:                  -4.294
REMARK INTRA:                  -0.359
REMARK UNBOUND:                -0.359
REMARK SMILES NC(=O)C[C@@H]([NH3+])C(=O)[O-]
REMARK SMILES IDX 4 1 5 2 6 3 7 7 8 8 9 9 2 10 3 11 1 12
REMARK H PARENT 6 4 6 5 6 6 1 13 1 14
REMARK Flexibility Score: inf
ROOT
ATOM      1  C   UNL     1      18.279   8.478  23.759  1.00  0.00     0.171 C 
ENDROOT
BRANCH   1   2
ATOM      2  C   UNL     1      18.977   7.159  24.147  1.00  0.00     0.237 C 
BRANCH   2   3
ATOM      3  N   UNL     1      18.618   6.740  25.510  1.00  0.00    -0.350 N 
ATOM      4  H   UNL     1      18.247   7.549  26.061  1.00  0.00     0.345 HD
ATOM      5  H   UNL     1      17.890   5.990  25.470  1.00  0.00     0.345 HD
ATOM      6  H   UNL     1      19.456   6.348  25.996  1.00  0.00     0.345 HD
ENDBRANCH   2   3
BRANCH   2   7
ATOM      7  C   UNL     1      18.618   6.082  23.159  1.00  0.00     0.100 C 
ATOM      8  O   UNL     1      17.606   6.205  22.419  1.00  0.00    -0.544 OA
ATOM      9  O   UNL     1      19.416   4.950  23.046  1.00  0.00    -0.544 OA
ENDBRANCH   2   7
ENDBRANCH   1   2
BRANCH   1  10
ATOM     10  C   UNL     1      17.247   8.880  24.772  1.00  0.00     0.223 C 
ATOM     11  O   UNL     1      16.177   8.222  24.869  1.00  0.00    -0.275 OA
ATOM     12  N   UNL     1      17.452  10.023  25.603  1.00  0.00    -0.369 N 
ATOM     13  H   UNL     1      18.321  10.594  25.520  1.00  0.00     0.159 HD
ATOM     14  H   UNL     1      16.726  10.306  26.298  1.00  0.00     0.159 HD
ENDBRANCH   1  10
TORSDOF 4
ENDMDL
MODEL 2
REMARK VINA RESULT:    -3.444      1.938      2.444
REMARK INTER + INTRA:          -4.508
REMARK INTER:                  -4.023
REMARK INTRA:                  -0.485
REMARK UNBOUND:                -0.359
REMARK SMILES NC(=O)C[C@@H]([NH3+])C(=O)[O-]
REMARK SMILES IDX 4 1 5 2 6 3 7 7 8 8 9 9 2 10 3 11 1 12
REMARK H PARENT 6 4 6 5 6 6 1 13 1 14
REMARK Flexibility Score: inf
ROOT
ATOM      1  C   UNL     1      16.815   8.049  23.759  1.00  0.00     0.171 C 
ENDROOT
BRANCH   1   2
ATOM      2  C   UNL     1      17.205   8.437  22.319  1.00  0.00     0.237 C 
BRANCH   2   3
ATOM      3  N   UNL     1      17.849   9.757  22.271  1.00  0.00    -0.350 N 
ATOM      4  H   UNL     1      18.891   9.661  22.268  1.00  0.00     0.345 HD
ATOM      5  H   UNL     1      17.548  10.268  21.409  1.00  0.00     0.345 HD
ATOM      6  H   UNL     1      17.559  10.327  23.098  1.00  0.00     0.345 HD
ENDBRANCH   2   3
BRANCH   2   7
ATOM      7  C   UNL     1      18.118   7.390  21.738  1.00  0.00     0.100 C 
ATOM      8  O   UNL     1      18.504   7.473  20.541  1.00  0.00    -0.544 OA
ATOM      9  O   UNL     1      18.556   6.335  22.528  1.00  0.00    -0.544 OA
ENDBRANCH   2   7
ENDBRANCH   1   2
BRANCH   1  10
ATOM     10  C   UNL     1      17.688   8.729  24.774  1.00  0.00     0.223 C 
ATOM     11  O   UNL     1      17.359   9.857  25.225  1.00  0.00    -0.275 OA
ATOM     12  N   UNL     1      18.907   8.122  25.204  1.00  0.00    -0.369 N 
ATOM     13  H   UNL     1      19.208   7.198  24.823  1.00  0.00     0.159 HD
ATOM     14  H   UNL     1      19.517   8.604  25.902  1.00  0.00     0.159 HD
ENDBRANCH   1  10
TORSDOF 4
ENDMDL
MODEL 3
REMARK VINA RESULT:    -3.325      2.627      3.083
REMARK INTER + INTRA:          -4.364
REMARK INTER:                  -4.092
REMARK INTRA:                  -0.272
REMARK UNBOUND:                -0.359
REMARK SMILES NC(=O)C[C@@H]([NH3+])C(=O)[O-]
REMARK SMILES IDX 4 1 5 2 6 3 7 7 8 8 9 9 2 10 3 11 1 12
REMARK H PARENT 6 4 6 5 6 6 1 13 1 14
REMARK Flexibility Score: inf
ROOT
ATOM      1  C   UNL     1      17.250   8.436  23.100  1.00  0.00     0.171 C 
ENDROOT
BRANCH   1   2
ATOM      2  C   UNL     1      18.027   9.038  21.912  1.00  0.00     0.237 C 
BRANCH   2   3
ATOM      3  N   UNL     1      19.474   8.821  22.048  1.00  0.00    -0.350 N 
ATOM      4  H   UNL     1      19.871   9.427  22.803  1.00  0.00     0.345 HD
ATOM      5  H   UNL     1      19.662   7.818  22.279  1.00  0.00     0.345 HD
ATOM      6  H   UNL     1      19.955   9.037  21.145  1.00  0.00     0.345 HD
ENDBRANCH   2   3
BRANCH   2   7
ATOM      7  C   UNL     1      17.529   8.443  20.622  1.00  0.00     0.100 C 
ATOM      8  O   UNL     1      18.087   8.730  19.530  1.00  0.00    -0.544 OA
ATOM      9  O   UNL     1      16.459   7.558  20.634  1.00  0.00    -0.544 OA
ENDBRANCH   2   7
ENDBRANCH   1   2
BRANCH   1  10
ATOM     10  C   UNL     1      17.904   8.759  24.413  1.00  0.00     0.223 C 
ATOM     11  O   UNL     1      18.877   8.066  24.813  1.00  0.00    -0.275 OA
ATOM     12  N   UNL     1      17.410   9.823  25.226  1.00  0.00    -0.369 N 
ATOM     13  H   UNL     1      16.590  10.392  24.922  1.00  0.00     0.159 HD
ATOM     14  H   UNL     1      17.861  10.037  26.144  1.00  0.00     0.159 HD
ENDBRANCH   1  10
TORSDOF 4
ENDMDL
MODEL 4
REMARK VINA RESULT:    -3.289      4.346      6.296
REMARK INTER + INTRA:          -4.321
REMARK INTER:                  -3.859
REMARK INTRA:                  -0.462
REMARK UNBOUND:                -0.359
REMARK SMILES NC(=O)C[C@@H]([NH3+])C(=O)[O-]
REMARK SMILES IDX 4 1 5 2 6 3 7 7 8 8 9 9 2 10 3 11 1 12
REMARK H PARENT 6 4 6 5 6 6 1 13 1 14
REMARK Flexibility Score: inf
ROOT
ATOM      1  C   UNL     1      19.285   3.203  19.996  1.00  0.00     0.171 C 
ENDROOT
BRANCH   1   2
ATOM      2  C   UNL     1      18.952   4.172  21.149  1.00  0.00     0.237 C 
BRANCH   2   3
ATOM      3  N   UNL     1      20.099   4.352  22.050  1.00  0.00    -0.350 N 
ATOM      4  H   UNL     1      20.960   3.918  21.645  1.00  0.00     0.345 HD
ATOM      5  H   UNL     1      20.270   5.372  22.208  1.00  0.00     0.345 HD
ATOM      6  H   UNL     1      19.897   3.914  22.978  1.00  0.00     0.345 HD
ENDBRANCH   2   3
BRANCH   2   7
ATOM      7  C   UNL     1      18.515   5.500  20.590  1.00  0.00     0.100 C 
ATOM      8  O   UNL     1      18.634   5.745  19.360  1.00  0.00    -0.544 OA
ATOM      9  O   UNL     1      17.959   6.457  21.429  1.00  0.00    -0.544 OA
ENDBRANCH   2   7
ENDBRANCH   1   2
BRANCH   1  10
ATOM     10  C   UNL     1      20.753   3.199  19.681  1.00  0.00     0.223 C 
ATOM     11  O   UNL     1      21.532   2.467  20.346  1.00  0.00    -0.275 OA
ATOM     12  N   UNL     1      21.276   4.043  18.655  1.00  0.00    -0.369 N 
ATOM     13  H   UNL     1      20.648   4.673  18.109  1.00  0.00     0.159 HD
ATOM     14  H   UNL     1      22.299   4.045  18.446  1.00  0.00     0.159 HD
ENDBRANCH   1  10
TORSDOF 4
ENDMDL
MODEL 5
REMARK VINA RESULT:    -3.269      2.178      3.253
REMARK INTER + INTRA:          -4.297
REMARK INTER:                  -3.972
REMARK INTRA:                  -0.325
REMARK UNBOUND:                -0.359
REMARK SMILES NC(=O)C[C@@H]([NH3+])C(=O)[O-]
REMARK SMILES IDX 4 1 5 2 6 3 7 7 8 8 9 9 2 10 3 11 1 12
REMARK H PARENT 6 4 6 5 6 6 1 13 1 14
REMARK Flexibility Score: inf
ROOT
ATOM      1  C   UNL     1      17.386   8.354  24.027  1.00  0.00     0.171 C 
ENDROOT
BRANCH   1   2
ATOM      2  C   UNL     1      18.033   8.974  22.772  1.00  0.00     0.237 C 
BRANCH   2   3
ATOM      3  N   UNL     1      19.366   8.410  22.518  1.00  0.00    -0.350 N 
ATOM      4  H   UNL     1      19.292   7.425  22.173  1.00  0.00     0.345 HD
ATOM      5  H   UNL     1      19.866   8.988  21.804  1.00  0.00     0.345 HD
ATOM      6  H   UNL     1      19.934   8.424  23.396  1.00  0.00     0.345 HD
ENDBRANCH   2   3
BRANCH   2   7
ATOM      7  C   UNL     1      17.140   8.759  21.579  1.00  0.00     0.100 C 
ATOM      8  O   UNL     1      17.626   8.717  20.418  1.00  0.00    -0.544 OA
ATOM      9  O   UNL     1      15.773   8.587  21.757  1.00  0.00    -0.544 OA
ENDBRANCH   2   7
ENDBRANCH   1   2
BRANCH   1  10
ATOM     10  C   UNL     1      17.931   6.985  24.315  1.00  0.00     0.223 C 
ATOM     11  O   UNL     1      17.748   6.053  23.488  1.00  0.00    -0.275 OA
ATOM     12  N   UNL     1      18.627   6.723  25.534  1.00  0.00    -0.369 N 
ATOM     13  H   UNL     1      18.767   7.476  26.242  1.00  0.00     0.159 HD
ATOM     14  H   UNL     1      18.995   5.766  25.735  1.00  0.00     0.159 HD
ENDBRANCH   1  10
TORSDOF 4
ENDMDL
MODEL 6
REMARK VINA RESULT:    -3.264      1.945      2.821
REMARK INTER + INTRA:          -4.291
REMARK INTER:                  -3.800
REMARK INTRA:                  -0.491
REMARK UNBOUND:                -0.359
REMARK SMILES NC(=O)C[C@@H]([NH3+])C(=O)[O-]
REMARK SMILES IDX 4 1 5 2 6 3 7 7 8 8 9 9 2 10 3 11 1 12
REMARK H PARENT 6 4 6 5 6 6 1 13 1 14
REMARK Flexibility Score: inf
ROOT
ATOM      1  C   UNL     1      16.134   8.317  24.164  1.00  0.00     0.171 C 
ENDROOT
BRANCH   1   2
ATOM      2  C   UNL     1      17.394   9.199  24.275  1.00  0.00     0.237 C 
BRANCH   2   3
ATOM      3  N   UNL     1      17.566   9.724  25.637  1.00  0.00    -0.350 N 
ATOM      4  H   UNL     1      17.212   9.040  26.345  1.00  0.00     0.345 HD
ATOM      5  H   UNL     1      18.579   9.912  25.819  1.00  0.00     0.345 HD
ATOM      6  H   UNL     1      17.049  10.626  25.741  1.00  0.00     0.345 HD
ENDBRANCH   2   3
BRANCH   2   7
ATOM      7  C   UNL     1      18.607   8.410  23.862  1.00  0.00     0.100 C 
ATOM      8  O   UNL     1      19.166   7.627  24.676  1.00  0.00    -0.544 OA
ATOM      9  O   UNL     1      19.106   8.529  22.572  1.00  0.00    -0.544 OA
ENDBRANCH   2   7
ENDBRANCH   1   2
BRANCH   1  10
ATOM     10  C   UNL     1      15.819   7.633  25.463  1.00  0.00     0.223 C 
ATOM     11  O   UNL     1      15.004   8.161  26.266  1.00  0.00    -0.275 OA
ATOM     12  N   UNL     1      16.461   6.406  25.810  1.00  0.00    -0.369 N 
ATOM     13  H   UNL     1      17.156   5.966  25.168  1.00  0.00     0.159 HD
ATOM     14  H   UNL     1      16.247   5.939  26.720  1.00  0.00     0.159 HD
ENDBRANCH   1  10
TORSDOF 4
ENDMDL
MODEL 7
REMARK VINA RESULT:    -3.217      2.090      3.906
REMARK INTER + INTRA:          -4.235
REMARK INTER:                  -3.972
REMARK INTRA:                  -0.263
REMARK UNBOUND:                -0.359
REMARK SMILES NC(=O)C[C@@H]([NH3+])C(=O)[O-]
REMARK SMILES IDX 4 1 5 2 6 3 7 7 8 8 9 9 2 10 3 11 1 12
REMARK H PARENT 6 4 6 5 6 6 1 13 1 14
REMARK Flexibility Score: inf
ROOT
ATOM      1  C   UNL     1      17.267   8.453  23.371  1.00  0.00     0.171 C 
ENDROOT
BRANCH   1   2
ATOM      2  C   UNL     1      16.916   8.548  24.869  1.00  0.00     0.237 C 
BRANCH   2   3
ATOM      3  N   UNL     1      17.484   9.758  25.480  1.00  0.00    -0.350 N 
ATOM      4  H   UNL     1      18.471   9.904  25.164  1.00  0.00     0.345 HD
ATOM      5  H   UNL     1      16.912  10.593  25.214  1.00  0.00     0.345 HD
ATOM      6  H   UNL     1      17.466   9.676  26.522  1.00  0.00     0.345 HD
ENDBRANCH   2   3
BRANCH   2   7
ATOM      7  C   UNL     1      15.421   8.528  25.045  1.00  0.00     0.100 C 
ATOM      8  O   UNL     1      14.915   8.489  26.199  1.00  0.00    -0.544 OA
ATOM      9  O   UNL     1      14.590   8.573  23.933  1.00  0.00    -0.544 OA
ENDBRANCH   2   7
ENDBRANCH   1   2
BRANCH   1  10
ATOM     10  C   UNL     1      18.744   8.290  23.155  1.00  0.00     0.223 C 
ATOM     11  O   UNL     1      19.451   7.756  24.051  1.00  0.00    -0.275 OA
ATOM     12  N   UNL     1      19.359   8.767  21.958  1.00  0.00    -0.369 N 
ATOM     13  H   UNL     1      18.793   9.234  21.216  1.00  0.00     0.159 HD
ATOM     14  H   UNL     1      20.389   8.663  21.818  1.00  0.00     0.159 HD
ENDBRANCH   1  10
TORSDOF 4
ENDMDL
MODEL 8
REMARK VINA RESULT:    -3.188      2.220      3.140
REMARK INTER + INTRA:          -4.200
REMARK INTER:                  -3.717
REMARK INTRA:                  -0.483
REMARK UNBOUND:                -0.359
REMARK SMILES NC(=O)C[C@@H]([NH3+])C(=O)[O-]
REMARK SMILES IDX 4 1 5 2 6 3 7 7 8 8 9 9 2 10 3 11 1 12
REMARK H PARENT 6 4 6 5 6 6 1 13 1 14
REMARK Flexibility Score: inf
ROOT
ATOM      1  C   UNL     1      18.073   7.286  22.914  1.00  0.00     0.171 C 
ENDROOT
BRANCH   1   2
ATOM      2  C   UNL     1      18.119   7.112  24.446  1.00  0.00     0.237 C 
BRANCH   2   3
ATOM      3  N   UNL     1      19.061   8.053  25.067  1.00  0.00    -0.350 N 
ATOM      4  H   UNL     1      18.886   9.029  24.731  1.00  0.00     0.345 HD
ATOM      5  H   UNL     1      18.957   8.025  26.108  1.00  0.00     0.345 HD
ATOM      6  H   UNL     1      20.044   7.782  24.837  1.00  0.00     0.345 HD
ENDBRANCH   2   3
BRANCH   2   7
ATOM      7  C   UNL     1      16.741   7.296  25.022  1.00  0.00     0.100 C 
ATOM      8  O   UNL     1      16.094   6.306  25.459  1.00  0.00    -0.544 OA
ATOM      9  O   UNL     1      16.182   8.565  25.094  1.00  0.00    -0.544 OA
ENDBRANCH   2   7
ENDBRANCH   1   2
BRANCH   1  10
ATOM     10  C   UNL     1      18.451   8.679  22.502  1.00  0.00     0.223 C 
ATOM     11  O   UNL     1      19.630   8.922  22.131  1.00  0.00    -0.275 OA
ATOM     12  N   UNL     1      17.494   9.737  22.559  1.00  0.00    -0.369 N 
ATOM     13  H   UNL     1      16.520   9.559  22.887  1.00  0.00     0.159 HD
ATOM     14  H   UNL     1      17.765  10.707  22.282  1.00  0.00     0.159 HD
ENDBRANCH   1  10
TORSDOF 4
ENDMDL
MODEL 9
REMARK VINA RESULT:    -3.124      2.364      2.945
REMARK INTER + INTRA:          -4.122
REMARK INTER:                  -3.952
REMARK INTRA:                  -0.170
REMARK UNBOUND:                -0.359
REMARK SMILES NC(=O)C[C@@H]([NH3+])C(=O)[O-]
REMARK SMILES IDX 4 1 5 2 6 3 7 7 8 8 9 9 2 10 3 11 1 12
REMARK H PARENT 6 4 6 5 6 6 1 13 1 14
REMARK Flexibility Score: inf
ROOT
ATOM      1  C   UNL     1      16.042   8.058  24.441  1.00  0.00     0.171 C 
ENDROOT
BRANCH   1   2
ATOM      2  C   UNL     1      17.244   9.013  24.297  1.00  0.00     0.237 C 
BRANCH   2   3
ATOM      3  N   UNL     1      17.500   9.750  25.543  1.00  0.00    -0.350 N 
ATOM      4  H   UNL     1      17.408   9.118  26.372  1.00  0.00     0.345 HD
ATOM      5  H   UNL     1      18.465  10.154  25.524  1.00  0.00     0.345 HD
ATOM      6  H   UNL     1      16.823  10.541  25.637  1.00  0.00     0.345 HD
ENDBRANCH   2   3
BRANCH   2   7
ATOM      7  C   UNL     1      18.467   8.237  23.889  1.00  0.00     0.100 C 
ATOM      8  O   UNL     1      19.020   8.455  22.778  1.00  0.00    -0.544 OA
ATOM      9  O   UNL     1      19.005   7.287  24.748  1.00  0.00    -0.544 OA
ENDBRANCH   2   7
ENDBRANCH   1   2
BRANCH   1  10
ATOM     10  C   UNL     1      15.497   7.644  23.105  1.00  0.00     0.223 C 
ATOM     11  O   UNL     1      15.368   6.420  22.835  1.00  0.00    -0.275 OA
ATOM     12  N   UNL     1      15.157   8.625  22.125  1.00  0.00    -0.369 N 
ATOM     13  H   UNL     1      15.281   9.642  22.323  1.00  0.00     0.159 HD
ATOM     14  H   UNL     1      14.789   8.332  21.193  1.00  0.00     0.159 HD
ENDBRANCH   1  10
TORSDOF 4
ENDMDL
