MODEL 1
REMARK VINA RESULT:    -6.044      0.000      0.000
REMARK INTER + INTRA:          -7.401
REMARK INTER:                  -7.103
REMARK INTRA:                  -0.297
REMARK UNBOUND:                -0.297
REMARK SMILES COc1cc2ccc(=O)oc2c(OC)c1OC
REMARK SMILES IDX 3 1 15 2 12 3 11 4 5 5 4 6 6 7 7 8 8 9 9 10 10 11 2 12 1 13
REMARK SMILES IDX 16 14 17 15 13 16 14 17
REMARK H PARENT
REMARK Flexibility Score: inf
ROOT
ATOM      1  C   UNL     1     -36.106  -5.192 -13.630  1.00  0.00     0.165 A 
ATOM      2  C   UNL     1     -37.260  -4.438 -13.356  1.00  0.00     0.207 A 
ATOM      3  C   UNL     1     -38.518  -5.085 -13.209  1.00  0.00     0.208 A 
ATOM      4  C   UNL     1     -38.587  -6.497 -13.346  1.00  0.00     0.184 A 
ATOM      5  C   UNL     1     -37.415  -7.236 -13.621  1.00  0.00     0.025 A 
ATOM      6  C   UNL     1     -36.189  -6.586 -13.762  1.00  0.00     0.062 A 
ATOM      7  C   UNL     1     -37.508  -8.626 -13.749  1.00  0.00     0.020 A 
ATOM      8  C   UNL     1     -38.744  -9.249 -13.605  1.00  0.00     0.094 A 
ATOM      9  C   UNL     1     -39.864  -8.461 -13.333  1.00  0.00     0.336 A 
ATOM     10  O   UNL     1     -40.994  -8.999 -13.198  1.00  0.00    -0.246 OA
ATOM     11  O   UNL     1     -39.745  -7.142 -13.216  1.00  0.00    -0.419 OA
ENDROOT
BRANCH   1  12
ATOM     12  O   UNL     1     -34.886  -4.508 -13.766  1.00  0.00    -0.493 OA
ATOM     13  C   UNL     1     -34.207  -4.299 -15.001  1.00  0.00     0.278 C 
ENDBRANCH   1  12
BRANCH   2  14
ATOM     14  O   UNL     1     -37.077  -3.046 -13.242  1.00  0.00    -0.490 OA
ATOM     15  C   UNL     1     -37.280  -2.069 -14.257  1.00  0.00     0.278 C 
ENDBRANCH   2  14
BRANCH   3  16
ATOM     16  O   UNL     1     -39.653  -4.298 -12.936  1.00  0.00    -0.490 OA
ATOM     17  C   UNL     1     -40.129  -3.895 -11.655  1.00  0.00     0.278 C 
ENDBRANCH   3  16
TORSDOF 3
ENDMDL
MODEL 2
REMARK VINA RESULT:    -5.927      1.481      3.243
REMARK INTER + INTRA:          -7.263
REMARK INTER:                  -7.074
REMARK INTRA:                  -0.189
REMARK UNBOUND:                -0.297
REMARK SMILES COc1cc2ccc(=O)oc2c(OC)c1OC
REMARK SMILES IDX 3 1 15 2 12 3 11 4 5 5 4 6 6 7 7 8 8 9 9 10 10 11 2 12 1 13
REMARK SMILES IDX 16 14 17 15 13 16 14 17
REMARK H PARENT
REMARK Flexibility Score: inf
ROOT
ATOM      1  C   UNL     1     -37.316  -3.948 -12.788  1.00  0.00     0.165 A 
ATOM      2  C   UNL     1     -36.517  -4.941 -13.381  1.00  0.00     0.207 A 
ATOM      3  C   UNL     1     -37.055  -6.233 -13.636  1.00  0.00     0.208 A 
ATOM      4  C   UNL     1     -38.404  -6.498 -13.283  1.00  0.00     0.184 A 
ATOM      5  C   UNL     1     -39.190  -5.486 -12.688  1.00  0.00     0.025 A 
ATOM      6  C   UNL     1     -38.647  -4.225 -12.444  1.00  0.00     0.062 A 
ATOM      7  C   UNL     1     -40.517  -5.772 -12.350  1.00  0.00     0.020 A 
ATOM      8  C   UNL     1     -41.033  -7.040 -12.603  1.00  0.00     0.094 A 
ATOM      9  C   UNL     1     -40.205  -7.995 -13.193  1.00  0.00     0.336 A 
ATOM     10  O   UNL     1     -40.647  -9.149 -13.434  1.00  0.00    -0.246 OA
ATOM     11  O   UNL     1     -38.948  -7.695 -13.505  1.00  0.00    -0.419 OA
ENDROOT
BRANCH   1  12
ATOM     12  O   UNL     1     -36.739  -2.688 -12.556  1.00  0.00    -0.493 OA
ATOM     13  C   UNL     1     -36.824  -1.971 -11.328  1.00  0.00     0.278 C 
ENDBRANCH   1  12
BRANCH   2  14
ATOM     14  O   UNL     1     -35.194  -4.569 -13.690  1.00  0.00    -0.490 OA
ATOM     15  C   UNL     1     -34.671  -4.255 -14.976  1.00  0.00     0.278 C 
ENDBRANCH   2  14
BRANCH   3  16
ATOM     16  O   UNL     1     -36.226  -7.202 -14.231  1.00  0.00    -0.490 OA
ATOM     17  C   UNL     1     -36.337  -7.735 -15.547  1.00  0.00     0.278 C 
ENDBRANCH   3  16
TORSDOF 3
ENDMDL
MODEL 3
REMARK VINA RESULT:    -5.827      2.553      2.642
REMARK INTER + INTRA:          -7.146
REMARK INTER:                  -6.863
REMARK INTRA:                  -0.283
REMARK UNBOUND:                -0.297
REMARK SMILES COc1cc2ccc(=O)oc2c(OC)c1OC
REMARK SMILES IDX 3 1 15 2 12 3 11 4 5 5 4 6 6 7 7 8 8 9 9 10 10 11 2 12 1 13
REMARK SMILES IDX 16 14 17 15 13 16 14 17
REMARK H PARENT
REMARK Flexibility Score: inf
ROOT
ATOM      1  C   UNL     1     -35.994  -5.981 -16.727  1.00  0.00     0.165 A 
ATOM      2  C   UNL     1     -37.127  -5.148 -16.756  1.00  0.00     0.207 A 
ATOM      3  C   UNL     1     -38.273  -5.473 -15.978  1.00  0.00     0.208 A 
ATOM      4  C   UNL     1     -38.252  -6.647 -15.179  1.00  0.00     0.184 A 
ATOM      5  C   UNL     1     -37.104  -7.469 -15.164  1.00  0.00     0.025 A 
ATOM      6  C   UNL     1     -35.989  -7.136 -15.932  1.00  0.00     0.062 A 
ATOM      7  C   UNL     1     -37.107  -8.619 -14.367  1.00  0.00     0.020 A 
ATOM      8  C   UNL     1     -38.234  -8.928 -13.611  1.00  0.00     0.094 A 
ATOM      9  C   UNL     1     -39.336  -8.074 -13.670  1.00  0.00     0.336 A 
ATOM     10  O   UNL     1     -40.368  -8.330 -12.996  1.00  0.00    -0.246 OA
ATOM     11  O   UNL     1     -39.304  -6.988 -14.435  1.00  0.00    -0.419 OA
ENDROOT
BRANCH   1  12
ATOM     12  O   UNL     1     -34.887  -5.618 -17.512  1.00  0.00    -0.493 OA
ATOM     13  C   UNL     1     -33.536  -5.628 -17.062  1.00  0.00     0.278 C 
ENDBRANCH   1  12
BRANCH   2  14
ATOM     14  O   UNL     1     -37.038  -4.011 -17.584  1.00  0.00    -0.490 OA
ATOM     15  C   UNL     1     -36.631  -2.703 -17.200  1.00  0.00     0.278 C 
ENDBRANCH   2  14
BRANCH   3  16
ATOM     16  O   UNL     1     -39.389  -4.617 -16.033  1.00  0.00    -0.490 OA
ATOM     17  C   UNL     1     -39.683  -3.535 -15.155  1.00  0.00     0.278 C 
ENDBRANCH   3  16
TORSDOF 3
ENDMDL
MODEL 4
REMARK VINA RESULT:    -5.778      1.507      5.385
REMARK INTER + INTRA:          -7.089
REMARK INTER:                  -6.826
REMARK INTRA:                  -0.263
REMARK UNBOUND:                -0.297
REMARK SMILES COc1cc2ccc(=O)oc2c(OC)c1OC
REMARK SMILES IDX 3 1 15 2 12 3 11 4 5 5 4 6 6 7 7 8 8 9 9 10 10 11 2 12 1 13
REMARK SMILES IDX 16 14 17 15 13 16 14 17
REMARK H PARENT
REMARK Flexibility Score: inf
ROOT
ATOM      1  C   UNL     1     -38.953  -7.402 -13.323  1.00  0.00     0.165 A 
ATOM      2  C   UNL     1     -37.589  -7.229 -13.615  1.00  0.00     0.207 A 
ATOM      3  C   UNL     1     -36.967  -5.967 -13.402  1.00  0.00     0.208 A 
ATOM      4  C   UNL     1     -37.745  -4.893 -12.895  1.00  0.00     0.184 A 
ATOM      5  C   UNL     1     -39.114  -5.088 -12.609  1.00  0.00     0.025 A 
ATOM      6  C   UNL     1     -39.709  -6.332 -12.823  1.00  0.00     0.062 A 
ATOM      7  C   UNL     1     -39.860  -4.014 -12.109  1.00  0.00     0.020 A 
ATOM      8  C   UNL     1     -39.241  -2.784 -11.906  1.00  0.00     0.094 A 
ATOM      9  C   UNL     1     -37.885  -2.657 -12.208  1.00  0.00     0.336 A 
ATOM     10  O   UNL     1     -37.302  -1.556 -12.034  1.00  0.00    -0.246 OA
ATOM     11  O   UNL     1     -37.202  -3.695 -12.681  1.00  0.00    -0.419 OA
ENDROOT
BRANCH   1  12
ATOM     12  O   UNL     1     -39.522  -8.667 -13.549  1.00  0.00    -0.493 OA
ATOM     13  C   UNL     1     -40.900  -8.979 -13.373  1.00  0.00     0.278 C 
ENDBRANCH   1  12
BRANCH   2  14
ATOM     14  O   UNL     1     -36.914  -8.361 -14.113  1.00  0.00    -0.490 OA
ATOM     15  C   UNL     1     -36.685  -8.690 -15.479  1.00  0.00     0.278 C 
ENDBRANCH   2  14
BRANCH   3  16
ATOM     16  O   UNL     1     -35.599  -5.831 -13.706  1.00  0.00    -0.490 OA
ATOM     17  C   UNL     1     -35.034  -5.367 -14.927  1.00  0.00     0.278 C 
ENDBRANCH   3  16
TORSDOF 3
ENDMDL
MODEL 5
REMARK VINA RESULT:    -5.729      1.908      3.864
REMARK INTER + INTRA:          -7.031
REMARK INTER:                  -6.731
REMARK INTRA:                  -0.300
REMARK UNBOUND:                -0.297
REMARK SMILES COc1cc2ccc(=O)oc2c(OC)c1OC
REMARK SMILES IDX 3 1 15 2 12 3 11 4 5 5 4 6 6 7 7 8 8 9 9 10 10 11 2 12 1 13
REMARK SMILES IDX 16 14 17 15 13 16 14 17
REMARK H PARENT
REMARK Flexibility Score: inf
ROOT
ATOM      1  C   UNL     1     -39.860  -4.835 -11.804  1.00  0.00     0.165 A 
ATOM      2  C   UNL     1     -38.620  -4.287 -12.177  1.00  0.00     0.207 A 
ATOM      3  C   UNL     1     -37.721  -5.038 -12.984  1.00  0.00     0.208 A 
ATOM      4  C   UNL     1     -38.095  -6.342 -13.401  1.00  0.00     0.184 A 
ATOM      5  C   UNL     1     -39.345  -6.874 -13.016  1.00  0.00     0.025 A 
ATOM      6  C   UNL     1     -40.216  -6.125 -12.225  1.00  0.00     0.062 A 
ATOM      7  C   UNL     1     -39.692  -8.161 -13.441  1.00  0.00     0.020 A 
ATOM      8  C   UNL     1     -38.804  -8.887 -14.229  1.00  0.00     0.094 A 
ATOM      9  C   UNL     1     -37.584  -8.304 -14.575  1.00  0.00     0.336 A 
ATOM     10  O   UNL     1     -36.763  -8.940 -15.287  1.00  0.00    -0.246 OA
ATOM     11  O   UNL     1     -37.282  -7.079 -14.158  1.00  0.00    -0.419 OA
ENDROOT
BRANCH   1  12
ATOM     12  O   UNL     1     -40.714  -4.054 -11.008  1.00  0.00    -0.493 OA
ATOM     13  C   UNL     1     -40.935  -4.259  -9.615  1.00  0.00     0.278 C 
ENDBRANCH   1  12
BRANCH   2  14
ATOM     14  O   UNL     1     -38.351  -2.986 -11.708  1.00  0.00    -0.490 OA
ATOM     15  C   UNL     1     -37.546  -2.628 -10.590  1.00  0.00     0.278 C 
ENDBRANCH   2  14
BRANCH   3  16
ATOM     16  O   UNL     1     -36.488  -4.457 -13.338  1.00  0.00    -0.490 OA
ATOM     17  C   UNL     1     -36.217  -3.645 -14.476  1.00  0.00     0.278 C 
ENDBRANCH   3  16
TORSDOF 3
ENDMDL
MODEL 6
REMARK VINA RESULT:    -5.725      3.999      7.105
REMARK INTER + INTRA:          -7.026
REMARK INTER:                  -6.716
REMARK INTRA:                  -0.311
REMARK UNBOUND:                -0.297
REMARK SMILES COc1cc2ccc(=O)oc2c(OC)c1OC
REMARK SMILES IDX 3 1 15 2 12 3 11 4 5 5 4 6 6 7 7 8 8 9 9 10 10 11 2 12 1 13
REMARK SMILES IDX 16 14 17 15 13 16 14 17
REMARK H PARENT
REMARK Flexibility Score: inf
ROOT
ATOM      1  C   UNL     1     -35.126  -5.667 -15.871  1.00  0.00     0.165 A 
ATOM      2  C   UNL     1     -36.017  -5.568 -16.954  1.00  0.00     0.207 A 
ATOM      3  C   UNL     1     -35.641  -4.854 -18.126  1.00  0.00     0.208 A 
ATOM      4  C   UNL     1     -34.359  -4.245 -18.179  1.00  0.00     0.184 A 
ATOM      5  C   UNL     1     -33.480  -4.356 -17.079  1.00  0.00     0.025 A 
ATOM      6  C   UNL     1     -33.864  -5.060 -15.938  1.00  0.00     0.062 A 
ATOM      7  C   UNL     1     -32.222  -3.748 -17.156  1.00  0.00     0.020 A 
ATOM      8  C   UNL     1     -31.865  -3.050 -18.307  1.00  0.00     0.094 A 
ATOM      9  C   UNL     1     -32.780  -2.978 -19.358  1.00  0.00     0.336 A 
ATOM     10  O   UNL     1     -32.482  -2.353 -20.410  1.00  0.00    -0.246 OA
ATOM     11  O   UNL     1     -33.968  -3.566 -19.257  1.00  0.00    -0.419 OA
ENDROOT
BRANCH   1  12
ATOM     12  O   UNL     1     -35.543  -6.383 -14.737  1.00  0.00    -0.493 OA
ATOM     13  C   UNL     1     -35.958  -5.790 -13.510  1.00  0.00     0.278 C 
ENDBRANCH   1  12
BRANCH   2  14
ATOM     14  O   UNL     1     -37.261  -6.210 -16.794  1.00  0.00    -0.490 OA
ATOM     15  C   UNL     1     -38.481  -5.617 -16.363  1.00  0.00     0.278 C 
ENDBRANCH   2  14
BRANCH   3  16
ATOM     16  O   UNL     1     -36.558  -4.776 -19.191  1.00  0.00    -0.490 OA
ATOM     17  C   UNL     1     -37.490  -3.729 -19.445  1.00  0.00     0.278 C 
ENDBRANCH   3  16
TORSDOF 3
ENDMDL
MODEL 7
REMARK VINA RESULT:    -5.547      2.154      4.853
REMARK INTER + INTRA:          -6.817
REMARK INTER:                  -6.544
REMARK INTRA:                  -0.273
REMARK UNBOUND:                -0.297
REMARK SMILES COc1cc2ccc(=O)oc2c(OC)c1OC
REMARK SMILES IDX 3 1 15 2 12 3 11 4 5 5 4 6 6 7 7 8 8 9 9 10 10 11 2 12 1 13
REMARK SMILES IDX 16 14 17 15 13 16 14 17
REMARK H PARENT
REMARK Flexibility Score: inf
ROOT
ATOM      1  C   UNL     1     -37.381  -7.226 -13.897  1.00  0.00     0.165 A 
ATOM      2  C   UNL     1     -38.074  -6.033 -13.632  1.00  0.00     0.207 A 
ATOM      3  C   UNL     1     -37.777  -4.854 -14.371  1.00  0.00     0.208 A 
ATOM      4  C   UNL     1     -36.773  -4.906 -15.374  1.00  0.00     0.184 A 
ATOM      5  C   UNL     1     -36.088  -6.115 -15.625  1.00  0.00     0.025 A 
ATOM      6  C   UNL     1     -36.392  -7.262 -14.891  1.00  0.00     0.062 A 
ATOM      7  C   UNL     1     -35.104  -6.141 -16.619  1.00  0.00     0.020 A 
ATOM      8  C   UNL     1     -34.820  -4.982 -17.335  1.00  0.00     0.094 A 
ATOM      9  C   UNL     1     -35.532  -3.819 -17.038  1.00  0.00     0.336 A 
ATOM     10  O   UNL     1     -35.295  -2.757 -17.671  1.00  0.00    -0.246 OA
ATOM     11  O   UNL     1     -36.463  -3.824 -16.089  1.00  0.00    -0.419 OA
ENDROOT
BRANCH   1  12
ATOM     12  O   UNL     1     -37.711  -8.364 -13.142  1.00  0.00    -0.493 OA
ATOM     13  C   UNL     1     -38.626  -9.375 -13.555  1.00  0.00     0.278 C 
ENDBRANCH   1  12
BRANCH   2  14
ATOM     14  O   UNL     1     -39.049  -6.095 -12.617  1.00  0.00    -0.490 OA
ATOM     15  C   UNL     1     -40.451  -6.273 -12.785  1.00  0.00     0.278 C 
ENDBRANCH   2  14
BRANCH   3  16
ATOM     16  O   UNL     1     -38.490  -3.677 -14.077  1.00  0.00    -0.490 OA
ATOM     17  C   UNL     1     -39.660  -3.197 -14.733  1.00  0.00     0.278 C 
ENDBRANCH   3  16
TORSDOF 3
ENDMDL
MODEL 8
REMARK VINA RESULT:    -5.504      1.545      4.661
REMARK INTER + INTRA:          -6.767
REMARK INTER:                  -6.530
REMARK INTRA:                  -0.237
REMARK UNBOUND:                -0.297
REMARK SMILES COc1cc2ccc(=O)oc2c(OC)c1OC
REMARK SMILES IDX 3 1 15 2 12 3 11 4 5 5 4 6 6 7 7 8 8 9 9 10 10 11 2 12 1 13
REMARK SMILES IDX 16 14 17 15 13 16 14 17
REMARK H PARENT
REMARK Flexibility Score: inf
ROOT
ATOM      1  C   UNL     1     -39.576  -6.844 -13.171  1.00  0.00     0.165 A 
ATOM      2  C   UNL     1     -39.494  -5.570 -12.581  1.00  0.00     0.207 A 
ATOM      3  C   UNL     1     -38.356  -4.748 -12.813  1.00  0.00     0.208 A 
ATOM      4  C   UNL     1     -37.312  -5.235 -13.642  1.00  0.00     0.184 A 
ATOM      5  C   UNL     1     -37.414  -6.517 -14.225  1.00  0.00     0.025 A 
ATOM      6  C   UNL     1     -38.536  -7.311 -13.988  1.00  0.00     0.062 A 
ATOM      7  C   UNL     1     -36.372  -6.974 -15.040  1.00  0.00     0.020 A 
ATOM      8  C   UNL     1     -35.264  -6.162 -15.258  1.00  0.00     0.094 A 
ATOM      9  C   UNL     1     -35.224  -4.905 -14.653  1.00  0.00     0.336 A 
ATOM     10  O   UNL     1     -34.233  -4.150 -14.834  1.00  0.00    -0.246 OA
ATOM     11  O   UNL     1     -36.229  -4.496 -13.885  1.00  0.00    -0.419 OA
ENDROOT
BRANCH   1  12
ATOM     12  O   UNL     1     -40.719  -7.618 -12.913  1.00  0.00    -0.493 OA
ATOM     13  C   UNL     1     -40.920  -8.948 -13.382  1.00  0.00     0.278 C 
ENDBRANCH   1  12
BRANCH   2  14
ATOM     14  O   UNL     1     -40.586  -5.188 -11.777  1.00  0.00    -0.490 OA
ATOM     15  C   UNL     1     -40.634  -5.160 -10.355  1.00  0.00     0.278 C 
ENDBRANCH   2  14
BRANCH   3  16
ATOM     16  O   UNL     1     -38.309  -3.478 -12.206  1.00  0.00    -0.490 OA
ATOM     17  C   UNL     1     -37.588  -3.115 -11.032  1.00  0.00     0.278 C 
ENDBRANCH   3  16
TORSDOF 3
ENDMDL
