MODEL 1
REMARK VINA RESULT:    -4.446      0.000      0.000
REMARK INTER + INTRA:          -5.183
REMARK INTER:                  -4.966
REMARK INTRA:                  -0.217
REMARK UNBOUND:                -0.217
REMARK SMILES CC(C)c1ccc(C(=O)[O-])cc1
REMARK SMILES IDX 7 1 6 2 11 3 5 4 12 5 4 6 8 7 9 8 10 9 2 10 1 11 3 12
REMARK H PARENT
REMARK Flexibility Score: inf
ROOT
ATOM      1  C   UNL     1      62.982  31.682  61.155  1.00  0.00    -0.003 A 
ATOM      2  C   UNL     1      61.718  32.254  60.932  1.00  0.00     0.010 A 
ATOM      3  C   UNL     1      64.104  32.523  61.233  1.00  0.00     0.010 A 
ATOM      4  C   UNL     1      61.579  33.636  60.790  1.00  0.00     0.004 A 
ATOM      5  C   UNL     1      63.965  33.907  61.091  1.00  0.00     0.004 A 
ATOM      6  C   UNL     1      62.700  34.479  60.868  1.00  0.00    -0.045 A 
ENDROOT
BRANCH   1   7
ATOM      7  C   UNL     1      63.134  30.218  61.307  1.00  0.00     0.071 C 
ATOM      8  O   UNL     1      64.055  29.604  60.705  1.00  0.00    -0.545 OA
ATOM      9  O   UNL     1      62.261  29.499  62.116  1.00  0.00    -0.545 OA
ENDBRANCH   1   7
BRANCH   6  10
ATOM     10  C   UNL     1      62.535  35.980  60.711  1.00  0.00     0.013 C 
ATOM     11  C   UNL     1      63.485  36.740  61.643  1.00  0.00     0.012 C 
ATOM     12  C   UNL     1      61.079  36.402  60.940  1.00  0.00     0.012 C 
ENDBRANCH   6  10
TORSDOF 2
ENDMDL
MODEL 2
REMARK VINA RESULT:    -4.434      1.142      1.952
REMARK INTER + INTRA:          -5.170
REMARK INTER:                  -4.953
REMARK INTRA:                  -0.216
REMARK UNBOUND:                -0.217
REMARK SMILES CC(C)c1ccc(C(=O)[O-])cc1
REMARK SMILES IDX 7 1 6 2 11 3 5 4 12 5 4 6 8 7 9 8 10 9 2 10 1 11 3 12
REMARK H PARENT
REMARK Flexibility Score: inf
ROOT
ATOM      1  C   UNL     1      62.321  31.243  61.072  1.00  0.00    -0.003 A 
ATOM      2  C   UNL     1      63.691  31.531  61.199  1.00  0.00     0.010 A 
ATOM      3  C   UNL     1      61.415  32.303  60.914  1.00  0.00     0.010 A 
ATOM      4  C   UNL     1      64.143  32.853  61.168  1.00  0.00     0.004 A 
ATOM      5  C   UNL     1      61.867  33.626  60.883  1.00  0.00     0.004 A 
ATOM      6  C   UNL     1      63.238  33.915  61.009  1.00  0.00    -0.045 A 
ENDROOT
BRANCH   1   7
ATOM      7  C   UNL     1      61.837  29.845  61.104  1.00  0.00     0.071 C 
ATOM      8  O   UNL     1      62.252  29.043  61.984  1.00  0.00    -0.545 OA
ATOM      9  O   UNL     1      60.917  29.396  60.163  1.00  0.00    -0.545 OA
ENDBRANCH   1   7
BRANCH   6  10
ATOM     10  C   UNL     1      63.743  35.346  60.978  1.00  0.00     0.013 C 
ATOM     11  C   UNL     1      64.928  35.535  61.932  1.00  0.00     0.012 C 
ATOM     12  C   UNL     1      62.615  36.336  61.293  1.00  0.00     0.012 C 
ENDBRANCH   6  10
TORSDOF 2
ENDMDL
MODEL 3
REMARK VINA RESULT:    -4.432      1.129      1.430
REMARK INTER + INTRA:          -5.167
REMARK INTER:                  -4.949
REMARK INTRA:                  -0.217
REMARK UNBOUND:                -0.217
REMARK SMILES CC(C)c1ccc(C(=O)[O-])cc1
REMARK SMILES IDX 7 1 6 2 11 3 5 4 12 5 4 6 8 7 9 8 10 9 2 10 1 11 3 12
REMARK H PARENT
REMARK Flexibility Score: inf
ROOT
ATOM      1  C   UNL     1      62.277  31.260  61.082  1.00  0.00    -0.003 A 
ATOM      2  C   UNL     1      61.393  32.337  60.897  1.00  0.00     0.010 A 
ATOM      3  C   UNL     1      63.647  31.525  61.236  1.00  0.00     0.010 A 
ATOM      4  C   UNL     1      61.869  33.650  60.866  1.00  0.00     0.004 A 
ATOM      5  C   UNL     1      64.125  32.839  61.205  1.00  0.00     0.004 A 
ATOM      6  C   UNL     1      63.240  33.916  61.020  1.00  0.00    -0.045 A 
ENDROOT
BRANCH   1   7
ATOM      7  C   UNL     1      61.777  29.868  61.116  1.00  0.00     0.071 C 
ATOM      8  O   UNL     1      60.858  29.499  60.337  1.00  0.00    -0.545 OA
ATOM      9  O   UNL     1      62.313  28.948  62.009  1.00  0.00    -0.545 OA
ENDBRANCH   1   7
BRANCH   6  10
ATOM     10  C   UNL     1      63.744  35.347  60.984  1.00  0.00     0.013 C 
ATOM     11  C   UNL     1      64.909  35.547  61.960  1.00  0.00     0.012 C 
ATOM     12  C   UNL     1      62.610  36.340  61.266  1.00  0.00     0.012 C 
ENDBRANCH   6  10
TORSDOF 2
ENDMDL
MODEL 4
REMARK VINA RESULT:    -4.375     13.232     14.138
REMARK INTER + INTRA:          -5.103
REMARK INTER:                  -4.883
REMARK INTRA:                  -0.220
REMARK UNBOUND:                -0.217
REMARK SMILES CC(C)c1ccc(C(=O)[O-])cc1
REMARK SMILES IDX 7 1 6 2 11 3 5 4 12 5 4 6 8 7 9 8 10 9 2 10 1 11 3 12
REMARK H PARENT
REMARK Flexibility Score: inf
ROOT
ATOM      1  C   UNL     1      58.437  26.913  49.900  1.00  0.00    -0.003 A 
ATOM      2  C   UNL     1      58.062  28.256  50.077  1.00  0.00     0.010 A 
ATOM      3  C   UNL     1      57.449  25.917  49.962  1.00  0.00     0.010 A 
ATOM      4  C   UNL     1      56.727  28.595  50.310  1.00  0.00     0.004 A 
ATOM      5  C   UNL     1      56.113  26.256  50.195  1.00  0.00     0.004 A 
ATOM      6  C   UNL     1      55.737  27.600  50.371  1.00  0.00    -0.045 A 
ENDROOT
BRANCH   1   7
ATOM      7  C   UNL     1      59.850  26.549  49.653  1.00  0.00     0.071 C 
ATOM      8  O   UNL     1      60.265  25.386  49.904  1.00  0.00    -0.545 OA
ATOM      9  O   UNL     1      60.740  27.486  49.140  1.00  0.00    -0.545 OA
ENDBRANCH   1   7
BRANCH   6  10
ATOM     10  C   UNL     1      54.290  27.983  50.625  1.00  0.00     0.013 C 
ATOM     11  C   UNL     1      53.335  27.108  49.805  1.00  0.00     0.012 C 
ATOM     12  C   UNL     1      54.056  29.471  50.344  1.00  0.00     0.012 C 
ENDBRANCH   6  10
TORSDOF 2
ENDMDL
MODEL 5
REMARK VINA RESULT:    -4.323     13.536     14.479
REMARK INTER + INTRA:          -5.046
REMARK INTER:                  -4.846
REMARK INTRA:                  -0.200
REMARK UNBOUND:                -0.217
REMARK SMILES CC(C)c1ccc(C(=O)[O-])cc1
REMARK SMILES IDX 7 1 6 2 11 3 5 4 12 5 4 6 8 7 9 8 10 9 2 10 1 11 3 12
REMARK H PARENT
REMARK Flexibility Score: inf
ROOT
ATOM      1  C   UNL     1      54.770  26.353  50.020  1.00  0.00    -0.003 A 
ATOM      2  C   UNL     1      54.489  27.722  50.163  1.00  0.00     0.010 A 
ATOM      3  C   UNL     1      56.109  25.930  50.019  1.00  0.00     0.010 A 
ATOM      4  C   UNL     1      55.526  28.648  50.302  1.00  0.00     0.004 A 
ATOM      5  C   UNL     1      57.146  26.856  50.158  1.00  0.00     0.004 A 
ATOM      6  C   UNL     1      56.866  28.227  50.301  1.00  0.00    -0.045 A 
ENDROOT
BRANCH   1   7
ATOM      7  C   UNL     1      53.675  25.368  49.873  1.00  0.00     0.071 C 
ATOM      8  O   UNL     1      52.936  25.379  48.852  1.00  0.00    -0.545 OA
ATOM      9  O   UNL     1      53.446  24.416  50.861  1.00  0.00    -0.545 OA
ENDBRANCH   1   7
BRANCH   6  10
ATOM     10  C   UNL     1      57.982  29.244  50.452  1.00  0.00     0.013 C 
ATOM     11  C   UNL     1      58.937  29.198  49.254  1.00  0.00     0.012 C 
ATOM     12  C   UNL     1      58.738  29.041  51.771  1.00  0.00     0.012 C 
ENDBRANCH   6  10
TORSDOF 2
ENDMDL
MODEL 6
REMARK VINA RESULT:    -4.323     13.308     14.183
REMARK INTER + INTRA:          -5.045
REMARK INTER:                  -4.825
REMARK INTRA:                  -0.219
REMARK UNBOUND:                -0.217
REMARK SMILES CC(C)c1ccc(C(=O)[O-])cc1
REMARK SMILES IDX 7 1 6 2 11 3 5 4 12 5 4 6 8 7 9 8 10 9 2 10 1 11 3 12
REMARK H PARENT
REMARK Flexibility Score: inf
ROOT
ATOM      1  C   UNL     1      58.087  26.805  49.948  1.00  0.00    -0.003 A 
ATOM      2  C   UNL     1      57.024  25.885  49.984  1.00  0.00     0.010 A 
ATOM      3  C   UNL     1      57.812  28.169  50.137  1.00  0.00     0.010 A 
ATOM      4  C   UNL     1      55.716  26.322  50.205  1.00  0.00     0.004 A 
ATOM      5  C   UNL     1      56.503  28.605  50.359  1.00  0.00     0.004 A 
ATOM      6  C   UNL     1      55.439  27.686  50.395  1.00  0.00    -0.045 A 
ENDROOT
BRANCH   1   7
ATOM      7  C   UNL     1      59.474  26.348  49.714  1.00  0.00     0.071 C 
ATOM      8  O   UNL     1      60.330  27.126  49.215  1.00  0.00    -0.545 OA
ATOM      9  O   UNL     1      59.854  25.051  50.042  1.00  0.00    -0.545 OA
ENDBRANCH   1   7
BRANCH   6  10
ATOM     10  C   UNL     1      54.013  28.146  50.634  1.00  0.00     0.013 C 
ATOM     11  C   UNL     1      53.024  27.346  49.778  1.00  0.00     0.012 C 
ATOM     12  C   UNL     1      53.870  29.651  50.383  1.00  0.00     0.012 C 
ENDBRANCH   6  10
TORSDOF 2
ENDMDL
MODEL 7
REMARK VINA RESULT:    -4.321      3.174      4.784
REMARK INTER + INTRA:          -5.043
REMARK INTER:                  -4.840
REMARK INTRA:                  -0.203
REMARK UNBOUND:                -0.217
REMARK SMILES CC(C)c1ccc(C(=O)[O-])cc1
REMARK SMILES IDX 7 1 6 2 11 3 5 4 12 5 4 6 8 7 9 8 10 9 2 10 1 11 3 12
REMARK H PARENT
REMARK Flexibility Score: inf
ROOT
ATOM      1  C   UNL     1      63.885  34.935  61.246  1.00  0.00    -0.003 A 
ATOM      2  C   UNL     1      64.216  33.570  61.209  1.00  0.00     0.010 A 
ATOM      3  C   UNL     1      62.544  35.314  61.073  1.00  0.00     0.010 A 
ATOM      4  C   UNL     1      63.227  32.605  61.004  1.00  0.00     0.004 A 
ATOM      5  C   UNL     1      61.554  34.348  60.867  1.00  0.00     0.004 A 
ATOM      6  C   UNL     1      61.885  32.982  60.831  1.00  0.00    -0.045 A 
ENDROOT
BRANCH   1   7
ATOM      7  C   UNL     1      64.929  35.961  61.464  1.00  0.00     0.071 C 
ATOM      8  O   UNL     1      65.858  36.116  60.627  1.00  0.00    -0.545 OA
ATOM      9  O   UNL     1      64.899  36.767  62.596  1.00  0.00    -0.545 OA
ENDBRANCH   1   7
BRANCH   6  10
ATOM     10  C   UNL     1      60.821  31.923  60.608  1.00  0.00     0.013 C 
ATOM     11  C   UNL     1      60.815  30.897  61.747  1.00  0.00     0.012 C 
ATOM     12  C   UNL     1      61.000  31.239  59.247  1.00  0.00     0.012 C 
ENDBRANCH   6  10
TORSDOF 2
ENDMDL
MODEL 8
REMARK VINA RESULT:    -4.172      3.155      5.037
REMARK INTER + INTRA:          -4.877
REMARK INTER:                  -4.656
REMARK INTRA:                  -0.220
REMARK UNBOUND:                -0.217
REMARK SMILES CC(C)c1ccc(C(=O)[O-])cc1
REMARK SMILES IDX 7 1 6 2 11 3 5 4 12 5 4 6 8 7 9 8 10 9 2 10 1 11 3 12
REMARK H PARENT
REMARK Flexibility Score: inf
ROOT
ATOM      1  C   UNL     1      62.873  34.881  61.075  1.00  0.00    -0.003 A 
ATOM      2  C   UNL     1      61.640  34.245  60.847  1.00  0.00     0.010 A 
ATOM      3  C   UNL     1      64.022  34.093  61.252  1.00  0.00     0.010 A 
ATOM      4  C   UNL     1      61.560  32.851  60.796  1.00  0.00     0.004 A 
ATOM      5  C   UNL     1      63.941  32.699  61.201  1.00  0.00     0.004 A 
ATOM      6  C   UNL     1      62.708  32.062  60.972  1.00  0.00    -0.045 A 
ENDROOT
BRANCH   1   7
ATOM      7  C   UNL     1      62.963  36.357  61.129  1.00  0.00     0.071 C 
ATOM      8  O   UNL     1      64.071  36.937  60.976  1.00  0.00    -0.545 OA
ATOM      9  O   UNL     1      61.825  37.125  61.350  1.00  0.00    -0.545 OA
ENDBRANCH   1   7
BRANCH   6  10
ATOM     10  C   UNL     1      62.606  30.549  60.915  1.00  0.00     0.013 C 
ATOM     11  C   UNL     1      61.296  30.059  61.542  1.00  0.00     0.012 C 
ATOM     12  C   UNL     1      63.819  29.889  61.582  1.00  0.00     0.012 C 
ENDBRANCH   6  10
TORSDOF 2
ENDMDL
MODEL 9
REMARK VINA RESULT:    -4.139     13.428     14.415
REMARK INTER + INTRA:          -4.840
REMARK INTER:                  -4.640
REMARK INTRA:                  -0.200
REMARK UNBOUND:                -0.217
REMARK SMILES CC(C)c1ccc(C(=O)[O-])cc1
REMARK SMILES IDX 7 1 6 2 11 3 5 4 12 5 4 6 8 7 9 8 10 9 2 10 1 11 3 12
REMARK H PARENT
REMARK Flexibility Score: inf
ROOT
ATOM      1  C   UNL     1      54.790  26.609  50.145  1.00  0.00    -0.003 A 
ATOM      2  C   UNL     1      56.012  25.915  50.129  1.00  0.00     0.010 A 
ATOM      3  C   UNL     1      54.804  28.008  50.258  1.00  0.00     0.010 A 
ATOM      4  C   UNL     1      57.222  26.607  50.225  1.00  0.00     0.004 A 
ATOM      5  C   UNL     1      56.014  28.701  50.354  1.00  0.00     0.004 A 
ATOM      6  C   UNL     1      57.238  28.007  50.338  1.00  0.00    -0.045 A 
ENDROOT
BRANCH   1   7
ATOM      7  C   UNL     1      53.506  25.881  50.043  1.00  0.00     0.071 C 
ATOM      8  O   UNL     1      52.888  25.524  51.082  1.00  0.00    -0.545 OA
ATOM      9  O   UNL     1      52.963  25.579  48.799  1.00  0.00    -0.545 OA
ENDBRANCH   1   7
BRANCH   6  10
ATOM     10  C   UNL     1      58.559  28.746  50.442  1.00  0.00     0.013 C 
ATOM     11  C   UNL     1      58.508  29.819  51.536  1.00  0.00     0.012 C 
ATOM     12  C   UNL     1      58.960  29.352  49.092  1.00  0.00     0.012 C 
ENDBRANCH   6  10
TORSDOF 2
ENDMDL
