MODEL 1
REMARK VINA RESULT:    -6.743      0.000      0.000
REMARK INTER + INTRA:         -11.776
REMARK INTER:                 -10.487
REMARK INTRA:                  -1.289
REMARK UNBOUND:                -1.289
REMARK SMILES C[C@]12C[C@]3(O)O[C@H](O1)[C@@]1(COC(=O)c4ccccc4)[C@@H]3C[C@]12O[C@@H]1O[C@@H](CO)[C@@H](O)[C@@H](O)[C@@H]1O
REMARK SMILES IDX 1 1 2 2 3 3 4 4 20 5 21 6 22 7 9 8 7 9 8 10 6 11 23 12 24 13
REMARK SMILES IDX 33 14 25 15 31 16 26 17 29 18 34 19 32 21 27 23 28 24 30 26
REMARK SMILES IDX 5 28 10 30 11 31 12 32 13 33 14 34 15 35 19 36 16 37 18 38
REMARK SMILES IDX 17 39
REMARK H PARENT 34 20 32 22 28 25 30 27 5 29
REMARK Flexibility Score: inf
ROOT
ATOM      1  C   UNL     1      -1.720  -0.283  26.849  1.00  0.00     0.046 C 
ATOM      2  C   UNL     1      -0.780  -1.216  26.084  1.00  0.00     0.104 C 
ATOM      3  C   UNL     1      -0.141  -2.296  27.030  1.00  0.00     0.104 C 
ATOM      4  C   UNL     1       0.685  -3.193  26.045  1.00  0.00     0.175 C 
ATOM      5  C   UNL     1      -0.187  -3.601  24.812  1.00  0.00     0.070 C 
ATOM      6  C   UNL     1      -1.699  -3.420  25.062  1.00  0.00     0.050 C 
ATOM      7  C   UNL     1      -1.445  -1.906  24.833  1.00  0.00     0.115 C 
ATOM      8  C   UNL     1      -0.166  -2.261  24.082  1.00  0.00     0.096 C 
ATOM      9  C   UNL     1       0.951  -1.441  24.708  1.00  0.00     0.267 C 
ATOM     10  O   UNL     1       0.312  -0.496  25.548  1.00  0.00    -0.342 OA
ATOM     11  O   UNL     1       1.687  -2.353  25.509  1.00  0.00    -0.320 OA
ENDROOT
BRANCH   7  12
ATOM     12  O   UNL     1      -2.336  -1.030  24.141  1.00  0.00    -0.339 OA
BRANCH  12  13
ATOM     13  C   UNL     1      -3.592  -1.551  23.733  1.00  0.00     0.282 C 
ATOM     14  C   UNL     1      -4.775  -0.740  24.319  1.00  0.00     0.202 C 
ATOM     15  O   UNL     1      -3.662  -1.552  22.314  1.00  0.00    -0.341 OA
ATOM     16  C   UNL     1      -4.802   0.690  23.735  1.00  0.00     0.179 C 
ATOM     17  C   UNL     1      -3.544  -0.242  21.775  1.00  0.00     0.178 C 
ATOM     18  C   UNL     1      -4.746   0.627  22.200  1.00  0.00     0.177 C 
BRANCH  14  19
ATOM     19  O   UNL     1      -4.749  -0.727  25.724  1.00  0.00    -0.385 OA
ATOM     20  H   UNL     1      -5.681  -0.615  26.043  1.00  0.00     0.211 HD
ENDBRANCH  14  19
BRANCH  16  21
ATOM     21  O   UNL     1      -5.966   1.362  24.139  1.00  0.00    -0.387 OA
ATOM     22  H   UNL     1      -5.765   2.333  24.098  1.00  0.00     0.211 HD
ENDBRANCH  16  21
BRANCH  17  23
ATOM     23  C   UNL     1      -3.425  -0.347  20.250  1.00  0.00     0.191 C 
BRANCH  23  24
ATOM     24  O   UNL     1      -4.099  -1.487  19.788  1.00  0.00    -0.394 OA
ATOM     25  H   UNL     1      -4.367  -2.001  20.593  1.00  0.00     0.210 HD
ENDBRANCH  23  24
ENDBRANCH  17  23
BRANCH  18  26
ATOM     26  O   UNL     1      -5.936   0.072  21.691  1.00  0.00    -0.387 OA
ATOM     27  H   UNL     1      -5.677  -0.734  21.168  1.00  0.00     0.211 HD
ENDBRANCH  18  26
ENDBRANCH  12  13
ENDBRANCH   7  12
BRANCH   4  28
ATOM     28  O   UNL     1       1.258  -4.299  26.685  1.00  0.00    -0.365 OA
ATOM     29  H   UNL     1       2.230  -4.111  26.760  1.00  0.00     0.214 HD
ENDBRANCH   4  28
BRANCH   8  30
ATOM     30  C   UNL     1      -0.193  -2.338  22.544  1.00  0.00     0.249 C 
BRANCH  30  31
ATOM     31  O   UNL     1       1.131  -2.210  22.035  1.00  0.00    -0.461 OA
BRANCH  31  32
ATOM     32  C   UNL     1       1.961  -3.311  21.803  1.00  0.00     0.338 C 
ATOM     33  O   UNL     1       2.704  -3.749  22.724  1.00  0.00    -0.246 OA
BRANCH  32  34
ATOM     34  C   UNL     1       1.955  -3.965  20.477  1.00  0.00     0.060 A 
ATOM     35  C   UNL     1       2.401  -5.292  20.339  1.00  0.00     0.015 A 
ATOM     36  C   UNL     1       1.522  -3.267  19.334  1.00  0.00     0.015 A 
ATOM     37  C   UNL     1       2.411  -5.908  19.082  1.00  0.00     0.001 A 
ATOM     38  C   UNL     1       1.533  -3.889  18.081  1.00  0.00     0.001 A 
ATOM     39  C   UNL     1       1.978  -5.208  17.954  1.00  0.00     0.000 A 
ENDBRANCH  32  34
ENDBRANCH  31  32
ENDBRANCH  30  31
ENDBRANCH   8  30
TORSDOF 12
ENDMDL
MODEL 2
REMARK VINA RESULT:    -6.731      2.667      4.792
REMARK INTER + INTRA:         -11.758
REMARK INTER:                 -10.622
REMARK INTRA:                  -1.136
REMARK UNBOUND:                -1.289
REMARK SMILES C[C@]12C[C@]3(O)O[C@H](O1)[C@@]1(COC(=O)c4ccccc4)[C@@H]3C[C@]12O[C@@H]1O[C@@H](CO)[C@@H](O)[C@@H](O)[C@@H]1O
REMARK SMILES IDX 1 1 2 2 3 3 4 4 20 5 21 6 22 7 9 8 7 9 8 10 6 11 23 12 24 13
REMARK SMILES IDX 33 14 25 15 31 16 26 17 29 18 34 19 32 21 27 23 28 24 30 26
REMARK SMILES IDX 5 28 10 30 11 31 12 32 13 33 14 34 15 35 19 36 16 37 18 38
REMARK SMILES IDX 17 39
REMARK H PARENT 34 20 32 22 28 25 30 27 5 29
REMARK Flexibility Score: inf
ROOT
ATOM      1  C   UNL     1       2.507  -2.463  26.418  1.00  0.00     0.046 C 
ATOM      2  C   UNL     1       2.167  -2.666  24.941  1.00  0.00     0.104 C 
ATOM      3  C   UNL     1       3.005  -3.837  24.310  1.00  0.00     0.104 C 
ATOM      4  C   UNL     1       2.435  -3.943  22.853  1.00  0.00     0.175 C 
ATOM      5  C   UNL     1       0.871  -3.979  22.878  1.00  0.00     0.070 C 
ATOM      6  C   UNL     1       0.302  -4.345  24.265  1.00  0.00     0.050 C 
ATOM      7  C   UNL     1       0.630  -2.881  24.664  1.00  0.00     0.115 C 
ATOM      8  C   UNL     1       0.627  -2.505  23.185  1.00  0.00     0.096 C 
ATOM      9  C   UNL     1       1.936  -1.781  22.915  1.00  0.00     0.267 C 
ATOM     10  O   UNL     1       2.503  -1.518  24.187  1.00  0.00    -0.342 OA
ATOM     11  O   UNL     1       2.751  -2.716  22.227  1.00  0.00    -0.320 OA
ENDROOT
BRANCH   7  12
ATOM     12  O   UNL     1      -0.189  -2.066  25.503  1.00  0.00    -0.339 OA
BRANCH  12  13
ATOM     13  C   UNL     1      -1.047  -2.720  26.426  1.00  0.00     0.282 C 
ATOM     14  C   UNL     1      -1.454  -1.791  27.597  1.00  0.00     0.202 C 
ATOM     15  O   UNL     1      -2.207  -3.180  25.747  1.00  0.00    -0.341 OA
ATOM     16  C   UNL     1      -2.335  -0.627  27.093  1.00  0.00     0.179 C 
ATOM     17  C   UNL     1      -2.939  -2.111  25.162  1.00  0.00     0.178 C 
ATOM     18  C   UNL     1      -3.501  -1.180  26.257  1.00  0.00     0.177 C 
BRANCH  14  19
ATOM     19  O   UNL     1      -0.333  -1.327  28.305  1.00  0.00    -0.385 OA
ATOM     20  H   UNL     1      -0.225  -1.896  29.109  1.00  0.00     0.211 HD
ENDBRANCH  14  19
BRANCH  16  21
ATOM     21  O   UNL     1      -2.838   0.112  28.176  1.00  0.00    -0.387 OA
ATOM     22  H   UNL     1      -3.766  -0.205  28.332  1.00  0.00     0.211 HD
ENDBRANCH  16  21
BRANCH  17  23
ATOM     23  C   UNL     1      -4.052  -2.698  24.285  1.00  0.00     0.191 C 
BRANCH  23  24
ATOM     24  O   UNL     1      -4.390  -3.985  24.729  1.00  0.00    -0.394 OA
ATOM     25  H   UNL     1      -4.215  -4.002  25.706  1.00  0.00     0.210 HD
ENDBRANCH  23  24
ENDBRANCH  17  23
BRANCH  18  26
ATOM     26  O   UNL     1      -4.393  -1.897  27.078  1.00  0.00    -0.387 OA
ATOM     27  H   UNL     1      -5.045  -1.239  27.439  1.00  0.00     0.211 HD
ENDBRANCH  18  26
ENDBRANCH  12  13
ENDBRANCH   7  12
BRANCH   4  28
ATOM     28  O   UNL     1       2.985  -5.017  22.142  1.00  0.00    -0.365 OA
ATOM     29  H   UNL     1       3.415  -4.632  21.335  1.00  0.00     0.214 HD
ENDBRANCH   4  28
BRANCH   8  30
ATOM     30  C   UNL     1      -0.645  -1.895  22.567  1.00  0.00     0.249 C 
BRANCH  30  31
ATOM     31  O   UNL     1      -0.292  -1.081  21.454  1.00  0.00    -0.461 OA
BRANCH  31  32
ATOM     32  C   UNL     1      -0.909  -1.198  20.204  1.00  0.00     0.338 C 
ATOM     33  O   UNL     1      -0.429  -1.973  19.332  1.00  0.00    -0.246 OA
BRANCH  32  34
ATOM     34  C   UNL     1      -2.133  -0.419  19.917  1.00  0.00     0.060 A 
ATOM     35  C   UNL     1      -2.089   0.986  19.895  1.00  0.00     0.015 A 
ATOM     36  C   UNL     1      -3.358  -1.069  19.678  1.00  0.00     0.015 A 
ATOM     37  C   UNL     1      -3.249   1.727  19.639  1.00  0.00     0.001 A 
ATOM     38  C   UNL     1      -4.513  -0.323  19.421  1.00  0.00     0.001 A 
ATOM     39  C   UNL     1      -4.460   1.073  19.403  1.00  0.00     0.000 A 
ENDBRANCH  32  34
ENDBRANCH  31  32
ENDBRANCH  30  31
ENDBRANCH   8  30
TORSDOF 12
ENDMDL
MODEL 3
REMARK VINA RESULT:    -6.658      2.056      3.091
REMARK INTER + INTRA:         -11.644
REMARK INTER:                 -10.500
REMARK INTRA:                  -1.144
REMARK UNBOUND:                -1.289
REMARK SMILES C[C@]12C[C@]3(O)O[C@H](O1)[C@@]1(COC(=O)c4ccccc4)[C@@H]3C[C@]12O[C@@H]1O[C@@H](CO)[C@@H](O)[C@@H](O)[C@@H]1O
REMARK SMILES IDX 1 1 2 2 3 3 4 4 20 5 21 6 22 7 9 8 7 9 8 10 6 11 23 12 24 13
REMARK SMILES IDX 33 14 25 15 31 16 26 17 29 18 34 19 32 21 27 23 28 24 30 26
REMARK SMILES IDX 5 28 10 30 11 31 12 32 13 33 14 34 15 35 19 36 16 37 18 38
REMARK SMILES IDX 17 39
REMARK H PARENT 34 20 32 22 28 25 30 27 5 29
REMARK Flexibility Score: inf
ROOT
ATOM      1  C   UNL     1       1.838  -1.984  26.819  1.00  0.00     0.046 C 
ATOM      2  C   UNL     1       1.833  -2.418  25.352  1.00  0.00     0.104 C 
ATOM      3  C   UNL     1       2.632  -3.755  25.141  1.00  0.00     0.104 C 
ATOM      4  C   UNL     1       2.413  -4.068  23.621  1.00  0.00     0.175 C 
ATOM      5  C   UNL     1       0.898  -3.957  23.251  1.00  0.00     0.070 C 
ATOM      6  C   UNL     1      -0.026  -4.012  24.485  1.00  0.00     0.050 C 
ATOM      7  C   UNL     1       0.390  -2.537  24.728  1.00  0.00     0.115 C 
ATOM      8  C   UNL     1       0.787  -2.434  23.258  1.00  0.00     0.096 C 
ATOM      9  C   UNL     1       2.207  -1.894  23.225  1.00  0.00     0.267 C 
ATOM     10  O   UNL     1       2.487  -1.460  24.545  1.00  0.00    -0.342 OA
ATOM     11  O   UNL     1       3.030  -3.009  22.917  1.00  0.00    -0.320 OA
ENDROOT
BRANCH   7  12
ATOM     12  O   UNL     1      -0.488  -1.513  25.196  1.00  0.00    -0.339 OA
BRANCH  12  13
ATOM     13  C   UNL     1      -1.442  -1.862  26.188  1.00  0.00     0.282 C 
ATOM     14  C   UNL     1      -1.910  -0.630  27.002  1.00  0.00     0.202 C 
ATOM     15  O   UNL     1      -2.558  -2.486  25.568  1.00  0.00    -0.341 OA
ATOM     16  C   UNL     1      -2.703   0.349  26.108  1.00  0.00     0.179 C 
ATOM     17  C   UNL     1      -3.200  -1.624  24.638  1.00  0.00     0.178 C 
ATOM     18  C   UNL     1      -3.816  -0.409  25.365  1.00  0.00     0.177 C 
BRANCH  14  19
ATOM     19  O   UNL     1      -0.835   0.007  27.643  1.00  0.00    -0.385 OA
ATOM     20  H   UNL     1      -0.344  -0.679  28.165  1.00  0.00     0.211 HD
ENDBRANCH  14  19
BRANCH  16  21
ATOM     21  O   UNL     1      -3.266   1.374  26.883  1.00  0.00    -0.387 OA
ATOM     22  H   UNL     1      -4.147   1.589  26.478  1.00  0.00     0.211 HD
ENDBRANCH  16  21
BRANCH  17  23
ATOM     23  C   UNL     1      -4.257  -2.427  23.871  1.00  0.00     0.191 C 
BRANCH  23  24
ATOM     24  O   UNL     1      -4.014  -3.802  24.008  1.00  0.00    -0.394 OA
ATOM     25  H   UNL     1      -4.734  -4.267  23.507  1.00  0.00     0.210 HD
ENDBRANCH  23  24
ENDBRANCH  17  23
BRANCH  18  26
ATOM     26  O   UNL     1      -4.798  -0.849  26.274  1.00  0.00    -0.387 OA
ATOM     27  H   UNL     1      -5.641  -0.955  25.758  1.00  0.00     0.211 HD
ENDBRANCH  18  26
ENDBRANCH  12  13
ENDBRANCH   7  12
BRANCH   4  28
ATOM     28  O   UNL     1       2.968  -5.299  23.245  1.00  0.00    -0.365 OA
ATOM     29  H   UNL     1       2.208  -5.896  23.021  1.00  0.00     0.214 HD
ENDBRANCH   4  28
BRANCH   8  30
ATOM     30  C   UNL     1      -0.210  -1.832  22.251  1.00  0.00     0.249 C 
BRANCH  30  31
ATOM     31  O   UNL     1       0.473  -1.490  21.049  1.00  0.00    -0.461 OA
BRANCH  31  32
ATOM     32  C   UNL     1       0.065  -1.946  19.791  1.00  0.00     0.338 C 
ATOM     33  O   UNL     1      -0.953  -1.447  19.237  1.00  0.00    -0.246 OA
BRANCH  32  34
ATOM     34  C   UNL     1       0.841  -3.005  19.110  1.00  0.00     0.060 A 
ATOM     35  C   UNL     1       1.608  -3.915  19.859  1.00  0.00     0.015 A 
ATOM     36  C   UNL     1       0.836  -3.108  17.706  1.00  0.00     0.015 A 
ATOM     37  C   UNL     1       2.355  -4.908  19.217  1.00  0.00     0.001 A 
ATOM     38  C   UNL     1       1.584  -4.104  17.070  1.00  0.00     0.001 A 
ATOM     39  C   UNL     1       2.344  -5.003  17.823  1.00  0.00     0.000 A 
ENDBRANCH  32  34
ENDBRANCH  31  32
ENDBRANCH  30  31
ENDBRANCH   8  30
TORSDOF 12
ENDMDL
MODEL 4
REMARK VINA RESULT:    -6.166      2.026      6.274
REMARK INTER + INTRA:         -10.879
REMARK INTER:                  -9.557
REMARK INTRA:                  -1.323
REMARK UNBOUND:                -1.289
REMARK SMILES C[C@]12C[C@]3(O)O[C@H](O1)[C@@]1(COC(=O)c4ccccc4)[C@@H]3C[C@]12O[C@@H]1O[C@@H](CO)[C@@H](O)[C@@H](O)[C@@H]1O
REMARK SMILES IDX 1 1 2 2 3 3 4 4 20 5 21 6 22 7 9 8 7 9 8 10 6 11 23 12 24 13
REMARK SMILES IDX 33 14 25 15 31 16 26 17 29 18 34 19 32 21 27 23 28 24 30 26
REMARK SMILES IDX 5 28 10 30 11 31 12 32 13 33 14 34 15 35 19 36 16 37 18 38
REMARK SMILES IDX 17 39
REMARK H PARENT 34 20 32 22 28 25 30 27 5 29
REMARK Flexibility Score: inf
ROOT
ATOM      1  C   UNL     1      -0.738  -3.122  27.926  1.00  0.00     0.046 C 
ATOM      2  C   UNL     1      -1.649  -2.133  27.198  1.00  0.00     0.104 C 
ATOM      3  C   UNL     1      -1.996  -0.893  28.100  1.00  0.00     0.104 C 
ATOM      4  C   UNL     1      -2.832   0.025  27.143  1.00  0.00     0.175 C 
ATOM      5  C   UNL     1      -2.103   0.194  25.770  1.00  0.00     0.070 C 
ATOM      6  C   UNL     1      -0.608  -0.181  25.835  1.00  0.00     0.050 C 
ATOM      7  C   UNL     1      -1.089  -1.657  25.803  1.00  0.00     0.115 C 
ATOM      8  C   UNL     1      -2.407  -1.187  25.195  1.00  0.00     0.096 C 
ATOM      9  C   UNL     1      -3.517  -1.779  26.047  1.00  0.00     0.267 C 
ATOM     10  O   UNL     1      -2.893  -2.731  26.891  1.00  0.00    -0.342 OA
ATOM     11  O   UNL     1      -4.003  -0.705  26.837  1.00  0.00    -0.320 OA
ENDROOT
BRANCH   7  12
ATOM     12  O   UNL     1      -0.431  -2.709  25.097  1.00  0.00    -0.339 OA
BRANCH  12  13
ATOM     13  C   UNL     1       0.947  -2.543  24.796  1.00  0.00     0.282 C 
ATOM     14  C   UNL     1       1.673  -3.902  24.635  1.00  0.00     0.202 C 
ATOM     15  O   UNL     1       1.080  -1.779  23.606  1.00  0.00    -0.341 OA
ATOM     16  C   UNL     1       1.150  -4.659  23.394  1.00  0.00     0.179 C 
ATOM     17  C   UNL     1       0.470  -2.419  22.493  1.00  0.00     0.178 C 
ATOM     18  C   UNL     1       1.199  -3.739  22.163  1.00  0.00     0.177 C 
BRANCH  14  19
ATOM     19  O   UNL     1       1.577  -4.683  25.799  1.00  0.00    -0.385 OA
ATOM     20  H   UNL     1       2.444  -4.624  26.276  1.00  0.00     0.211 HD
ENDBRANCH  14  19
BRANCH  16  21
ATOM     21  O   UNL     1       1.925  -5.806  23.158  1.00  0.00    -0.387 OA
ATOM     22  H   UNL     1       2.620  -5.551  22.495  1.00  0.00     0.211 HD
ENDBRANCH  16  21
BRANCH  17  23
ATOM     23  C   UNL     1       0.477  -1.450  21.304  1.00  0.00     0.191 C 
BRANCH  23  24
ATOM     24  O   UNL     1       0.455  -2.165  20.097  1.00  0.00    -0.394 OA
ATOM     25  H   UNL     1       0.821  -3.066  20.296  1.00  0.00     0.210 HD
ENDBRANCH  23  24
ENDBRANCH  17  23
BRANCH  18  26
ATOM     26  O   UNL     1       2.534  -3.467  21.809  1.00  0.00    -0.387 OA
ATOM     27  H   UNL     1       2.989  -4.346  21.706  1.00  0.00     0.211 HD
ENDBRANCH  18  26
ENDBRANCH  12  13
ENDBRANCH   7  12
BRANCH   4  28
ATOM     28  O   UNL     1      -3.156   1.253  27.733  1.00  0.00    -0.365 OA
ATOM     29  H   UNL     1      -2.560   1.357  28.519  1.00  0.00     0.214 HD
ENDBRANCH   4  28
BRANCH   8  30
ATOM     30  C   UNL     1      -2.594  -1.249  23.668  1.00  0.00     0.249 C 
BRANCH  30  31
ATOM     31  O   UNL     1      -3.979  -1.370  23.361  1.00  0.00    -0.461 OA
BRANCH  31  32
ATOM     32  C   UNL     1      -4.734  -0.313  22.841  1.00  0.00     0.338 C 
ATOM     33  O   UNL     1      -5.474   0.369  23.601  1.00  0.00    -0.246 OA
BRANCH  32  34
ATOM     34  C   UNL     1      -4.651   0.005  21.399  1.00  0.00     0.060 A 
ATOM     35  C   UNL     1      -5.236  -0.852  20.449  1.00  0.00     0.015 A 
ATOM     36  C   UNL     1      -3.974   1.156  20.955  1.00  0.00     0.015 A 
ATOM     37  C   UNL     1      -5.145  -0.562  19.083  1.00  0.00     0.001 A 
ATOM     38  C   UNL     1      -3.888   1.441  19.589  1.00  0.00     0.001 A 
ATOM     39  C   UNL     1      -4.472   0.583  18.653  1.00  0.00     0.000 A 
ENDBRANCH  32  34
ENDBRANCH  31  32
ENDBRANCH  30  31
ENDBRANCH   8  30
TORSDOF 12
ENDMDL
MODEL 5
REMARK VINA RESULT:    -5.987      2.045      3.893
REMARK INTER + INTRA:         -10.601
REMARK INTER:                  -9.487
REMARK INTRA:                  -1.114
REMARK UNBOUND:                -1.289
REMARK SMILES C[C@]12C[C@]3(O)O[C@H](O1)[C@@]1(COC(=O)c4ccccc4)[C@@H]3C[C@]12O[C@@H]1O[C@@H](CO)[C@@H](O)[C@@H](O)[C@@H]1O
REMARK SMILES IDX 1 1 2 2 3 3 4 4 20 5 21 6 22 7 9 8 7 9 8 10 6 11 23 12 24 13
REMARK SMILES IDX 33 14 25 15 31 16 26 17 29 18 34 19 32 21 27 23 28 24 30 26
REMARK SMILES IDX 5 28 10 30 11 31 12 32 13 33 14 34 15 35 19 36 16 37 18 38
REMARK SMILES IDX 17 39
REMARK H PARENT 34 20 32 22 28 25 30 27 5 29
REMARK Flexibility Score: inf
ROOT
ATOM      1  C   UNL     1      -5.538   1.730  24.490  1.00  0.00     0.046 C 
ATOM      2  C   UNL     1      -4.544   0.645  24.908  1.00  0.00     0.104 C 
ATOM      3  C   UNL     1      -4.983  -0.058  26.243  1.00  0.00     0.104 C 
ATOM      4  C   UNL     1      -3.906  -1.183  26.428  1.00  0.00     0.175 C 
ATOM      5  C   UNL     1      -3.725  -1.991  25.101  1.00  0.00     0.070 C 
ATOM      6  C   UNL     1      -4.901  -1.805  24.120  1.00  0.00     0.050 C 
ATOM      7  C   UNL     1      -4.264  -0.429  23.788  1.00  0.00     0.115 C 
ATOM      8  C   UNL     1      -2.932  -0.947  24.321  1.00  0.00     0.096 C 
ATOM      9  C   UNL     1      -2.439   0.073  25.334  1.00  0.00     0.267 C 
ATOM     10  O   UNL     1      -3.276   1.207  25.181  1.00  0.00    -0.342 OA
ATOM     11  O   UNL     1      -2.675  -0.511  26.605  1.00  0.00    -0.320 OA
ENDROOT
BRANCH   7  12
ATOM     12  O   UNL     1      -4.217   0.150  22.484  1.00  0.00    -0.339 OA
BRANCH  12  13
ATOM     13  C   UNL     1      -4.819  -0.571  21.419  1.00  0.00     0.282 C 
ATOM     14  C   UNL     1      -5.885   0.273  20.677  1.00  0.00     0.202 C 
ATOM     15  O   UNL     1      -3.814  -0.991  20.507  1.00  0.00    -0.341 OA
ATOM     16  C   UNL     1      -5.229   1.463  19.943  1.00  0.00     0.179 C 
ATOM     17  C   UNL     1      -3.116   0.110  19.941  1.00  0.00     0.178 C 
ATOM     18  C   UNL     1      -4.065   0.961  19.072  1.00  0.00     0.177 C 
BRANCH  14  19
ATOM     19  O   UNL     1      -6.907   0.696  21.543  1.00  0.00    -0.385 OA
ATOM     20  H   UNL     1      -7.360  -0.113  21.894  1.00  0.00     0.211 HD
ENDBRANCH  14  19
BRANCH  16  21
ATOM     21  O   UNL     1      -6.171   2.123  19.139  1.00  0.00    -0.387 OA
ATOM     22  H   UNL     1      -6.508   1.456  18.486  1.00  0.00     0.211 HD
ENDBRANCH  16  21
BRANCH  17  23
ATOM     23  C   UNL     1      -1.926  -0.423  19.134  1.00  0.00     0.191 C 
BRANCH  23  24
ATOM     24  O   UNL     1      -1.746  -1.792  19.383  1.00  0.00    -0.394 OA
ATOM     25  H   UNL     1      -0.770  -1.962  19.330  1.00  0.00     0.210 HD
ENDBRANCH  23  24
ENDBRANCH  17  23
BRANCH  18  26
ATOM     26  O   UNL     1      -4.555   0.184  18.005  1.00  0.00    -0.387 OA
ATOM     27  H   UNL     1      -4.768  -0.713  18.376  1.00  0.00     0.211 HD
ENDBRANCH  18  26
ENDBRANCH  12  13
ENDBRANCH   7  12
BRANCH   4  28
ATOM     28  O   UNL     1      -4.181  -2.008  27.526  1.00  0.00    -0.365 OA
ATOM     29  H   UNL     1      -3.782  -1.566  28.320  1.00  0.00     0.214 HD
ENDBRANCH   4  28
BRANCH   8  30
ATOM     30  C   UNL     1      -1.891  -1.501  23.330  1.00  0.00     0.249 C 
BRANCH  30  31
ATOM     31  O   UNL     1      -0.625  -1.605  23.975  1.00  0.00    -0.461 OA
BRANCH  31  32
ATOM     32  C   UNL     1      -0.108  -2.820  24.435  1.00  0.00     0.338 C 
ATOM     33  O   UNL     1      -0.405  -3.238  25.588  1.00  0.00    -0.246 OA
BRANCH  32  34
ATOM     34  C   UNL     1       0.780  -3.615  23.560  1.00  0.00     0.060 A 
ATOM     35  C   UNL     1       1.173  -3.114  22.306  1.00  0.00     0.015 A 
ATOM     36  C   UNL     1       1.230  -4.887  23.960  1.00  0.00     0.015 A 
ATOM     37  C   UNL     1       2.000  -3.871  21.469  1.00  0.00     0.001 A 
ATOM     38  C   UNL     1       2.058  -5.638  23.119  1.00  0.00     0.001 A 
ATOM     39  C   UNL     1       2.442  -5.133  21.874  1.00  0.00     0.000 A 
ENDBRANCH  32  34
ENDBRANCH  31  32
ENDBRANCH  30  31
ENDBRANCH   8  30
TORSDOF 12
ENDMDL
MODEL 6
REMARK VINA RESULT:    -5.926      1.757      2.617
REMARK INTER + INTRA:         -10.506
REMARK INTER:                  -9.524
REMARK INTRA:                  -0.982
REMARK UNBOUND:                -1.289
REMARK SMILES C[C@]12C[C@]3(O)O[C@H](O1)[C@@]1(COC(=O)c4ccccc4)[C@@H]3C[C@]12O[C@@H]1O[C@@H](CO)[C@@H](O)[C@@H](O)[C@@H]1O
REMARK SMILES IDX 1 1 2 2 3 3 4 4 20 5 21 6 22 7 9 8 7 9 8 10 6 11 23 12 24 13
REMARK SMILES IDX 33 14 25 15 31 16 26 17 29 18 34 19 32 21 27 23 28 24 30 26
REMARK SMILES IDX 5 28 10 30 11 31 12 32 13 33 14 34 15 35 19 36 16 37 18 38
REMARK SMILES IDX 17 39
REMARK H PARENT 34 20 32 22 28 25 30 27 5 29
REMARK Flexibility Score: inf
ROOT
ATOM      1  C   UNL     1      -4.056   0.337  25.872  1.00  0.00     0.046 C 
ATOM      2  C   UNL     1      -2.832  -0.568  25.723  1.00  0.00     0.104 C 
ATOM      3  C   UNL     1      -2.770  -1.649  26.863  1.00  0.00     0.104 C 
ATOM      4  C   UNL     1      -1.527  -2.518  26.466  1.00  0.00     0.175 C 
ATOM      5  C   UNL     1      -1.602  -2.927  24.958  1.00  0.00     0.070 C 
ATOM      6  C   UNL     1      -3.020  -2.777  24.367  1.00  0.00     0.050 C 
ATOM      7  C   UNL     1      -2.717  -1.256  24.309  1.00  0.00     0.115 C 
ATOM      8  C   UNL     1      -1.226  -1.578  24.352  1.00  0.00     0.096 C 
ATOM      9  C   UNL     1      -0.631  -0.745  25.476  1.00  0.00     0.267 C 
ATOM     10  O   UNL     1      -1.639   0.178  25.849  1.00  0.00    -0.342 OA
ATOM     11  O   UNL     1      -0.412  -1.653  26.544  1.00  0.00    -0.320 OA
ENDROOT
BRANCH   7  12
ATOM     12  O   UNL     1      -3.124  -0.388  23.251  1.00  0.00    -0.339 OA
BRANCH  12  13
ATOM     13  C   UNL     1      -3.969  -0.924  22.243  1.00  0.00     0.282 C 
ATOM     14  C   UNL     1      -5.092   0.064  21.842  1.00  0.00     0.202 C 
ATOM     15  O   UNL     1      -3.189  -1.259  21.104  1.00  0.00    -0.341 OA
ATOM     16  C   UNL     1      -4.503   1.314  21.151  1.00  0.00     0.179 C 
ATOM     17  C   UNL     1      -2.533  -0.123  20.556  1.00  0.00     0.178 C 
ATOM     18  C   UNL     1      -3.567   0.885  20.009  1.00  0.00     0.177 C 
BRANCH  14  19
ATOM     19  O   UNL     1      -5.897   0.409  22.941  1.00  0.00    -0.385 OA
ATOM     20  H   UNL     1      -6.811   0.588  22.603  1.00  0.00     0.211 HD
ENDBRANCH  14  19
BRANCH  16  21
ATOM     21  O   UNL     1      -5.531   2.123  20.642  1.00  0.00    -0.387 OA
ATOM     22  H   UNL     1      -6.305   1.526  20.468  1.00  0.00     0.211 HD
ENDBRANCH  16  21
BRANCH  17  23
ATOM     23  C   UNL     1      -1.562  -0.593  19.467  1.00  0.00     0.191 C 
BRANCH  23  24
ATOM     24  O   UNL     1      -1.462  -1.992  19.478  1.00  0.00    -0.394 OA
ATOM     25  H   UNL     1      -0.863  -2.226  20.234  1.00  0.00     0.210 HD
ENDBRANCH  23  24
ENDBRANCH  17  23
BRANCH  18  26
ATOM     26  O   UNL     1      -4.306   0.288  18.970  1.00  0.00    -0.387 OA
ATOM     27  H   UNL     1      -5.087  -0.161  19.393  1.00  0.00     0.211 HD
ENDBRANCH  18  26
ENDBRANCH  12  13
ENDBRANCH   7  12
BRANCH   4  28
ATOM     28  O   UNL     1      -1.356  -3.621  27.312  1.00  0.00    -0.365 OA
ATOM     29  H   UNL     1      -0.853  -4.302  26.794  1.00  0.00     0.214 HD
ENDBRANCH   4  28
BRANCH   8  30
ATOM     30  C   UNL     1      -0.432  -1.636  23.034  1.00  0.00     0.249 C 
BRANCH  30  31
ATOM     31  O   UNL     1       0.902  -1.192  23.260  1.00  0.00    -0.461 OA
BRANCH  31  32
ATOM     32  C   UNL     1       1.905  -2.031  23.758  1.00  0.00     0.338 C 
ATOM     33  O   UNL     1       2.544  -1.705  24.796  1.00  0.00    -0.246 OA
BRANCH  32  34
ATOM     34  C   UNL     1       2.202  -3.305  23.069  1.00  0.00     0.060 A 
ATOM     35  C   UNL     1       1.979  -3.431  21.686  1.00  0.00     0.015 A 
ATOM     36  C   UNL     1       2.694  -4.411  23.785  1.00  0.00     0.015 A 
ATOM     37  C   UNL     1       2.244  -4.640  21.033  1.00  0.00     0.001 A 
ATOM     38  C   UNL     1       2.959  -5.617  23.127  1.00  0.00     0.001 A 
ATOM     39  C   UNL     1       2.733  -5.733  21.753  1.00  0.00     0.000 A 
ENDBRANCH  32  34
ENDBRANCH  31  32
ENDBRANCH  30  31
ENDBRANCH   8  30
TORSDOF 12
ENDMDL
MODEL 7
REMARK VINA RESULT:    -5.901      2.302      5.606
REMARK INTER + INTRA:         -10.467
REMARK INTER:                  -9.148
REMARK INTRA:                  -1.320
REMARK UNBOUND:                -1.289
REMARK SMILES C[C@]12C[C@]3(O)O[C@H](O1)[C@@]1(COC(=O)c4ccccc4)[C@@H]3C[C@]12O[C@@H]1O[C@@H](CO)[C@@H](O)[C@@H](O)[C@@H]1O
REMARK SMILES IDX 1 1 2 2 3 3 4 4 20 5 21 6 22 7 9 8 7 9 8 10 6 11 23 12 24 13
REMARK SMILES IDX 33 14 25 15 31 16 26 17 29 18 34 19 32 21 27 23 28 24 30 26
REMARK SMILES IDX 5 28 10 30 11 31 12 32 13 33 14 34 15 35 19 36 16 37 18 38
REMARK SMILES IDX 17 39
REMARK H PARENT 34 20 32 22 28 25 30 27 5 29
REMARK Flexibility Score: inf
ROOT
ATOM      1  C   UNL     1       3.084  -1.150  24.747  1.00  0.00     0.046 C 
ATOM      2  C   UNL     1       2.123  -2.066  23.988  1.00  0.00     0.104 C 
ATOM      3  C   UNL     1       2.833  -3.389  23.522  1.00  0.00     0.104 C 
ATOM      4  C   UNL     1       1.667  -4.213  22.873  1.00  0.00     0.175 C 
ATOM      5  C   UNL     1       0.424  -4.244  23.821  1.00  0.00     0.070 C 
ATOM      6  C   UNL     1       0.772  -3.872  25.278  1.00  0.00     0.050 C 
ATOM      7  C   UNL     1       0.803  -2.402  24.780  1.00  0.00     0.115 C 
ATOM      8  C   UNL     1      -0.058  -2.815  23.590  1.00  0.00     0.096 C 
ATOM      9  C   UNL     1       0.650  -2.313  22.343  1.00  0.00     0.267 C 
ATOM     10  O   UNL     1       1.673  -1.445  22.800  1.00  0.00    -0.342 OA
ATOM     11  O   UNL     1       1.242  -3.461  21.755  1.00  0.00    -0.320 OA
ENDROOT
BRANCH   7  12
ATOM     12  O   UNL     1       0.320  -1.283  25.524  1.00  0.00    -0.339 OA
BRANCH  12  13
ATOM     13  C   UNL     1       0.252  -1.409  26.937  1.00  0.00     0.282 C 
ATOM     14  C   UNL     1       0.563  -0.071  27.653  1.00  0.00     0.202 C 
ATOM     15  O   UNL     1      -1.041  -1.867  27.308  1.00  0.00    -0.341 OA
ATOM     16  C   UNL     1      -0.534   0.976  27.360  1.00  0.00     0.179 C 
ATOM     17  C   UNL     1      -2.061  -0.963  26.906  1.00  0.00     0.178 C 
ATOM     18  C   UNL     1      -1.919   0.378  27.658  1.00  0.00     0.177 C 
BRANCH  14  19
ATOM     19  O   UNL     1       1.841   0.409  27.324  1.00  0.00    -0.385 OA
ATOM     20  H   UNL     1       2.428  -0.374  27.167  1.00  0.00     0.211 HD
ENDBRANCH  14  19
BRANCH  16  21
ATOM     21  O   UNL     1      -0.337   2.125  28.142  1.00  0.00    -0.387 OA
ATOM     22  H   UNL     1      -0.498   1.860  29.085  1.00  0.00     0.211 HD
ENDBRANCH  16  21
BRANCH  17  23
ATOM     23  C   UNL     1      -3.425  -1.617  27.157  1.00  0.00     0.191 C 
BRANCH  23  24
ATOM     24  O   UNL     1      -3.647  -2.645  26.229  1.00  0.00    -0.394 OA
ATOM     25  H   UNL     1      -3.735  -3.483  26.753  1.00  0.00     0.210 HD
ENDBRANCH  23  24
ENDBRANCH  17  23
BRANCH  18  26
ATOM     26  O   UNL     1      -2.071   0.164  29.041  1.00  0.00    -0.387 OA
ATOM     27  H   UNL     1      -2.301  -0.796  29.161  1.00  0.00     0.211 HD
ENDBRANCH  18  26
ENDBRANCH  12  13
ENDBRANCH   7  12
BRANCH   4  28
ATOM     28  O   UNL     1       2.075  -5.494  22.480  1.00  0.00    -0.365 OA
ATOM     29  H   UNL     1       1.692  -6.128  23.140  1.00  0.00     0.214 HD
ENDBRANCH   4  28
BRANCH   8  30
ATOM     30  C   UNL     1      -1.582  -2.605  23.656  1.00  0.00     0.249 C 
BRANCH  30  31
ATOM     31  O   UNL     1      -1.927  -1.390  22.998  1.00  0.00    -0.461 OA
BRANCH  31  32
ATOM     32  C   UNL     1      -3.249  -0.967  22.833  1.00  0.00     0.338 C 
ATOM     33  O   UNL     1      -4.015  -0.882  23.832  1.00  0.00    -0.246 OA
BRANCH  32  34
ATOM     34  C   UNL     1      -3.740  -0.610  21.485  1.00  0.00     0.060 A 
ATOM     35  C   UNL     1      -5.121  -0.596  21.214  1.00  0.00     0.015 A 
ATOM     36  C   UNL     1      -2.838  -0.297  20.452  1.00  0.00     0.015 A 
ATOM     37  C   UNL     1      -5.588  -0.273  19.935  1.00  0.00     0.001 A 
ATOM     38  C   UNL     1      -3.311   0.026  19.176  1.00  0.00     0.001 A 
ATOM     39  C   UNL     1      -4.684   0.036  18.916  1.00  0.00     0.000 A 
ENDBRANCH  32  34
ENDBRANCH  31  32
ENDBRANCH  30  31
ENDBRANCH   8  30
TORSDOF 12
ENDMDL
MODEL 8
REMARK VINA RESULT:    -5.691      1.990      6.728
REMARK INTER + INTRA:         -10.140
REMARK INTER:                  -8.966
REMARK INTRA:                  -1.174
REMARK UNBOUND:                -1.289
REMARK SMILES C[C@]12C[C@]3(O)O[C@H](O1)[C@@]1(COC(=O)c4ccccc4)[C@@H]3C[C@]12O[C@@H]1O[C@@H](CO)[C@@H](O)[C@@H](O)[C@@H]1O
REMARK SMILES IDX 1 1 2 2 3 3 4 4 20 5 21 6 22 7 9 8 7 9 8 10 6 11 23 12 24 13
REMARK SMILES IDX 33 14 25 15 31 16 26 17 29 18 34 19 32 21 27 23 28 24 30 26
REMARK SMILES IDX 5 28 10 30 11 31 12 32 13 33 14 34 15 35 19 36 16 37 18 38
REMARK SMILES IDX 17 39
REMARK H PARENT 34 20 32 22 28 25 30 27 5 29
REMARK Flexibility Score: inf
ROOT
ATOM      1  C   UNL     1      -2.729  -3.504  26.309  1.00  0.00     0.046 C 
ATOM      2  C   UNL     1      -3.273  -2.397  25.405  1.00  0.00     0.104 C 
ATOM      3  C   UNL     1      -4.117  -1.349  26.218  1.00  0.00     0.104 C 
ATOM      4  C   UNL     1      -4.481  -0.269  25.141  1.00  0.00     0.175 C 
ATOM      5  C   UNL     1      -3.208   0.155  24.338  1.00  0.00     0.070 C 
ATOM      6  C   UNL     1      -1.894  -0.223  25.053  1.00  0.00     0.050 C 
ATOM      7  C   UNL     1      -2.166  -1.667  24.553  1.00  0.00     0.115 C 
ATOM      8  C   UNL     1      -3.076  -1.094  23.471  1.00  0.00     0.096 C 
ATOM      9  C   UNL     1      -4.398  -1.836  23.572  1.00  0.00     0.267 C 
ATOM     10  O   UNL     1      -4.163  -2.929  24.444  1.00  0.00    -0.342 OA
ATOM     11  O   UNL     1      -5.295  -0.930  24.194  1.00  0.00    -0.320 OA
ENDROOT
BRANCH   7  12
ATOM     12  O   UNL     1      -1.159  -2.568  24.090  1.00  0.00    -0.339 OA
BRANCH  12  13
ATOM     13  C   UNL     1       0.198  -2.178  24.241  1.00  0.00     0.282 C 
ATOM     14  C   UNL     1       1.052  -3.291  24.897  1.00  0.00     0.202 C 
ATOM     15  O   UNL     1       0.735  -1.841  22.969  1.00  0.00    -0.341 OA
ATOM     16  C   UNL     1       1.161  -4.519  23.966  1.00  0.00     0.179 C 
ATOM     17  C   UNL     1       0.701  -2.941  22.070  1.00  0.00     0.178 C 
ATOM     18  C   UNL     1       1.623  -4.074  22.568  1.00  0.00     0.177 C 
BRANCH  14  19
ATOM     19  O   UNL     1       0.561  -3.643  26.165  1.00  0.00    -0.385 OA
ATOM     20  H   UNL     1      -0.341  -4.036  26.042  1.00  0.00     0.211 HD
ENDBRANCH  14  19
BRANCH  16  21
ATOM     21  O   UNL     1       2.070  -5.452  24.489  1.00  0.00    -0.387 OA
ATOM     22  H   UNL     1       1.745  -6.350  24.218  1.00  0.00     0.211 HD
ENDBRANCH  16  21
BRANCH  17  23
ATOM     23  C   UNL     1       1.103  -2.448  20.675  1.00  0.00     0.191 C 
BRANCH  23  24
ATOM     24  O   UNL     1       1.862  -3.427  20.016  1.00  0.00    -0.394 OA
ATOM     25  H   UNL     1       2.424  -3.862  20.708  1.00  0.00     0.210 HD
ENDBRANCH  23  24
ENDBRANCH  17  23
BRANCH  18  26
ATOM     26  O   UNL     1       2.953  -3.615  22.617  1.00  0.00    -0.387 OA
ATOM     27  H   UNL     1       3.505  -4.366  22.963  1.00  0.00     0.211 HD
ENDBRANCH  18  26
ENDBRANCH  12  13
ENDBRANCH   7  12
BRANCH   4  28
ATOM     28  O   UNL     1      -5.157   0.827  25.693  1.00  0.00    -0.365 OA
ATOM     29  H   UNL     1      -4.584   1.173  26.426  1.00  0.00     0.214 HD
ENDBRANCH   4  28
BRANCH   8  30
ATOM     30  C   UNL     1      -2.511  -0.868  22.056  1.00  0.00     0.249 C 
BRANCH  30  31
ATOM     31  O   UNL     1      -3.576  -0.876  21.110  1.00  0.00    -0.461 OA
BRANCH  31  32
ATOM     32  C   UNL     1      -3.484  -0.252  19.862  1.00  0.00     0.338 C 
ATOM     33  O   UNL     1      -2.407  -0.302  19.207  1.00  0.00    -0.246 OA
BRANCH  32  34
ATOM     34  C   UNL     1      -4.659   0.457  19.311  1.00  0.00     0.060 A 
ATOM     35  C   UNL     1      -4.804   0.614  17.921  1.00  0.00     0.015 A 
ATOM     36  C   UNL     1      -5.637   0.999  20.166  1.00  0.00     0.015 A 
ATOM     37  C   UNL     1      -5.906   1.299  17.397  1.00  0.00     0.001 A 
ATOM     38  C   UNL     1      -6.737   1.680  19.636  1.00  0.00     0.001 A 
ATOM     39  C   UNL     1      -6.872   1.832  18.254  1.00  0.00     0.000 A 
ENDBRANCH  32  34
ENDBRANCH  31  32
ENDBRANCH  30  31
ENDBRANCH   8  30
TORSDOF 12
ENDMDL
MODEL 9
REMARK VINA RESULT:    -5.626      2.417      6.135
REMARK INTER + INTRA:         -10.040
REMARK INTER:                  -8.458
REMARK INTRA:                  -1.582
REMARK UNBOUND:                -1.289
REMARK SMILES C[C@]12C[C@]3(O)O[C@H](O1)[C@@]1(COC(=O)c4ccccc4)[C@@H]3C[C@]12O[C@@H]1O[C@@H](CO)[C@@H](O)[C@@H](O)[C@@H]1O
REMARK SMILES IDX 1 1 2 2 3 3 4 4 20 5 21 6 22 7 9 8 7 9 8 10 6 11 23 12 24 13
REMARK SMILES IDX 33 14 25 15 31 16 26 17 29 18 34 19 32 21 27 23 28 24 30 26
REMARK SMILES IDX 5 28 10 30 11 31 12 32 13 33 14 34 15 35 19 36 16 37 18 38
REMARK SMILES IDX 17 39
REMARK H PARENT 34 20 32 22 28 25 30 27 5 29
REMARK Flexibility Score: inf
ROOT
ATOM      1  C   UNL     1       0.777  -3.710  28.215  1.00  0.00     0.046 C 
ATOM      2  C   UNL     1       0.066  -2.372  28.009  1.00  0.00     0.104 C 
ATOM      3  C   UNL     1       0.263  -1.416  29.241  1.00  0.00     0.104 C 
ATOM      4  C   UNL     1      -0.441  -0.091  28.785  1.00  0.00     0.175 C 
ATOM      5  C   UNL     1       0.034   0.316  27.351  1.00  0.00     0.070 C 
ATOM      6  C   UNL     1       1.346  -0.382  26.933  1.00  0.00     0.050 C 
ATOM      7  C   UNL     1       0.467  -1.635  26.674  1.00  0.00     0.115 C 
ATOM      8  C   UNL     1      -0.752  -0.725  26.561  1.00  0.00     0.096 C 
ATOM      9  C   UNL     1      -1.805  -1.284  27.504  1.00  0.00     0.267 C 
ATOM     10  O   UNL     1      -1.331  -2.559  27.901  1.00  0.00    -0.342 OA
ATOM     11  O   UNL     1      -1.807  -0.417  28.626  1.00  0.00    -0.320 OA
ENDROOT
BRANCH   7  12
ATOM     12  O   UNL     1       0.653  -2.546  25.590  1.00  0.00    -0.339 OA
BRANCH  12  13
ATOM     13  C   UNL     1       1.881  -2.488  24.880  1.00  0.00     0.282 C 
ATOM     14  C   UNL     1       2.393  -3.897  24.491  1.00  0.00     0.202 C 
ATOM     15  O   UNL     1       1.714  -1.694  23.714  1.00  0.00    -0.341 OA
ATOM     16  C   UNL     1       1.448  -4.560  23.465  1.00  0.00     0.179 C 
ATOM     17  C   UNL     1       0.736  -2.237  22.837  1.00  0.00     0.178 C 
ATOM     18  C   UNL     1       1.203  -3.602  22.287  1.00  0.00     0.177 C 
BRANCH  14  19
ATOM     19  O   UNL     1       2.586  -4.709  25.621  1.00  0.00    -0.385 OA
ATOM     20  H   UNL     1       1.794  -5.300  25.708  1.00  0.00     0.211 HD
ENDBRANCH  14  19
BRANCH  16  21
ATOM     21  O   UNL     1       2.003  -5.759  22.991  1.00  0.00    -0.387 OA
ATOM     22  H   UNL     1       1.250  -6.304  22.641  1.00  0.00     0.211 HD
ENDBRANCH  16  21
BRANCH  17  23
ATOM     23  C   UNL     1       0.469  -1.229  21.712  1.00  0.00     0.191 C 
BRANCH  23  24
ATOM     24  O   UNL     1      -0.010  -1.891  20.572  1.00  0.00    -0.394 OA
ATOM     25  H   UNL     1       0.212  -1.314  19.796  1.00  0.00     0.210 HD
ENDBRANCH  23  24
ENDBRANCH  17  23
BRANCH  18  26
ATOM     26  O   UNL     1       2.385  -3.433  21.541  1.00  0.00    -0.387 OA
ATOM     27  H   UNL     1       3.142  -3.659  22.145  1.00  0.00     0.211 HD
ENDBRANCH  18  26
ENDBRANCH  12  13
ENDBRANCH   7  12
BRANCH   4  28
ATOM     28  O   UNL     1      -0.285   0.943  29.716  1.00  0.00    -0.365 OA
ATOM     29  H   UNL     1      -1.126   0.981  30.242  1.00  0.00     0.214 HD
ENDBRANCH   4  28
BRANCH   8  30
ATOM     30  C   UNL     1      -1.233  -0.282  25.166  1.00  0.00     0.249 C 
BRANCH  30  31
ATOM     31  O   UNL     1      -2.581  -0.695  24.972  1.00  0.00    -0.461 OA
BRANCH  31  32
ATOM     32  C   UNL     1      -2.954  -1.632  24.003  1.00  0.00     0.338 C 
ATOM     33  O   UNL     1      -2.628  -2.843  24.135  1.00  0.00    -0.246 OA
BRANCH  32  34
ATOM     34  C   UNL     1      -3.741  -1.196  22.829  1.00  0.00     0.060 A 
ATOM     35  C   UNL     1      -3.103  -0.586  21.734  1.00  0.00     0.015 A 
ATOM     36  C   UNL     1      -5.138  -1.369  22.796  1.00  0.00     0.015 A 
ATOM     37  C   UNL     1      -3.847  -0.159  20.629  1.00  0.00     0.001 A 
ATOM     38  C   UNL     1      -5.875  -0.940  21.688  1.00  0.00     0.001 A 
ATOM     39  C   UNL     1      -5.232  -0.334  20.606  1.00  0.00     0.000 A 
ENDBRANCH  32  34
ENDBRANCH  31  32
ENDBRANCH  30  31
ENDBRANCH   8  30
TORSDOF 12
ENDMDL
