MODEL 1
REMARK VINA RESULT:    -4.003      0.000      0.000
REMARK INTER + INTRA:          -7.005
REMARK INTER:                  -6.110
REMARK INTRA:                  -0.895
REMARK UNBOUND:                -0.895
REMARK SMILES CC(=O)CCC=C(C)CCC=C(C)CCC=C(C)C
REMARK SMILES IDX 10 1 11 2 12 3 13 4 14 5 15 6 16 7 18 8 17 9 19 10 9 11 7 12
REMARK SMILES IDX 6 13 8 14 5 15 4 16 2 17 3 18 1 19
REMARK H PARENT
REMARK Flexibility Score: inf
ROOT
ATOM      1  C   UNL     1      79.123  14.289   5.891  1.00  0.00     0.032 C 
ENDROOT
BRANCH   1   2
ATOM      2  C   UNL     1      80.019  13.996   4.715  1.00  0.00    -0.028 C 
ATOM      3  C   UNL     1      79.793  14.407   3.444  1.00  0.00    -0.077 C 
ATOM      4  C   UNL     1      80.790  14.018   2.384  1.00  0.00     0.039 C 
BRANCH   3   5
ATOM      5  C   UNL     1      78.617  15.282   3.045  1.00  0.00     0.034 C 
BRANCH   5   6
ATOM      6  C   UNL     1      78.599  15.568   1.536  1.00  0.00     0.032 C 
BRANCH   6   7
ATOM      7  C   UNL     1      77.752  16.770   1.195  1.00  0.00    -0.028 C 
ATOM      8  C   UNL     1      79.650  18.387   1.440  1.00  0.00     0.039 C 
ATOM      9  C   UNL     1      78.214  18.039   1.125  1.00  0.00    -0.080 C 
ATOM     10  C   UNL     1      77.258  19.129   0.719  1.00  0.00     0.039 C 
ENDBRANCH   6   7
ENDBRANCH   5   6
ENDBRANCH   3   5
ENDBRANCH   1   2
BRANCH   1  11
ATOM     11  C   UNL     1      79.805  13.913   7.212  1.00  0.00     0.034 C 
BRANCH  11  12
ATOM     12  C   UNL     1      80.156  15.156   8.003  1.00  0.00    -0.077 C 
ATOM     13  C   UNL     1      80.838  15.125   9.171  1.00  0.00    -0.028 C 
ATOM     14  C   UNL     1      79.768  16.500   7.442  1.00  0.00     0.039 C 
BRANCH  13  15
ATOM     15  C   UNL     1      81.277  13.876   9.899  1.00  0.00     0.035 C 
BRANCH  15  16
ATOM     16  C   UNL     1      82.757  13.958  10.293  1.00  0.00     0.079 C 
BRANCH  16  17
ATOM     17  C   UNL     1      82.932  14.439  11.708  1.00  0.00     0.130 C 
ATOM     18  O   UNL     1      83.748  15.314  11.954  1.00  0.00    -0.300 OA
ATOM     19  C   UNL     1      82.090  13.875  12.812  1.00  0.00     0.087 C 
ENDBRANCH  16  17
ENDBRANCH  15  16
ENDBRANCH  13  15
ENDBRANCH  11  12
ENDBRANCH   1  11
TORSDOF 9
ENDMDL
MODEL 2
REMARK VINA RESULT:    -3.938      1.899      3.217
REMARK INTER + INTRA:          -6.905
REMARK INTER:                  -6.884
REMARK INTRA:                  -0.021
REMARK UNBOUND:                -0.895
REMARK SMILES CC(=O)CCC=C(C)CCC=C(C)CCC=C(C)C
REMARK SMILES IDX 10 1 11 2 12 3 13 4 14 5 15 6 16 7 18 8 17 9 19 10 9 11 7 12
REMARK SMILES IDX 6 13 8 14 5 15 4 16 2 17 3 18 1 19
REMARK H PARENT
REMARK Flexibility Score: inf
ROOT
ATOM      1  C   UNL     1      78.011  15.013   3.591  1.00  0.00     0.032 C 
ENDROOT
BRANCH   1   2
ATOM      2  C   UNL     1      78.690  14.493   2.350  1.00  0.00    -0.028 C 
ATOM      3  C   UNL     1      78.581  15.041   1.116  1.00  0.00    -0.077 C 
ATOM      4  C   UNL     1      79.324  14.388  -0.020  1.00  0.00     0.039 C 
BRANCH   3   5
ATOM      5  C   UNL     1      77.791  16.307   0.831  1.00  0.00     0.034 C 
BRANCH   5   6
ATOM      6  C   UNL     1      78.155  17.443   1.799  1.00  0.00     0.032 C 
BRANCH   6   7
ATOM      7  C   UNL     1      79.341  18.242   1.318  1.00  0.00    -0.028 C 
ATOM      8  C   UNL     1      80.428  18.304   3.574  1.00  0.00     0.039 C 
ATOM      9  C   UNL     1      80.381  18.616   2.097  1.00  0.00    -0.080 C 
ATOM     10  C   UNL     1      81.521  19.367   1.460  1.00  0.00     0.039 C 
ENDBRANCH   6   7
ENDBRANCH   5   6
ENDBRANCH   3   5
ENDBRANCH   1   2
BRANCH   1  11
ATOM     11  C   UNL     1      79.037  15.526   4.609  1.00  0.00     0.034 C 
BRANCH  11  12
ATOM     12  C   UNL     1      80.117  14.491   4.843  1.00  0.00    -0.077 C 
ATOM     13  C   UNL     1      80.309  13.875   6.033  1.00  0.00    -0.028 C 
ATOM     14  C   UNL     1      80.995  14.091   3.686  1.00  0.00     0.039 C 
BRANCH  13  15
ATOM     15  C   UNL     1      79.552  14.170   7.307  1.00  0.00     0.035 C 
BRANCH  15  16
ATOM     16  C   UNL     1      80.493  14.178   8.518  1.00  0.00     0.079 C 
BRANCH  16  17
ATOM     17  C   UNL     1      80.694  15.568   9.059  1.00  0.00     0.130 C 
ATOM     18  O   UNL     1      80.136  16.514   8.524  1.00  0.00    -0.300 OA
ATOM     19  C   UNL     1      81.546  15.795  10.271  1.00  0.00     0.087 C 
ENDBRANCH  16  17
ENDBRANCH  15  16
ENDBRANCH  13  15
ENDBRANCH  11  12
ENDBRANCH   1  11
TORSDOF 9
ENDMDL
MODEL 3
REMARK VINA RESULT:    -2.938      3.175      9.267
REMARK INTER + INTRA:          -5.379
REMARK INTER:                  -4.941
REMARK INTRA:                  -0.438
REMARK UNBOUND:                -0.895
REMARK SMILES CC(=O)CCC=C(C)CCC=C(C)CCC=C(C)C
REMARK SMILES IDX 10 1 11 2 12 3 13 4 14 5 15 6 16 7 18 8 17 9 19 10 9 11 7 12
REMARK SMILES IDX 6 13 8 14 5 15 4 16 2 17 3 18 1 19
REMARK H PARENT
REMARK Flexibility Score: inf
ROOT
ATOM      1  C   UNL     1      80.049  14.394   5.960  1.00  0.00     0.032 C 
ENDROOT
BRANCH   1   2
ATOM      2  C   UNL     1      79.813  15.326   7.121  1.00  0.00    -0.028 C 
ATOM      3  C   UNL     1      80.293  15.145   8.375  1.00  0.00    -0.077 C 
ATOM      4  C   UNL     1      79.953  16.174   9.421  1.00  0.00     0.039 C 
BRANCH   3   5
ATOM      5  C   UNL     1      81.195  13.987   8.765  1.00  0.00     0.034 C 
BRANCH   5   6
ATOM      6  C   UNL     1      81.362  13.875  10.288  1.00  0.00     0.032 C 
BRANCH   6   7
ATOM      7  C   UNL     1      82.760  14.225  10.734  1.00  0.00    -0.028 C 
ATOM      8  C   UNL     1      82.186  14.137  13.171  1.00  0.00     0.039 C 
ATOM      9  C   UNL     1      83.152  14.324  12.024  1.00  0.00    -0.080 C 
ATOM     10  C   UNL     1      84.598  14.630  12.314  1.00  0.00     0.039 C 
ENDBRANCH   6   7
ENDBRANCH   5   6
ENDBRANCH   3   5
ENDBRANCH   1   2
BRANCH   1  11
ATOM     11  C   UNL     1      79.140  14.745   4.776  1.00  0.00     0.034 C 
BRANCH  11  12
ATOM     12  C   UNL     1      79.864  14.518   3.465  1.00  0.00    -0.077 C 
ATOM     13  C   UNL     1      79.358  14.887   2.265  1.00  0.00    -0.028 C 
ATOM     14  C   UNL     1      81.234  13.892   3.497  1.00  0.00     0.039 C 
BRANCH  13  15
ATOM     15  C   UNL     1      77.993  15.493   2.035  1.00  0.00     0.035 C 
BRANCH  15  16
ATOM     16  C   UNL     1      77.965  16.314   0.741  1.00  0.00     0.079 C 
BRANCH  16  17
ATOM     17  C   UNL     1      78.504  17.704   0.950  1.00  0.00     0.130 C 
ATOM     18  O   UNL     1      77.876  18.667   0.537  1.00  0.00    -0.300 OA
ATOM     19  C   UNL     1      79.790  17.916   1.690  1.00  0.00     0.087 C 
ENDBRANCH  16  17
ENDBRANCH  15  16
ENDBRANCH  13  15
ENDBRANCH  11  12
ENDBRANCH   1  11
TORSDOF 9
ENDMDL
MODEL 4
REMARK VINA RESULT:    -2.625      1.449      2.572
REMARK INTER + INTRA:          -4.902
REMARK INTER:                  -4.520
REMARK INTRA:                  -0.382
REMARK UNBOUND:                -0.895
REMARK SMILES CC(=O)CCC=C(C)CCC=C(C)CCC=C(C)C
REMARK SMILES IDX 10 1 11 2 12 3 13 4 14 5 15 6 16 7 18 8 17 9 19 10 9 11 7 12
REMARK SMILES IDX 6 13 8 14 5 15 4 16 2 17 3 18 1 19
REMARK H PARENT
REMARK Flexibility Score: inf
ROOT
ATOM      1  C   UNL     1      79.180  17.095   6.895  1.00  0.00     0.032 C 
ENDROOT
BRANCH   1   2
ATOM      2  C   UNL     1      79.808  17.867   5.764  1.00  0.00    -0.028 C 
ATOM      3  C   UNL     1      79.935  17.419   4.492  1.00  0.00    -0.077 C 
ATOM      4  C   UNL     1      80.598  18.320   3.483  1.00  0.00     0.039 C 
BRANCH   3   5
ATOM      5  C   UNL     1      79.397  16.078   4.021  1.00  0.00     0.034 C 
BRANCH   5   6
ATOM      6  C   UNL     1      80.208  15.514   2.844  1.00  0.00     0.032 C 
BRANCH   6   7
ATOM      7  C   UNL     1      79.333  14.811   1.836  1.00  0.00    -0.028 C 
ATOM      8  C   UNL     1      78.658  16.934   0.690  1.00  0.00     0.039 C 
ATOM      9  C   UNL     1      78.649  15.432   0.848  1.00  0.00    -0.080 C 
ATOM     10  C   UNL     1      77.859  14.589  -0.117  1.00  0.00     0.039 C 
ENDBRANCH   6   7
ENDBRANCH   5   6
ENDBRANCH   3   5
ENDBRANCH   1   2
BRANCH   1  11
ATOM     11  C   UNL     1      80.237  16.307   7.680  1.00  0.00     0.034 C 
BRANCH  11  12
ATOM     12  C   UNL     1      79.980  14.818   7.569  1.00  0.00    -0.077 C 
ATOM     13  C   UNL     1      80.637  13.895   8.308  1.00  0.00    -0.028 C 
ATOM     14  C   UNL     1      78.907  14.340   6.624  1.00  0.00     0.039 C 
BRANCH  13  15
ATOM     15  C   UNL     1      81.761  14.182   9.276  1.00  0.00     0.035 C 
BRANCH  15  16
ATOM     16  C   UNL     1      81.407  15.352  10.202  1.00  0.00     0.079 C 
BRANCH  16  17
ATOM     17  C   UNL     1      82.415  15.514  11.307  1.00  0.00     0.130 C 
ATOM     18  O   UNL     1      82.805  16.631  11.613  1.00  0.00    -0.300 OA
ATOM     19  C   UNL     1      82.917  14.319  12.058  1.00  0.00     0.087 C 
ENDBRANCH  16  17
ENDBRANCH  15  16
ENDBRANCH  13  15
ENDBRANCH  11  12
ENDBRANCH   1  11
TORSDOF 9
ENDMDL
MODEL 5
REMARK VINA RESULT:    -1.999      1.981      3.572
REMARK INTER + INTRA:          -3.947
REMARK INTER:                  -3.336
REMARK INTRA:                  -0.610
REMARK UNBOUND:                -0.895
REMARK SMILES CC(=O)CCC=C(C)CCC=C(C)CCC=C(C)C
REMARK SMILES IDX 10 1 11 2 12 3 13 4 14 5 15 6 16 7 18 8 17 9 19 10 9 11 7 12
REMARK SMILES IDX 6 13 8 14 5 15 4 16 2 17 3 18 1 19
REMARK H PARENT
REMARK Flexibility Score: inf
ROOT
ATOM      1  C   UNL     1      79.617  17.136   4.693  1.00  0.00     0.032 C 
ENDROOT
BRANCH   1   2
ATOM      2  C   UNL     1      80.245  18.092   3.712  1.00  0.00    -0.028 C 
ATOM      3  C   UNL     1      79.943  18.163   2.393  1.00  0.00    -0.077 C 
ATOM      4  C   UNL     1      80.675  19.175   1.550  1.00  0.00     0.039 C 
BRANCH   3   5
ATOM      5  C   UNL     1      78.870  17.313   1.734  1.00  0.00     0.034 C 
BRANCH   5   6
ATOM      6  C   UNL     1      78.161  18.063   0.596  1.00  0.00     0.032 C 
BRANCH   6   7
ATOM      7  C   UNL     1      77.813  19.481   0.979  1.00  0.00    -0.028 C 
ATOM      8  C   UNL     1      75.565  19.407  -0.125  1.00  0.00     0.039 C 
ATOM      9  C   UNL     1      76.643  20.090   0.684  1.00  0.00    -0.080 C 
ATOM     10  C   UNL     1      76.419  21.494   1.181  1.00  0.00     0.039 C 
ENDBRANCH   6   7
ENDBRANCH   5   6
ENDBRANCH   3   5
ENDBRANCH   1   2
BRANCH   1  11
ATOM     11  C   UNL     1      80.316  15.772   4.662  1.00  0.00     0.034 C 
BRANCH  11  12
ATOM     12  C   UNL     1      79.340  14.666   5.003  1.00  0.00    -0.077 C 
ATOM     13  C   UNL     1      79.449  13.894   6.109  1.00  0.00    -0.028 C 
ATOM     14  C   UNL     1      78.160  14.440   4.093  1.00  0.00     0.039 C 
BRANCH  13  15
ATOM     15  C   UNL     1      80.577  13.952   7.113  1.00  0.00     0.035 C 
BRANCH  15  16
ATOM     16  C   UNL     1      80.053  14.294   8.513  1.00  0.00     0.079 C 
BRANCH  16  17
ATOM     17  C   UNL     1      80.651  15.571   9.036  1.00  0.00     0.130 C 
ATOM     18  O   UNL     1      80.425  16.626   8.463  1.00  0.00    -0.300 OA
ATOM     19  C   UNL     1      81.494  15.564  10.275  1.00  0.00     0.087 C 
ENDBRANCH  16  17
ENDBRANCH  15  16
ENDBRANCH  13  15
ENDBRANCH  11  12
ENDBRANCH   1  11
TORSDOF 9
ENDMDL
