MODEL 1
REMARK VINA RESULT:    -3.930      0.000      0.000
REMARK INTER + INTRA:          -5.556
REMARK INTER:                  -5.193
REMARK INTRA:                  -0.363
REMARK UNBOUND:                -0.363
REMARK SMILES C=C[C@H](O)CCCCC
REMARK SMILES IDX 6 1 7 2 8 3 9 4 5 5 3 6 2 7 1 8 4 9
REMARK H PARENT 4 10
REMARK Flexibility Score: inf
ROOT
ATOM      1  C   UNL     1     125.888 121.739 112.498  1.00  0.00     0.003 C 
ENDROOT
BRANCH   1   2
ATOM      2  C   UNL     1     124.362 121.799 112.351  1.00  0.00    -0.000 C 
BRANCH   2   3
ATOM      3  C   UNL     1     123.748 120.395 112.413  1.00  0.00    -0.003 C 
ATOM      4  C   UNL     1     122.421 120.340 111.663  1.00  0.00     0.004 C 
ENDBRANCH   2   3
ENDBRANCH   1   2
BRANCH   1   5
ATOM      5  C   UNL     1     126.410 120.316 112.252  1.00  0.00     0.036 C 
BRANCH   5   6
ATOM      6  C   UNL     1     127.332 119.829 113.390  1.00  0.00     0.136 C 
BRANCH   6   7
ATOM      7  C   UNL     1     127.390 120.795 114.554  1.00  0.00    -0.004 C 
ATOM      8  C   UNL     1     127.018 120.458 115.794  1.00  0.00     0.007 C 
ENDBRANCH   6   7
BRANCH   6   9
ATOM      9  O   UNL     1     128.625 119.558 112.909  1.00  0.00    -0.389 OA
ATOM     10  H   UNL     1     128.548 118.886 112.183  1.00  0.00     0.211 HD
ENDBRANCH   6   9
ENDBRANCH   5   6
ENDBRANCH   1   5
TORSDOF 6
ENDMDL
MODEL 2
REMARK VINA RESULT:    -3.908     17.302     18.488
REMARK INTER + INTRA:          -5.527
REMARK INTER:                  -4.963
REMARK INTRA:                  -0.563
REMARK UNBOUND:                -0.363
REMARK SMILES C=C[C@H](O)CCCCC
REMARK SMILES IDX 6 1 7 2 8 3 9 4 5 5 3 6 2 7 1 8 4 9
REMARK H PARENT 4 10
REMARK Flexibility Score: inf
ROOT
ATOM      1  C   UNL     1     113.505 118.778 127.876  1.00  0.00     0.003 C 
ENDROOT
BRANCH   1   2
ATOM      2  C   UNL     1     114.409 117.676 127.310  1.00  0.00    -0.000 C 
BRANCH   2   3
ATOM      3  C   UNL     1     115.889 118.056 127.443  1.00  0.00    -0.003 C 
ATOM      4  C   UNL     1     116.280 119.119 126.422  1.00  0.00     0.004 C 
ENDBRANCH   2   3
ENDBRANCH   1   2
BRANCH   1   5
ATOM      5  C   UNL     1     112.401 119.152 126.877  1.00  0.00     0.036 C 
BRANCH   5   6
ATOM      6  C   UNL     1     112.701 118.630 125.455  1.00  0.00     0.136 C 
BRANCH   6   7
ATOM      7  C   UNL     1     112.907 119.744 124.451  1.00  0.00    -0.004 C 
ATOM      8  C   UNL     1     113.300 120.974 124.804  1.00  0.00     0.007 C 
ENDBRANCH   6   7
BRANCH   6   9
ATOM      9  O   UNL     1     111.693 117.752 125.017  1.00  0.00    -0.389 OA
ATOM     10  H   UNL     1     111.124 118.239 124.367  1.00  0.00     0.211 HD
ENDBRANCH   6   9
ENDBRANCH   5   6
ENDBRANCH   1   5
TORSDOF 6
ENDMDL
MODEL 3
REMARK VINA RESULT:    -3.808      1.889      2.172
REMARK INTER + INTRA:          -5.396
REMARK INTER:                  -5.133
REMARK INTRA:                  -0.263
REMARK UNBOUND:                -0.363
REMARK SMILES C=C[C@H](O)CCCCC
REMARK SMILES IDX 6 1 7 2 8 3 9 4 5 5 3 6 2 7 1 8 4 9
REMARK H PARENT 4 10
REMARK Flexibility Score: inf
ROOT
ATOM      1  C   UNL     1     124.951 121.968 112.582  1.00  0.00     0.003 C 
ENDROOT
BRANCH   1   2
ATOM      2  C   UNL     1     124.380 120.597 112.200  1.00  0.00    -0.000 C 
BRANCH   2   3
ATOM      3  C   UNL     1     122.900 120.705 111.813  1.00  0.00    -0.003 C 
ATOM      4  C   UNL     1     122.076 119.601 112.467  1.00  0.00     0.004 C 
ENDBRANCH   2   3
ENDBRANCH   1   2
BRANCH   1   5
ATOM      5  C   UNL     1     125.193 122.062 114.095  1.00  0.00     0.036 C 
BRANCH   5   6
ATOM      6  C   UNL     1     126.696 122.109 114.444  1.00  0.00     0.136 C 
BRANCH   6   7
ATOM      7  C   UNL     1     127.104 121.040 115.434  1.00  0.00    -0.004 C 
ATOM      8  C   UNL     1     127.041 119.732 115.156  1.00  0.00     0.007 C 
ENDBRANCH   6   7
BRANCH   6   9
ATOM      9  O   UNL     1     127.065 123.382 114.912  1.00  0.00    -0.389 OA
ATOM     10  H   UNL     1     127.877 123.279 115.473  1.00  0.00     0.211 HD
ENDBRANCH   6   9
ENDBRANCH   5   6
ENDBRANCH   1   5
TORSDOF 6
ENDMDL
MODEL 4
REMARK VINA RESULT:    -3.782     16.492     17.523
REMARK INTER + INTRA:          -5.360
REMARK INTER:                  -5.233
REMARK INTRA:                  -0.127
REMARK UNBOUND:                -0.363
REMARK SMILES C=C[C@H](O)CCCCC
REMARK SMILES IDX 6 1 7 2 8 3 9 4 5 5 3 6 2 7 1 8 4 9
REMARK H PARENT 4 10
REMARK Flexibility Score: inf
ROOT
ATOM      1  C   UNL     1     111.939 119.446 123.097  1.00  0.00     0.003 C 
ENDROOT
BRANCH   1   2
ATOM      2  C   UNL     1     112.774 120.032 121.952  1.00  0.00    -0.000 C 
BRANCH   2   3
ATOM      3  C   UNL     1     111.900 120.860 121.001  1.00  0.00    -0.003 C 
ATOM      4  C   UNL     1     112.601 122.150 120.591  1.00  0.00     0.004 C 
ENDBRANCH   2   3
ENDBRANCH   1   2
BRANCH   1   5
ATOM      5  C   UNL     1     112.518 119.847 124.462  1.00  0.00     0.036 C 
BRANCH   5   6
ATOM      6  C   UNL     1     112.198 118.809 125.559  1.00  0.00     0.136 C 
BRANCH   6   7
ATOM      7  C   UNL     1     113.386 118.504 126.445  1.00  0.00    -0.004 C 
ATOM      8  C   UNL     1     113.473 118.928 127.711  1.00  0.00     0.007 C 
ENDBRANCH   6   7
BRANCH   6   9
ATOM      9  O   UNL     1     111.684 117.626 124.999  1.00  0.00    -0.389 OA
ATOM     10  H   UNL     1     112.198 116.862 125.368  1.00  0.00     0.211 HD
ENDBRANCH   6   9
ENDBRANCH   5   6
ENDBRANCH   1   5
TORSDOF 6
ENDMDL
MODEL 5
REMARK VINA RESULT:    -3.748      2.787      4.330
REMARK INTER + INTRA:          -5.316
REMARK INTER:                  -4.761
REMARK INTRA:                  -0.555
REMARK UNBOUND:                -0.363
REMARK SMILES C=C[C@H](O)CCCCC
REMARK SMILES IDX 6 1 7 2 8 3 9 4 5 5 3 6 2 7 1 8 4 9
REMARK H PARENT 4 10
REMARK Flexibility Score: inf
ROOT
ATOM      1  C   UNL     1     125.229 120.312 112.226  1.00  0.00     0.003 C 
ENDROOT
BRANCH   1   2
ATOM      2  C   UNL     1     124.943 121.796 112.488  1.00  0.00    -0.000 C 
BRANCH   2   3
ATOM      3  C   UNL     1     125.401 122.205 113.894  1.00  0.00    -0.003 C 
ATOM      4  C   UNL     1     126.146 121.067 114.584  1.00  0.00     0.004 C 
ENDBRANCH   2   3
ENDBRANCH   1   2
BRANCH   1   5
ATOM      5  C   UNL     1     123.945 119.563 111.841  1.00  0.00     0.036 C 
BRANCH   5   6
ATOM      6  C   UNL     1     122.679 120.264 112.378  1.00  0.00     0.136 C 
BRANCH   6   7
ATOM      7  C   UNL     1     121.999 119.484 113.483  1.00  0.00    -0.004 C 
ATOM      8  C   UNL     1     122.489 119.411 114.726  1.00  0.00     0.007 C 
ENDBRANCH   6   7
BRANCH   6   9
ATOM      9  O   UNL     1     121.774 120.536 111.337  1.00  0.00    -0.389 OA
ATOM     10  H   UNL     1     121.473 119.669 110.958  1.00  0.00     0.211 HD
ENDBRANCH   6   9
ENDBRANCH   5   6
ENDBRANCH   1   5
TORSDOF 6
ENDMDL
MODEL 6
REMARK VINA RESULT:    -3.727     16.412     17.574
REMARK INTER + INTRA:          -5.289
REMARK INTER:                  -4.773
REMARK INTRA:                  -0.516
REMARK UNBOUND:                -0.363
REMARK SMILES C=C[C@H](O)CCCCC
REMARK SMILES IDX 6 1 7 2 8 3 9 4 5 5 3 6 2 7 1 8 4 9
REMARK H PARENT 4 10
REMARK Flexibility Score: inf
ROOT
ATOM      1  C   UNL     1     111.948 118.386 125.002  1.00  0.00     0.003 C 
ENDROOT
BRANCH   1   2
ATOM      2  C   UNL     1     112.447 119.050 126.291  1.00  0.00    -0.000 C 
BRANCH   2   3
ATOM      3  C   UNL     1     113.662 118.307 126.858  1.00  0.00    -0.003 C 
ATOM      4  C   UNL     1     114.967 118.925 126.365  1.00  0.00     0.004 C 
ENDBRANCH   2   3
ENDBRANCH   1   2
BRANCH   1   5
ATOM      5  C   UNL     1     111.793 119.417 123.875  1.00  0.00     0.036 C 
BRANCH   5   6
ATOM      6  C   UNL     1     113.150 119.802 123.247  1.00  0.00     0.136 C 
BRANCH   6   7
ATOM      7  C   UNL     1     113.383 121.297 123.221  1.00  0.00    -0.004 C 
ATOM      8  C   UNL     1     113.822 121.980 124.285  1.00  0.00     0.007 C 
ENDBRANCH   6   7
BRANCH   6   9
ATOM      9  O   UNL     1     113.280 119.260 121.956  1.00  0.00    -0.389 OA
ATOM     10  H   UNL     1     113.873 119.857 121.430  1.00  0.00     0.211 HD
ENDBRANCH   6   9
ENDBRANCH   5   6
ENDBRANCH   1   5
TORSDOF 6
ENDMDL
MODEL 7
REMARK VINA RESULT:    -3.722     16.903     17.769
REMARK INTER + INTRA:          -5.281
REMARK INTER:                  -5.086
REMARK INTRA:                  -0.195
REMARK UNBOUND:                -0.363
REMARK SMILES C=C[C@H](O)CCCCC
REMARK SMILES IDX 6 1 7 2 8 3 9 4 5 5 3 6 2 7 1 8 4 9
REMARK H PARENT 4 10
REMARK Flexibility Score: inf
ROOT
ATOM      1  C   UNL     1     113.057 121.172 124.590  1.00  0.00     0.003 C 
ENDROOT
BRANCH   1   2
ATOM      2  C   UNL     1     114.429 121.755 124.230  1.00  0.00    -0.000 C 
BRANCH   2   3
ATOM      3  C   UNL     1     114.285 123.106 123.519  1.00  0.00    -0.003 C 
ATOM      4  C   UNL     1     114.603 124.262 124.460  1.00  0.00     0.004 C 
ENDBRANCH   2   3
ENDBRANCH   1   2
BRANCH   1   5
ATOM      5  C   UNL     1     113.038 119.649 124.400  1.00  0.00     0.036 C 
BRANCH   5   6
ATOM      6  C   UNL     1     112.361 118.923 125.582  1.00  0.00     0.136 C 
BRANCH   6   7
ATOM      7  C   UNL     1     113.340 118.513 126.661  1.00  0.00    -0.004 C 
ATOM      8  C   UNL     1     113.246 118.940 127.925  1.00  0.00     0.007 C 
ENDBRANCH   6   7
BRANCH   6   9
ATOM      9  O   UNL     1     111.625 117.811 125.136  1.00  0.00    -0.389 OA
ATOM     10  H   UNL     1     111.214 117.377 125.928  1.00  0.00     0.211 HD
ENDBRANCH   6   9
ENDBRANCH   5   6
ENDBRANCH   1   5
TORSDOF 6
ENDMDL
MODEL 8
REMARK VINA RESULT:    -3.670     17.191     18.266
REMARK INTER + INTRA:          -5.213
REMARK INTER:                  -4.654
REMARK INTRA:                  -0.559
REMARK UNBOUND:                -0.363
REMARK SMILES C=C[C@H](O)CCCCC
REMARK SMILES IDX 6 1 7 2 8 3 9 4 5 5 3 6 2 7 1 8 4 9
REMARK H PARENT 4 10
REMARK Flexibility Score: inf
ROOT
ATOM      1  C   UNL     1     112.385 119.141 126.888  1.00  0.00     0.003 C 
ENDROOT
BRANCH   1   2
ATOM      2  C   UNL     1     113.597 118.963 127.811  1.00  0.00    -0.000 C 
BRANCH   2   3
ATOM      3  C   UNL     1     114.334 117.653 127.507  1.00  0.00    -0.003 C 
ATOM      4  C   UNL     1     115.843 117.823 127.650  1.00  0.00     0.004 C 
ENDBRANCH   2   3
ENDBRANCH   1   2
BRANCH   1   5
ATOM      5  C   UNL     1     112.756 118.843 125.428  1.00  0.00     0.036 C 
BRANCH   5   6
ATOM      6  C   UNL     1     112.822 120.125 124.571  1.00  0.00     0.136 C 
BRANCH   6   7
ATOM      7  C   UNL     1     114.212 120.720 124.509  1.00  0.00    -0.004 C 
ATOM      8  C   UNL     1     115.322 119.982 124.633  1.00  0.00     0.007 C 
ENDBRANCH   6   7
BRANCH   6   9
ATOM      9  O   UNL     1     111.895 121.081 125.021  1.00  0.00    -0.389 OA
ATOM     10  H   UNL     1     112.200 121.410 125.907  1.00  0.00     0.211 HD
ENDBRANCH   6   9
ENDBRANCH   5   6
ENDBRANCH   1   5
TORSDOF 6
ENDMDL
MODEL 9
REMARK VINA RESULT:    -3.661     16.275     17.726
REMARK INTER + INTRA:          -5.201
REMARK INTER:                  -4.974
REMARK INTRA:                  -0.227
REMARK UNBOUND:                -0.363
REMARK SMILES C=C[C@H](O)CCCCC
REMARK SMILES IDX 6 1 7 2 8 3 9 4 5 5 3 6 2 7 1 8 4 9
REMARK H PARENT 4 10
REMARK Flexibility Score: inf
ROOT
ATOM      1  C   UNL     1     111.728 118.765 124.323  1.00  0.00     0.003 C 
ENDROOT
BRANCH   1   2
ATOM      2  C   UNL     1     112.258 118.326 125.693  1.00  0.00    -0.000 C 
BRANCH   2   3
ATOM      3  C   UNL     1     113.374 119.260 126.177  1.00  0.00    -0.003 C 
ATOM      4  C   UNL     1     113.685 119.029 127.652  1.00  0.00     0.004 C 
ENDBRANCH   2   3
ENDBRANCH   1   2
BRANCH   1   5
ATOM      5  C   UNL     1     112.285 120.141 123.932  1.00  0.00     0.036 C 
BRANCH   5   6
ATOM      6  C   UNL     1     112.653 120.217 122.434  1.00  0.00     0.136 C 
BRANCH   6   7
ATOM      7  C   UNL     1     111.439 120.237 121.531  1.00  0.00    -0.004 C 
ATOM      8  C   UNL     1     111.492 120.639 120.255  1.00  0.00     0.007 C 
ENDBRANCH   6   7
BRANCH   6   9
ATOM      9  O   UNL     1     113.519 119.169 122.075  1.00  0.00    -0.389 OA
ATOM     10  H   UNL     1     114.168 119.040 122.815  1.00  0.00     0.211 HD
ENDBRANCH   6   9
ENDBRANCH   5   6
ENDBRANCH   1   5
TORSDOF 6
ENDMDL
