MODEL 1
REMARK VINA RESULT:    -4.572      0.000      0.000
REMARK INTER + INTRA:          -6.602
REMARK INTER:                  -6.176
REMARK INTRA:                  -0.425
REMARK UNBOUND:                -0.425
REMARK SMILES CCCCCCCC(=O)[O-]
REMARK SMILES IDX 5 1 6 2 7 3 8 4 9 5 10 6 4 7 3 8 2 9 1 10
REMARK H PARENT
REMARK Flexibility Score: inf
ROOT
ATOM      1  C   UNL     1      18.979  -5.729  23.558  1.00  0.00     0.000 C 
ENDROOT
BRANCH   1   2
ATOM      2  C   UNL     1      18.218  -7.057  23.731  1.00  0.00     0.006 C 
BRANCH   2   3
ATOM      3  C   UNL     1      19.105  -8.250  24.125  1.00  0.00     0.053 C 
BRANCH   3   4
ATOM      4  C   UNL     1      20.395  -8.266  23.365  1.00  0.00     0.041 C 
ATOM      5  O   UNL     1      21.464  -7.903  23.924  1.00  0.00    -0.550 OA
ATOM      6  O   UNL     1      20.411  -8.651  22.031  1.00  0.00    -0.550 OA
ENDBRANCH   3   4
ENDBRANCH   2   3
ENDBRANCH   1   2
BRANCH   1   7
ATOM      7  C   UNL     1      18.652  -5.023  22.231  1.00  0.00     0.000 C 
BRANCH   7   8
ATOM      8  C   UNL     1      19.674  -5.338  21.127  1.00  0.00    -0.000 C 
BRANCH   8   9
ATOM      9  C   UNL     1      19.015  -5.877  19.847  1.00  0.00    -0.003 C 
ATOM     10  C   UNL     1      18.193  -7.129  20.139  1.00  0.00     0.004 C 
ENDBRANCH   8   9
ENDBRANCH   7   8
ENDBRANCH   1   7
TORSDOF 6
ENDMDL
MODEL 2
REMARK VINA RESULT:    -4.054      1.064      2.065
REMARK INTER + INTRA:          -5.901
REMARK INTER:                  -5.954
REMARK INTRA:                   0.053
REMARK UNBOUND:                -0.425
REMARK SMILES CCCCCCCC(=O)[O-]
REMARK SMILES IDX 5 1 6 2 7 3 8 4 9 5 10 6 4 7 3 8 2 9 1 10
REMARK H PARENT
REMARK Flexibility Score: inf
ROOT
ATOM      1  C   UNL     1      18.849  -7.991  21.413  1.00  0.00     0.000 C 
ENDROOT
BRANCH   1   2
ATOM      2  C   UNL     1      17.895  -8.193  22.605  1.00  0.00     0.006 C 
BRANCH   2   3
ATOM      3  C   UNL     1      18.510  -7.857  23.974  1.00  0.00     0.053 C 
BRANCH   3   4
ATOM      4  C   UNL     1      19.985  -7.619  23.884  1.00  0.00     0.041 C 
ATOM      5  O   UNL     1      20.460  -6.477  24.125  1.00  0.00    -0.550 OA
ATOM      6  O   UNL     1      20.834  -8.651  23.504  1.00  0.00    -0.550 OA
ENDBRANCH   3   4
ENDBRANCH   2   3
ENDBRANCH   1   2
BRANCH   1   7
ATOM      7  C   UNL     1      18.223  -7.155  20.284  1.00  0.00     0.000 C 
BRANCH   7   8
ATOM      8  C   UNL     1      19.048  -5.902  19.949  1.00  0.00    -0.000 C 
BRANCH   8   9
ATOM      9  C   UNL     1      19.651  -5.240  21.198  1.00  0.00    -0.003 C 
ATOM     10  C   UNL     1      18.563  -4.614  22.066  1.00  0.00     0.004 C 
ENDBRANCH   8   9
ENDBRANCH   7   8
ENDBRANCH   1   7
TORSDOF 6
ENDMDL
MODEL 3
REMARK VINA RESULT:    -4.047      1.982      4.014
REMARK INTER + INTRA:          -5.892
REMARK INTER:                  -5.764
REMARK INTRA:                  -0.127
REMARK UNBOUND:                -0.425
REMARK SMILES CCCCCCCC(=O)[O-]
REMARK SMILES IDX 5 1 6 2 7 3 8 4 9 5 10 6 4 7 3 8 2 9 1 10
REMARK H PARENT
REMARK Flexibility Score: inf
ROOT
ATOM      1  C   UNL     1      18.799  -7.938  21.568  1.00  0.00     0.000 C 
ENDROOT
BRANCH   1   2
ATOM      2  C   UNL     1      18.189  -7.200  20.362  1.00  0.00     0.006 C 
BRANCH   2   3
ATOM      3  C   UNL     1      18.983  -5.965  19.905  1.00  0.00     0.053 C 
BRANCH   3   4
ATOM      4  C   UNL     1      19.625  -5.253  21.055  1.00  0.00     0.041 C 
ATOM      5  O   UNL     1      20.876  -5.275  21.196  1.00  0.00    -0.550 OA
ATOM      6  O   UNL     1      18.838  -4.591  21.989  1.00  0.00    -0.550 OA
ENDBRANCH   3   4
ENDBRANCH   2   3
ENDBRANCH   1   2
BRANCH   1   7
ATOM      7  C   UNL     1      17.908  -7.871  22.820  1.00  0.00     0.000 C 
BRANCH   7   8
ATOM      8  C   UNL     1      18.714  -7.976  24.125  1.00  0.00    -0.000 C 
BRANCH   8   9
ATOM      9  C   UNL     1      19.960  -7.078  24.125  1.00  0.00    -0.003 C 
ATOM     10  C   UNL     1      21.208  -7.872  23.750  1.00  0.00     0.004 C 
ENDBRANCH   8   9
ENDBRANCH   7   8
ENDBRANCH   1   7
TORSDOF 6
ENDMDL
MODEL 4
REMARK VINA RESULT:    -2.865     14.797     16.379
REMARK INTER + INTRA:          -4.295
REMARK INTER:                  -3.998
REMARK INTRA:                  -0.297
REMARK UNBOUND:                -0.425
REMARK SMILES CCCCCCCC(=O)[O-]
REMARK SMILES IDX 5 1 6 2 7 3 8 4 9 5 10 6 4 7 3 8 2 9 1 10
REMARK H PARENT
REMARK Flexibility Score: inf
ROOT
ATOM      1  C   UNL     1      17.386  -6.575   4.546  1.00  0.00     0.000 C 
ENDROOT
BRANCH   1   2
ATOM      2  C   UNL     1      18.281  -7.523   5.366  1.00  0.00     0.006 C 
BRANCH   2   3
ATOM      3  C   UNL     1      19.379  -6.816   6.178  1.00  0.00     0.053 C 
BRANCH   3   4
ATOM      4  C   UNL     1      19.369  -7.231   7.616  1.00  0.00     0.041 C 
ATOM      5  O   UNL     1      19.815  -8.360   7.954  1.00  0.00    -0.550 OA
ATOM      6  O   UNL     1      18.838  -6.384   8.581  1.00  0.00    -0.550 OA
ENDBRANCH   3   4
ENDBRANCH   2   3
ENDBRANCH   1   2
BRANCH   1   7
ATOM      7  C   UNL     1      15.993  -6.384   5.169  1.00  0.00     0.000 C 
BRANCH   7   8
ATOM      8  C   UNL     1      15.869  -7.041   6.554  1.00  0.00    -0.000 C 
BRANCH   8   9
ATOM      9  C   UNL     1      14.630  -7.942   6.673  1.00  0.00    -0.003 C 
ATOM     10  C   UNL     1      13.608  -7.614   5.587  1.00  0.00     0.004 C 
ENDBRANCH   8   9
ENDBRANCH   7   8
ENDBRANCH   1   7
TORSDOF 6
ENDMDL
MODEL 5
REMARK VINA RESULT:    -2.784     16.677     17.661
REMARK INTER + INTRA:          -4.186
REMARK INTER:                  -3.923
REMARK INTRA:                  -0.263
REMARK UNBOUND:                -0.425
REMARK SMILES CCCCCCCC(=O)[O-]
REMARK SMILES IDX 5 1 6 2 7 3 8 4 9 5 10 6 4 7 3 8 2 9 1 10
REMARK H PARENT
REMARK Flexibility Score: inf
ROOT
ATOM      1  C   UNL     1      18.691  -7.035   5.955  1.00  0.00     0.000 C 
ENDROOT
BRANCH   1   2
ATOM      2  C   UNL     1      20.059  -6.412   5.622  1.00  0.00     0.006 C 
BRANCH   2   3
ATOM      3  C   UNL     1      20.119  -5.700   4.260  1.00  0.00     0.053 C 
BRANCH   3   4
ATOM      4  C   UNL     1      21.306  -4.794   4.152  1.00  0.00     0.041 C 
ATOM      5  O   UNL     1      21.157  -3.544   4.204  1.00  0.00    -0.550 OA
ATOM      6  O   UNL     1      22.574  -5.329   3.962  1.00  0.00    -0.550 OA
ENDBRANCH   3   4
ENDBRANCH   2   3
ENDBRANCH   1   2
BRANCH   1   7
ATOM      7  C   UNL     1      17.659  -6.841   4.831  1.00  0.00     0.000 C 
BRANCH   7   8
ATOM      8  C   UNL     1      16.304  -6.336   5.355  1.00  0.00    -0.000 C 
BRANCH   8   9
ATOM      9  C   UNL     1      15.982  -6.860   6.763  1.00  0.00    -0.003 C 
ATOM     10  C   UNL     1      14.815  -7.843   6.728  1.00  0.00     0.004 C 
ENDBRANCH   8   9
ENDBRANCH   7   8
ENDBRANCH   1   7
TORSDOF 6
ENDMDL
MODEL 6
REMARK VINA RESULT:    -2.778     16.257     17.446
REMARK INTER + INTRA:          -4.177
REMARK INTER:                  -3.795
REMARK INTRA:                  -0.382
REMARK UNBOUND:                -0.425
REMARK SMILES CCCCCCCC(=O)[O-]
REMARK SMILES IDX 5 1 6 2 7 3 8 4 9 5 10 6 4 7 3 8 2 9 1 10
REMARK H PARENT
REMARK Flexibility Score: inf
ROOT
ATOM      1  C   UNL     1      19.689  -7.987   6.444  1.00  0.00     0.000 C 
ENDROOT
BRANCH   1   2
ATOM      2  C   UNL     1      20.503  -7.383   5.285  1.00  0.00     0.006 C 
BRANCH   2   3
ATOM      3  C   UNL     1      20.151  -5.922   4.955  1.00  0.00     0.053 C 
BRANCH   3   4
ATOM      4  C   UNL     1      21.362  -5.122   4.588  1.00  0.00     0.041 C 
ATOM      5  O   UNL     1      22.503  -5.656   4.602  1.00  0.00    -0.550 OA
ATOM      6  O   UNL     1      21.235  -3.778   4.261  1.00  0.00    -0.550 OA
ENDBRANCH   3   4
ENDBRANCH   2   3
ENDBRANCH   1   2
BRANCH   1   7
ATOM      7  C   UNL     1      18.473  -7.128   6.829  1.00  0.00     0.000 C 
BRANCH   7   8
ATOM      8  C   UNL     1      17.179  -7.593   6.141  1.00  0.00    -0.000 C 
BRANCH   8   9
ATOM      9  C   UNL     1      16.280  -6.421   5.718  1.00  0.00    -0.003 C 
ATOM     10  C   UNL     1      16.413  -6.139   4.224  1.00  0.00     0.004 C 
ENDBRANCH   8   9
ENDBRANCH   7   8
ENDBRANCH   1   7
TORSDOF 6
ENDMDL
MODEL 7
REMARK VINA RESULT:    -2.768     14.801     17.063
REMARK INTER + INTRA:          -4.164
REMARK INTER:                  -3.783
REMARK INTRA:                  -0.381
REMARK UNBOUND:                -0.425
REMARK SMILES CCCCCCCC(=O)[O-]
REMARK SMILES IDX 5 1 6 2 7 3 8 4 9 5 10 6 4 7 3 8 2 9 1 10
REMARK H PARENT
REMARK Flexibility Score: inf
ROOT
ATOM      1  C   UNL     1      17.888  -6.358   4.234  1.00  0.00     0.000 C 
ENDROOT
BRANCH   1   2
ATOM      2  C   UNL     1      16.392  -6.227   4.577  1.00  0.00     0.006 C 
BRANCH   2   3
ATOM      3  C   UNL     1      16.037  -6.605   6.025  1.00  0.00     0.053 C 
BRANCH   3   4
ATOM      4  C   UNL     1      14.783  -7.419   6.101  1.00  0.00     0.041 C 
ATOM      5  O   UNL     1      14.638  -8.276   7.013  1.00  0.00    -0.550 OA
ATOM      6  O   UNL     1      13.789  -7.256   5.145  1.00  0.00    -0.550 OA
ENDBRANCH   3   4
ENDBRANCH   2   3
ENDBRANCH   1   2
BRANCH   1   7
ATOM      7  C   UNL     1      18.578  -7.497   5.002  1.00  0.00     0.000 C 
BRANCH   7   8
ATOM      8  C   UNL     1      19.635  -6.985   5.994  1.00  0.00    -0.000 C 
BRANCH   8   9
ATOM      9  C   UNL     1      19.422  -7.526   7.417  1.00  0.00    -0.003 C 
ATOM     10  C   UNL     1      18.980  -6.415   8.365  1.00  0.00     0.004 C 
ENDBRANCH   8   9
ENDBRANCH   7   8
ENDBRANCH   1   7
TORSDOF 6
ENDMDL
MODEL 8
REMARK VINA RESULT:    -2.657     14.625     16.777
REMARK INTER + INTRA:          -4.014
REMARK INTER:                  -3.738
REMARK INTRA:                  -0.276
REMARK UNBOUND:                -0.425
REMARK SMILES CCCCCCCC(=O)[O-]
REMARK SMILES IDX 5 1 6 2 7 3 8 4 9 5 10 6 4 7 3 8 2 9 1 10
REMARK H PARENT
REMARK Flexibility Score: inf
ROOT
ATOM      1  C   UNL     1      18.778  -7.333   4.308  1.00  0.00     0.000 C 
ENDROOT
BRANCH   1   2
ATOM      2  C   UNL     1      18.275  -7.884   5.655  1.00  0.00     0.006 C 
BRANCH   2   3
ATOM      3  C   UNL     1      18.067  -6.816   6.741  1.00  0.00     0.053 C 
BRANCH   3   4
ATOM      4  C   UNL     1      19.039  -6.966   7.870  1.00  0.00     0.041 C 
ATOM      5  O   UNL     1      19.221  -6.019   8.680  1.00  0.00    -0.550 OA
ATOM      6  O   UNL     1      19.766  -8.141   8.009  1.00  0.00    -0.550 OA
ENDBRANCH   3   4
ENDBRANCH   2   3
ENDBRANCH   1   2
BRANCH   1   7
ATOM      7  C   UNL     1      19.590  -6.036   4.461  1.00  0.00     0.000 C 
BRANCH   7   8
ATOM      8  C   UNL     1      21.085  -6.299   4.704  1.00  0.00    -0.000 C 
BRANCH   8   9
ATOM      9  C   UNL     1      21.979  -5.170   4.169  1.00  0.00    -0.003 C 
ATOM     10  C   UNL     1      21.175  -3.892   3.948  1.00  0.00     0.004 C 
ENDBRANCH   8   9
ENDBRANCH   7   8
ENDBRANCH   1   7
TORSDOF 6
ENDMDL
