MODEL 1
REMARK VINA RESULT:     0.732      0.000      0.000
REMARK INTER + INTRA:           0.541
REMARK INTER:                   0.775
REMARK INTRA:                  -0.234
REMARK UNBOUND:                -0.234
REMARK SMILES CC1=CC[C@H]2[C@@H]3[C@@H](C(C)C)CC[C@@]2(C)[C@H]13
REMARK SMILES IDX 1 1 2 2 3 3 4 4 5 5 6 6 15 7 13 8 12 9 11 10 7 11 14 12 8 13
REMARK SMILES IDX 9 14 10 15
REMARK H PARENT
REMARK Flexibility Score: inf
ROOT
ATOM      1  C   UNL     1       3.257   8.472  14.442  1.00  0.00     0.039 C 
ATOM      2  C   UNL     1       4.124   8.043  13.296  1.00  0.00    -0.073 C 
ATOM      3  C   UNL     1       3.856   8.437  12.023  1.00  0.00    -0.027 C 
ATOM      4  C   UNL     1       4.764   7.948  10.889  1.00  0.00     0.031 C 
ATOM      5  C   UNL     1       5.918   7.060  11.461  1.00  0.00     0.003 C 
ATOM      6  C   UNL     1       6.505   7.795  12.689  1.00  0.00     0.004 C 
ATOM      7  C   UNL     1       5.355   7.157  13.506  1.00  0.00     0.024 C 
ATOM      8  C   UNL     1       5.380   6.013  12.461  1.00  0.00    -0.022 C 
ATOM      9  C   UNL     1       6.516   4.997  12.773  1.00  0.00     0.008 C 
ATOM     10  C   UNL     1       7.753   5.673  13.417  1.00  0.00     0.005 C 
ATOM     11  C   UNL     1       7.897   7.191  13.063  1.00  0.00    -0.005 C 
ATOM     12  C   UNL     1       4.060   5.276  12.129  1.00  0.00     0.012 C 
ENDROOT
BRANCH  11  13
ATOM     13  C   UNL     1       8.606   7.978  14.212  1.00  0.00    -0.014 C 
ATOM     14  C   UNL     1      10.036   8.387  13.808  1.00  0.00     0.007 C 
ATOM     15  C   UNL     1       7.831   9.244  14.622  1.00  0.00     0.007 C 
ENDBRANCH  11  13
TORSDOF 1
ENDMDL
