MODEL 1
REMARK VINA RESULT:    -0.451      0.000      0.000
REMARK INTER + INTRA:           1.279
REMARK INTER:                  -0.661
REMARK INTRA:                   1.941
REMARK UNBOUND:                 1.941
REMARK SMILES C=C1CC=CC(C)(C)CC=C(C)CCC1
REMARK SMILES IDX 2 1 1 2 15 3 14 4 13 5 11 6 12 7 10 8 3 10 4 11 5 12 6 13
REMARK SMILES IDX 7 14 8 15 9 16
REMARK H PARENT
REMARK Flexibility Score: 60.00
ROOT
ATOM      1  C   UNL     1     137.360 152.870 121.169  1.00  0.00    -0.074 C 
ATOM      2  C   UNL     1     138.275 152.887 120.185  1.00  0.00     0.008 C 
ENDROOT
BRANCH   1   3
ATOM      3  C   UNL     1     136.136 151.983 121.034  1.00  0.00     0.031 C 
BRANCH   3   4
ATOM      4  C   UNL     1     135.443 151.651 122.378  1.00  0.00     0.009 C 
BRANCH   4   5
ATOM      5  C   UNL     1     135.775 150.274 123.006  1.00  0.00     0.030 C 
BRANCH   5   6
ATOM      6  C   UNL     1     136.395 150.342 124.389  1.00  0.00    -0.077 C 
ATOM      7  C   UNL     1     137.336 149.240 124.807  1.00  0.00     0.039 C 
ATOM      8  C   UNL     1     136.216 151.373 125.252  1.00  0.00    -0.027 CG0
ATOM      9  G   UNL     1     135.231 152.513 125.105  1.00  0.00     0.000 G0
ENDBRANCH   5   6
ENDBRANCH   4   5
ENDBRANCH   3   4
ENDBRANCH   1   3
BRANCH   1  10
ATOM     10  C   UNL     1     137.552 153.749 122.392  1.00  0.00     0.057 C 
BRANCH  10  11
ATOM     11  C   UNL     1     136.302 154.556 122.666  1.00  0.00    -0.026 C 
ATOM     12  C   UNL     1     135.642 154.720 123.841  1.00  0.00    -0.024 C 
BRANCH  12  13
ATOM     13  C   UNL     1     135.811 153.959 125.161  1.00  0.00    -0.014 C 
ATOM     14  C   UNL     1     135.148 154.768 126.300  1.00  0.00     0.016 C 
ATOM     15  C   UNL     1     137.324 153.888 125.489  1.00  0.00     0.016 C 
BRANCH  13  16
ATOM     16  C   UNL     1     135.225 152.512 125.130  1.00  0.00     0.038 CG0
ATOM     17  G   UNL     1     136.212 151.371 125.257  1.00  0.00     0.000 G0
ENDBRANCH  13  16
ENDBRANCH  12  13
ENDBRANCH  10  11
ENDBRANCH   1  10
TORSDOF 0
ENDMDL
MODEL 2
REMARK VINA RESULT:    -0.377      1.967      3.968
REMARK INTER + INTRA:           1.388
REMARK INTER:                  -0.723
REMARK INTRA:                   2.111
REMARK UNBOUND:                 1.941
REMARK SMILES C=C1CC=CC(C)(C)CC=C(C)CCC1
REMARK SMILES IDX 2 1 1 2 15 3 14 4 13 5 11 6 12 7 10 8 3 10 4 11 5 12 6 13
REMARK SMILES IDX 7 14 8 15 9 16
REMARK H PARENT
REMARK Flexibility Score: 60.00
ROOT
ATOM      1  C   UNL     1     135.880 151.130 124.455  1.00  0.00    -0.074 C 
ATOM      2  C   UNL     1     136.445 149.917 124.339  1.00  0.00     0.008 C 
ENDROOT
BRANCH   1   3
ATOM      3  C   UNL     1     134.951 151.627 123.362  1.00  0.00     0.031 C 
BRANCH   3   4
ATOM      4  C   UNL     1     135.614 151.730 121.966  1.00  0.00     0.009 C 
BRANCH   4   5
ATOM      5  C   UNL     1     136.015 153.151 121.495  1.00  0.00     0.030 C 
BRANCH   5   6
ATOM      6  C   UNL     1     137.453 153.280 121.025  1.00  0.00    -0.077 C 
ATOM      7  C   UNL     1     137.905 152.431 119.864  1.00  0.00     0.039 C 
ATOM      8  C   UNL     1     138.342 154.166 121.537  1.00  0.00    -0.027 CG0
ATOM      9  G   UNL     1     138.157 155.022 122.772  1.00  0.00     0.000 G0
ENDBRANCH   5   6
ENDBRANCH   4   5
ENDBRANCH   3   4
ENDBRANCH   1   3
BRANCH   1  10
ATOM     10  C   UNL     1     136.191 151.995 125.663  1.00  0.00     0.057 C 
BRANCH  10  11
ATOM     11  C   UNL     1     135.837 153.441 125.386  1.00  0.00    -0.026 C 
ATOM     12  C   UNL     1     136.529 154.356 124.662  1.00  0.00    -0.024 C 
BRANCH  12  13
ATOM     13  C   UNL     1     137.964 154.284 124.127  1.00  0.00    -0.014 C 
ATOM     14  C   UNL     1     138.371 152.800 123.970  1.00  0.00     0.016 C 
ATOM     15  C   UNL     1     138.910 154.894 125.192  1.00  0.00     0.016 C 
BRANCH  13  16
ATOM     16  C   UNL     1     138.167 155.033 122.772  1.00  0.00     0.038 CG0
ATOM     17  G   UNL     1     138.352 154.176 121.538  1.00  0.00     0.000 G0
ENDBRANCH  13  16
ENDBRANCH  12  13
ENDBRANCH  10  11
ENDBRANCH   1  10
TORSDOF 0
ENDMDL
