MODEL 1
REMARK VINA RESULT:     4.360      0.000      0.000
REMARK INTER + INTRA:           4.614
REMARK INTER:                   4.614
REMARK INTRA:                   0.000
REMARK UNBOUND:                 0.000
REMARK SMILES O=c1ccc2cc(O)c(O)cc2o1
REMARK SMILES IDX 4 1 3 2 2 3 1 4 13 5 12 6 11 7 9 8 7 9 6 10 5 11 8 12 10 14
REMARK H PARENT 8 13 10 15
REMARK Flexibility Score: inf
ROOT
ATOM      1  C   UNL     1      -8.736  -7.183  19.876  1.00  0.00     0.019 A 
ATOM      2  C   UNL     1      -9.120  -7.912  21.001  1.00  0.00     0.094 A 
ATOM      3  C   UNL     1      -8.788  -7.426  22.270  1.00  0.00     0.336 A 
ATOM      4  O   UNL     1      -9.125  -8.071  23.297  1.00  0.00    -0.246 OA
ATOM      5  O   UNL     1      -8.116  -6.285  22.400  1.00  0.00    -0.423 OA
ATOM      6  C   UNL     1      -7.731  -5.558  21.353  1.00  0.00     0.142 A 
ATOM      7  C   UNL     1      -7.027  -4.367  21.550  1.00  0.00     0.098 A 
ATOM      8  C   UNL     1      -6.618  -3.597  20.451  1.00  0.00     0.161 A 
ATOM      9  C   UNL     1      -6.916  -4.022  19.148  1.00  0.00     0.158 A 
ATOM     10  C   UNL     1      -7.622  -5.217  18.944  1.00  0.00     0.062 A 
ATOM     11  C   UNL     1      -8.030  -5.987  20.042  1.00  0.00     0.022 A 
ENDROOT
BRANCH   9  12
ATOM     12  O   UNL     1      -6.507  -3.252  18.061  1.00  0.00    -0.504 OA
ATOM     13  H   UNL     1      -6.621  -2.246  18.051  1.00  0.00     0.293 HD
ENDBRANCH   9  12
BRANCH   8  14
ATOM     14  O   UNL     1      -5.917  -2.409  20.645  1.00  0.00    -0.504 OA
ATOM     15  H   UNL     1      -5.327  -2.268  21.457  1.00  0.00     0.293 HD
ENDBRANCH   8  14
TORSDOF 2
ENDMDL
MODEL 2
REMARK VINA RESULT:     4.569      1.493      4.405
REMARK INTER + INTRA:           4.836
REMARK INTER:                   4.836
REMARK INTRA:                   0.000
REMARK UNBOUND:                 0.000
REMARK SMILES O=c1ccc2cc(O)c(O)cc2o1
REMARK SMILES IDX 4 1 3 2 2 3 1 4 13 5 12 6 11 7 9 8 7 9 6 10 5 11 8 12 10 14
REMARK H PARENT 8 13 10 15
REMARK Flexibility Score: inf
ROOT
ATOM      1  C   UNL     1      -6.980  -3.795  18.917  1.00  0.00     0.019 A 
ATOM      2  C   UNL     1      -6.458  -2.695  19.599  1.00  0.00     0.094 A 
ATOM      3  C   UNL     1      -6.489  -2.686  20.997  1.00  0.00     0.336 A 
ATOM      4  O   UNL     1      -6.024  -1.702  21.629  1.00  0.00    -0.246 OA
ATOM      5  O   UNL     1      -7.009  -3.712  21.666  1.00  0.00    -0.423 OA
ATOM      6  C   UNL     1      -7.517  -4.781  21.055  1.00  0.00     0.142 A 
ATOM      7  C   UNL     1      -8.050  -5.829  21.811  1.00  0.00     0.098 A 
ATOM      8  C   UNL     1      -8.587  -6.958  21.173  1.00  0.00     0.161 A 
ATOM      9  C   UNL     1      -8.590  -7.037  19.773  1.00  0.00     0.158 A 
ATOM     10  C   UNL     1      -8.056  -5.987  19.010  1.00  0.00     0.062 A 
ATOM     11  C   UNL     1      -7.520  -4.859  19.646  1.00  0.00     0.022 A 
ENDROOT
BRANCH   9  12
ATOM     12  O   UNL     1      -9.125  -8.161  19.146  1.00  0.00    -0.504 OA
ATOM     13  H   UNL     1      -8.580  -9.005  19.016  1.00  0.00     0.293 HD
ENDBRANCH   9  12
BRANCH   8  14
ATOM     14  O   UNL     1      -9.118  -8.005  21.923  1.00  0.00    -0.504 OA
ATOM     15  H   UNL     1     -10.116  -8.177  21.962  1.00  0.00     0.293 HD
ENDBRANCH   8  14
TORSDOF 2
ENDMDL
MODEL 3
REMARK VINA RESULT:     7.157      0.922      1.136
REMARK INTER + INTRA:           7.576
REMARK INTER:                   7.576
REMARK INTRA:                   0.000
REMARK UNBOUND:                 0.000
REMARK SMILES O=c1ccc2cc(O)c(O)cc2o1
REMARK SMILES IDX 4 1 3 2 2 3 1 4 13 5 12 6 11 7 9 8 7 9 6 10 5 11 8 12 10 14
REMARK H PARENT 8 13 10 15
REMARK Flexibility Score: inf
ROOT
ATOM      1  C   UNL     1      -9.020  -7.697  21.215  1.00  0.00     0.019 A 
ATOM      2  C   UNL     1      -9.116  -8.135  22.536  1.00  0.00     0.094 A 
ATOM      3  C   UNL     1      -8.539  -7.364  23.550  1.00  0.00     0.336 A 
ATOM      4  O   UNL     1      -8.614  -7.744  24.748  1.00  0.00    -0.246 OA
ATOM      5  O   UNL     1      -7.908  -6.229  23.257  1.00  0.00    -0.423 OA
ATOM      6  C   UNL     1      -7.794  -5.774  22.011  1.00  0.00     0.142 A 
ATOM      7  C   UNL     1      -7.121  -4.575  21.764  1.00  0.00     0.098 A 
ATOM      8  C   UNL     1      -6.998  -4.091  20.453  1.00  0.00     0.161 A 
ATOM      9  C   UNL     1      -7.551  -4.811  19.385  1.00  0.00     0.158 A 
ATOM     10  C   UNL     1      -8.229  -6.016  19.628  1.00  0.00     0.062 A 
ATOM     11  C   UNL     1      -8.352  -6.500  20.937  1.00  0.00     0.022 A 
ENDROOT
BRANCH   9  12
ATOM     12  O   UNL     1      -7.425  -4.324  18.085  1.00  0.00    -0.504 OA
ATOM     13  H   UNL     1      -6.582  -3.854  17.775  1.00  0.00     0.293 HD
ENDBRANCH   9  12
BRANCH   8  14
ATOM     14  O   UNL     1      -6.327  -2.895  20.204  1.00  0.00    -0.504 OA
ATOM     15  H   UNL     1      -6.206  -2.194  20.927  1.00  0.00     0.293 HD
ENDBRANCH   8  14
TORSDOF 2
ENDMDL
MODEL 4
REMARK VINA RESULT:     7.177      1.477      4.989
REMARK INTER + INTRA:           7.596
REMARK INTER:                   7.596
REMARK INTRA:                   0.000
REMARK UNBOUND:                 0.000
REMARK SMILES O=c1ccc2cc(O)c(O)cc2o1
REMARK SMILES IDX 4 1 3 2 2 3 1 4 13 5 12 6 11 7 9 8 7 9 6 10 5 11 8 12 10 14
REMARK H PARENT 8 13 10 15
REMARK Flexibility Score: inf
ROOT
ATOM      1  C   UNL     1      -6.704  -3.627  21.773  1.00  0.00     0.019 A 
ATOM      2  C   UNL     1      -6.118  -2.631  20.992  1.00  0.00     0.094 A 
ATOM      3  C   UNL     1      -6.157  -2.750  19.599  1.00  0.00     0.336 A 
ATOM      4  O   UNL     1      -5.632  -1.862  18.877  1.00  0.00    -0.246 OA
ATOM      5  O   UNL     1      -6.744  -3.799  19.029  1.00  0.00    -0.423 OA
ATOM      6  C   UNL     1      -7.316  -4.771  19.736  1.00  0.00     0.142 A 
ATOM      7  C   UNL     1      -7.919  -5.849  19.082  1.00  0.00     0.098 A 
ATOM      8  C   UNL     1      -8.523  -6.877  19.823  1.00  0.00     0.161 A 
ATOM      9  C   UNL     1      -8.522  -6.824  21.224  1.00  0.00     0.158 A 
ATOM     10  C   UNL     1      -7.919  -5.744  21.885  1.00  0.00     0.062 A 
ATOM     11  C   UNL     1      -7.315  -4.718  21.146  1.00  0.00     0.022 A 
ENDROOT
BRANCH   9  12
ATOM     12  O   UNL     1      -9.124  -7.849  21.952  1.00  0.00    -0.504 OA
ATOM     13  H   UNL     1     -10.068  -8.158  21.753  1.00  0.00     0.293 HD
ENDBRANCH   9  12
BRANCH   8  14
ATOM     14  O   UNL     1      -9.125  -7.953  19.173  1.00  0.00    -0.504 OA
ATOM     15  H   UNL     1      -9.406  -8.787  19.676  1.00  0.00     0.293 HD
ENDBRANCH   8  14
TORSDOF 2
ENDMDL
