MODEL 1
REMARK VINA RESULT:    -2.943      0.000      0.000
REMARK INTER + INTRA:          -3.126
REMARK INTER:                  -3.115
REMARK INTRA:                  -0.011
REMARK UNBOUND:                -0.011
REMARK SMILES O=Cc1ccco1
REMARK SMILES IDX 5 1 6 2 7 3 3 4 4 5 2 6 1 7
REMARK H PARENT
REMARK Flexibility Score: inf
ROOT
ATOM      1  C   UNL     1     176.738 160.976 178.514  1.00  0.00     0.043 A 
ATOM      2  C   UNL     1     177.520 159.910 178.113  1.00  0.00     0.196 A 
ATOM      3  O   UNL     1     178.291 160.277 177.115  1.00  0.00    -0.462 OA
ATOM      4  C   UNL     1     178.048 161.539 176.843  1.00  0.00     0.166 A 
ATOM      5  C   UNL     1     177.078 162.030 177.693  1.00  0.00     0.054 A 
ENDROOT
BRANCH   4   6
ATOM      6  C   UNL     1     178.718 162.300 175.788  1.00  0.00     0.298 C 
ATOM      7  O   UNL     1     179.871 162.767 175.978  1.00  0.00    -0.294 OA
ENDBRANCH   4   6
TORSDOF 1
ENDMDL
MODEL 2
REMARK VINA RESULT:    -2.909     15.122     15.742
REMARK INTER + INTRA:          -3.091
REMARK INTER:                  -3.078
REMARK INTRA:                  -0.013
REMARK UNBOUND:                -0.011
REMARK SMILES O=Cc1ccco1
REMARK SMILES IDX 5 1 6 2 7 3 3 4 4 5 2 6 1 7
REMARK H PARENT
REMARK Flexibility Score: inf
ROOT
ATOM      1  C   UNL     1     179.926 172.128 188.342  1.00  0.00     0.043 A 
ATOM      2  C   UNL     1     180.125 171.837 187.007  1.00  0.00     0.196 A 
ATOM      3  O   UNL     1     179.566 172.765 186.263  1.00  0.00    -0.462 OA
ATOM      4  C   UNL     1     179.009 173.653 187.055  1.00  0.00     0.166 A 
ATOM      5  C   UNL     1     179.204 173.302 188.375  1.00  0.00     0.054 A 
ENDROOT
BRANCH   4   6
ATOM      6  C   UNL     1     178.288 174.837 186.587  1.00  0.00     0.298 C 
ATOM      7  O   UNL     1     178.831 175.630 185.774  1.00  0.00    -0.294 OA
ENDBRANCH   4   6
TORSDOF 1
ENDMDL
MODEL 3
REMARK VINA RESULT:    -2.847     12.690     13.711
REMARK INTER + INTRA:          -3.025
REMARK INTER:                  -3.011
REMARK INTRA:                  -0.013
REMARK UNBOUND:                -0.011
REMARK SMILES O=Cc1ccco1
REMARK SMILES IDX 5 1 6 2 7 3 3 4 4 5 2 6 1 7
REMARK H PARENT
REMARK Flexibility Score: inf
ROOT
ATOM      1  C   UNL     1     179.920 173.250 177.766  1.00  0.00     0.043 A 
ATOM      2  C   UNL     1     178.946 173.909 178.491  1.00  0.00     0.196 A 
ATOM      3  O   UNL     1     178.552 174.976 177.835  1.00  0.00    -0.462 OA
ATOM      4  C   UNL     1     179.225 175.045 176.709  1.00  0.00     0.166 A 
ATOM      5  C   UNL     1     180.101 173.984 176.613  1.00  0.00     0.054 A 
ENDROOT
BRANCH   4   6
ATOM      6  C   UNL     1     179.057 176.103 175.712  1.00  0.00     0.298 C 
ATOM      7  O   UNL     1     179.081 177.312 176.060  1.00  0.00    -0.294 OA
ENDBRANCH   4   6
TORSDOF 1
ENDMDL
MODEL 4
REMARK VINA RESULT:    -2.842     16.661     17.310
REMARK INTER + INTRA:          -3.020
REMARK INTER:                  -3.009
REMARK INTRA:                  -0.011
REMARK UNBOUND:                -0.011
REMARK SMILES O=Cc1ccco1
REMARK SMILES IDX 5 1 6 2 7 3 3 4 4 5 2 6 1 7
REMARK H PARENT
REMARK Flexibility Score: inf
ROOT
ATOM      1  C   UNL     1     177.824 174.526 189.692  1.00  0.00     0.043 A 
ATOM      2  C   UNL     1     176.774 175.309 189.255  1.00  0.00     0.196 A 
ATOM      3  O   UNL     1     176.837 175.447 187.950  1.00  0.00    -0.462 OA
ATOM      4  C   UNL     1     177.884 174.787 187.512  1.00  0.00     0.166 A 
ATOM      5  C   UNL     1     178.543 174.187 188.565  1.00  0.00     0.054 A 
ENDROOT
BRANCH   4   6
ATOM      6  C   UNL     1     178.280 174.709 186.105  1.00  0.00     0.298 C 
ATOM      7  O   UNL     1     179.008 175.604 185.601  1.00  0.00    -0.294 OA
ENDBRANCH   4   6
TORSDOF 1
ENDMDL
MODEL 5
REMARK VINA RESULT:    -2.812      2.475      3.904
REMARK INTER + INTRA:          -2.988
REMARK INTER:                  -2.977
REMARK INTRA:                  -0.011
REMARK UNBOUND:                -0.011
REMARK SMILES O=Cc1ccco1
REMARK SMILES IDX 5 1 6 2 7 3 3 4 4 5 2 6 1 7
REMARK H PARENT
REMARK Flexibility Score: inf
ROOT
ATOM      1  C   UNL     1     179.920 160.634 172.841  1.00  0.00     0.043 A 
ATOM      2  C   UNL     1     178.815 159.877 173.177  1.00  0.00     0.196 A 
ATOM      3  O   UNL     1     178.365 160.247 174.354  1.00  0.00    -0.462 OA
ATOM      4  C   UNL     1     179.129 161.216 174.805  1.00  0.00     0.166 A 
ATOM      5  C   UNL     1     180.125 161.500 173.893  1.00  0.00     0.054 A 
ENDROOT
BRANCH   4   6
ATOM      6  C   UNL     1     178.938 161.887 176.092  1.00  0.00     0.298 C 
ATOM      7  O   UNL     1     179.061 163.136 176.180  1.00  0.00    -0.294 OA
ENDBRANCH   4   6
TORSDOF 1
ENDMDL
MODEL 6
REMARK VINA RESULT:    -2.798      2.664      4.464
REMARK INTER + INTRA:          -2.973
REMARK INTER:                  -2.962
REMARK INTRA:                  -0.011
REMARK UNBOUND:                -0.011
REMARK SMILES O=Cc1ccco1
REMARK SMILES IDX 5 1 6 2 7 3 3 4 4 5 2 6 1 7
REMARK H PARENT
REMARK Flexibility Score: inf
ROOT
ATOM      1  C   UNL     1     177.469 163.512 172.402  1.00  0.00     0.043 A 
ATOM      2  C   UNL     1     176.924 164.356 173.350  1.00  0.00     0.196 A 
ATOM      3  O   UNL     1     177.347 164.012 174.545  1.00  0.00    -0.462 OA
ATOM      4  C   UNL     1     178.147 162.978 174.422  1.00  0.00     0.166 A 
ATOM      5  C   UNL     1     178.261 162.620 173.094  1.00  0.00     0.054 A 
ENDROOT
BRANCH   4   6
ATOM      6  C   UNL     1     178.814 162.313 175.542  1.00  0.00     0.298 C 
ATOM      7  O   UNL     1     179.843 162.820 176.058  1.00  0.00    -0.294 OA
ENDBRANCH   4   6
TORSDOF 1
ENDMDL
MODEL 7
REMARK VINA RESULT:    -2.775     16.803     17.232
REMARK INTER + INTRA:          -2.949
REMARK INTER:                  -2.938
REMARK INTRA:                  -0.011
REMARK UNBOUND:                -0.011
REMARK SMILES O=Cc1ccco1
REMARK SMILES IDX 5 1 6 2 7 3 3 4 4 5 2 6 1 7
REMARK H PARENT
REMARK Flexibility Score: inf
ROOT
ATOM      1  C   UNL     1     176.350 174.094 190.276  1.00  0.00     0.043 A 
ATOM      2  C   UNL     1     176.339 172.854 189.668  1.00  0.00     0.196 A 
ATOM      3  O   UNL     1     177.387 172.737 188.884  1.00  0.00    -0.462 OA
ATOM      4  C   UNL     1     178.085 173.848 188.953  1.00  0.00     0.166 A 
ATOM      5  C   UNL     1     177.478 174.738 189.815  1.00  0.00     0.054 A 
ENDROOT
BRANCH   4   6
ATOM      6  C   UNL     1     179.325 174.090 188.214  1.00  0.00     0.298 C 
ATOM      7  O   UNL     1     179.315 174.799 187.175  1.00  0.00    -0.294 OA
ENDBRANCH   4   6
TORSDOF 1
ENDMDL
MODEL 8
REMARK VINA RESULT:    -2.753     10.158     10.991
REMARK INTER + INTRA:          -2.926
REMARK INTER:                  -2.914
REMARK INTRA:                  -0.012
REMARK UNBOUND:                -0.011
REMARK SMILES O=Cc1ccco1
REMARK SMILES IDX 5 1 6 2 7 3 3 4 4 5 2 6 1 7
REMARK H PARENT
REMARK Flexibility Score: inf
ROOT
ATOM      1  C   UNL     1     177.097 163.673 189.694  1.00  0.00     0.043 A 
ATOM      2  C   UNL     1     177.078 162.293 189.652  1.00  0.00     0.196 A 
ATOM      3  O   UNL     1     177.086 161.888 188.403  1.00  0.00    -0.462 OA
ATOM      4  C   UNL     1     177.110 162.944 187.623  1.00  0.00     0.166 A 
ATOM      5  C   UNL     1     177.118 164.096 188.382  1.00  0.00     0.054 A 
ENDROOT
BRANCH   4   6
ATOM      6  C   UNL     1     177.126 162.889 186.160  1.00  0.00     0.298 C 
ATOM      7  O   UNL     1     178.144 162.467 185.553  1.00  0.00    -0.294 OA
ENDBRANCH   4   6
TORSDOF 1
ENDMDL
