MODEL 1
REMARK VINA RESULT:    -4.769      0.000      0.000
REMARK INTER + INTRA:         -10.772
REMARK INTER:                  -8.672
REMARK INTRA:                  -2.100
REMARK UNBOUND:                -2.100
REMARK SMILES CCCCCCCCCCCCCCCC(=O)[O-]
REMARK SMILES IDX 9 1 10 2 11 3 12 4 13 5 14 6 15 7 16 8 17 9 18 10 8 11 7 12
REMARK SMILES IDX 6 13 5 14 4 15 3 16 2 17 1 18
REMARK H PARENT
REMARK Flexibility Score: inf
ROOT
ATOM      1  C   UNL     1      64.968  30.182   9.011  1.00  0.00     0.000 C 
ENDROOT
BRANCH   1   2
ATOM      2  C   UNL     1      64.620  31.536   9.655  1.00  0.00     0.000 C 
BRANCH   2   3
ATOM      3  C   UNL     1      64.873  31.551  11.170  1.00  0.00     0.000 C 
BRANCH   3   4
ATOM      4  C   UNL     1      63.813  32.353  11.942  1.00  0.00     0.000 C 
BRANCH   4   5
ATOM      5  C   UNL     1      64.316  32.710  13.350  1.00  0.00     0.000 C 
BRANCH   5   6
ATOM      6  C   UNL     1      63.169  32.923  14.351  1.00  0.00     0.006 C 
BRANCH   6   7
ATOM      7  C   UNL     1      61.791  32.924  13.679  1.00  0.00     0.053 C 
BRANCH   7   8
ATOM      8  C   UNL     1      60.765  32.328  14.591  1.00  0.00     0.041 C 
ATOM      9  O   UNL     1      59.591  32.128  14.182  1.00  0.00    -0.550 OA
ATOM     10  O   UNL     1      61.094  32.037  15.909  1.00  0.00    -0.550 OA
ENDBRANCH   7   8
ENDBRANCH   6   7
ENDBRANCH   5   6
ENDBRANCH   4   5
ENDBRANCH   3   4
ENDBRANCH   2   3
ENDBRANCH   1   2
BRANCH   1  11
ATOM     11  C   UNL     1      63.888  29.116   9.260  1.00  0.00     0.000 C 
BRANCH  11  12
ATOM     12  C   UNL     1      62.463  29.663   9.089  1.00  0.00    -0.000 C 
BRANCH  12  13
ATOM     13  C   UNL     1      61.420  28.583   9.402  1.00  0.00    -0.000 C 
BRANCH  13  14
ATOM     14  C   UNL     1      60.170  29.194  10.046  1.00  0.00    -0.000 C 
BRANCH  14  15
ATOM     15  C   UNL     1      60.520  29.902  11.362  1.00  0.00    -0.000 C 
BRANCH  15  16
ATOM     16  C   UNL     1      60.200  29.052  12.605  1.00  0.00    -0.000 C 
BRANCH  16  17
ATOM     17  C   UNL     1      61.357  28.918  13.611  1.00  0.00    -0.003 C 
ATOM     18  C   UNL     1      62.734  29.029  12.959  1.00  0.00     0.004 C 
ENDBRANCH  16  17
ENDBRANCH  15  16
ENDBRANCH  14  15
ENDBRANCH  13  14
ENDBRANCH  12  13
ENDBRANCH  11  12
ENDBRANCH   1  11
TORSDOF 14
ENDMDL
MODEL 2
REMARK VINA RESULT:    -4.734      2.025      3.450
REMARK INTER + INTRA:         -10.708
REMARK INTER:                  -8.655
REMARK INTRA:                  -2.053
REMARK UNBOUND:                -2.100
REMARK SMILES CCCCCCCCCCCCCCCC(=O)[O-]
REMARK SMILES IDX 9 1 10 2 11 3 12 4 13 5 14 6 15 7 16 8 17 9 18 10 8 11 7 12
REMARK SMILES IDX 6 13 5 14 4 15 3 16 2 17 1 18
REMARK H PARENT
REMARK Flexibility Score: inf
ROOT
ATOM      1  C   UNL     1      63.931  32.662  12.334  1.00  0.00     0.000 C 
ENDROOT
BRANCH   1   2
ATOM      2  C   UNL     1      62.767  32.052  13.136  1.00  0.00     0.000 C 
BRANCH   2   3
ATOM      3  C   UNL     1      61.449  32.817  12.941  1.00  0.00     0.000 C 
BRANCH   3   4
ATOM      4  C   UNL     1      60.417  32.515  14.038  1.00  0.00     0.000 C 
BRANCH   4   5
ATOM      5  C   UNL     1      61.070  32.547  15.428  1.00  0.00     0.000 C 
BRANCH   5   6
ATOM      6  C   UNL     1      61.467  33.967  15.863  1.00  0.00     0.006 C 
BRANCH   6   7
ATOM      7  C   UNL     1      62.920  34.051  16.347  1.00  0.00     0.053 C 
BRANCH   7   8
ATOM      8  C   UNL     1      62.982  34.674  17.706  1.00  0.00     0.041 C 
ATOM      9  O   UNL     1      64.063  35.160  18.133  1.00  0.00    -0.550 OA
ATOM     10  O   UNL     1      61.857  34.676  18.521  1.00  0.00    -0.550 OA
ENDBRANCH   7   8
ENDBRANCH   6   7
ENDBRANCH   5   6
ENDBRANCH   4   5
ENDBRANCH   3   4
ENDBRANCH   2   3
ENDBRANCH   1   2
BRANCH   1  11
ATOM     11  C   UNL     1      64.404  31.745  11.194  1.00  0.00     0.000 C 
BRANCH  11  12
ATOM     12  C   UNL     1      64.050  30.269  11.432  1.00  0.00    -0.000 C 
BRANCH  12  13
ATOM     13  C   UNL     1      63.600  29.596  10.130  1.00  0.00    -0.000 C 
BRANCH  13  14
ATOM     14  C   UNL     1      62.225  28.937  10.297  1.00  0.00    -0.000 C 
BRANCH  14  15
ATOM     15  C   UNL     1      61.123  29.995  10.447  1.00  0.00    -0.000 C 
BRANCH  15  16
ATOM     16  C   UNL     1      60.118  29.662  11.564  1.00  0.00    -0.000 C 
BRANCH  16  17
ATOM     17  C   UNL     1      60.523  28.483  12.467  1.00  0.00    -0.003 C 
ATOM     18  C   UNL     1      61.252  28.924  13.735  1.00  0.00     0.004 C 
ENDBRANCH  16  17
ENDBRANCH  15  16
ENDBRANCH  14  15
ENDBRANCH  13  14
ENDBRANCH  12  13
ENDBRANCH  11  12
ENDBRANCH   1  11
TORSDOF 14
ENDMDL
MODEL 3
REMARK VINA RESULT:    -4.694      2.128      3.912
REMARK INTER + INTRA:         -10.635
REMARK INTER:                  -8.731
REMARK INTRA:                  -1.904
REMARK UNBOUND:                -2.100
REMARK SMILES CCCCCCCCCCCCCCCC(=O)[O-]
REMARK SMILES IDX 9 1 10 2 11 3 12 4 13 5 14 6 15 7 16 8 17 9 18 10 8 11 7 12
REMARK SMILES IDX 6 13 5 14 4 15 3 16 2 17 1 18
REMARK H PARENT
REMARK Flexibility Score: inf
ROOT
ATOM      1  C   UNL     1      63.741  31.261  12.747  1.00  0.00     0.000 C 
ENDROOT
BRANCH   1   2
ATOM      2  C   UNL     1      63.066  32.586  13.146  1.00  0.00     0.000 C 
BRANCH   2   3
ATOM      3  C   UNL     1      61.558  32.593  12.851  1.00  0.00     0.000 C 
BRANCH   3   4
ATOM      4  C   UNL     1      60.721  33.080  14.044  1.00  0.00     0.000 C 
BRANCH   4   5
ATOM      5  C   UNL     1      61.406  32.728  15.374  1.00  0.00     0.000 C 
BRANCH   5   6
ATOM      6  C   UNL     1      61.556  33.943  16.303  1.00  0.00     0.006 C 
BRANCH   6   7
ATOM      7  C   UNL     1      62.959  34.048  16.915  1.00  0.00     0.053 C 
BRANCH   7   8
ATOM      8  C   UNL     1      62.868  34.303  18.386  1.00  0.00     0.041 C 
ATOM      9  O   UNL     1      61.768  34.624  18.908  1.00  0.00    -0.550 OA
ATOM     10  O   UNL     1      64.009  34.230  19.176  1.00  0.00    -0.550 OA
ENDBRANCH   7   8
ENDBRANCH   6   7
ENDBRANCH   5   6
ENDBRANCH   4   5
ENDBRANCH   3   4
ENDBRANCH   2   3
ENDBRANCH   1   2
BRANCH   1  11
ATOM     11  C   UNL     1      63.423  30.120  13.728  1.00  0.00     0.000 C 
BRANCH  11  12
ATOM     12  C   UNL     1      62.597  28.996  13.085  1.00  0.00    -0.000 C 
BRANCH  12  13
ATOM     13  C   UNL     1      61.182  28.950  13.674  1.00  0.00    -0.000 C 
BRANCH  13  14
ATOM     14  C   UNL     1      60.135  28.727  12.577  1.00  0.00    -0.000 C 
BRANCH  14  15
ATOM     15  C   UNL     1      60.393  29.647  11.375  1.00  0.00    -0.000 C 
BRANCH  15  16
ATOM     16  C   UNL     1      60.228  28.929  10.023  1.00  0.00    -0.000 C 
BRANCH  16  17
ATOM     17  C   UNL     1      61.547  28.559   9.322  1.00  0.00    -0.003 C 
ATOM     18  C   UNL     1      62.620  29.638   9.459  1.00  0.00     0.004 C 
ENDBRANCH  16  17
ENDBRANCH  15  16
ENDBRANCH  14  15
ENDBRANCH  13  14
ENDBRANCH  12  13
ENDBRANCH  11  12
ENDBRANCH   1  11
TORSDOF 14
ENDMDL
MODEL 4
REMARK VINA RESULT:    -4.626      2.801      6.005
REMARK INTER + INTRA:         -10.513
REMARK INTER:                  -8.514
REMARK INTRA:                  -1.998
REMARK UNBOUND:                -2.100
REMARK SMILES CCCCCCCCCCCCCCCC(=O)[O-]
REMARK SMILES IDX 9 1 10 2 11 3 12 4 13 5 14 6 15 7 16 8 17 9 18 10 8 11 7 12
REMARK SMILES IDX 6 13 5 14 4 15 3 16 2 17 1 18
REMARK H PARENT
REMARK Flexibility Score: inf
ROOT
ATOM      1  C   UNL     1      62.580  32.677  12.834  1.00  0.00     0.000 C 
ENDROOT
BRANCH   1   2
ATOM      2  C   UNL     1      63.142  31.306  12.418  1.00  0.00     0.000 C 
BRANCH   2   3
ATOM      3  C   UNL     1      63.322  30.354  13.611  1.00  0.00     0.000 C 
BRANCH   3   4
ATOM      4  C   UNL     1      62.671  28.981  13.380  1.00  0.00     0.000 C 
BRANCH   4   5
ATOM      5  C   UNL     1      61.172  29.024  13.712  1.00  0.00     0.000 C 
BRANCH   5   6
ATOM      6  C   UNL     1      60.299  28.445  12.587  1.00  0.00     0.006 C 
BRANCH   6   7
ATOM      7  C   UNL     1      60.097  29.431  11.430  1.00  0.00     0.053 C 
BRANCH   7   8
ATOM      8  C   UNL     1      60.603  28.843  10.150  1.00  0.00     0.041 C 
ATOM      9  O   UNL     1      61.839  28.688   9.967  1.00  0.00    -0.550 OA
ATOM     10  O   UNL     1      59.710  28.509   9.139  1.00  0.00    -0.550 OA
ENDBRANCH   7   8
ENDBRANCH   6   7
ENDBRANCH   5   6
ENDBRANCH   4   5
ENDBRANCH   3   4
ENDBRANCH   2   3
ENDBRANCH   1   2
BRANCH   1  11
ATOM     11  C   UNL     1      61.043  32.699  12.864  1.00  0.00     0.000 C 
BRANCH  11  12
ATOM     12  C   UNL     1      60.474  32.568  14.285  1.00  0.00    -0.000 C 
BRANCH  12  13
ATOM     13  C   UNL     1      61.005  33.684  15.194  1.00  0.00    -0.000 C 
BRANCH  13  14
ATOM     14  C   UNL     1      61.734  33.104  16.411  1.00  0.00    -0.000 C 
BRANCH  14  15
ATOM     15  C   UNL     1      62.256  34.222  17.324  1.00  0.00    -0.000 C 
BRANCH  15  16
ATOM     16  C   UNL     1      63.728  34.581  17.052  1.00  0.00    -0.000 C 
BRANCH  16  17
ATOM     17  C   UNL     1      64.460  33.626  16.092  1.00  0.00    -0.003 C 
ATOM     18  C   UNL     1      65.014  34.330  14.855  1.00  0.00     0.004 C 
ENDBRANCH  16  17
ENDBRANCH  15  16
ENDBRANCH  14  15
ENDBRANCH  13  14
ENDBRANCH  12  13
ENDBRANCH  11  12
ENDBRANCH   1  11
TORSDOF 14
ENDMDL
MODEL 5
REMARK VINA RESULT:    -4.575      2.170      3.972
REMARK INTER + INTRA:         -10.418
REMARK INTER:                  -8.367
REMARK INTRA:                  -2.051
REMARK UNBOUND:                -2.100
REMARK SMILES CCCCCCCCCCCCCCCC(=O)[O-]
REMARK SMILES IDX 9 1 10 2 11 3 12 4 13 5 14 6 15 7 16 8 17 9 18 10 8 11 7 12
REMARK SMILES IDX 6 13 5 14 4 15 3 16 2 17 1 18
REMARK H PARENT
REMARK Flexibility Score: inf
ROOT
ATOM      1  C   UNL     1      60.601  29.383  12.838  1.00  0.00     0.000 C 
ENDROOT
BRANCH   1   2
ATOM      2  C   UNL     1      60.380  30.759  13.493  1.00  0.00     0.000 C 
BRANCH   2   3
ATOM      3  C   UNL     1      60.763  31.923  12.566  1.00  0.00     0.000 C 
BRANCH   3   4
ATOM      4  C   UNL     1      61.476  33.065  13.307  1.00  0.00     0.000 C 
BRANCH   4   5
ATOM      5  C   UNL     1      60.989  33.160  14.762  1.00  0.00     0.000 C 
BRANCH   5   6
ATOM      6  C   UNL     1      62.089  33.637  15.724  1.00  0.00     0.006 C 
BRANCH   6   7
ATOM      7  C   UNL     1      61.531  34.439  16.906  1.00  0.00     0.053 C 
BRANCH   7   8
ATOM      8  C   UNL     1      62.400  34.263  18.112  1.00  0.00     0.041 C 
ATOM      9  O   UNL     1      61.948  34.513  19.261  1.00  0.00    -0.550 OA
ATOM     10  O   UNL     1      63.723  33.867  17.963  1.00  0.00    -0.550 OA
ENDBRANCH   7   8
ENDBRANCH   6   7
ENDBRANCH   5   6
ENDBRANCH   4   5
ENDBRANCH   3   4
ENDBRANCH   2   3
ENDBRANCH   1   2
BRANCH   1  11
ATOM     11  C   UNL     1      60.255  29.382  11.340  1.00  0.00     0.000 C 
BRANCH  11  12
ATOM     12  C   UNL     1      61.296  28.639  10.490  1.00  0.00    -0.000 C 
BRANCH  12  13
ATOM     13  C   UNL     1      62.185  29.626   9.724  1.00  0.00    -0.000 C 
BRANCH  13  14
ATOM     14  C   UNL     1      63.669  29.361  10.002  1.00  0.00    -0.000 C 
BRANCH  14  15
ATOM     15  C   UNL     1      64.416  30.668  10.302  1.00  0.00    -0.000 C 
BRANCH  15  16
ATOM     16  C   UNL     1      64.255  31.130  11.761  1.00  0.00    -0.000 C 
BRANCH  16  17
ATOM     17  C   UNL     1      64.155  29.992  12.793  1.00  0.00    -0.003 C 
ATOM     18  C   UNL     1      64.050  30.496  14.231  1.00  0.00     0.004 C 
ENDBRANCH  16  17
ENDBRANCH  15  16
ENDBRANCH  14  15
ENDBRANCH  13  14
ENDBRANCH  12  13
ENDBRANCH  11  12
ENDBRANCH   1  11
TORSDOF 14
ENDMDL
MODEL 6
REMARK VINA RESULT:    -4.544     11.752     14.048
REMARK INTER + INTRA:         -10.363
REMARK INTER:                  -8.537
REMARK INTRA:                  -1.827
REMARK UNBOUND:                -2.100
REMARK SMILES CCCCCCCCCCCCCCCC(=O)[O-]
REMARK SMILES IDX 9 1 10 2 11 3 12 4 13 5 14 6 15 7 16 8 17 9 18 10 8 11 7 12
REMARK SMILES IDX 6 13 5 14 4 15 3 16 2 17 1 18
REMARK H PARENT
REMARK Flexibility Score: inf
ROOT
ATOM      1  C   UNL     1      65.486  29.770  25.717  1.00  0.00     0.000 C 
ENDROOT
BRANCH   1   2
ATOM      2  C   UNL     1      64.270  29.590  26.644  1.00  0.00     0.000 C 
BRANCH   2   3
ATOM      3  C   UNL     1      62.974  30.142  26.032  1.00  0.00     0.000 C 
BRANCH   3   4
ATOM      4  C   UNL     1      62.708  29.606  24.616  1.00  0.00     0.000 C 
BRANCH   4   5
ATOM      5  C   UNL     1      61.895  28.304  24.668  1.00  0.00     0.000 C 
BRANCH   5   6
ATOM      6  C   UNL     1      60.869  28.291  25.813  1.00  0.00     0.006 C 
BRANCH   6   7
ATOM      7  C   UNL     1      61.087  27.126  26.787  1.00  0.00     0.053 C 
BRANCH   7   8
ATOM      8  C   UNL     1      61.507  27.640  28.128  1.00  0.00     0.041 C 
ATOM      9  O   UNL     1      60.920  28.629  28.641  1.00  0.00    -0.550 OA
ATOM     10  O   UNL     1      62.578  27.055  28.792  1.00  0.00    -0.550 OA
ENDBRANCH   7   8
ENDBRANCH   6   7
ENDBRANCH   5   6
ENDBRANCH   4   5
ENDBRANCH   3   4
ENDBRANCH   2   3
ENDBRANCH   1   2
BRANCH   1  11
ATOM     11  C   UNL     1      66.155  28.433  25.356  1.00  0.00     0.000 C 
BRANCH  11  12
ATOM     12  C   UNL     1      65.224  27.229  25.559  1.00  0.00    -0.000 C 
BRANCH  12  13
ATOM     13  C   UNL     1      65.556  26.106  24.570  1.00  0.00    -0.000 C 
BRANCH  13  14
ATOM     14  C   UNL     1      64.468  25.978  23.497  1.00  0.00    -0.000 C 
BRANCH  14  15
ATOM     15  C   UNL     1      64.743  26.923  22.319  1.00  0.00    -0.000 C 
BRANCH  15  16
ATOM     16  C   UNL     1      66.237  27.020  21.963  1.00  0.00    -0.000 C 
BRANCH  16  17
ATOM     17  C   UNL     1      66.747  25.924  21.010  1.00  0.00    -0.003 C 
ATOM     18  C   UNL     1      66.378  26.181  19.550  1.00  0.00     0.004 C 
ENDBRANCH  16  17
ENDBRANCH  15  16
ENDBRANCH  14  15
ENDBRANCH  13  14
ENDBRANCH  12  13
ENDBRANCH  11  12
ENDBRANCH   1  11
TORSDOF 14
ENDMDL
MODEL 7
REMARK VINA RESULT:    -4.538      1.044      3.747
REMARK INTER + INTRA:         -10.353
REMARK INTER:                  -8.108
REMARK INTRA:                  -2.245
REMARK UNBOUND:                -2.100
REMARK SMILES CCCCCCCCCCCCCCCC(=O)[O-]
REMARK SMILES IDX 9 1 10 2 11 3 12 4 13 5 14 6 15 7 16 8 17 9 18 10 8 11 7 12
REMARK SMILES IDX 6 13 5 14 4 15 3 16 2 17 1 18
REMARK H PARENT
REMARK Flexibility Score: inf
ROOT
ATOM      1  C   UNL     1      60.351  29.003  12.539  1.00  0.00     0.000 C 
ENDROOT
BRANCH   1   2
ATOM      2  C   UNL     1      61.416  29.142  13.641  1.00  0.00     0.000 C 
BRANCH   2   3
ATOM      3  C   UNL     1      62.835  28.845  13.133  1.00  0.00     0.000 C 
BRANCH   3   4
ATOM      4  C   UNL     1      63.782  30.047  13.273  1.00  0.00     0.000 C 
BRANCH   4   5
ATOM      5  C   UNL     1      63.494  30.822  14.569  1.00  0.00     0.000 C 
BRANCH   5   6
ATOM      6  C   UNL     1      63.341  32.333  14.333  1.00  0.00     0.006 C 
BRANCH   6   7
ATOM      7  C   UNL     1      62.212  32.665  13.349  1.00  0.00     0.053 C 
BRANCH   7   8
ATOM      8  C   UNL     1      60.943  32.953  14.089  1.00  0.00     0.041 C 
ATOM      9  O   UNL     1      59.900  32.293  13.840  1.00  0.00    -0.550 OA
ATOM     10  O   UNL     1      60.901  33.982  15.021  1.00  0.00    -0.550 OA
ENDBRANCH   7   8
ENDBRANCH   6   7
ENDBRANCH   5   6
ENDBRANCH   4   5
ENDBRANCH   3   4
ENDBRANCH   2   3
ENDBRANCH   1   2
BRANCH   1  11
ATOM     11  C   UNL     1      60.649  29.887  11.317  1.00  0.00     0.000 C 
BRANCH  11  12
ATOM     12  C   UNL     1      61.116  29.077  10.098  1.00  0.00    -0.000 C 
BRANCH  12  13
ATOM     13  C   UNL     1      62.205  29.830   9.323  1.00  0.00    -0.000 C 
BRANCH  13  14
ATOM     14  C   UNL     1      63.543  29.083   9.387  1.00  0.00    -0.000 C 
BRANCH  14  15
ATOM     15  C   UNL     1      64.721  30.067   9.420  1.00  0.00    -0.000 C 
BRANCH  15  16
ATOM     16  C   UNL     1      64.343  31.437  10.012  1.00  0.00    -0.000 C 
BRANCH  16  17
ATOM     17  C   UNL     1      65.518  32.418  10.172  1.00  0.00    -0.003 C 
ATOM     18  C   UNL     1      65.555  33.088  11.545  1.00  0.00     0.004 C 
ENDBRANCH  16  17
ENDBRANCH  15  16
ENDBRANCH  14  15
ENDBRANCH  13  14
ENDBRANCH  12  13
ENDBRANCH  11  12
ENDBRANCH   1  11
TORSDOF 14
ENDMDL
MODEL 8
REMARK VINA RESULT:    -4.508      1.986      2.810
REMARK INTER + INTRA:         -10.297
REMARK INTER:                  -8.039
REMARK INTRA:                  -2.258
REMARK UNBOUND:                -2.100
REMARK SMILES CCCCCCCCCCCCCCCC(=O)[O-]
REMARK SMILES IDX 9 1 10 2 11 3 12 4 13 5 14 6 15 7 16 8 17 9 18 10 8 11 7 12
REMARK SMILES IDX 6 13 5 14 4 15 3 16 2 17 1 18
REMARK H PARENT
REMARK Flexibility Score: inf
ROOT
ATOM      1  C   UNL     1      63.974  30.239  10.665  1.00  0.00     0.000 C 
ENDROOT
BRANCH   1   2
ATOM      2  C   UNL     1      64.000  31.603  11.377  1.00  0.00     0.000 C 
BRANCH   2   3
ATOM      3  C   UNL     1      64.491  31.503  12.829  1.00  0.00     0.000 C 
BRANCH   3   4
ATOM      4  C   UNL     1      64.465  32.854  13.561  1.00  0.00     0.000 C 
BRANCH   4   5
ATOM      5  C   UNL     1      64.050  32.673  15.029  1.00  0.00     0.000 C 
BRANCH   5   6
ATOM      6  C   UNL     1      63.218  33.851  15.559  1.00  0.00     0.006 C 
BRANCH   6   7
ATOM      7  C   UNL     1      62.168  33.416  16.589  1.00  0.00     0.053 C 
BRANCH   7   8
ATOM      8  C   UNL     1      62.340  34.182  17.864  1.00  0.00     0.041 C 
ATOM      9  O   UNL     1      61.644  33.896  18.874  1.00  0.00    -0.550 OA
ATOM     10  O   UNL     1      63.235  35.242  17.922  1.00  0.00    -0.550 OA
ENDBRANCH   7   8
ENDBRANCH   6   7
ENDBRANCH   5   6
ENDBRANCH   4   5
ENDBRANCH   3   4
ENDBRANCH   2   3
ENDBRANCH   1   2
BRANCH   1  11
ATOM     11  C   UNL     1      62.606  29.929  10.035  1.00  0.00     0.000 C 
BRANCH  11  12
ATOM     12  C   UNL     1      61.878  28.772  10.736  1.00  0.00    -0.000 C 
BRANCH  12  13
ATOM     13  C   UNL     1      60.393  29.100  10.937  1.00  0.00    -0.000 C 
BRANCH  13  14
ATOM     14  C   UNL     1      60.003  29.002  12.416  1.00  0.00    -0.000 C 
BRANCH  14  15
ATOM     15  C   UNL     1      61.246  29.030  13.317  1.00  0.00    -0.000 C 
BRANCH  15  16
ATOM     16  C   UNL     1      61.388  30.344  14.105  1.00  0.00    -0.000 C 
BRANCH  16  17
ATOM     17  C   UNL     1      60.312  31.401  13.798  1.00  0.00    -0.003 C 
ATOM     18  C   UNL     1      60.835  32.557  12.946  1.00  0.00     0.004 C 
ENDBRANCH  16  17
ENDBRANCH  15  16
ENDBRANCH  14  15
ENDBRANCH  13  14
ENDBRANCH  12  13
ENDBRANCH  11  12
ENDBRANCH   1  11
TORSDOF 14
ENDMDL
MODEL 9
REMARK VINA RESULT:    -4.498      1.339      2.322
REMARK INTER + INTRA:         -10.280
REMARK INTER:                  -8.380
REMARK INTRA:                  -1.899
REMARK UNBOUND:                -2.100
REMARK SMILES CCCCCCCCCCCCCCCC(=O)[O-]
REMARK SMILES IDX 9 1 10 2 11 3 12 4 13 5 14 6 15 7 16 8 17 9 18 10 8 11 7 12
REMARK SMILES IDX 6 13 5 14 4 15 3 16 2 17 1 18
REMARK H PARENT
REMARK Flexibility Score: inf
ROOT
ATOM      1  C   UNL     1      64.860  31.393  11.178  1.00  0.00     0.000 C 
ENDROOT
BRANCH   1   2
ATOM      2  C   UNL     1      65.045  32.781  11.816  1.00  0.00     0.000 C 
BRANCH   2   3
ATOM      3  C   UNL     1      64.016  33.065  12.922  1.00  0.00     0.000 C 
BRANCH   3   4
ATOM      4  C   UNL     1      62.841  32.074  12.910  1.00  0.00     0.000 C 
BRANCH   4   5
ATOM      5  C   UNL     1      61.499  32.816  13.007  1.00  0.00     0.000 C 
BRANCH   5   6
ATOM      6  C   UNL     1      60.668  32.380  14.224  1.00  0.00     0.006 C 
BRANCH   6   7
ATOM      7  C   UNL     1      61.475  32.403  15.528  1.00  0.00     0.053 C 
BRANCH   7   8
ATOM      8  C   UNL     1      61.802  33.811  15.915  1.00  0.00     0.041 C 
ATOM      9  O   UNL     1      62.987  34.134  16.191  1.00  0.00    -0.550 OA
ATOM     10  O   UNL     1      60.789  34.756  16.016  1.00  0.00    -0.550 OA
ENDBRANCH   7   8
ENDBRANCH   6   7
ENDBRANCH   5   6
ENDBRANCH   4   5
ENDBRANCH   3   4
ENDBRANCH   2   3
ENDBRANCH   1   2
BRANCH   1  11
ATOM     11  C   UNL     1      64.875  31.445   9.641  1.00  0.00     0.000 C 
BRANCH  11  12
ATOM     12  C   UNL     1      64.205  30.221   8.999  1.00  0.00    -0.000 C 
BRANCH  12  13
ATOM     13  C   UNL     1      63.539  29.339  10.062  1.00  0.00    -0.000 C 
BRANCH  13  14
ATOM     14  C   UNL     1      62.056  29.118   9.744  1.00  0.00    -0.000 C 
BRANCH  14  15
ATOM     15  C   UNL     1      61.162  29.840  10.762  1.00  0.00    -0.000 C 
BRANCH  15  16
ATOM     16  C   UNL     1      60.004  28.964  11.273  1.00  0.00    -0.000 C 
BRANCH  16  17
ATOM     17  C   UNL     1      60.080  28.598  12.766  1.00  0.00    -0.003 C 
ATOM     18  C   UNL     1      61.470  28.808  13.363  1.00  0.00     0.004 C 
ENDBRANCH  16  17
ENDBRANCH  15  16
ENDBRANCH  14  15
ENDBRANCH  13  14
ENDBRANCH  12  13
ENDBRANCH  11  12
ENDBRANCH   1  11
TORSDOF 14
ENDMDL
