MODEL 1
REMARK VINA RESULT:    -4.345      0.000      0.000
REMARK INTER + INTRA:          -6.306
REMARK INTER:                  -5.869
REMARK INTRA:                  -0.436
REMARK UNBOUND:                -0.436
REMARK SMILES O=C[C@H](O)[C@@H](O)[C@H](O)CO
REMARK SMILES IDX 7 1 9 2 10 3 5 5 3 6 2 7 1 8 4 9 6 11 8 13
REMARK H PARENT 10 4 4 10 6 12 8 14
REMARK Flexibility Score: inf
ROOT
ATOM      1  C   UNL     1      15.486  12.915  29.509  1.00  0.00     0.171 C 
ENDROOT
BRANCH   1   2
ATOM      2  C   UNL     1      15.643  12.305  30.911  1.00  0.00     0.190 C 
BRANCH   2   3
ATOM      3  O   UNL     1      16.223  13.244  31.772  1.00  0.00    -0.394 OA
ATOM      4  H   UNL     1      16.840  12.736  32.360  1.00  0.00     0.210 HD
ENDBRANCH   2   3
ENDBRANCH   1   2
BRANCH   1   5
ATOM      5  C   UNL     1      16.434  14.125  29.294  1.00  0.00     0.181 C 
BRANCH   5   6
ATOM      6  C   UNL     1      16.959  14.186  27.843  1.00  0.00     0.209 C 
BRANCH   6   7
ATOM      7  C   UNL     1      16.294  15.305  27.086  1.00  0.00     0.258 C 
ATOM      8  O   UNL     1      16.781  15.724  26.048  1.00  0.00    -0.300 OA
ENDBRANCH   6   7
BRANCH   6   9
ATOM      9  O   UNL     1      16.711  12.967  27.192  1.00  0.00    -0.383 OA
ATOM     10  H   UNL     1      16.120  12.437  27.788  1.00  0.00     0.211 HD
ENDBRANCH   6   9
ENDBRANCH   5   6
BRANCH   5  11
ATOM     11  O   UNL     1      15.778  15.331  29.606  1.00  0.00    -0.387 OA
ATOM     12  H   UNL     1      14.827  15.111  29.783  1.00  0.00     0.211 HD
ENDBRANCH   5  11
ENDBRANCH   1   5
BRANCH   1  13
ATOM     13  O   UNL     1      14.143  13.260  29.267  1.00  0.00    -0.388 OA
ATOM     14  H   UNL     1      13.723  12.511  28.769  1.00  0.00     0.211 HD
ENDBRANCH   1  13
TORSDOF 8
ENDMDL
MODEL 2
REMARK VINA RESULT:    -4.108     16.069     17.090
REMARK INTER + INTRA:          -5.986
REMARK INTER:                  -5.537
REMARK INTRA:                  -0.449
REMARK UNBOUND:                -0.436
REMARK SMILES O=C[C@H](O)[C@@H](O)[C@H](O)CO
REMARK SMILES IDX 7 1 9 2 10 3 5 5 3 6 2 7 1 8 4 9 6 11 8 13
REMARK H PARENT 10 4 4 10 6 12 8 14
REMARK Flexibility Score: inf
ROOT
ATOM      1  C   UNL     1       7.713   3.951  18.903  1.00  0.00     0.171 C 
ENDROOT
BRANCH   1   2
ATOM      2  C   UNL     1       6.419   4.486  18.269  1.00  0.00     0.190 C 
BRANCH   2   3
ATOM      3  O   UNL     1       5.583   3.416  17.929  1.00  0.00    -0.394 OA
ATOM      4  H   UNL     1       5.013   3.247  18.724  1.00  0.00     0.210 HD
ENDBRANCH   2   3
ENDBRANCH   1   2
BRANCH   1   5
ATOM      5  C   UNL     1       8.277   2.732  18.127  1.00  0.00     0.181 C 
BRANCH   5   6
ATOM      6  C   UNL     1       9.822   2.735  18.106  1.00  0.00     0.209 C 
BRANCH   6   7
ATOM      7  C   UNL     1      10.365   1.633  18.975  1.00  0.00     0.258 C 
ATOM      8  O   UNL     1      11.531   1.285  18.876  1.00  0.00    -0.300 OA
ENDBRANCH   6   7
BRANCH   6   9
ATOM      9  O   UNL     1      10.305   3.973  18.560  1.00  0.00    -0.383 OA
ATOM     10  H   UNL     1       9.956   4.097  19.482  1.00  0.00     0.211 HD
ENDBRANCH   6   9
ENDBRANCH   5   6
BRANCH   5  11
ATOM     11  O   UNL     1       7.819   1.528  18.693  1.00  0.00    -0.387 OA
ATOM     12  H   UNL     1       7.506   1.735  19.611  1.00  0.00     0.211 HD
ENDBRANCH   5  11
ENDBRANCH   1   5
BRANCH   1  13
ATOM     13  O   UNL     1       7.511   3.651  20.263  1.00  0.00    -0.388 OA
ATOM     14  H   UNL     1       6.695   4.131  20.561  1.00  0.00     0.211 HD
ENDBRANCH   1  13
TORSDOF 8
ENDMDL
MODEL 3
REMARK VINA RESULT:    -4.077      1.039      4.067
REMARK INTER + INTRA:          -5.944
REMARK INTER:                  -5.156
REMARK INTRA:                  -0.788
REMARK UNBOUND:                -0.436
REMARK SMILES O=C[C@H](O)[C@@H](O)[C@H](O)CO
REMARK SMILES IDX 7 1 9 2 10 3 5 5 3 6 2 7 1 8 4 9 6 11 8 13
REMARK H PARENT 10 4 4 10 6 12 8 14
REMARK Flexibility Score: inf
ROOT
ATOM      1  C   UNL     1      16.726  14.869  28.742  1.00  0.00     0.171 C 
ENDROOT
BRANCH   1   2
ATOM      2  C   UNL     1      16.650  15.119  27.228  1.00  0.00     0.190 C 
BRANCH   2   3
ATOM      3  O   UNL     1      15.313  15.091  26.813  1.00  0.00    -0.394 OA
ATOM      4  H   UNL     1      14.825  15.718  27.408  1.00  0.00     0.210 HD
ENDBRANCH   2   3
ENDBRANCH   1   2
BRANCH   1   5
ATOM      5  C   UNL     1      16.465  13.381  29.098  1.00  0.00     0.181 C 
BRANCH   5   6
ATOM      6  C   UNL     1      15.165  13.210  29.914  1.00  0.00     0.209 C 
BRANCH   6   7
ATOM      7  C   UNL     1      15.230  11.965  30.758  1.00  0.00     0.258 C 
ATOM      8  O   UNL     1      16.304  11.440  31.004  1.00  0.00    -0.300 OA
ENDBRANCH   6   7
BRANCH   6   9
ATOM      9  O   UNL     1      14.062  13.133  29.049  1.00  0.00    -0.383 OA
ATOM     10  H   UNL     1      13.702  12.210  29.123  1.00  0.00     0.211 HD
ENDBRANCH   6   9
ENDBRANCH   5   6
BRANCH   5  11
ATOM     11  O   UNL     1      16.392  12.597  27.931  1.00  0.00    -0.387 OA
ATOM     12  H   UNL     1      15.564  12.054  27.993  1.00  0.00     0.211 HD
ENDBRANCH   5  11
ENDBRANCH   1   5
BRANCH   1  13
ATOM     13  O   UNL     1      15.849  15.727  29.431  1.00  0.00    -0.388 OA
ATOM     14  H   UNL     1      15.078  15.185  29.743  1.00  0.00     0.211 HD
ENDBRANCH   1  13
TORSDOF 8
ENDMDL
MODEL 4
REMARK VINA RESULT:    -3.806     15.840     16.679
REMARK INTER + INTRA:          -5.578
REMARK INTER:                  -4.819
REMARK INTRA:                  -0.759
REMARK UNBOUND:                -0.436
REMARK SMILES O=C[C@H](O)[C@@H](O)[C@H](O)CO
REMARK SMILES IDX 7 1 9 2 10 3 5 5 3 6 2 7 1 8 4 9 6 11 8 13
REMARK H PARENT 10 4 4 10 6 12 8 14
REMARK Flexibility Score: inf
ROOT
ATOM      1  C   UNL     1      10.107   2.157  18.374  1.00  0.00     0.171 C 
ENDROOT
BRANCH   1   2
ATOM      2  C   UNL     1      11.595   2.428  18.099  1.00  0.00     0.190 C 
BRANCH   2   3
ATOM      3  O   UNL     1      12.027   3.513  18.870  1.00  0.00    -0.394 OA
ATOM      4  H   UNL     1      11.676   3.359  19.785  1.00  0.00     0.210 HD
ENDBRANCH   2   3
ENDBRANCH   1   2
BRANCH   1   5
ATOM      5  C   UNL     1       9.205   3.317  17.875  1.00  0.00     0.181 C 
BRANCH   5   6
ATOM      6  C   UNL     1       7.706   2.972  18.013  1.00  0.00     0.209 C 
BRANCH   6   7
ATOM      7  C   UNL     1       7.035   3.905  18.986  1.00  0.00     0.258 C 
ATOM      8  O   UNL     1       7.366   3.916  20.161  1.00  0.00    -0.300 OA
ENDBRANCH   6   7
BRANCH   6   9
ATOM      9  O   UNL     1       7.557   1.648  18.455  1.00  0.00    -0.383 OA
ATOM     10  H   UNL     1       8.471   1.287  18.597  1.00  0.00     0.211 HD
ENDBRANCH   6   9
ENDBRANCH   5   6
BRANCH   5  11
ATOM     11  O   UNL     1       9.480   4.501  18.585  1.00  0.00    -0.387 OA
ATOM     12  H   UNL     1       9.719   4.239  19.512  1.00  0.00     0.211 HD
ENDBRANCH   5  11
ENDBRANCH   1   5
BRANCH   1  13
ATOM     13  O   UNL     1       9.897   1.889  19.739  1.00  0.00    -0.388 OA
ATOM     14  H   UNL     1      10.705   2.185  20.234  1.00  0.00     0.211 HD
ENDBRANCH   1  13
TORSDOF 8
ENDMDL
MODEL 5
REMARK VINA RESULT:    -3.630      1.227      1.967
REMARK INTER + INTRA:          -5.340
REMARK INTER:                  -5.159
REMARK INTRA:                  -0.181
REMARK UNBOUND:                -0.436
REMARK SMILES O=C[C@H](O)[C@@H](O)[C@H](O)CO
REMARK SMILES IDX 7 1 9 2 10 3 5 5 3 6 2 7 1 8 4 9 6 11 8 13
REMARK H PARENT 10 4 4 10 6 12 8 14
REMARK Flexibility Score: inf
ROOT
ATOM      1  C   UNL     1      16.299  13.426  31.146  1.00  0.00     0.171 C 
ENDROOT
BRANCH   1   2
ATOM      2  C   UNL     1      15.963  11.966  30.800  1.00  0.00     0.190 C 
BRANCH   2   3
ATOM      3  O   UNL     1      14.579  11.770  30.879  1.00  0.00    -0.394 OA
ATOM      4  H   UNL     1      14.289  11.482  29.974  1.00  0.00     0.210 HD
ENDBRANCH   2   3
ENDBRANCH   1   2
BRANCH   1   5
ATOM      5  C   UNL     1      16.928  14.177  29.943  1.00  0.00     0.181 C 
BRANCH   5   6
ATOM      6  C   UNL     1      16.364  13.671  28.598  1.00  0.00     0.209 C 
BRANCH   6   7
ATOM      7  C   UNL     1      16.887  14.504  27.458  1.00  0.00     0.258 C 
ATOM      8  O   UNL     1      16.261  15.475  27.064  1.00  0.00    -0.300 OA
ENDBRANCH   6   7
BRANCH   6   9
ATOM      9  O   UNL     1      14.961  13.727  28.614  1.00  0.00    -0.383 OA
ATOM     10  H   UNL     1      14.642  12.848  28.951  1.00  0.00     0.211 HD
ENDBRANCH   6   9
ENDBRANCH   5   6
BRANCH   5  11
ATOM     11  O   UNL     1      16.708  15.562  30.053  1.00  0.00    -0.387 OA
ATOM     12  H   UNL     1      17.377  16.013  29.474  1.00  0.00     0.211 HD
ENDBRANCH   5  11
ENDBRANCH   1   5
BRANCH   1  13
ATOM     13  O   UNL     1      17.124  13.487  32.284  1.00  0.00    -0.388 OA
ATOM     14  H   UNL     1      17.017  12.635  32.783  1.00  0.00     0.211 HD
ENDBRANCH   1  13
TORSDOF 8
ENDMDL
MODEL 6
REMARK VINA RESULT:    -3.406      1.109      2.108
REMARK INTER + INTRA:          -5.038
REMARK INTER:                  -4.594
REMARK INTRA:                  -0.443
REMARK UNBOUND:                -0.436
REMARK SMILES O=C[C@H](O)[C@@H](O)[C@H](O)CO
REMARK SMILES IDX 7 1 9 2 10 3 5 5 3 6 2 7 1 8 4 9 6 11 8 13
REMARK H PARENT 10 4 4 10 6 12 8 14
REMARK Flexibility Score: inf
ROOT
ATOM      1  C   UNL     1      16.678  13.596  30.286  1.00  0.00     0.171 C 
ENDROOT
BRANCH   1   2
ATOM      2  C   UNL     1      16.993  15.067  30.601  1.00  0.00     0.190 C 
BRANCH   2   3
ATOM      3  O   UNL     1      16.028  15.892  30.011  1.00  0.00    -0.394 OA
ATOM      4  H   UNL     1      15.742  16.531  30.715  1.00  0.00     0.210 HD
ENDBRANCH   2   3
ENDBRANCH   1   2
BRANCH   1   5
ATOM      5  C   UNL     1      16.046  13.426  28.879  1.00  0.00     0.181 C 
BRANCH   5   6
ATOM      6  C   UNL     1      17.125  13.316  27.780  1.00  0.00     0.209 C 
BRANCH   6   7
ATOM      7  C   UNL     1      17.105  14.534  26.895  1.00  0.00     0.258 C 
ATOM      8  O   UNL     1      16.246  15.388  27.038  1.00  0.00    -0.300 OA
ENDBRANCH   6   7
BRANCH   6   9
ATOM      9  O   UNL     1      16.903  12.167  27.003  1.00  0.00    -0.383 OA
ATOM     10  H   UNL     1      16.171  12.386  26.368  1.00  0.00     0.211 HD
ENDBRANCH   6   9
ENDBRANCH   5   6
BRANCH   5  11
ATOM     11  O   UNL     1      15.219  12.289  28.840  1.00  0.00    -0.387 OA
ATOM     12  H   UNL     1      15.321  11.882  27.941  1.00  0.00     0.211 HD
ENDBRANCH   5  11
ENDBRANCH   1   5
BRANCH   1  13
ATOM     13  O   UNL     1      15.863  13.039  31.290  1.00  0.00    -0.388 OA
ATOM     14  H   UNL     1      14.918  13.231  31.055  1.00  0.00     0.211 HD
ENDBRANCH   1  13
TORSDOF 8
ENDMDL
MODEL 7
REMARK VINA RESULT:    -3.363     15.537     16.638
REMARK INTER + INTRA:          -4.979
REMARK INTER:                  -4.819
REMARK INTRA:                  -0.160
REMARK UNBOUND:                -0.436
REMARK SMILES O=C[C@H](O)[C@@H](O)[C@H](O)CO
REMARK SMILES IDX 7 1 9 2 10 3 5 5 3 6 2 7 1 8 4 9 6 11 8 13
REMARK H PARENT 10 4 4 10 6 12 8 14
REMARK Flexibility Score: inf
ROOT
ATOM      1  C   UNL     1      10.589   3.210  17.877  1.00  0.00     0.171 C 
ENDROOT
BRANCH   1   2
ATOM      2  C   UNL     1      10.778   4.725  18.054  1.00  0.00     0.190 C 
BRANCH   2   3
ATOM      3  O   UNL     1      11.719   4.968  19.062  1.00  0.00    -0.394 OA
ATOM      4  H   UNL     1      12.364   4.214  19.025  1.00  0.00     0.210 HD
ENDBRANCH   2   3
ENDBRANCH   1   2
BRANCH   1   5
ATOM      5  C   UNL     1       9.555   2.634  18.882  1.00  0.00     0.181 C 
BRANCH   5   6
ATOM      6  C   UNL     1       8.159   2.486  18.240  1.00  0.00     0.209 C 
BRANCH   6   7
ATOM      7  C   UNL     1       7.234   3.569  18.730  1.00  0.00     0.258 C 
ATOM      8  O   UNL     1       7.513   4.217  19.725  1.00  0.00    -0.300 OA
ENDBRANCH   6   7
BRANCH   6   9
ATOM      9  O   UNL     1       7.617   1.229  18.555  1.00  0.00    -0.383 OA
ATOM     10  H   UNL     1       7.164   1.323  19.434  1.00  0.00     0.211 HD
ENDBRANCH   6   9
ENDBRANCH   5   6
BRANCH   5  11
ATOM     11  O   UNL     1       9.981   1.385  19.371  1.00  0.00    -0.387 OA
ATOM     12  H   UNL     1      10.334   1.533  20.287  1.00  0.00     0.211 HD
ENDBRANCH   5  11
ENDBRANCH   1   5
BRANCH   1  13
ATOM     13  O   UNL     1      11.824   2.542  17.967  1.00  0.00    -0.388 OA
ATOM     14  H   UNL     1      12.542   3.226  17.918  1.00  0.00     0.211 HD
ENDBRANCH   1  13
TORSDOF 8
ENDMDL
MODEL 8
REMARK VINA RESULT:    -3.160      1.206      4.182
REMARK INTER + INTRA:          -4.704
REMARK INTER:                  -3.988
REMARK INTRA:                  -0.716
REMARK UNBOUND:                -0.436
REMARK SMILES O=C[C@H](O)[C@@H](O)[C@H](O)CO
REMARK SMILES IDX 7 1 9 2 10 3 5 5 3 6 2 7 1 8 4 9 6 11 8 13
REMARK H PARENT 10 4 4 10 6 12 8 14
REMARK Flexibility Score: inf
ROOT
ATOM      1  C   UNL     1      16.517  15.166  27.127  1.00  0.00     0.171 C 
ENDROOT
BRANCH   1   2
ATOM      2  C   UNL     1      17.125  15.082  25.718  1.00  0.00     0.190 C 
BRANCH   2   3
ATOM      3  O   UNL     1      16.467  14.093  24.979  1.00  0.00    -0.394 OA
ATOM      4  H   UNL     1      15.510  14.357  24.953  1.00  0.00     0.210 HD
ENDBRANCH   2   3
ENDBRANCH   1   2
BRANCH   1   5
ATOM      5  C   UNL     1      17.105  14.090  28.077  1.00  0.00     0.181 C 
BRANCH   5   6
ATOM      6  C   UNL     1      16.820  14.421  29.558  1.00  0.00     0.209 C 
BRANCH   6   7
ATOM      7  C   UNL     1      16.237  13.226  30.265  1.00  0.00     0.258 C 
ATOM      8  O   UNL     1      15.053  12.954  30.145  1.00  0.00    -0.300 OA
ENDBRANCH   6   7
BRANCH   6   9
ATOM      9  O   UNL     1      15.926  15.500  29.645  1.00  0.00    -0.383 OA
ATOM     10  H   UNL     1      16.088  16.073  28.850  1.00  0.00     0.211 HD
ENDBRANCH   6   9
ENDBRANCH   5   6
BRANCH   5  11
ATOM     11  O   UNL     1      16.583  12.819  27.772  1.00  0.00    -0.387 OA
ATOM     12  H   UNL     1      17.353  12.202  27.670  1.00  0.00     0.211 HD
ENDBRANCH   5  11
ENDBRANCH   1   5
BRANCH   1  13
ATOM     13  O   UNL     1      15.113  15.090  27.066  1.00  0.00    -0.388 OA
ATOM     14  H   UNL     1      14.874  14.503  26.301  1.00  0.00     0.211 HD
ENDBRANCH   1  13
TORSDOF 8
ENDMDL
MODEL 9
REMARK VINA RESULT:    -3.069      1.138      3.998
REMARK INTER + INTRA:          -4.582
REMARK INTER:                  -4.378
REMARK INTRA:                  -0.204
REMARK UNBOUND:                -0.436
REMARK SMILES O=C[C@H](O)[C@@H](O)[C@H](O)CO
REMARK SMILES IDX 7 1 9 2 10 3 5 5 3 6 2 7 1 8 4 9 6 11 8 13
REMARK H PARENT 10 4 4 10 6 12 8 14
REMARK Flexibility Score: inf
ROOT
ATOM      1  C   UNL     1      16.082  13.848  28.128  1.00  0.00     0.171 C 
ENDROOT
BRANCH   1   2
ATOM      2  C   UNL     1      16.818  14.954  27.355  1.00  0.00     0.190 C 
BRANCH   2   3
ATOM      3  O   UNL     1      15.887  15.826  26.780  1.00  0.00    -0.394 OA
ATOM      4  H   UNL     1      15.775  16.574  27.423  1.00  0.00     0.210 HD
ENDBRANCH   2   3
ENDBRANCH   1   2
BRANCH   1   5
ATOM      5  C   UNL     1      15.837  14.242  29.609  1.00  0.00     0.181 C 
BRANCH   5   6
ATOM      6  C   UNL     1      16.785  13.485  30.564  1.00  0.00     0.209 C 
BRANCH   6   7
ATOM      7  C   UNL     1      16.138  12.219  31.060  1.00  0.00     0.258 C 
ATOM      8  O   UNL     1      15.008  11.923  30.706  1.00  0.00    -0.300 OA
ENDBRANCH   6   7
BRANCH   6   9
ATOM      9  O   UNL     1      17.116  14.302  31.658  1.00  0.00    -0.383 OA
ATOM     10  H   UNL     1      17.525  13.712  32.345  1.00  0.00     0.211 HD
ENDBRANCH   6   9
ENDBRANCH   5   6
BRANCH   5  11
ATOM     11  O   UNL     1      15.999  15.628  29.787  1.00  0.00    -0.387 OA
ATOM     12  H   UNL     1      16.268  16.007  28.911  1.00  0.00     0.211 HD
ENDBRANCH   5  11
ENDBRANCH   1   5
BRANCH   1  13
ATOM     13  O   UNL     1      16.774  12.627  28.026  1.00  0.00    -0.388 OA
ATOM     14  H   UNL     1      17.372  12.683  27.235  1.00  0.00     0.211 HD
ENDBRANCH   1  13
TORSDOF 8
ENDMDL
