MODEL 1
REMARK VINA RESULT:    -3.048      0.000      0.000
REMARK INTER + INTRA:          -3.315
REMARK INTER:                  -3.315
REMARK INTRA:                   0.000
REMARK UNBOUND:                 0.000
REMARK SMILES [NH3+]CC(=O)[O-]
REMARK SMILES IDX 2 1 1 2 3 6 4 7 5 8
REMARK H PARENT 1 3 1 4 1 5
REMARK Flexibility Score: inf
ROOT
ATOM      1  C   UNL     1      -2.975  20.645 -19.630  1.00  0.00     0.312 C 
ENDROOT
BRANCH   1   2
ATOM      2  N   UNL     1      -4.141  21.078 -20.396  1.00  0.00    -0.353 N 
ATOM      3  H   UNL     1      -3.976  22.046 -20.752  1.00  0.00     0.344 HD
ATOM      4  H   UNL     1      -4.292  20.439 -21.212  1.00  0.00     0.344 HD
ATOM      5  H   UNL     1      -4.992  21.080 -19.787  1.00  0.00     0.344 HD
ENDBRANCH   1   2
BRANCH   1   6
ATOM      6  C   UNL     1      -1.774  20.524 -20.518  1.00  0.00     0.096 C 
ATOM      7  O   UNL     1      -1.917  20.395 -21.762  1.00  0.00    -0.544 OA
ATOM      8  O   UNL     1      -0.498  20.608 -19.977  1.00  0.00    -0.544 OA
ENDBRANCH   1   6
TORSDOF 2
ENDMDL
MODEL 2
REMARK VINA RESULT:    -3.018      0.102      1.452
REMARK INTER + INTRA:          -3.283
REMARK INTER:                  -3.283
REMARK INTRA:                   0.000
REMARK UNBOUND:                 0.000
REMARK SMILES [NH3+]CC(=O)[O-]
REMARK SMILES IDX 2 1 1 2 3 6 4 7 5 8
REMARK H PARENT 1 3 1 4 1 5
REMARK Flexibility Score: inf
ROOT
ATOM      1  C   UNL     1      -2.944  20.635 -19.639  1.00  0.00     0.312 C 
ENDROOT
BRANCH   1   2
ATOM      2  N   UNL     1      -4.130  21.071 -20.373  1.00  0.00    -0.353 N 
ATOM      3  H   UNL     1      -4.536  20.254 -20.883  1.00  0.00     0.344 HD
ATOM      4  H   UNL     1      -4.847  21.445 -19.707  1.00  0.00     0.344 HD
ATOM      5  H   UNL     1      -3.872  21.811 -21.066  1.00  0.00     0.344 HD
ENDBRANCH   1   2
BRANCH   1   6
ATOM      6  C   UNL     1      -1.762  20.538 -20.554  1.00  0.00     0.096 C 
ATOM      7  O   UNL     1      -0.594  20.567 -20.084  1.00  0.00    -0.544 OA
ATOM      8  O   UNL     1      -1.951  20.364 -21.918  1.00  0.00    -0.544 OA
ENDBRANCH   1   6
TORSDOF 2
ENDMDL
MODEL 3
REMARK VINA RESULT:    -2.952      2.391      2.945
REMARK INTER + INTRA:          -3.211
REMARK INTER:                  -3.211
REMARK INTRA:                   0.000
REMARK UNBOUND:                 0.000
REMARK SMILES [NH3+]CC(=O)[O-]
REMARK SMILES IDX 2 1 1 2 3 6 4 7 5 8
REMARK H PARENT 1 3 1 4 1 5
REMARK Flexibility Score: inf
ROOT
ATOM      1  C   UNL     1      -1.123  20.300 -20.630  1.00  0.00     0.312 C 
ENDROOT
BRANCH   1   2
ATOM      2  N   UNL     1       0.088  20.702 -19.917  1.00  0.00    -0.353 N 
ATOM      3  H   UNL     1       0.024  20.377 -18.925  1.00  0.00     0.344 HD
ATOM      4  H   UNL     1       0.928  20.265 -20.362  1.00  0.00     0.344 HD
ATOM      5  H   UNL     1       0.183  21.744 -19.927  1.00  0.00     0.344 HD
ENDBRANCH   1   2
BRANCH   1   6
ATOM      6  C   UNL     1      -2.345  20.786 -19.911  1.00  0.00     0.096 C 
ATOM      7  O   UNL     1      -2.288  21.070 -18.686  1.00  0.00    -0.544 OA
ATOM      8  O   UNL     1      -3.532  20.973 -20.607  1.00  0.00    -0.544 OA
ENDBRANCH   1   6
TORSDOF 2
ENDMDL
MODEL 4
REMARK VINA RESULT:    -2.689     15.570     15.861
REMARK INTER + INTRA:          -2.925
REMARK INTER:                  -2.925
REMARK INTRA:                   0.000
REMARK UNBOUND:                 0.000
REMARK SMILES [NH3+]CC(=O)[O-]
REMARK SMILES IDX 2 1 1 2 3 6 4 7 5 8
REMARK H PARENT 1 3 1 4 1 5
REMARK Flexibility Score: inf
ROOT
ATOM      1  C   UNL     1     -11.812  34.412 -19.746  1.00  0.00     0.312 C 
ENDROOT
BRANCH   1   2
ATOM      2  N   UNL     1     -11.850  34.572 -18.293  1.00  0.00    -0.353 N 
ATOM      3  H   UNL     1     -10.873  34.677 -17.935  1.00  0.00     0.344 HD
ATOM      4  H   UNL     1     -12.397  35.428 -18.040  1.00  0.00     0.344 HD
ATOM      5  H   UNL     1     -12.285  33.730 -17.850  1.00  0.00     0.344 HD
ENDBRANCH   1   2
BRANCH   1   6
ATOM      6  C   UNL     1     -10.601  33.632 -20.160  1.00  0.00     0.096 C 
ATOM      7  O   UNL     1      -9.763  33.258 -19.298  1.00  0.00    -0.544 OA
ATOM      8  O   UNL     1     -10.427  33.273 -21.490  1.00  0.00    -0.544 OA
ENDBRANCH   1   6
TORSDOF 2
ENDMDL
MODEL 5
REMARK VINA RESULT:    -2.676     15.041     15.334
REMARK INTER + INTRA:          -2.910
REMARK INTER:                  -2.910
REMARK INTRA:                   0.000
REMARK UNBOUND:                 0.000
REMARK SMILES [NH3+]CC(=O)[O-]
REMARK SMILES IDX 2 1 1 2 3 6 4 7 5 8
REMARK H PARENT 1 3 1 4 1 5
REMARK Flexibility Score: inf
ROOT
ATOM      1  C   UNL     1      -9.857  33.222 -21.251  1.00  0.00     0.312 C 
ENDROOT
BRANCH   1   2
ATOM      2  N   UNL     1      -8.799  32.301 -20.842  1.00  0.00    -0.353 N 
ATOM      3  H   UNL     1      -8.598  32.441 -19.826  1.00  0.00     0.344 HD
ATOM      4  H   UNL     1      -9.107  31.311 -20.992  1.00  0.00     0.344 HD
ATOM      5  H   UNL     1      -7.928  32.487 -21.390  1.00  0.00     0.344 HD
ENDBRANCH   1   2
BRANCH   1   6
ATOM      6  C   UNL     1     -10.619  33.716 -20.059  1.00  0.00     0.096 C 
ATOM      7  O   UNL     1     -10.280  33.360 -18.900  1.00  0.00    -0.544 OA
ATOM      8  O   UNL     1     -11.668  34.609 -20.226  1.00  0.00    -0.544 OA
ENDBRANCH   1   6
TORSDOF 2
ENDMDL
MODEL 6
REMARK VINA RESULT:    -2.666      2.476      2.819
REMARK INTER + INTRA:          -2.900
REMARK INTER:                  -2.900
REMARK INTRA:                   0.000
REMARK UNBOUND:                 0.000
REMARK SMILES [NH3+]CC(=O)[O-]
REMARK SMILES IDX 2 1 1 2 3 6 4 7 5 8
REMARK H PARENT 1 3 1 4 1 5
REMARK Flexibility Score: inf
ROOT
ATOM      1  C   UNL     1      -2.005  20.610 -20.032  1.00  0.00     0.312 C 
ENDROOT
BRANCH   1   2
ATOM      2  N   UNL     1      -1.905  20.452 -21.482  1.00  0.00    -0.353 N 
ATOM      3  H   UNL     1      -1.159  21.089 -21.845  1.00  0.00     0.344 HD
ATOM      4  H   UNL     1      -1.651  19.464 -21.719  1.00  0.00     0.344 HD
ATOM      5  H   UNL     1      -2.814  20.702 -21.935  1.00  0.00     0.344 HD
ENDBRANCH   1   2
BRANCH   1   6
ATOM      6  C   UNL     1      -3.439  20.610 -19.599  1.00  0.00     0.096 C 
ATOM      7  O   UNL     1      -3.858  19.733 -18.799  1.00  0.00    -0.544 OA
ATOM      8  O   UNL     1      -4.298  21.609 -20.037  1.00  0.00    -0.544 OA
ENDBRANCH   1   6
TORSDOF 2
ENDMDL
MODEL 7
REMARK VINA RESULT:    -2.599     16.375     16.670
REMARK INTER + INTRA:          -2.827
REMARK INTER:                  -2.827
REMARK INTRA:                   0.000
REMARK UNBOUND:                 0.000
REMARK SMILES [NH3+]CC(=O)[O-]
REMARK SMILES IDX 2 1 1 2 3 6 4 7 5 8
REMARK H PARENT 1 3 1 4 1 5
REMARK Flexibility Score: inf
ROOT
ATOM      1  C   UNL     1     -11.501  34.534 -20.360  1.00  0.00     0.312 C 
ENDROOT
BRANCH   1   2
ATOM      2  N   UNL     1     -10.679  33.450 -20.895  1.00  0.00    -0.353 N 
ATOM      3  H   UNL     1      -9.674  33.736 -20.866  1.00  0.00     0.344 HD
ATOM      4  H   UNL     1     -10.801  32.587 -20.314  1.00  0.00     0.344 HD
ATOM      5  H   UNL     1     -10.947  33.250 -21.886  1.00  0.00     0.344 HD
ENDBRANCH   1   2
BRANCH   1   6
ATOM      6  C   UNL     1     -11.936  34.226 -18.960  1.00  0.00     0.096 C 
ATOM      7  O   UNL     1     -11.078  34.034 -18.059  1.00  0.00    -0.544 OA
ATOM      8  O   UNL     1     -13.286  34.205 -18.640  1.00  0.00    -0.544 OA
ENDBRANCH   1   6
TORSDOF 2
ENDMDL
MODEL 8
REMARK VINA RESULT:    -2.599     14.636     14.862
REMARK INTER + INTRA:          -2.827
REMARK INTER:                  -2.827
REMARK INTRA:                   0.000
REMARK UNBOUND:                 0.000
REMARK SMILES [NH3+]CC(=O)[O-]
REMARK SMILES IDX 2 1 1 2 3 6 4 7 5 8
REMARK H PARENT 1 3 1 4 1 5
REMARK Flexibility Score: inf
ROOT
ATOM      1  C   UNL     1     -10.532  33.360 -21.151  1.00  0.00     0.312 C 
ENDROOT
BRANCH   1   2
ATOM      2  N   UNL     1     -11.150  34.386 -20.313  1.00  0.00    -0.353 N 
ATOM      3  H   UNL     1     -11.727  35.016 -20.914  1.00  0.00     0.344 HD
ATOM      4  H   UNL     1     -11.771  33.939 -19.598  1.00  0.00     0.344 HD
ATOM      5  H   UNL     1     -10.412  34.953 -19.836  1.00  0.00     0.344 HD
ENDBRANCH   1   2
BRANCH   1   6
ATOM      6  C   UNL     1      -9.048  33.333 -20.946  1.00  0.00     0.096 C 
ATOM      7  O   UNL     1      -8.493  32.307 -20.472  1.00  0.00    -0.544 OA
ATOM      8  O   UNL     1      -8.274  34.421 -21.326  1.00  0.00    -0.544 OA
ENDBRANCH   1   6
TORSDOF 2
ENDMDL
MODEL 9
REMARK VINA RESULT:    -2.523     16.125     16.434
REMARK INTER + INTRA:          -2.744
REMARK INTER:                  -2.744
REMARK INTRA:                   0.000
REMARK UNBOUND:                 0.000
REMARK SMILES [NH3+]CC(=O)[O-]
REMARK SMILES IDX 2 1 1 2 3 6 4 7 5 8
REMARK H PARENT 1 3 1 4 1 5
REMARK Flexibility Score: inf
ROOT
ATOM      1  C   UNL     1     -10.788  33.455 -18.536  1.00  0.00     0.312 C 
ENDROOT
BRANCH   1   2
ATOM      2  N   UNL     1      -9.702  33.252 -19.493  1.00  0.00    -0.353 N 
ATOM      3  H   UNL     1      -9.465  32.234 -19.530  1.00  0.00     0.344 HD
ATOM      4  H   UNL     1     -10.001  33.564 -20.447  1.00  0.00     0.344 HD
ATOM      5  H   UNL     1      -8.855  33.788 -19.195  1.00  0.00     0.344 HD
ENDBRANCH   1   2
BRANCH   1   6
ATOM      6  C   UNL     1     -11.943  34.152 -19.187  1.00  0.00     0.096 C 
ATOM      7  O   UNL     1     -13.037  34.271 -18.575  1.00  0.00    -0.544 OA
ATOM      8  O   UNL     1     -11.795  34.714 -20.448  1.00  0.00    -0.544 OA
ENDBRANCH   1   6
TORSDOF 2
ENDMDL
