MODEL 1
REMARK VINA RESULT:    -4.237      0.000      0.000
REMARK INTER + INTRA:          -4.488
REMARK INTER:                  -5.228
REMARK INTRA:                   0.740
REMARK UNBOUND:                 0.740
REMARK SMILES CC1=CC=CC(C)(C)CC1=O
REMARK SMILES IDX 1 1 2 2 3 3 10 4 11 5 9 6 4 8 5 9 6 10 7 11 8 12
REMARK H PARENT
REMARK Flexibility Score: 80.00
ROOT
ATOM      1  C   UNL     1     -12.501 -38.363  31.997  1.00  0.00     0.048 C 
ATOM      2  C   UNL     1     -12.507 -37.336  30.889  1.00  0.00    -0.008 C 
ATOM      3  C   UNL     1     -13.378 -37.518  29.872  1.00  0.00     0.007 C 
ENDROOT
BRANCH   2   4
ATOM      4  C   UNL     1     -11.608 -36.166  31.045  1.00  0.00     0.159 C 
ATOM      5  O   UNL     1     -11.023 -35.992  32.150  1.00  0.00    -0.295 OA
BRANCH   4   6
ATOM      6  C   UNL     1     -11.339 -35.177  29.953  1.00  0.00     0.091 CG0
ATOM      7  G   UNL     1     -12.616 -34.473  29.442  1.00  0.00     0.000 G0
ENDBRANCH   4   6
ENDBRANCH   2   4
BRANCH   3   8
ATOM      8  C   UNL     1     -13.632 -36.681  28.676  1.00  0.00    -0.003 C 
ATOM      9  C   UNL     1     -13.328 -35.394  28.465  1.00  0.00    -0.020 C 
BRANCH   9  10
ATOM     10  C   UNL     1     -12.607 -34.475  29.423  1.00  0.00    -0.010 CG0
ATOM     11  C   UNL     1     -13.572 -34.010  30.537  1.00  0.00     0.016 C 
ATOM     12  C   UNL     1     -12.145 -33.225  28.639  1.00  0.00     0.016 C 
ATOM     13  G   UNL     1     -11.351 -35.183  29.979  1.00  0.00     0.000 G0
ENDBRANCH   9  10
ENDBRANCH   3   8
TORSDOF 0
ENDMDL
MODEL 2
REMARK VINA RESULT:    -4.090      1.523      3.504
REMARK INTER + INTRA:          -4.307
REMARK INTER:                  -5.058
REMARK INTRA:                   0.751
REMARK UNBOUND:                 0.740
REMARK SMILES CC1=CC=CC(C)(C)CC1=O
REMARK SMILES IDX 1 1 2 2 3 3 10 4 11 5 9 6 4 8 5 9 6 10 7 11 8 12
REMARK H PARENT
REMARK Flexibility Score: 80.00
ROOT
ATOM      1  C   UNL     1     -13.436 -32.690  29.300  1.00  0.00     0.048 C 
ATOM      2  C   UNL     1     -13.432 -34.162  29.639  1.00  0.00    -0.008 C 
ATOM      3  C   UNL     1     -13.546 -35.040  28.618  1.00  0.00     0.007 C 
ENDROOT
BRANCH   2   4
ATOM      4  C   UNL     1     -13.226 -34.528  31.063  1.00  0.00     0.159 C 
ATOM      5  O   UNL     1     -12.880 -33.629  31.878  1.00  0.00    -0.295 OA
BRANCH   4   6
ATOM      6  C   UNL     1     -13.420 -35.914  31.597  1.00  0.00     0.091 CG0
ATOM      7  G   UNL     1     -12.520 -36.963  30.907  1.00  0.00     0.000 G0
ENDBRANCH   4   6
ENDBRANCH   2   4
BRANCH   3   8
ATOM      8  C   UNL     1     -13.546 -36.522  28.632  1.00  0.00    -0.003 C 
ATOM      9  C   UNL     1     -13.109 -37.357  29.584  1.00  0.00    -0.020 C 
BRANCH   9  10
ATOM     10  C   UNL     1     -12.519 -36.966  30.919  1.00  0.00    -0.010 CG0
ATOM     11  C   UNL     1     -11.061 -36.490  30.732  1.00  0.00     0.016 C 
ATOM     12  C   UNL     1     -12.500 -38.219  31.824  1.00  0.00     0.016 C 
ATOM     13  G   UNL     1     -13.414 -35.901  31.592  1.00  0.00     0.000 G0
ENDBRANCH   9  10
ENDBRANCH   3   8
TORSDOF 0
ENDMDL
MODEL 3
REMARK VINA RESULT:    -4.071      2.154      3.888
REMARK INTER + INTRA:          -4.283
REMARK INTER:                  -5.037
REMARK INTRA:                   0.754
REMARK UNBOUND:                 0.740
REMARK SMILES CC1=CC=CC(C)(C)CC1=O
REMARK SMILES IDX 1 1 2 2 3 3 10 4 11 5 9 6 4 8 5 9 6 10 7 11 8 12
REMARK H PARENT
REMARK Flexibility Score: 80.00
ROOT
ATOM      1  C   UNL     1     -13.925 -33.460  26.745  1.00  0.00     0.048 C 
ATOM      2  C   UNL     1     -13.087 -33.729  27.973  1.00  0.00    -0.008 C 
ATOM      3  C   UNL     1     -13.590 -33.354  29.169  1.00  0.00     0.007 C 
ENDROOT
BRANCH   2   4
ATOM      4  C   UNL     1     -11.808 -34.455  27.772  1.00  0.00     0.159 C 
ATOM      5  O   UNL     1     -11.579 -34.987  26.651  1.00  0.00    -0.295 OA
BRANCH   4   6
ATOM      6  C   UNL     1     -10.755 -34.584  28.830  1.00  0.00     0.091 CG0
ATOM      7  G   UNL     1     -11.259 -35.294  30.107  1.00  0.00     0.000 G0
ENDBRANCH   4   6
ENDBRANCH   2   4
BRANCH   3   8
ATOM      8  C   UNL     1     -13.024 -33.507  30.530  1.00  0.00    -0.003 C 
ATOM      9  C   UNL     1     -12.050 -34.324  30.952  1.00  0.00    -0.020 C 
BRANCH   9  10
ATOM     10  C   UNL     1     -11.260 -35.292  30.103  1.00  0.00    -0.010 CG0
ATOM     11  C   UNL     1     -12.115 -36.542  29.793  1.00  0.00     0.016 C 
ATOM     12  C   UNL     1     -10.024 -35.748  30.912  1.00  0.00     0.016 C 
ATOM     13  G   UNL     1     -10.761 -34.578  28.827  1.00  0.00     0.000 G0
ENDBRANCH   9  10
ENDBRANCH   3   8
TORSDOF 0
ENDMDL
MODEL 4
REMARK VINA RESULT:    -4.062      1.601      3.729
REMARK INTER + INTRA:          -4.272
REMARK INTER:                  -5.024
REMARK INTRA:                   0.751
REMARK UNBOUND:                 0.740
REMARK SMILES CC1=CC=CC(C)(C)CC1=O
REMARK SMILES IDX 1 1 2 2 3 3 10 4 11 5 9 6 4 8 5 9 6 10 7 11 8 12
REMARK H PARENT
REMARK Flexibility Score: 80.00
ROOT
ATOM      1  C   UNL     1     -12.804 -32.722  28.678  1.00  0.00     0.048 C 
ATOM      2  C   UNL     1     -12.805 -33.834  29.699  1.00  0.00    -0.008 C 
ATOM      3  C   UNL     1     -13.628 -33.707  30.763  1.00  0.00     0.007 C 
ENDROOT
BRANCH   2   4
ATOM      4  C   UNL     1     -11.957 -35.018  29.411  1.00  0.00     0.159 C 
ATOM      5  O   UNL     1     -11.455 -35.142  28.260  1.00  0.00    -0.295 OA
BRANCH   4   6
ATOM      6  C   UNL     1     -11.646 -36.079  30.422  1.00  0.00     0.091 CG0
ATOM      7  G   UNL     1     -12.905 -36.801  30.953  1.00  0.00     0.000 G0
ENDBRANCH   4   6
ENDBRANCH   2   4
BRANCH   3   8
ATOM      8  C   UNL     1     -13.867 -34.629  31.898  1.00  0.00    -0.003 C 
ATOM      9  C   UNL     1     -13.581 -35.934  32.000  1.00  0.00    -0.020 C 
BRANCH   9  10
ATOM     10  C   UNL     1     -12.903 -36.788  30.955  1.00  0.00    -0.010 CG0
ATOM     11  C   UNL     1     -13.907 -37.151  29.837  1.00  0.00     0.016 C 
ATOM     12  C   UNL     1     -12.443 -38.101  31.628  1.00  0.00     0.016 C 
ATOM     13  G   UNL     1     -11.651 -36.059  30.419  1.00  0.00     0.000 G0
ENDBRANCH   9  10
ENDBRANCH   3   8
TORSDOF 0
ENDMDL
MODEL 5
REMARK VINA RESULT:    -4.058      2.256      3.836
REMARK INTER + INTRA:          -4.268
REMARK INTER:                  -5.018
REMARK INTRA:                   0.750
REMARK UNBOUND:                 0.740
REMARK SMILES CC1=CC=CC(C)(C)CC1=O
REMARK SMILES IDX 1 1 2 2 3 3 10 4 11 5 9 6 4 8 5 9 6 10 7 11 8 12
REMARK H PARENT
REMARK Flexibility Score: 80.00
ROOT
ATOM      1  C   UNL     1     -14.078 -31.993  28.584  1.00  0.00     0.048 C 
ATOM      2  C   UNL     1     -13.255 -33.136  29.129  1.00  0.00    -0.008 C 
ATOM      3  C   UNL     1     -12.259 -33.616  28.354  1.00  0.00     0.007 C 
ENDROOT
BRANCH   2   4
ATOM      4  C   UNL     1     -13.560 -33.590  30.509  1.00  0.00     0.159 C 
ATOM      5  O   UNL     1     -14.334 -32.893  31.223  1.00  0.00    -0.295 OA
BRANCH   4   6
ATOM      6  C   UNL     1     -13.007 -34.847  31.107  1.00  0.00     0.091 CG0
ATOM      7  G   UNL     1     -11.463 -34.870  31.156  1.00  0.00     0.000 G0
ENDBRANCH   4   6
ENDBRANCH   2   4
BRANCH   3   8
ATOM      8  C   UNL     1     -11.280 -34.695  28.622  1.00  0.00    -0.003 C 
ATOM      9  C   UNL     1     -10.919 -35.236  29.794  1.00  0.00    -0.020 C 
BRANCH   9  10
ATOM     10  C   UNL     1     -11.465 -34.874  31.154  1.00  0.00    -0.010 CG0
ATOM     11  C   UNL     1     -10.847 -33.540  31.634  1.00  0.00     0.016 C 
ATOM     12  C   UNL     1     -11.048 -35.979  32.152  1.00  0.00     0.016 C 
ATOM     13  G   UNL     1     -13.008 -34.832  31.102  1.00  0.00     0.000 G0
ENDBRANCH   9  10
ENDBRANCH   3   8
TORSDOF 0
ENDMDL
MODEL 6
REMARK VINA RESULT:    -4.040      1.711      2.721
REMARK INTER + INTRA:          -4.245
REMARK INTER:                  -4.996
REMARK INTRA:                   0.752
REMARK UNBOUND:                 0.740
REMARK SMILES CC1=CC=CC(C)(C)CC1=O
REMARK SMILES IDX 1 1 2 2 3 3 10 4 11 5 9 6 4 8 5 9 6 10 7 11 8 12
REMARK H PARENT
REMARK Flexibility Score: 80.00
ROOT
ATOM      1  C   UNL     1     -13.612 -35.028  32.389  1.00  0.00     0.048 C 
ATOM      2  C   UNL     1     -13.403 -34.755  30.919  1.00  0.00    -0.008 C 
ATOM      3  C   UNL     1     -13.641 -33.501  30.475  1.00  0.00     0.007 C 
ENDROOT
BRANCH   2   4
ATOM      4  C   UNL     1     -12.878 -35.869  30.091  1.00  0.00     0.159 C 
ATOM      5  O   UNL     1     -12.454 -36.909  30.669  1.00  0.00    -0.295 OA
BRANCH   4   6
ATOM      6  C   UNL     1     -12.834 -35.839  28.594  1.00  0.00     0.091 CG0
ATOM      7  G   UNL     1     -11.992 -34.671  28.034  1.00  0.00     0.000 G0
ENDBRANCH   4   6
ENDBRANCH   2   4
BRANCH   3   8
ATOM      8  C   UNL     1     -13.501 -32.930  29.115  1.00  0.00    -0.003 C 
ATOM      9  C   UNL     1     -12.807 -33.398  28.070  1.00  0.00    -0.020 C 
BRANCH   9  10
ATOM     10  C   UNL     1     -11.999 -34.674  28.029  1.00  0.00    -0.010 CG0
ATOM     11  C   UNL     1     -10.658 -34.474  28.771  1.00  0.00     0.016 C 
ATOM     12  C   UNL     1     -11.683 -34.999  26.551  1.00  0.00     0.016 C 
ATOM     13  G   UNL     1     -12.834 -35.838  28.608  1.00  0.00     0.000 G0
ENDBRANCH   9  10
ENDBRANCH   3   8
TORSDOF 0
ENDMDL
MODEL 7
REMARK VINA RESULT:    -3.993      1.709      2.905
REMARK INTER + INTRA:          -4.188
REMARK INTER:                  -4.934
REMARK INTRA:                   0.747
REMARK UNBOUND:                 0.740
REMARK SMILES CC1=CC=CC(C)(C)CC1=O
REMARK SMILES IDX 1 1 2 2 3 3 10 4 11 5 9 6 4 8 5 9 6 10 7 11 8 12
REMARK H PARENT
REMARK Flexibility Score: 80.00
ROOT
ATOM      1  C   UNL     1     -14.011 -37.964  28.625  1.00  0.00     0.048 C 
ATOM      2  C   UNL     1     -13.336 -37.080  29.648  1.00  0.00    -0.008 C 
ATOM      3  C   UNL     1     -12.850 -37.670  30.762  1.00  0.00     0.007 C 
ENDROOT
BRANCH   2   4
ATOM      4  C   UNL     1     -13.192 -35.643  29.309  1.00  0.00     0.159 C 
ATOM      5  O   UNL     1     -13.422 -35.270  28.125  1.00  0.00    -0.295 OA
BRANCH   4   6
ATOM      6  C   UNL     1     -12.799 -34.594  30.304  1.00  0.00     0.091 CG0
ATOM      7  G   UNL     1     -11.408 -34.840  30.930  1.00  0.00     0.000 G0
ENDBRANCH   4   6
ENDBRANCH   2   4
BRANCH   3   8
ATOM      8  C   UNL     1     -12.125 -37.081  31.912  1.00  0.00    -0.003 C 
ATOM      9  C   UNL     1     -11.500 -35.899  32.000  1.00  0.00    -0.020 C 
BRANCH   9  10
ATOM     10  C   UNL     1     -11.410 -34.849  30.918  1.00  0.00    -0.010 CG0
ATOM     11  C   UNL     1     -10.355 -35.264  29.867  1.00  0.00     0.016 C 
ATOM     12  C   UNL     1     -10.943 -33.526  31.566  1.00  0.00     0.016 C 
ATOM     13  G   UNL     1     -12.807 -34.615  30.301  1.00  0.00     0.000 G0
ENDBRANCH   9  10
ENDBRANCH   3   8
TORSDOF 0
ENDMDL
MODEL 8
REMARK VINA RESULT:    -3.949      1.376      2.279
REMARK INTER + INTRA:          -4.133
REMARK INTER:                  -4.893
REMARK INTRA:                   0.759
REMARK UNBOUND:                 0.740
REMARK SMILES CC1=CC=CC(C)(C)CC1=O
REMARK SMILES IDX 1 1 2 2 3 3 10 4 11 5 9 6 4 8 5 9 6 10 7 11 8 12
REMARK H PARENT
REMARK Flexibility Score: 80.00
ROOT
ATOM      1  C   UNL     1     -14.140 -37.625  28.609  1.00  0.00     0.048 C 
ATOM      2  C   UNL     1     -13.260 -36.449  28.962  1.00  0.00    -0.008 C 
ATOM      3  C   UNL     1     -13.451 -35.297  28.283  1.00  0.00     0.007 C 
ENDROOT
BRANCH   2   4
ATOM      4  C   UNL     1     -12.306 -36.632  30.084  1.00  0.00     0.159 C 
ATOM      5  O   UNL     1     -12.415 -37.655  30.815  1.00  0.00    -0.295 OA
BRANCH   4   6
ATOM      6  C   UNL     1     -11.200 -35.671  30.394  1.00  0.00     0.091 CG0
ATOM      7  G   UNL     1     -11.705 -34.248  30.724  1.00  0.00     0.000 G0
ENDBRANCH   4   6
ENDBRANCH   2   4
BRANCH   3   8
ATOM      8  C   UNL     1     -12.774 -33.987  28.421  1.00  0.00    -0.003 C 
ATOM      9  C   UNL     1     -12.045 -33.517  29.442  1.00  0.00    -0.020 C 
BRANCH   9  10
ATOM     10  C   UNL     1     -11.714 -34.250  30.720  1.00  0.00    -0.010 CG0
ATOM     11  C   UNL     1     -12.944 -34.261  31.656  1.00  0.00     0.016 C 
ATOM     12  C   UNL     1     -10.576 -33.486  31.436  1.00  0.00     0.016 C 
ATOM     13  G   UNL     1     -11.203 -35.670  30.389  1.00  0.00     0.000 G0
ENDBRANCH   9  10
ENDBRANCH   3   8
TORSDOF 0
ENDMDL
MODEL 9
REMARK VINA RESULT:    -3.921      2.105      3.570
REMARK INTER + INTRA:          -4.098
REMARK INTER:                  -4.852
REMARK INTRA:                   0.753
REMARK UNBOUND:                 0.740
REMARK SMILES CC1=CC=CC(C)(C)CC1=O
REMARK SMILES IDX 1 1 2 2 3 3 10 4 11 5 9 6 4 8 5 9 6 10 7 11 8 12
REMARK H PARENT
REMARK Flexibility Score: 80.00
ROOT
ATOM      1  C   UNL     1     -15.087 -32.000  30.763  1.00  0.00     0.048 C 
ATOM      2  C   UNL     1     -14.006 -32.957  30.320  1.00  0.00    -0.008 C 
ATOM      3  C   UNL     1     -13.464 -32.766  29.097  1.00  0.00     0.007 C 
ENDROOT
BRANCH   2   4
ATOM      4  C   UNL     1     -13.572 -33.987  31.297  1.00  0.00     0.159 C 
ATOM      5  O   UNL     1     -13.977 -33.904  32.489  1.00  0.00    -0.295 OA
BRANCH   4   6
ATOM      6  C   UNL     1     -12.681 -35.138  30.944  1.00  0.00     0.091 CG0
ATOM      7  G   UNL     1     -11.312 -34.698  30.380  1.00  0.00     0.000 G0
ENDBRANCH   4   6
ENDBRANCH   2   4
BRANCH   3   8
ATOM      8  C   UNL     1     -12.384 -33.511  28.408  1.00  0.00    -0.003 C 
ATOM      9  C   UNL     1     -11.453 -34.322  28.928  1.00  0.00    -0.020 C 
BRANCH   9  10
ATOM     10  C   UNL     1     -11.301 -34.696  30.383  1.00  0.00    -0.010 CG0
ATOM     11  C   UNL     1     -10.668 -33.523  31.166  1.00  0.00     0.016 C 
ATOM     12  C   UNL     1     -10.340 -35.904  30.474  1.00  0.00     0.016 C 
ATOM     13  G   UNL     1     -12.669 -35.127  30.956  1.00  0.00     0.000 G0
ENDBRANCH   9  10
ENDBRANCH   3   8
TORSDOF 0
ENDMDL
