MODEL 1
REMARK VINA RESULT:    -3.062      0.000      0.000
REMARK INTER + INTRA:          -3.062
REMARK INTER:                  -3.062
REMARK INTRA:                   0.000
REMARK UNBOUND:                 0.000
REMARK SMILES CC(=O)[O-]
REMARK SMILES IDX 1 1 2 2 3 3 4 4
REMARK H PARENT
REMARK Flexibility Score: inf
ROOT
ATOM      1  C   UNL     1     -21.344 -14.759 -21.714  1.00  0.00     0.063 C 
ATOM      2  C   UNL     1     -20.487 -14.340 -20.568  1.00  0.00     0.038 C 
ATOM      3  O   UNL     1     -19.288 -14.716 -20.505  1.00  0.00    -0.550 OA
ATOM      4  O   UNL     1     -21.025 -13.578 -19.538  1.00  0.00    -0.550 OA
ENDROOT
TORSDOF 0
ENDMDL
MODEL 2
REMARK VINA RESULT:    -2.814      1.394      1.767
REMARK INTER + INTRA:          -2.814
REMARK INTER:                  -2.814
REMARK INTRA:                   0.000
REMARK UNBOUND:                 0.000
REMARK SMILES CC(=O)[O-]
REMARK SMILES IDX 1 1 2 2 3 3 4 4
REMARK H PARENT
REMARK Flexibility Score: inf
ROOT
ATOM      1  C   UNL     1     -21.075 -13.575 -19.639  1.00  0.00     0.063 C 
ATOM      2  C   UNL     1     -20.428 -14.447 -20.661  1.00  0.00     0.038 C 
ATOM      3  O   UNL     1     -19.223 -14.787 -20.530  1.00  0.00    -0.550 OA
ATOM      4  O   UNL     1     -21.136 -14.842 -21.789  1.00  0.00    -0.550 OA
ENDROOT
TORSDOF 0
ENDMDL
MODEL 3
REMARK VINA RESULT:    -2.673     12.530     13.007
REMARK INTER + INTRA:          -2.673
REMARK INTER:                  -2.673
REMARK INTRA:                   0.000
REMARK UNBOUND:                 0.000
REMARK SMILES CC(=O)[O-]
REMARK SMILES IDX 1 1 2 2 3 3 4 4
REMARK H PARENT
REMARK Flexibility Score: inf
ROOT
ATOM      1  C   UNL     1     -14.931  -4.255 -16.138  1.00  0.00     0.063 C 
ATOM      2  C   UNL     1     -15.697  -3.090 -16.666  1.00  0.00     0.038 C 
ATOM      3  O   UNL     1     -16.779  -3.271 -17.284  1.00  0.00    -0.550 OA
ATOM      4  O   UNL     1     -15.192  -1.803 -16.525  1.00  0.00    -0.550 OA
ENDROOT
TORSDOF 0
ENDMDL
MODEL 4
REMARK VINA RESULT:    -2.547     15.244     15.381
REMARK INTER + INTRA:          -2.547
REMARK INTER:                  -2.547
REMARK INTRA:                   0.000
REMARK UNBOUND:                 0.000
REMARK SMILES CC(=O)[O-]
REMARK SMILES IDX 1 1 2 2 3 3 4 4
REMARK H PARENT
REMARK Flexibility Score: inf
ROOT
ATOM      1  C   UNL     1     -20.990   0.592 -26.127  1.00  0.00     0.063 C 
ATOM      2  C   UNL     1     -19.738   0.216 -25.410  1.00  0.00     0.038 C 
ATOM      3  O   UNL     1     -18.652   0.126 -26.039  1.00  0.00    -0.550 OA
ATOM      4  O   UNL     1     -19.777  -0.090 -24.055  1.00  0.00    -0.550 OA
ENDROOT
TORSDOF 0
ENDMDL
MODEL 5
REMARK VINA RESULT:    -2.540     15.275     15.473
REMARK INTER + INTRA:          -2.540
REMARK INTER:                  -2.540
REMARK INTRA:                   0.000
REMARK UNBOUND:                 0.000
REMARK SMILES CC(=O)[O-]
REMARK SMILES IDX 1 1 2 2 3 3 4 4
REMARK H PARENT
REMARK Flexibility Score: inf
ROOT
ATOM      1  C   UNL     1     -21.067   0.689 -25.920  1.00  0.00     0.063 C 
ATOM      2  C   UNL     1     -19.792   0.244 -25.286  1.00  0.00     0.038 C 
ATOM      3  O   UNL     1     -19.771  -0.083 -24.071  1.00  0.00    -0.550 OA
ATOM      4  O   UNL     1     -18.613   0.240 -26.021  1.00  0.00    -0.550 OA
ENDROOT
TORSDOF 0
ENDMDL
MODEL 6
REMARK VINA RESULT:    -2.442     12.604     13.076
REMARK INTER + INTRA:          -2.442
REMARK INTER:                  -2.442
REMARK INTRA:                   0.000
REMARK UNBOUND:                 0.000
REMARK SMILES CC(=O)[O-]
REMARK SMILES IDX 1 1 2 2 3 3 4 4
REMARK H PARENT
REMARK Flexibility Score: inf
ROOT
ATOM      1  C   UNL     1     -15.022  -1.763 -16.545  1.00  0.00     0.063 C 
ATOM      2  C   UNL     1     -15.600  -3.130 -16.691  1.00  0.00     0.038 C 
ATOM      3  O   UNL     1     -16.722  -3.287 -17.238  1.00  0.00    -0.550 OA
ATOM      4  O   UNL     1     -14.926  -4.229 -16.174  1.00  0.00    -0.550 OA
ENDROOT
TORSDOF 0
ENDMDL
MODEL 7
REMARK VINA RESULT:    -2.381     18.567     18.888
REMARK INTER + INTRA:          -2.381
REMARK INTER:                  -2.381
REMARK INTRA:                   0.000
REMARK UNBOUND:                 0.000
REMARK SMILES CC(=O)[O-]
REMARK SMILES IDX 1 1 2 2 3 3 4 4
REMARK H PARENT
REMARK Flexibility Score: inf
ROOT
ATOM      1  C   UNL     1      -7.428  -2.333 -24.067  1.00  0.00     0.063 C 
ATOM      2  C   UNL     1      -6.453  -1.969 -22.999  1.00  0.00     0.038 C 
ATOM      3  O   UNL     1      -5.600  -2.809 -22.610  1.00  0.00    -0.550 OA
ATOM      4  O   UNL     1      -6.518  -0.721 -22.392  1.00  0.00    -0.550 OA
ENDROOT
TORSDOF 0
ENDMDL
MODEL 8
REMARK VINA RESULT:    -2.316     12.342     12.765
REMARK INTER + INTRA:          -2.316
REMARK INTER:                  -2.316
REMARK INTRA:                   0.000
REMARK UNBOUND:                 0.000
REMARK SMILES CC(=O)[O-]
REMARK SMILES IDX 1 1 2 2 3 3 4 4
REMARK H PARENT
REMARK Flexibility Score: inf
ROOT
ATOM      1  C   UNL     1     -15.214  -2.029 -16.553  1.00  0.00     0.063 C 
ATOM      2  C   UNL     1     -15.567  -3.477 -16.511  1.00  0.00     0.038 C 
ATOM      3  O   UNL     1     -14.800  -4.298 -15.944  1.00  0.00    -0.550 OA
ATOM      4  O   UNL     1     -16.716  -3.932 -17.144  1.00  0.00    -0.550 OA
ENDROOT
TORSDOF 0
ENDMDL
MODEL 9
REMARK VINA RESULT:    -2.137     17.424     17.877
REMARK INTER + INTRA:          -2.137
REMARK INTER:                  -2.137
REMARK INTRA:                   0.000
REMARK UNBOUND:                 0.000
REMARK SMILES CC(=O)[O-]
REMARK SMILES IDX 1 1 2 2 3 3 4 4
REMARK H PARENT
REMARK Flexibility Score: inf
ROOT
ATOM      1  C   UNL     1     -24.710   0.273 -10.020  1.00  0.00     0.063 C 
ATOM      2  C   UNL     1     -24.294   0.409 -11.445  1.00  0.00     0.038 C 
ATOM      3  O   UNL     1     -23.167  -0.012 -11.817  1.00  0.00    -0.550 OA
ATOM      4  O   UNL     1     -25.125   1.048 -12.356  1.00  0.00    -0.550 OA
ENDROOT
TORSDOF 0
ENDMDL
