MODEL 1
REMARK VINA RESULT:    -4.620      0.000      0.000
REMARK INTER + INTRA:          -5.417
REMARK INTER:                  -5.566
REMARK INTRA:                   0.149
REMARK UNBOUND:                 0.149
REMARK SMILES O=c1c(O)c(-c2ccc(O)c(O)c2)oc2cc(O)cc(O)c12
REMARK SMILES IDX 5 1 3 2 2 3 1 4 22 5 20 6 19 7 17 8 16 9 15 10 14 11 6 12
REMARK SMILES IDX 7 13 8 14 9 15 13 16 11 17 10 18 12 20 4 22 21 24 18 26
REMARK H PARENT 10 19 12 21 4 23 21 25 18 27
REMARK Flexibility Score: inf
ROOT
ATOM      1  C   UNL     1     -16.738 -23.013   3.547  1.00  0.00     0.180 A 
ATOM      2  C   UNL     1     -16.614 -21.638   3.807  1.00  0.00     0.208 A 
ATOM      3  C   UNL     1     -16.680 -21.187   5.135  1.00  0.00     0.238 A 
ATOM      4  O   UNL     1     -16.515 -19.961   5.367  1.00  0.00    -0.285 OA
ATOM      5  C   UNL     1     -16.885 -22.115   6.184  1.00  0.00     0.111 A 
ATOM      6  C   UNL     1     -17.008 -21.765   7.563  1.00  0.00     0.134 A 
ATOM      7  C   UNL     1     -17.078 -22.777   8.528  1.00  0.00     0.093 A 
ATOM      8  C   UNL     1     -17.094 -24.125   8.159  1.00  0.00     0.123 A 
ATOM      9  C   UNL     1     -17.035 -24.474   6.812  1.00  0.00     0.094 A 
ATOM     10  C   UNL     1     -16.928 -23.489   5.828  1.00  0.00     0.146 A 
ATOM     11  O   UNL     1     -16.862 -23.865   4.557  1.00  0.00    -0.452 OA
ENDROOT
BRANCH   1  12
ATOM     12  C   UNL     1     -16.703 -23.561   2.171  1.00  0.00     0.025 A 
ATOM     13  C   UNL     1     -17.627 -24.548   1.797  1.00  0.00     0.016 A 
ATOM     14  C   UNL     1     -17.625 -25.064   0.498  1.00  0.00     0.051 A 
ATOM     15  C   UNL     1     -16.713 -24.591  -0.450  1.00  0.00     0.157 A 
ATOM     16  C   UNL     1     -15.799 -23.072   1.211  1.00  0.00     0.062 A 
ATOM     17  C   UNL     1     -15.797 -23.586  -0.094  1.00  0.00     0.158 A 
BRANCH  15  18
ATOM     18  O   UNL     1     -16.733 -25.125  -1.737  1.00  0.00    -0.504 OA
ATOM     19  H   UNL     1     -15.887 -25.414  -2.213  1.00  0.00     0.293 HD
ENDBRANCH  15  18
BRANCH  17  20
ATOM     20  O   UNL     1     -14.894 -23.099  -1.037  1.00  0.00    -0.504 OA
ATOM     21  H   UNL     1     -14.220 -22.379  -0.806  1.00  0.00     0.293 HD
ENDBRANCH  17  20
ENDBRANCH   1  12
BRANCH   2  22
ATOM     22  O   UNL     1     -16.391 -20.740   2.758  1.00  0.00    -0.502 OA
ATOM     23  H   UNL     1     -16.081 -21.041   1.842  1.00  0.00     0.293 HD
ENDBRANCH   2  22
BRANCH   6  24
ATOM     24  O   UNL     1     -17.094 -20.451   8.030  1.00  0.00    -0.507 OA
ATOM     25  H   UNL     1     -16.333 -19.938   8.447  1.00  0.00     0.293 HD
ENDBRANCH   6  24
BRANCH   8  26
ATOM     26  O   UNL     1     -17.179 -25.125   9.125  1.00  0.00    -0.508 OA
ATOM     27  H   UNL     1     -16.446 -25.264   9.811  1.00  0.00     0.293 HD
ENDBRANCH   8  26
TORSDOF 6
ENDMDL
MODEL 2
REMARK VINA RESULT:    -3.605      0.768      1.505
REMARK INTER + INTRA:          -4.194
REMARK INTER:                  -4.347
REMARK INTRA:                   0.153
REMARK UNBOUND:                 0.149
REMARK SMILES O=c1c(O)c(-c2ccc(O)c(O)c2)oc2cc(O)cc(O)c12
REMARK SMILES IDX 5 1 3 2 2 3 1 4 22 5 20 6 19 7 17 8 16 9 15 10 14 11 6 12
REMARK SMILES IDX 7 13 8 14 9 15 13 16 11 17 10 18 12 20 4 22 21 24 18 26
REMARK H PARENT 10 19 12 21 4 23 21 25 18 27
REMARK Flexibility Score: inf
ROOT
ATOM      1  C   UNL     1     -16.447 -22.381   3.426  1.00  0.00     0.180 A 
ATOM      2  C   UNL     1     -16.396 -21.042   3.849  1.00  0.00     0.208 A 
ATOM      3  C   UNL     1     -16.611 -20.747   5.204  1.00  0.00     0.238 A 
ATOM      4  O   UNL     1     -16.512 -19.553   5.588  1.00  0.00    -0.285 OA
ATOM      5  C   UNL     1     -16.891 -21.794   6.117  1.00  0.00     0.111 A 
ATOM      6  C   UNL     1     -17.166 -21.606   7.505  1.00  0.00     0.134 A 
ATOM      7  C   UNL     1     -17.300 -22.723   8.339  1.00  0.00     0.093 A 
ATOM      8  C   UNL     1     -17.234 -24.020   7.823  1.00  0.00     0.123 A 
ATOM      9  C   UNL     1     -17.026 -24.212   6.459  1.00  0.00     0.094 A 
ATOM     10  C   UNL     1     -16.853 -23.118   5.608  1.00  0.00     0.146 A 
ATOM     11  O   UNL     1     -16.645 -23.345   4.316  1.00  0.00    -0.452 OA
ENDROOT
BRANCH   1  12
ATOM     12  C   UNL     1     -16.254 -22.767   2.009  1.00  0.00     0.025 A 
ATOM     13  C   UNL     1     -15.228 -22.168   1.263  1.00  0.00     0.016 A 
ATOM     14  C   UNL     1     -15.016 -22.533  -0.069  1.00  0.00     0.051 A 
ATOM     15  C   UNL     1     -15.811 -23.512  -0.670  1.00  0.00     0.157 A 
ATOM     16  C   UNL     1     -17.041 -23.767   1.409  1.00  0.00     0.062 A 
ATOM     17  C   UNL     1     -16.827 -24.136   0.073  1.00  0.00     0.158 A 
BRANCH  15  18
ATOM     18  O   UNL     1     -15.577 -23.854  -2.001  1.00  0.00    -0.504 OA
ATOM     19  H   UNL     1     -14.982 -24.632  -2.261  1.00  0.00     0.293 HD
ENDBRANCH  15  18
BRANCH  17  20
ATOM     20  O   UNL     1     -17.617 -25.123  -0.516  1.00  0.00    -0.504 OA
ATOM     21  H   UNL     1     -18.624 -25.038  -0.567  1.00  0.00     0.293 HD
ENDBRANCH  17  20
ENDBRANCH   1  12
BRANCH   2  22
ATOM     22  O   UNL     1     -16.097 -20.026   2.936  1.00  0.00    -0.502 OA
ATOM     23  H   UNL     1     -15.204 -19.965   2.463  1.00  0.00     0.293 HD
ENDBRANCH   2  22
BRANCH   6  24
ATOM     24  O   UNL     1     -17.342 -20.356   8.104  1.00  0.00    -0.507 OA
ATOM     25  H   UNL     1     -16.602 -19.802   8.507  1.00  0.00     0.293 HD
ENDBRANCH   6  24
BRANCH   8  26
ATOM     26  O   UNL     1     -17.383 -25.125   8.657  1.00  0.00    -0.508 OA
ATOM     27  H   UNL     1     -18.294 -25.530   8.844  1.00  0.00     0.293 HD
ENDBRANCH   8  26
TORSDOF 6
ENDMDL
MODEL 3
REMARK VINA RESULT:    -3.558      1.617      7.138
REMARK INTER + INTRA:          -4.138
REMARK INTER:                  -4.325
REMARK INTRA:                   0.187
REMARK UNBOUND:                 0.149
REMARK SMILES O=c1c(O)c(-c2ccc(O)c(O)c2)oc2cc(O)cc(O)c12
REMARK SMILES IDX 5 1 3 2 2 3 1 4 22 5 20 6 19 7 17 8 16 9 15 10 14 11 6 12
REMARK SMILES IDX 7 13 8 14 9 15 13 16 11 17 10 18 12 20 4 22 21 24 18 26
REMARK H PARENT 10 19 12 21 4 23 21 25 18 27
REMARK Flexibility Score: inf
ROOT
ATOM      1  C   UNL     1     -16.837 -22.511   3.800  1.00  0.00     0.180 A 
ATOM      2  C   UNL     1     -17.777 -23.526   3.551  1.00  0.00     0.208 A 
ATOM      3  C   UNL     1     -17.799 -24.139   2.289  1.00  0.00     0.238 A 
ATOM      4  O   UNL     1     -18.606 -25.084   2.089  1.00  0.00    -0.285 OA
ATOM      5  C   UNL     1     -16.893 -23.719   1.285  1.00  0.00     0.111 A 
ATOM      6  C   UNL     1     -16.854 -24.242  -0.043  1.00  0.00     0.134 A 
ATOM      7  C   UNL     1     -15.831 -23.843  -0.911  1.00  0.00     0.093 A 
ATOM      8  C   UNL     1     -14.884 -22.892  -0.522  1.00  0.00     0.123 A 
ATOM      9  C   UNL     1     -14.950 -22.332   0.751  1.00  0.00     0.094 A 
ATOM     10  C   UNL     1     -15.937 -22.736   1.653  1.00  0.00     0.146 A 
ATOM     11  O   UNL     1     -15.957 -22.185   2.861  1.00  0.00    -0.452 OA
ENDROOT
BRANCH   1  12
ATOM     12  C   UNL     1     -16.769 -21.802   5.098  1.00  0.00     0.025 A 
ATOM     13  C   UNL     1     -16.915 -22.527   6.290  1.00  0.00     0.016 A 
ATOM     14  C   UNL     1     -16.833 -21.881   7.527  1.00  0.00     0.051 A 
ATOM     15  C   UNL     1     -16.587 -20.507   7.592  1.00  0.00     0.157 A 
ATOM     16  C   UNL     1     -16.501 -20.423   5.166  1.00  0.00     0.062 A 
ATOM     17  C   UNL     1     -16.416 -19.773   6.407  1.00  0.00     0.158 A 
BRANCH  15  18
ATOM     18  O   UNL     1     -16.512 -19.890   8.840  1.00  0.00    -0.504 OA
ATOM     19  H   UNL     1     -16.754 -20.375   9.696  1.00  0.00     0.293 HD
ENDBRANCH  15  18
BRANCH  17  20
ATOM     20  O   UNL     1     -16.157 -18.405   6.464  1.00  0.00    -0.504 OA
ATOM     21  H   UNL     1     -16.899 -17.720   6.388  1.00  0.00     0.293 HD
ENDBRANCH  17  20
ENDBRANCH   1  12
BRANCH   2  22
ATOM     22  O   UNL     1     -18.648 -23.942   4.563  1.00  0.00    -0.502 OA
ATOM     23  H   UNL     1     -18.800 -23.402   5.406  1.00  0.00     0.293 HD
ENDBRANCH   2  22
BRANCH   6  24
ATOM     24  O   UNL     1     -17.805 -25.125  -0.562  1.00  0.00    -0.507 OA
ATOM     25  H   UNL     1     -18.260 -25.019  -1.455  1.00  0.00     0.293 HD
ENDBRANCH   6  24
BRANCH   8  26
ATOM     26  O   UNL     1     -13.879 -22.491  -1.398  1.00  0.00    -0.508 OA
ATOM     27  H   UNL     1     -14.018 -22.492  -2.402  1.00  0.00     0.293 HD
ENDBRANCH   8  26
TORSDOF 6
ENDMDL
MODEL 4
REMARK VINA RESULT:    -3.371      1.249      2.994
REMARK INTER + INTRA:          -3.912
REMARK INTER:                  -4.272
REMARK INTRA:                   0.361
REMARK UNBOUND:                 0.149
REMARK SMILES O=c1c(O)c(-c2ccc(O)c(O)c2)oc2cc(O)cc(O)c12
REMARK SMILES IDX 5 1 3 2 2 3 1 4 22 5 20 6 19 7 17 8 16 9 15 10 14 11 6 12
REMARK SMILES IDX 7 13 8 14 9 15 13 16 11 17 10 18 12 20 4 22 21 24 18 26
REMARK H PARENT 10 19 12 21 4 23 21 25 18 27
REMARK Flexibility Score: inf
ROOT
ATOM      1  C   UNL     1     -16.893 -23.010   3.787  1.00  0.00     0.180 A 
ATOM      2  C   UNL     1     -17.275 -23.801   4.884  1.00  0.00     0.208 A 
ATOM      3  C   UNL     1     -17.277 -23.231   6.167  1.00  0.00     0.238 A 
ATOM      4  O   UNL     1     -17.671 -23.927   7.138  1.00  0.00    -0.285 OA
ATOM      5  C   UNL     1     -16.882 -21.882   6.339  1.00  0.00     0.111 A 
ATOM      6  C   UNL     1     -16.807 -21.214   7.599  1.00  0.00     0.134 A 
ATOM      7  C   UNL     1     -16.529 -19.842   7.636  1.00  0.00     0.093 A 
ATOM      8  C   UNL     1     -16.260 -19.129   6.465  1.00  0.00     0.123 A 
ATOM      9  C   UNL     1     -16.271 -19.785   5.238  1.00  0.00     0.094 A 
ATOM     10  C   UNL     1     -16.580 -21.146   5.164  1.00  0.00     0.146 A 
ATOM     11  O   UNL     1     -16.592 -21.731   3.972  1.00  0.00    -0.452 OA
ENDROOT
BRANCH   1  12
ATOM     12  C   UNL     1     -16.843 -23.547   2.408  1.00  0.00     0.025 A 
ATOM     13  C   UNL     1     -17.694 -24.603   2.046  1.00  0.00     0.016 A 
ATOM     14  C   UNL     1     -17.678 -25.111   0.745  1.00  0.00     0.051 A 
ATOM     15  C   UNL     1     -16.826 -24.563  -0.218  1.00  0.00     0.157 A 
ATOM     16  C   UNL     1     -16.001 -22.984   1.433  1.00  0.00     0.062 A 
ATOM     17  C   UNL     1     -15.985 -23.491   0.125  1.00  0.00     0.158 A 
BRANCH  15  18
ATOM     18  O   UNL     1     -16.830 -25.092  -1.508  1.00  0.00    -0.504 OA
ATOM     19  H   UNL     1     -15.991 -25.141  -2.073  1.00  0.00     0.293 HD
ENDBRANCH  15  18
BRANCH  17  20
ATOM     20  O   UNL     1     -15.142 -22.930  -0.833  1.00  0.00    -0.504 OA
ATOM     21  H   UNL     1     -15.495 -22.321  -1.560  1.00  0.00     0.293 HD
ENDBRANCH  17  20
ENDBRANCH   1  12
BRANCH   2  22
ATOM     22  O   UNL     1     -17.683 -25.124   4.690  1.00  0.00    -0.502 OA
ATOM     23  H   UNL     1     -18.654 -25.407   4.738  1.00  0.00     0.293 HD
ENDBRANCH   2  22
BRANCH   6  24
ATOM     24  O   UNL     1     -16.968 -21.852   8.831  1.00  0.00    -0.507 OA
ATOM     25  H   UNL     1     -17.676 -21.618   9.511  1.00  0.00     0.293 HD
ENDBRANCH   6  24
BRANCH   8  26
ATOM     26  O   UNL     1     -15.969 -17.767   6.514  1.00  0.00    -0.508 OA
ATOM     27  H   UNL     1     -16.703 -17.069   6.536  1.00  0.00     0.293 HD
ENDBRANCH   8  26
TORSDOF 6
ENDMDL
MODEL 5
REMARK VINA RESULT:    -3.296      1.306      3.017
REMARK INTER + INTRA:          -3.822
REMARK INTER:                  -4.287
REMARK INTRA:                   0.466
REMARK UNBOUND:                 0.149
REMARK SMILES O=c1c(O)c(-c2ccc(O)c(O)c2)oc2cc(O)cc(O)c12
REMARK SMILES IDX 5 1 3 2 2 3 1 4 22 5 20 6 19 7 17 8 16 9 15 10 14 11 6 12
REMARK SMILES IDX 7 13 8 14 9 15 13 16 11 17 10 18 12 20 4 22 21 24 18 26
REMARK H PARENT 10 19 12 21 4 23 21 25 18 27
REMARK Flexibility Score: inf
ROOT
ATOM      1  C   UNL     1     -16.822 -23.066   3.469  1.00  0.00     0.180 A 
ATOM      2  C   UNL     1     -17.620 -24.088   4.011  1.00  0.00     0.208 A 
ATOM      3  C   UNL     1     -17.972 -24.029   5.369  1.00  0.00     0.238 A 
ATOM      4  O   UNL     1     -18.730 -24.917   5.837  1.00  0.00    -0.285 OA
ATOM      5  C   UNL     1     -17.508 -22.958   6.171  1.00  0.00     0.111 A 
ATOM      6  C   UNL     1     -17.769 -22.819   7.567  1.00  0.00     0.134 A 
ATOM      7  C   UNL     1     -17.371 -21.653   8.231  1.00  0.00     0.093 A 
ATOM      8  C   UNL     1     -16.663 -20.649   7.564  1.00  0.00     0.123 A 
ATOM      9  C   UNL     1     -16.351 -20.803   6.216  1.00  0.00     0.094 A 
ATOM     10  C   UNL     1     -16.767 -21.939   5.517  1.00  0.00     0.146 A 
ATOM     11  O   UNL     1     -16.459 -22.041   4.229  1.00  0.00    -0.452 OA
ENDROOT
BRANCH   1  12
ATOM     12  C   UNL     1     -16.391 -23.072   2.052  1.00  0.00     0.025 A 
ATOM     13  C   UNL     1     -15.434 -22.142   1.617  1.00  0.00     0.016 A 
ATOM     14  C   UNL     1     -14.998 -22.143   0.289  1.00  0.00     0.051 A 
ATOM     15  C   UNL     1     -15.496 -23.082  -0.618  1.00  0.00     0.157 A 
ATOM     16  C   UNL     1     -16.875 -24.029   1.143  1.00  0.00     0.062 A 
ATOM     17  C   UNL     1     -16.437 -24.034  -0.190  1.00  0.00     0.158 A 
BRANCH  15  18
ATOM     18  O   UNL     1     -15.043 -23.059  -1.936  1.00  0.00    -0.504 OA
ATOM     19  H   UNL     1     -14.370 -22.376  -2.262  1.00  0.00     0.293 HD
ENDBRANCH  15  18
BRANCH  17  20
ATOM     20  O   UNL     1     -16.928 -24.982  -1.085  1.00  0.00    -0.504 OA
ATOM     21  H   UNL     1     -17.578 -24.733  -1.821  1.00  0.00     0.293 HD
ENDBRANCH  17  20
ENDBRANCH   1  12
BRANCH   2  22
ATOM     22  O   UNL     1     -18.085 -25.125   3.197  1.00  0.00    -0.502 OA
ATOM     23  H   UNL     1     -18.929 -25.644   3.406  1.00  0.00     0.293 HD
ENDBRANCH   2  22
BRANCH   6  24
ATOM     24  O   UNL     1     -18.386 -23.801   8.347  1.00  0.00    -0.507 OA
ATOM     25  H   UNL     1     -19.373 -24.011   8.332  1.00  0.00     0.293 HD
ENDBRANCH   6  24
BRANCH   8  26
ATOM     26  O   UNL     1     -16.257 -19.499   8.236  1.00  0.00    -0.508 OA
ATOM     27  H   UNL     1     -16.288 -19.436   9.247  1.00  0.00     0.293 HD
ENDBRANCH   8  26
TORSDOF 6
ENDMDL
MODEL 6
REMARK VINA RESULT:    -3.288      1.479      7.244
REMARK INTER + INTRA:          -3.812
REMARK INTER:                  -3.886
REMARK INTRA:                   0.074
REMARK UNBOUND:                 0.149
REMARK SMILES O=c1c(O)c(-c2ccc(O)c(O)c2)oc2cc(O)cc(O)c12
REMARK SMILES IDX 5 1 3 2 2 3 1 4 22 5 20 6 19 7 17 8 16 9 15 10 14 11 6 12
REMARK SMILES IDX 7 13 8 14 9 15 13 16 11 17 10 18 12 20 4 22 21 24 18 26
REMARK H PARENT 10 19 12 21 4 23 21 25 18 27
REMARK Flexibility Score: inf
ROOT
ATOM      1  C   UNL     1     -16.729 -22.605   3.856  1.00  0.00     0.180 A 
ATOM      2  C   UNL     1     -17.709 -23.583   3.614  1.00  0.00     0.208 A 
ATOM      3  C   UNL     1     -17.778 -24.178   2.345  1.00  0.00     0.238 A 
ATOM      4  O   UNL     1     -18.621 -25.091   2.149  1.00  0.00    -0.285 OA
ATOM      5  C   UNL     1     -16.877 -23.776   1.328  1.00  0.00     0.111 A 
ATOM      6  C   UNL     1     -16.884 -24.282  -0.007  1.00  0.00     0.134 A 
ATOM      7  C   UNL     1     -15.864 -23.909  -0.891  1.00  0.00     0.093 A 
ATOM      8  C   UNL     1     -14.877 -22.997  -0.509  1.00  0.00     0.123 A 
ATOM      9  C   UNL     1     -14.898 -22.452   0.773  1.00  0.00     0.094 A 
ATOM     10  C   UNL     1     -15.881 -22.832   1.689  1.00  0.00     0.146 A 
ATOM     11  O   UNL     1     -15.857 -22.297   2.904  1.00  0.00    -0.452 OA
ENDROOT
BRANCH   1  12
ATOM     12  C   UNL     1     -16.610 -21.916   5.162  1.00  0.00     0.025 A 
ATOM     13  C   UNL     1     -16.521 -20.516   5.199  1.00  0.00     0.016 A 
ATOM     14  C   UNL     1     -16.428 -19.845   6.421  1.00  0.00     0.051 A 
ATOM     15  C   UNL     1     -16.441 -20.558   7.623  1.00  0.00     0.157 A 
ATOM     16  C   UNL     1     -16.643 -22.631   6.372  1.00  0.00     0.062 A 
ATOM     17  C   UNL     1     -16.553 -21.958   7.601  1.00  0.00     0.158 A 
BRANCH  15  18
ATOM     18  O   UNL     1     -16.345 -19.862   8.827  1.00  0.00    -0.504 OA
ATOM     19  H   UNL     1     -15.469 -19.765   9.325  1.00  0.00     0.293 HD
ENDBRANCH  15  18
BRANCH  17  20
ATOM     20  O   UNL     1     -16.581 -22.676   8.795  1.00  0.00    -0.504 OA
ATOM     21  H   UNL     1     -15.858 -23.345   9.030  1.00  0.00     0.293 HD
ENDBRANCH  17  20
ENDBRANCH   1  12
BRANCH   2  22
ATOM     22  O   UNL     1     -18.574 -23.981   4.638  1.00  0.00    -0.502 OA
ATOM     23  H   UNL     1     -18.744 -24.955   4.859  1.00  0.00     0.293 HD
ENDBRANCH   2  22
BRANCH   6  24
ATOM     24  O   UNL     1     -17.875 -25.125  -0.517  1.00  0.00    -0.507 OA
ATOM     25  H   UNL     1     -18.521 -25.658   0.044  1.00  0.00     0.293 HD
ENDBRANCH   6  24
BRANCH   8  26
ATOM     26  O   UNL     1     -13.875 -22.619  -1.400  1.00  0.00    -0.508 OA
ATOM     27  H   UNL     1     -12.911 -22.905  -1.267  1.00  0.00     0.293 HD
ENDBRANCH   8  26
TORSDOF 6
ENDMDL
MODEL 7
REMARK VINA RESULT:    -2.837      1.890      3.734
REMARK INTER + INTRA:          -3.269
REMARK INTER:                  -3.404
REMARK INTRA:                   0.135
REMARK UNBOUND:                 0.149
REMARK SMILES O=c1c(O)c(-c2ccc(O)c(O)c2)oc2cc(O)cc(O)c12
REMARK SMILES IDX 5 1 3 2 2 3 1 4 22 5 20 6 19 7 17 8 16 9 15 10 14 11 6 12
REMARK SMILES IDX 7 13 8 14 9 15 13 16 11 17 10 18 12 20 4 22 21 24 18 26
REMARK H PARENT 10 19 12 21 4 23 21 25 18 27
REMARK Flexibility Score: inf
ROOT
ATOM      1  C   UNL     1     -16.257 -22.894   1.752  1.00  0.00     0.180 A 
ATOM      2  C   UNL     1     -16.851 -23.840   2.606  1.00  0.00     0.208 A 
ATOM      3  C   UNL     1     -17.172 -23.465   3.919  1.00  0.00     0.238 A 
ATOM      4  O   UNL     1     -17.752 -24.298   4.663  1.00  0.00    -0.285 OA
ATOM      5  C   UNL     1     -16.882 -22.153   4.368  1.00  0.00     0.111 A 
ATOM      6  C   UNL     1     -17.128 -21.677   5.691  1.00  0.00     0.134 A 
ATOM      7  C   UNL     1     -16.922 -20.324   5.987  1.00  0.00     0.093 A 
ATOM      8  C   UNL     1     -16.417 -19.445   5.025  1.00  0.00     0.123 A 
ATOM      9  C   UNL     1     -16.118 -19.914   3.748  1.00  0.00     0.094 A 
ATOM     10  C   UNL     1     -16.347 -21.251   3.413  1.00  0.00     0.146 A 
ATOM     11  O   UNL     1     -16.059 -21.654   2.181  1.00  0.00    -0.452 OA
ENDROOT
BRANCH   1  12
ATOM     12  C   UNL     1     -15.868 -23.223   0.362  1.00  0.00     0.025 A 
ATOM     13  C   UNL     1     -14.623 -22.799  -0.126  1.00  0.00     0.016 A 
ATOM     14  C   UNL     1     -14.227 -23.116  -1.429  1.00  0.00     0.051 A 
ATOM     15  C   UNL     1     -15.059 -23.875  -2.256  1.00  0.00     0.157 A 
ATOM     16  C   UNL     1     -16.695 -24.005  -0.465  1.00  0.00     0.062 A 
ATOM     17  C   UNL     1     -16.298 -24.326  -1.772  1.00  0.00     0.158 A 
BRANCH  15  18
ATOM     18  O   UNL     1     -14.638 -24.175  -3.550  1.00  0.00    -0.504 OA
ATOM     19  H   UNL     1     -14.953 -25.003  -4.041  1.00  0.00     0.293 HD
ENDBRANCH  15  18
BRANCH  17  20
ATOM     20  O   UNL     1     -17.128 -25.096  -2.586  1.00  0.00    -0.504 OA
ATOM     21  H   UNL     1     -16.981 -26.091  -2.706  1.00  0.00     0.293 HD
ENDBRANCH  17  20
ENDBRANCH   1  12
BRANCH   2  22
ATOM     22  O   UNL     1     -17.149 -25.123   2.136  1.00  0.00    -0.502 OA
ATOM     23  H   UNL     1     -16.754 -25.959   2.550  1.00  0.00     0.293 HD
ENDBRANCH   2  22
BRANCH   6  24
ATOM     24  O   UNL     1     -17.544 -22.490   6.749  1.00  0.00    -0.507 OA
ATOM     25  H   UNL     1     -17.845 -22.151   7.650  1.00  0.00     0.293 HD
ENDBRANCH   6  24
BRANCH   8  26
ATOM     26  O   UNL     1     -16.201 -18.104   5.332  1.00  0.00    -0.508 OA
ATOM     27  H   UNL     1     -16.385 -17.735   6.258  1.00  0.00     0.293 HD
ENDBRANCH   8  26
TORSDOF 6
ENDMDL
MODEL 8
REMARK VINA RESULT:    -1.836      1.674      6.525
REMARK INTER + INTRA:          -2.063
REMARK INTER:                  -2.115
REMARK INTRA:                   0.052
REMARK UNBOUND:                 0.149
REMARK SMILES O=c1c(O)c(-c2ccc(O)c(O)c2)oc2cc(O)cc(O)c12
REMARK SMILES IDX 5 1 3 2 2 3 1 4 22 5 20 6 19 7 17 8 16 9 15 10 14 11 6 12
REMARK SMILES IDX 7 13 8 14 9 15 13 16 11 17 10 18 12 20 4 22 21 24 18 26
REMARK H PARENT 10 19 12 21 4 23 21 25 18 27
REMARK Flexibility Score: inf
ROOT
ATOM      1  C   UNL     1     -16.529 -22.951   3.878  1.00  0.00     0.180 A 
ATOM      2  C   UNL     1     -16.410 -21.571   3.638  1.00  0.00     0.208 A 
ATOM      3  C   UNL     1     -15.773 -21.136   2.466  1.00  0.00     0.238 A 
ATOM      4  O   UNL     1     -15.717 -19.901   2.230  1.00  0.00    -0.285 OA
ATOM      5  C   UNL     1     -15.248 -22.085   1.556  1.00  0.00     0.111 A 
ATOM      6  C   UNL     1     -14.547 -21.756   0.356  1.00  0.00     0.134 A 
ATOM      7  C   UNL     1     -14.186 -22.775  -0.534  1.00  0.00     0.093 A 
ATOM      8  C   UNL     1     -14.444 -24.117  -0.237  1.00  0.00     0.123 A 
ATOM      9  C   UNL     1     -15.074 -24.451   0.959  1.00  0.00     0.094 A 
ATOM     10  C   UNL     1     -15.478 -23.455   1.851  1.00  0.00     0.146 A 
ATOM     11  O   UNL     1     -16.086 -23.816   2.975  1.00  0.00    -0.452 OA
ENDROOT
BRANCH   1  12
ATOM     12  C   UNL     1     -17.166 -23.485   5.103  1.00  0.00     0.025 A 
ATOM     13  C   UNL     1     -18.029 -24.588   5.009  1.00  0.00     0.016 A 
ATOM     14  C   UNL     1     -18.626 -25.121   6.155  1.00  0.00     0.051 A 
ATOM     15  C   UNL     1     -18.356 -24.573   7.413  1.00  0.00     0.157 A 
ATOM     16  C   UNL     1     -16.880 -22.949   6.371  1.00  0.00     0.062 A 
ATOM     17  C   UNL     1     -17.476 -23.484   7.524  1.00  0.00     0.158 A 
BRANCH  15  18
ATOM     18  O   UNL     1     -18.966 -25.125   8.538  1.00  0.00    -0.504 OA
ATOM     19  H   UNL     1     -19.638 -25.881   8.470  1.00  0.00     0.293 HD
ENDBRANCH  15  18
BRANCH  17  20
ATOM     20  O   UNL     1     -17.191 -22.941   8.776  1.00  0.00    -0.504 OA
ATOM     21  H   UNL     1     -16.302 -22.498   8.973  1.00  0.00     0.293 HD
ENDBRANCH  17  20
ENDBRANCH   1  12
BRANCH   2  22
ATOM     22  O   UNL     1     -16.955 -20.651   4.539  1.00  0.00    -0.502 OA
ATOM     23  H   UNL     1     -16.877 -20.761   5.543  1.00  0.00     0.293 HD
ENDBRANCH   2  22
BRANCH   6  24
ATOM     24  O   UNL     1     -14.159 -20.459   0.009  1.00  0.00    -0.507 OA
ATOM     25  H   UNL     1     -14.775 -19.759  -0.375  1.00  0.00     0.293 HD
ENDBRANCH   6  24
BRANCH   8  26
ATOM     26  O   UNL     1     -14.068 -25.125  -1.121  1.00  0.00    -0.508 OA
ATOM     27  H   UNL     1     -13.676 -24.914  -2.031  1.00  0.00     0.293 HD
ENDBRANCH   8  26
TORSDOF 6
ENDMDL
MODEL 9
REMARK VINA RESULT:    -1.678      1.814      3.015
REMARK INTER + INTRA:          -1.872
REMARK INTER:                  -1.590
REMARK INTRA:                  -0.283
REMARK UNBOUND:                 0.149
REMARK SMILES O=c1c(O)c(-c2ccc(O)c(O)c2)oc2cc(O)cc(O)c12
REMARK SMILES IDX 5 1 3 2 2 3 1 4 22 5 20 6 19 7 17 8 16 9 15 10 14 11 6 12
REMARK SMILES IDX 7 13 8 14 9 15 13 16 11 17 10 18 12 20 4 22 21 24 18 26
REMARK H PARENT 10 19 12 21 4 23 21 25 18 27
REMARK Flexibility Score: inf
ROOT
ATOM      1  C   UNL     1     -15.989 -23.406   4.215  1.00  0.00     0.180 A 
ATOM      2  C   UNL     1     -14.999 -24.175   4.849  1.00  0.00     0.208 A 
ATOM      3  C   UNL     1     -14.784 -24.006   6.226  1.00  0.00     0.238 A 
ATOM      4  O   UNL     1     -13.933 -24.734   6.800  1.00  0.00    -0.285 OA
ATOM      5  C   UNL     1     -15.551 -23.059   6.948  1.00  0.00     0.111 A 
ATOM      6  C   UNL     1     -15.390 -22.776   8.338  1.00  0.00     0.134 A 
ATOM      7  C   UNL     1     -16.291 -21.916   8.976  1.00  0.00     0.093 A 
ATOM      8  C   UNL     1     -17.308 -21.277   8.260  1.00  0.00     0.123 A 
ATOM      9  C   UNL     1     -17.435 -21.501   6.892  1.00  0.00     0.094 A 
ATOM     10  C   UNL     1     -16.574 -22.382   6.234  1.00  0.00     0.146 A 
ATOM     11  O   UNL     1     -16.737 -22.576   4.931  1.00  0.00    -0.452 OA
ENDROOT
BRANCH   1  12
ATOM     12  C   UNL     1     -16.258 -23.511   2.762  1.00  0.00     0.025 A 
ATOM     13  C   UNL     1     -15.387 -22.893   1.852  1.00  0.00     0.016 A 
ATOM     14  C   UNL     1     -15.610 -22.997   0.476  1.00  0.00     0.051 A 
ATOM     15  C   UNL     1     -16.693 -23.733  -0.011  1.00  0.00     0.157 A 
ATOM     16  C   UNL     1     -17.336 -24.268   2.269  1.00  0.00     0.062 A 
ATOM     17  C   UNL     1     -17.559 -24.376   0.889  1.00  0.00     0.158 A 
BRANCH  15  18
ATOM     18  O   UNL     1     -16.891 -23.818  -1.388  1.00  0.00    -0.504 OA
ATOM     19  H   UNL     1     -17.805 -23.987  -1.792  1.00  0.00     0.293 HD
ENDBRANCH  15  18
BRANCH  17  20
ATOM     20  O   UNL     1     -18.635 -25.123   0.410  1.00  0.00    -0.504 OA
ATOM     21  H   UNL     1     -18.499 -26.014  -0.052  1.00  0.00     0.293 HD
ENDBRANCH  17  20
ENDBRANCH   1  12
BRANCH   2  22
ATOM     22  O   UNL     1     -14.267 -25.119   4.123  1.00  0.00    -0.502 OA
ATOM     23  H   UNL     1     -13.279 -25.277   4.276  1.00  0.00     0.293 HD
ENDBRANCH   2  22
BRANCH   6  24
ATOM     24  O   UNL     1     -14.354 -23.288   9.124  1.00  0.00    -0.507 OA
ATOM     25  H   UNL     1     -13.856 -24.144   8.932  1.00  0.00     0.293 HD
ENDBRANCH   6  24
BRANCH   8  26
ATOM     26  O   UNL     1     -18.190 -20.411   8.900  1.00  0.00    -0.508 OA
ATOM     27  H   UNL     1     -19.034 -20.081   8.445  1.00  0.00     0.293 HD
ENDBRANCH   8  26
TORSDOF 6
ENDMDL
