MODEL 1
REMARK VINA RESULT:    -3.104      0.000      0.000
REMARK INTER + INTRA:          -8.715
REMARK INTER:                  -6.008
REMARK INTRA:                  -2.708
REMARK UNBOUND:                -2.708
REMARK SMILES CCCCCCCCCCCCCCCCCC(=O)[O-]
REMARK SMILES IDX 10 1 11 2 12 3 13 4 14 5 15 6 16 7 17 8 18 9 19 10 20 11
REMARK SMILES IDX 9 12 8 13 7 14 6 15 5 16 4 17 3 18 2 19 1 20
REMARK H PARENT
REMARK Flexibility Score: inf
ROOT
ATOM      1  C   UNL     1     -43.689 -48.006  69.222  1.00  0.00     0.000 C 
ENDROOT
BRANCH   1   2
ATOM      2  C   UNL     1     -44.461 -49.259  69.671  1.00  0.00     0.000 C 
BRANCH   2   3
ATOM      3  C   UNL     1     -45.485 -48.966  70.782  1.00  0.00     0.000 C 
BRANCH   3   4
ATOM      4  C   UNL     1     -45.804 -47.467  70.906  1.00  0.00     0.000 C 
BRANCH   4   5
ATOM      5  C   UNL     1     -47.310 -47.175  70.782  1.00  0.00     0.000 C 
BRANCH   5   6
ATOM      6  C   UNL     1     -48.155 -48.458  70.715  1.00  0.00     0.000 C 
BRANCH   6   7
ATOM      7  C   UNL     1     -48.974 -48.563  69.416  1.00  0.00     0.006 C 
BRANCH   7   8
ATOM      8  C   UNL     1     -48.246 -47.935  68.221  1.00  0.00     0.053 C 
BRANCH   8   9
ATOM      9  C   UNL     1     -47.376 -48.931  67.517  1.00  0.00     0.041 C 
ATOM     10  O   UNL     1     -47.579 -50.165  67.663  1.00  0.00    -0.550 OA
ATOM     11  O   UNL     1     -46.362 -48.495  66.673  1.00  0.00    -0.550 OA
ENDBRANCH   8   9
ENDBRANCH   7   8
ENDBRANCH   6   7
ENDBRANCH   5   6
ENDBRANCH   4   5
ENDBRANCH   3   4
ENDBRANCH   2   3
ENDBRANCH   1   2
BRANCH   1  12
ATOM     12  C   UNL     1     -42.183 -48.016  69.545  1.00  0.00     0.000 C 
BRANCH  12  13
ATOM     13  C   UNL     1     -41.895 -48.122  71.050  1.00  0.00    -0.000 C 
BRANCH  13  14
ATOM     14  C   UNL     1     -41.534 -46.751  71.638  1.00  0.00    -0.000 C 
BRANCH  14  15
ATOM     15  C   UNL     1     -42.742 -46.031  72.264  1.00  0.00    -0.000 C 
BRANCH  15  16
ATOM     16  C   UNL     1     -42.956 -44.601  71.723  1.00  0.00    -0.000 C 
BRANCH  16  17
ATOM     17  C   UNL     1     -43.339 -44.595  70.231  1.00  0.00    -0.000 C 
BRANCH  17  18
ATOM     18  C   UNL     1     -42.415 -43.708  69.379  1.00  0.00    -0.000 C 
BRANCH  18  19
ATOM     19  C   UNL     1     -41.529 -44.472  68.380  1.00  0.00    -0.003 C 
ATOM     20  C   UNL     1     -42.323 -45.094  67.233  1.00  0.00     0.004 C 
ENDBRANCH  18  19
ENDBRANCH  17  18
ENDBRANCH  16  17
ENDBRANCH  15  16
ENDBRANCH  14  15
ENDBRANCH  13  14
ENDBRANCH  12  13
ENDBRANCH   1  12
TORSDOF 16
ENDMDL
MODEL 2
REMARK VINA RESULT:    -3.100      3.570      5.843
REMARK INTER + INTRA:          -8.707
REMARK INTER:                  -6.044
REMARK INTRA:                  -2.662
REMARK UNBOUND:                -2.708
REMARK SMILES CCCCCCCCCCCCCCCCCC(=O)[O-]
REMARK SMILES IDX 10 1 11 2 12 3 13 4 14 5 15 6 16 7 17 8 18 9 19 10 20 11
REMARK SMILES IDX 9 12 8 13 7 14 6 15 5 16 4 17 3 18 2 19 1 20
REMARK H PARENT
REMARK Flexibility Score: inf
ROOT
ATOM      1  C   UNL     1     -46.696 -48.602  66.941  1.00  0.00     0.000 C 
ENDROOT
BRANCH   1   2
ATOM      2  C   UNL     1     -47.864 -49.599  67.037  1.00  0.00     0.000 C 
BRANCH   2   3
ATOM      3  C   UNL     1     -49.239 -48.930  66.857  1.00  0.00     0.000 C 
BRANCH   3   4
ATOM      4  C   UNL     1     -49.211 -47.431  67.196  1.00  0.00     0.000 C 
BRANCH   4   5
ATOM      5  C   UNL     1     -50.134 -46.605  66.283  1.00  0.00     0.000 C 
BRANCH   5   6
ATOM      6  C   UNL     1     -50.233 -47.188  64.864  1.00  0.00     0.000 C 
BRANCH   6   7
ATOM      7  C   UNL     1     -49.272 -46.506  63.874  1.00  0.00     0.006 C 
BRANCH   7   8
ATOM      8  C   UNL     1     -48.065 -47.391  63.536  1.00  0.00     0.053 C 
BRANCH   8   9
ATOM      9  C   UNL     1     -47.587 -47.164  62.134  1.00  0.00     0.041 C 
ATOM     10  O   UNL     1     -46.658 -46.346  61.906  1.00  0.00    -0.550 OA
ATOM     11  O   UNL     1     -48.148 -47.880  61.083  1.00  0.00    -0.550 OA
ENDBRANCH   8   9
ENDBRANCH   7   8
ENDBRANCH   6   7
ENDBRANCH   5   6
ENDBRANCH   4   5
ENDBRANCH   3   4
ENDBRANCH   2   3
ENDBRANCH   1   2
BRANCH   1  12
ATOM     12  C   UNL     1     -45.485 -48.927  67.835  1.00  0.00     0.000 C 
BRANCH  12  13
ATOM     13  C   UNL     1     -45.767 -50.054  68.839  1.00  0.00    -0.000 C 
BRANCH  13  14
ATOM     14  C   UNL     1     -45.557 -49.572  70.280  1.00  0.00    -0.000 C 
BRANCH  14  15
ATOM     15  C   UNL     1     -45.170 -48.084  70.364  1.00  0.00    -0.000 C 
BRANCH  15  16
ATOM     16  C   UNL     1     -46.188 -47.225  71.143  1.00  0.00    -0.000 C 
BRANCH  16  17
ATOM     17  C   UNL     1     -47.562 -47.179  70.449  1.00  0.00    -0.000 C 
BRANCH  17  18
ATOM     18  C   UNL     1     -48.649 -47.946  71.221  1.00  0.00    -0.000 C 
BRANCH  18  19
ATOM     19  C   UNL     1     -49.415 -48.992  70.392  1.00  0.00    -0.003 C 
ATOM     20  C   UNL     1     -49.044 -50.429  70.755  1.00  0.00     0.004 C 
ENDBRANCH  18  19
ENDBRANCH  17  18
ENDBRANCH  16  17
ENDBRANCH  15  16
ENDBRANCH  14  15
ENDBRANCH  13  14
ENDBRANCH  12  13
ENDBRANCH   1  12
TORSDOF 16
ENDMDL
MODEL 3
REMARK VINA RESULT:    -3.093      3.289      6.492
REMARK INTER + INTRA:          -8.693
REMARK INTER:                  -6.512
REMARK INTRA:                  -2.181
REMARK UNBOUND:                -2.708
REMARK SMILES CCCCCCCCCCCCCCCCCC(=O)[O-]
REMARK SMILES IDX 10 1 11 2 12 3 13 4 14 5 15 6 16 7 17 8 18 9 19 10 20 11
REMARK SMILES IDX 9 12 8 13 7 14 6 15 5 16 4 17 3 18 2 19 1 20
REMARK H PARENT
REMARK Flexibility Score: inf
ROOT
ATOM      1  C   UNL     1     -43.781 -49.208  69.160  1.00  0.00     0.000 C 
ENDROOT
BRANCH   1   2
ATOM      2  C   UNL     1     -44.497 -48.454  68.024  1.00  0.00     0.000 C 
BRANCH   2   3
ATOM      3  C   UNL     1     -43.522 -47.820  67.017  1.00  0.00     0.000 C 
BRANCH   3   4
ATOM      4  C   UNL     1     -42.496 -46.897  67.696  1.00  0.00     0.000 C 
BRANCH   4   5
ATOM      5  C   UNL     1     -42.245 -45.608  66.893  1.00  0.00     0.000 C 
BRANCH   5   6
ATOM      6  C   UNL     1     -41.812 -44.433  67.785  1.00  0.00     0.000 C 
BRANCH   6   7
ATOM      7  C   UNL     1     -42.643 -44.329  69.076  1.00  0.00     0.006 C 
BRANCH   7   8
ATOM      8  C   UNL     1     -43.333 -42.966  69.211  1.00  0.00     0.053 C 
BRANCH   8   9
ATOM      9  C   UNL     1     -42.953 -42.277  70.487  1.00  0.00     0.041 C 
ATOM     10  O   UNL     1     -41.963 -42.678  71.153  1.00  0.00    -0.550 OA
ATOM     11  O   UNL     1     -43.674 -41.172  70.922  1.00  0.00    -0.550 OA
ENDBRANCH   8   9
ENDBRANCH   7   8
ENDBRANCH   6   7
ENDBRANCH   5   6
ENDBRANCH   4   5
ENDBRANCH   3   4
ENDBRANCH   2   3
ENDBRANCH   1   2
BRANCH   1  12
ATOM     12  C   UNL     1     -44.237 -48.833  70.582  1.00  0.00     0.000 C 
BRANCH  12  13
ATOM     13  C   UNL     1     -43.775 -47.432  71.008  1.00  0.00    -0.000 C 
BRANCH  13  14
ATOM     14  C   UNL     1     -44.958 -46.455  71.060  1.00  0.00    -0.000 C 
BRANCH  14  15
ATOM     15  C   UNL     1     -46.310 -47.162  71.266  1.00  0.00    -0.000 C 
BRANCH  15  16
ATOM     16  C   UNL     1     -47.312 -46.922  70.118  1.00  0.00    -0.000 C 
BRANCH  16  17
ATOM     17  C   UNL     1     -48.011 -48.220  69.675  1.00  0.00    -0.000 C 
BRANCH  17  18
ATOM     18  C   UNL     1     -47.924 -49.336  70.730  1.00  0.00    -0.000 C 
BRANCH  18  19
ATOM     19  C   UNL     1     -47.314 -50.656  70.226  1.00  0.00    -0.003 C 
ATOM     20  C   UNL     1     -48.172 -51.875  70.560  1.00  0.00     0.004 C 
ENDBRANCH  18  19
ENDBRANCH  17  18
ENDBRANCH  16  17
ENDBRANCH  15  16
ENDBRANCH  14  15
ENDBRANCH  13  14
ENDBRANCH  12  13
ENDBRANCH   1  12
TORSDOF 16
ENDMDL
MODEL 4
REMARK VINA RESULT:    -3.056      4.130      7.281
REMARK INTER + INTRA:          -8.622
REMARK INTER:                  -7.177
REMARK INTRA:                  -1.446
REMARK UNBOUND:                -2.708
REMARK SMILES CCCCCCCCCCCCCCCCCC(=O)[O-]
REMARK SMILES IDX 10 1 11 2 12 3 13 4 14 5 15 6 16 7 17 8 18 9 19 10 20 11
REMARK SMILES IDX 9 12 8 13 7 14 6 15 5 16 4 17 3 18 2 19 1 20
REMARK H PARENT
REMARK Flexibility Score: inf
ROOT
ATOM      1  C   UNL     1     -42.536 -45.438  70.623  1.00  0.00     0.000 C 
ENDROOT
BRANCH   1   2
ATOM      2  C   UNL     1     -43.076 -45.086  69.225  1.00  0.00     0.000 C 
BRANCH   2   3
ATOM      3  C   UNL     1     -42.620 -43.699  68.739  1.00  0.00     0.000 C 
BRANCH   3   4
ATOM      4  C   UNL     1     -43.481 -42.563  69.315  1.00  0.00     0.000 C 
BRANCH   4   5
ATOM      5  C   UNL     1     -42.697 -41.669  70.292  1.00  0.00     0.000 C 
BRANCH   5   6
ATOM      6  C   UNL     1     -43.084 -41.918  71.759  1.00  0.00     0.000 C 
BRANCH   6   7
ATOM      7  C   UNL     1     -43.486 -40.628  72.495  1.00  0.00     0.006 C 
BRANCH   7   8
ATOM      8  C   UNL     1     -44.526 -39.815  71.713  1.00  0.00     0.053 C 
BRANCH   8   9
ATOM      9  C   UNL     1     -45.768 -39.585  72.519  1.00  0.00     0.041 C 
ATOM     10  O   UNL     1     -46.631 -38.755  72.131  1.00  0.00    -0.550 OA
ATOM     11  O   UNL     1     -45.986 -40.312  73.683  1.00  0.00    -0.550 OA
ENDBRANCH   8   9
ENDBRANCH   7   8
ENDBRANCH   6   7
ENDBRANCH   5   6
ENDBRANCH   4   5
ENDBRANCH   3   4
ENDBRANCH   2   3
ENDBRANCH   1   2
BRANCH   1  12
ATOM     12  C   UNL     1     -43.453 -46.341  71.469  1.00  0.00     0.000 C 
BRANCH  12  13
ATOM     13  C   UNL     1     -43.617 -47.749  70.878  1.00  0.00    -0.000 C 
BRANCH  13  14
ATOM     14  C   UNL     1     -45.087 -48.036  70.543  1.00  0.00    -0.000 C 
BRANCH  14  15
ATOM     15  C   UNL     1     -46.059 -47.045  71.209  1.00  0.00    -0.000 C 
BRANCH  15  16
ATOM     16  C   UNL     1     -47.543 -47.442  71.061  1.00  0.00    -0.000 C 
BRANCH  16  17
ATOM     17  C   UNL     1     -47.725 -48.696  70.187  1.00  0.00    -0.000 C 
BRANCH  17  18
ATOM     18  C   UNL     1     -48.784 -48.511  69.087  1.00  0.00    -0.000 C 
BRANCH  18  19
ATOM     19  C   UNL     1     -48.239 -47.987  67.747  1.00  0.00    -0.003 C 
ATOM     20  C   UNL     1     -46.906 -48.624  67.356  1.00  0.00     0.004 C 
ENDBRANCH  18  19
ENDBRANCH  17  18
ENDBRANCH  16  17
ENDBRANCH  15  16
ENDBRANCH  14  15
ENDBRANCH  13  14
ENDBRANCH  12  13
ENDBRANCH   1  12
TORSDOF 16
ENDMDL
MODEL 5
REMARK VINA RESULT:    -3.045      1.410      3.104
REMARK INTER + INTRA:          -8.601
REMARK INTER:                  -6.744
REMARK INTRA:                  -1.858
REMARK UNBOUND:                -2.708
REMARK SMILES CCCCCCCCCCCCCCCCCC(=O)[O-]
REMARK SMILES IDX 10 1 11 2 12 3 13 4 14 5 15 6 16 7 17 8 18 9 19 10 20 11
REMARK SMILES IDX 9 12 8 13 7 14 6 15 5 16 4 17 3 18 2 19 1 20
REMARK H PARENT
REMARK Flexibility Score: inf
ROOT
ATOM      1  C   UNL     1     -42.434 -46.361  72.451  1.00  0.00     0.000 C 
ENDROOT
BRANCH   1   2
ATOM      2  C   UNL     1     -42.114 -47.367  71.331  1.00  0.00     0.000 C 
BRANCH   2   3
ATOM      3  C   UNL     1     -43.262 -47.520  70.317  1.00  0.00     0.000 C 
BRANCH   3   4
ATOM      4  C   UNL     1     -43.902 -48.917  70.361  1.00  0.00     0.000 C 
BRANCH   4   5
ATOM      5  C   UNL     1     -45.403 -48.865  70.698  1.00  0.00     0.000 C 
BRANCH   5   6
ATOM      6  C   UNL     1     -45.908 -47.429  70.917  1.00  0.00     0.000 C 
BRANCH   6   7
ATOM      7  C   UNL     1     -47.439 -47.352  71.054  1.00  0.00     0.006 C 
BRANCH   7   8
ATOM      8  C   UNL     1     -48.128 -48.637  70.575  1.00  0.00     0.053 C 
BRANCH   8   9
ATOM      9  C   UNL     1     -48.809 -48.441  69.255  1.00  0.00     0.041 C 
ATOM     10  O   UNL     1     -48.520 -47.451  68.534  1.00  0.00    -0.550 OA
ATOM     11  O   UNL     1     -49.741 -49.370  68.809  1.00  0.00    -0.550 OA
ENDBRANCH   8   9
ENDBRANCH   7   8
ENDBRANCH   6   7
ENDBRANCH   5   6
ENDBRANCH   4   5
ENDBRANCH   3   4
ENDBRANCH   2   3
ENDBRANCH   1   2
BRANCH   1  12
ATOM     12  C   UNL     1     -43.270 -45.143  72.016  1.00  0.00     0.000 C 
BRANCH  12  13
ATOM     13  C   UNL     1     -42.883 -43.856  72.759  1.00  0.00    -0.000 C 
BRANCH  13  14
ATOM     14  C   UNL     1     -42.144 -42.886  71.829  1.00  0.00    -0.000 C 
BRANCH  14  15
ATOM     15  C   UNL     1     -43.094 -41.947  71.063  1.00  0.00    -0.000 C 
BRANCH  15  16
ATOM     16  C   UNL     1     -42.994 -42.085  69.529  1.00  0.00    -0.000 C 
BRANCH  16  17
ATOM     17  C   UNL     1     -41.534 -42.106  69.041  1.00  0.00    -0.000 C 
BRANCH  17  18
ATOM     18  C   UNL     1     -41.183 -43.383  68.258  1.00  0.00    -0.000 C 
BRANCH  18  19
ATOM     19  C   UNL     1     -42.178 -44.544  68.436  1.00  0.00    -0.003 C 
ATOM     20  C   UNL     1     -42.324 -45.401  67.180  1.00  0.00     0.004 C 
ENDBRANCH  18  19
ENDBRANCH  17  18
ENDBRANCH  16  17
ENDBRANCH  15  16
ENDBRANCH  14  15
ENDBRANCH  13  14
ENDBRANCH  12  13
ENDBRANCH   1  12
TORSDOF 16
ENDMDL
MODEL 6
REMARK VINA RESULT:    -3.025      3.624      6.932
REMARK INTER + INTRA:          -8.562
REMARK INTER:                  -6.930
REMARK INTRA:                  -1.633
REMARK UNBOUND:                -2.708
REMARK SMILES CCCCCCCCCCCCCCCCCC(=O)[O-]
REMARK SMILES IDX 10 1 11 2 12 3 13 4 14 5 15 6 16 7 17 8 18 9 19 10 20 11
REMARK SMILES IDX 9 12 8 13 7 14 6 15 5 16 4 17 3 18 2 19 1 20
REMARK H PARENT
REMARK Flexibility Score: inf
ROOT
ATOM      1  C   UNL     1     -42.486 -44.276  68.353  1.00  0.00     0.000 C 
ENDROOT
BRANCH   1   2
ATOM      2  C   UNL     1     -42.167 -43.082  69.271  1.00  0.00     0.000 C 
BRANCH   2   3
ATOM      3  C   UNL     1     -43.293 -42.034  69.304  1.00  0.00     0.000 C 
BRANCH   3   4
ATOM      4  C   UNL     1     -43.478 -41.414  70.699  1.00  0.00     0.000 C 
BRANCH   4   5
ATOM      5  C   UNL     1     -42.628 -42.119  71.771  1.00  0.00     0.000 C 
BRANCH   5   6
ATOM      6  C   UNL     1     -43.209 -41.953  73.185  1.00  0.00     0.000 C 
BRANCH   6   7
ATOM      7  C   UNL     1     -42.353 -42.642  74.263  1.00  0.00     0.006 C 
BRANCH   7   8
ATOM      8  C   UNL     1     -42.635 -44.148  74.350  1.00  0.00     0.053 C 
BRANCH   8   9
ATOM      9  C   UNL     1     -43.951 -44.426  75.011  1.00  0.00     0.041 C 
ATOM     10  O   UNL     1     -44.705 -45.331  74.567  1.00  0.00    -0.550 OA
ATOM     11  O   UNL     1     -44.329 -43.707  76.139  1.00  0.00    -0.550 OA
ENDBRANCH   8   9
ENDBRANCH   7   8
ENDBRANCH   6   7
ENDBRANCH   5   6
ENDBRANCH   4   5
ENDBRANCH   3   4
ENDBRANCH   2   3
ENDBRANCH   1   2
BRANCH   1  12
ATOM     12  C   UNL     1     -42.632 -45.631  69.071  1.00  0.00     0.000 C 
BRANCH  12  13
ATOM     13  C   UNL     1     -42.822 -45.487  70.588  1.00  0.00    -0.000 C 
BRANCH  13  14
ATOM     14  C   UNL     1     -44.108 -46.186  71.049  1.00  0.00    -0.000 C 
BRANCH  14  15
ATOM     15  C   UNL     1     -44.158 -47.672  70.652  1.00  0.00    -0.000 C 
BRANCH  15  16
ATOM     16  C   UNL     1     -45.570 -48.288  70.743  1.00  0.00    -0.000 C 
BRANCH  16  17
ATOM     17  C   UNL     1     -46.622 -47.264  71.208  1.00  0.00    -0.000 C 
BRANCH  17  18
ATOM     18  C   UNL     1     -47.916 -47.317  70.377  1.00  0.00    -0.000 C 
BRANCH  18  19
ATOM     19  C   UNL     1     -47.807 -48.108  69.061  1.00  0.00    -0.003 C 
ATOM     20  C   UNL     1     -48.661 -47.519  67.940  1.00  0.00     0.004 C 
ENDBRANCH  18  19
ENDBRANCH  17  18
ENDBRANCH  16  17
ENDBRANCH  15  16
ENDBRANCH  14  15
ENDBRANCH  13  14
ENDBRANCH  12  13
ENDBRANCH   1  12
TORSDOF 16
ENDMDL
MODEL 7
REMARK VINA RESULT:    -2.998      3.385      6.662
REMARK INTER + INTRA:          -8.510
REMARK INTER:                  -6.603
REMARK INTRA:                  -1.907
REMARK UNBOUND:                -2.708
REMARK SMILES CCCCCCCCCCCCCCCCCC(=O)[O-]
REMARK SMILES IDX 10 1 11 2 12 3 13 4 14 5 15 6 16 7 17 8 18 9 19 10 20 11
REMARK SMILES IDX 9 12 8 13 7 14 6 15 5 16 4 17 3 18 2 19 1 20
REMARK H PARENT
REMARK Flexibility Score: inf
ROOT
ATOM      1  C   UNL     1     -46.426 -48.949  70.565  1.00  0.00     0.000 C 
ENDROOT
BRANCH   1   2
ATOM      2  C   UNL     1     -44.925 -48.660  70.749  1.00  0.00     0.000 C 
BRANCH   2   3
ATOM      3  C   UNL     1     -44.636 -47.189  71.097  1.00  0.00     0.000 C 
BRANCH   3   4
ATOM      4  C   UNL     1     -43.261 -46.726  70.590  1.00  0.00     0.000 C 
BRANCH   4   5
ATOM      5  C   UNL     1     -43.288 -45.283  70.054  1.00  0.00     0.000 C 
BRANCH   5   6
ATOM      6  C   UNL     1     -42.488 -45.123  68.751  1.00  0.00     0.000 C 
BRANCH   6   7
ATOM      7  C   UNL     1     -42.265 -43.650  68.368  1.00  0.00     0.006 C 
BRANCH   7   8
ATOM      8  C   UNL     1     -43.174 -42.702  69.161  1.00  0.00     0.053 C 
BRANCH   8   9
ATOM      9  C   UNL     1     -42.384 -41.651  69.881  1.00  0.00     0.041 C 
ATOM     10  O   UNL     1     -41.818 -41.920  70.972  1.00  0.00    -0.550 OA
ATOM     11  O   UNL     1     -42.246 -40.384  69.327  1.00  0.00    -0.550 OA
ENDBRANCH   8   9
ENDBRANCH   7   8
ENDBRANCH   6   7
ENDBRANCH   5   6
ENDBRANCH   4   5
ENDBRANCH   3   4
ENDBRANCH   2   3
ENDBRANCH   1   2
BRANCH   1  12
ATOM     12  C   UNL     1     -47.366 -47.796  70.964  1.00  0.00     0.000 C 
BRANCH  12  13
ATOM     13  C   UNL     1     -48.039 -47.128  69.756  1.00  0.00    -0.000 C 
BRANCH  13  14
ATOM     14  C   UNL     1     -48.631 -48.178  68.806  1.00  0.00    -0.000 C 
BRANCH  14  15
ATOM     15  C   UNL     1     -48.885 -47.630  67.390  1.00  0.00    -0.000 C 
BRANCH  15  16
ATOM     16  C   UNL     1     -48.055 -48.337  66.298  1.00  0.00    -0.000 C 
BRANCH  16  17
ATOM     17  C   UNL     1     -46.896 -49.161  66.889  1.00  0.00    -0.000 C 
BRANCH  17  18
ATOM     18  C   UNL     1     -45.532 -48.803  66.273  1.00  0.00    -0.000 C 
BRANCH  18  19
ATOM     19  C   UNL     1     -44.482 -48.300  67.279  1.00  0.00    -0.003 C 
ATOM     20  C   UNL     1     -43.103 -48.102  66.652  1.00  0.00     0.004 C 
ENDBRANCH  18  19
ENDBRANCH  17  18
ENDBRANCH  16  17
ENDBRANCH  15  16
ENDBRANCH  14  15
ENDBRANCH  13  14
ENDBRANCH  12  13
ENDBRANCH   1  12
TORSDOF 16
ENDMDL
MODEL 8
REMARK VINA RESULT:    -2.977      3.587      7.011
REMARK INTER + INTRA:          -8.469
REMARK INTER:                  -6.731
REMARK INTRA:                  -1.739
REMARK UNBOUND:                -2.708
REMARK SMILES CCCCCCCCCCCCCCCCCC(=O)[O-]
REMARK SMILES IDX 10 1 11 2 12 3 13 4 14 5 15 6 16 7 17 8 18 9 19 10 20 11
REMARK SMILES IDX 9 12 8 13 7 14 6 15 5 16 4 17 3 18 2 19 1 20
REMARK H PARENT
REMARK Flexibility Score: inf
ROOT
ATOM      1  C   UNL     1     -44.604 -46.991  70.360  1.00  0.00     0.000 C 
ENDROOT
BRANCH   1   2
ATOM      2  C   UNL     1     -44.016 -46.260  71.580  1.00  0.00     0.000 C 
BRANCH   2   3
ATOM      3  C   UNL     1     -43.104 -45.083  71.192  1.00  0.00     0.000 C 
BRANCH   3   4
ATOM      4  C   UNL     1     -42.757 -45.079  69.694  1.00  0.00     0.000 C 
BRANCH   4   5
ATOM      5  C   UNL     1     -43.141 -43.757  69.006  1.00  0.00     0.000 C 
BRANCH   5   6
ATOM      6  C   UNL     1     -41.937 -42.818  68.820  1.00  0.00     0.000 C 
BRANCH   6   7
ATOM      7  C   UNL     1     -42.142 -41.449  69.492  1.00  0.00     0.006 C 
BRANCH   7   8
ATOM      8  C   UNL     1     -43.431 -41.399  70.323  1.00  0.00     0.053 C 
BRANCH   8   9
ATOM      9  C   UNL     1     -43.141 -41.329  71.791  1.00  0.00     0.041 C 
ATOM     10  O   UNL     1     -42.074 -41.814  72.250  1.00  0.00    -0.550 OA
ATOM     11  O   UNL     1     -44.035 -40.697  72.647  1.00  0.00    -0.550 OA
ENDBRANCH   8   9
ENDBRANCH   7   8
ENDBRANCH   6   7
ENDBRANCH   5   6
ENDBRANCH   4   5
ENDBRANCH   3   4
ENDBRANCH   2   3
ENDBRANCH   1   2
BRANCH   1  12
ATOM     12  C   UNL     1     -44.705 -48.521  70.501  1.00  0.00     0.000 C 
BRANCH  12  13
ATOM     13  C   UNL     1     -46.138 -49.004  70.770  1.00  0.00    -0.000 C 
BRANCH  13  14
ATOM     14  C   UNL     1     -47.098 -47.816  70.920  1.00  0.00    -0.000 C 
BRANCH  14  15
ATOM     15  C   UNL     1     -48.578 -48.222  70.796  1.00  0.00    -0.000 C 
BRANCH  15  16
ATOM     16  C   UNL     1     -48.998 -48.590  69.357  1.00  0.00    -0.000 C 
BRANCH  16  17
ATOM     17  C   UNL     1     -48.534 -47.542  68.330  1.00  0.00    -0.000 C 
BRANCH  17  18
ATOM     18  C   UNL     1     -48.282 -48.141  66.935  1.00  0.00    -0.000 C 
BRANCH  18  19
ATOM     19  C   UNL     1     -47.189 -49.223  66.886  1.00  0.00    -0.003 C 
ATOM     20  C   UNL     1     -45.776 -48.647  66.958  1.00  0.00     0.004 C 
ENDBRANCH  18  19
ENDBRANCH  17  18
ENDBRANCH  16  17
ENDBRANCH  15  16
ENDBRANCH  14  15
ENDBRANCH  13  14
ENDBRANCH  12  13
ENDBRANCH   1  12
TORSDOF 16
ENDMDL
MODEL 9
REMARK VINA RESULT:    -2.939      3.224      6.326
REMARK INTER + INTRA:          -8.396
REMARK INTER:                  -5.807
REMARK INTRA:                  -2.589
REMARK UNBOUND:                -2.708
REMARK SMILES CCCCCCCCCCCCCCCCCC(=O)[O-]
REMARK SMILES IDX 10 1 11 2 12 3 13 4 14 5 15 6 16 7 17 8 18 9 19 10 20 11
REMARK SMILES IDX 9 12 8 13 7 14 6 15 5 16 4 17 3 18 2 19 1 20
REMARK H PARENT
REMARK Flexibility Score: inf
ROOT
ATOM      1  C   UNL     1     -41.398 -46.786  68.903  1.00  0.00     0.000 C 
ENDROOT
BRANCH   1   2
ATOM      2  C   UNL     1     -41.838 -46.393  67.481  1.00  0.00     0.000 C 
BRANCH   2   3
ATOM      3  C   UNL     1     -42.396 -44.961  67.401  1.00  0.00     0.000 C 
BRANCH   3   4
ATOM      4  C   UNL     1     -42.009 -44.111  68.623  1.00  0.00     0.000 C 
BRANCH   4   5
ATOM      5  C   UNL     1     -43.085 -43.069  68.977  1.00  0.00     0.000 C 
BRANCH   5   6
ATOM      6  C   UNL     1     -43.071 -42.691  70.467  1.00  0.00     0.000 C 
BRANCH   6   7
ATOM      7  C   UNL     1     -42.073 -43.532  71.284  1.00  0.00     0.006 C 
BRANCH   7   8
ATOM      8  C   UNL     1     -41.976 -43.060  72.741  1.00  0.00     0.053 C 
BRANCH   8   9
ATOM      9  C   UNL     1     -43.185 -43.459  73.533  1.00  0.00     0.041 C 
ATOM     10  O   UNL     1     -43.618 -44.639  73.477  1.00  0.00    -0.550 OA
ATOM     11  O   UNL     1     -43.811 -42.533  74.359  1.00  0.00    -0.550 OA
ENDBRANCH   8   9
ENDBRANCH   7   8
ENDBRANCH   6   7
ENDBRANCH   5   6
ENDBRANCH   4   5
ENDBRANCH   3   4
ENDBRANCH   2   3
ENDBRANCH   1   2
BRANCH   1  12
ATOM     12  C   UNL     1     -42.382 -47.695  69.663  1.00  0.00     0.000 C 
BRANCH  12  13
ATOM     13  C   UNL     1     -43.023 -47.002  70.874  1.00  0.00    -0.000 C 
BRANCH  13  14
ATOM     14  C   UNL     1     -44.394 -46.417  70.510  1.00  0.00    -0.000 C 
BRANCH  14  15
ATOM     15  C   UNL     1     -45.510 -46.861  71.473  1.00  0.00    -0.000 C 
BRANCH  15  16
ATOM     16  C   UNL     1     -46.778 -47.371  70.755  1.00  0.00    -0.000 C 
BRANCH  16  17
ATOM     17  C   UNL     1     -46.830 -48.909  70.688  1.00  0.00    -0.000 C 
BRANCH  17  18
ATOM     18  C   UNL     1     -45.994 -49.486  69.533  1.00  0.00    -0.000 C 
BRANCH  18  19
ATOM     19  C   UNL     1     -46.272 -48.857  68.157  1.00  0.00    -0.003 C 
ATOM     20  C   UNL     1     -45.018 -48.730  67.294  1.00  0.00     0.004 C 
ENDBRANCH  18  19
ENDBRANCH  17  18
ENDBRANCH  16  17
ENDBRANCH  15  16
ENDBRANCH  14  15
ENDBRANCH  13  14
ENDBRANCH  12  13
ENDBRANCH   1  12
TORSDOF 16
ENDMDL
