MODEL 1
REMARK VINA RESULT:    -4.053      0.000      0.000
REMARK INTER + INTRA:          -4.172
REMARK INTER:                  -4.172
REMARK INTRA:                   0.000
REMARK UNBOUND:                 0.000
REMARK SMILES CC1(C)[C@H]2CC[C@](C)(C2)[C@H]1O
REMARK SMILES IDX 1 1 2 2 4 3 5 4 6 5 7 6 9 7 10 8 8 9 3 10 11 11
REMARK H PARENT 11 12
REMARK Flexibility Score: inf
ROOT
ATOM      1  C   UNL     1     139.291 136.537 127.875  1.00  0.00     0.014 C 
ATOM      2  C   UNL     1     139.896 136.770 129.283  1.00  0.00    -0.006 C 
ATOM      3  C   UNL     1     138.819 137.098 130.374  1.00  0.00    -0.002 C 
ATOM      4  C   UNL     1     137.654 136.087 130.332  1.00  0.00     0.005 C 
ATOM      5  C   UNL     1     138.317 134.786 130.808  1.00  0.00     0.010 C 
ATOM      6  C   UNL     1     139.749 135.245 131.174  1.00  0.00    -0.006 C 
ATOM      7  C   UNL     1     139.500 136.656 131.659  1.00  0.00     0.013 C 
ATOM      8  C   UNL     1     140.581 135.498 129.891  1.00  0.00     0.126 C 
ATOM      9  C   UNL     1     140.446 134.347 132.200  1.00  0.00     0.014 C 
ATOM     10  C   UNL     1     140.906 137.936 129.164  1.00  0.00     0.014 C 
ENDROOT
BRANCH   8  11
ATOM     11  O   UNL     1     140.557 134.381 129.038  1.00  0.00    -0.392 OA
ATOM     12  H   UNL     1     141.078 133.669 129.493  1.00  0.00     0.211 HD
ENDBRANCH   8  11
TORSDOF 1
ENDMDL
MODEL 2
REMARK VINA RESULT:    -4.020      4.511      5.924
REMARK INTER + INTRA:          -4.137
REMARK INTER:                  -4.137
REMARK INTRA:                   0.000
REMARK UNBOUND:                 0.000
REMARK SMILES CC1(C)[C@H]2CC[C@](C)(C2)[C@H]1O
REMARK SMILES IDX 1 1 2 2 4 3 5 4 6 5 7 6 9 7 10 8 8 9 3 10 11 11
REMARK H PARENT 11 12
REMARK Flexibility Score: inf
ROOT
ATOM      1  C   UNL     1     135.916 138.482 127.875  1.00  0.00     0.014 C 
ATOM      2  C   UNL     1     135.339 138.274 129.299  1.00  0.00    -0.006 C 
ATOM      3  C   UNL     1     136.441 138.001 130.381  1.00  0.00    -0.002 C 
ATOM      4  C   UNL     1     137.581 139.038 130.291  1.00  0.00     0.005 C 
ATOM      5  C   UNL     1     136.894 140.336 130.743  1.00  0.00     0.010 C 
ATOM      6  C   UNL     1     135.479 139.853 131.145  1.00  0.00    -0.006 C 
ATOM      7  C   UNL     1     135.770 138.462 131.664  1.00  0.00     0.013 C 
ATOM      8  C   UNL     1     134.634 139.544 129.884  1.00  0.00     0.126 C 
ATOM      9  C   UNL     1     134.778 140.762 132.157  1.00  0.00     0.014 C 
ATOM     10  C   UNL     1     134.356 137.080 129.229  1.00  0.00     0.014 C 
ENDROOT
BRANCH   8  11
ATOM     11  O   UNL     1     134.616 140.638 129.000  1.00  0.00    -0.392 OA
ATOM     12  H   UNL     1     134.032 141.324 129.414  1.00  0.00     0.211 HD
ENDBRANCH   8  11
TORSDOF 1
ENDMDL
MODEL 3
REMARK VINA RESULT:    -3.999      3.204      4.141
REMARK INTER + INTRA:          -4.116
REMARK INTER:                  -4.116
REMARK INTRA:                   0.000
REMARK UNBOUND:                 0.000
REMARK SMILES CC1(C)[C@H]2CC[C@](C)(C2)[C@H]1O
REMARK SMILES IDX 1 1 2 2 4 3 5 4 6 5 7 6 9 7 10 8 8 9 3 10 11 11
REMARK H PARENT 11 12
REMARK Flexibility Score: inf
ROOT
ATOM      1  C   UNL     1     136.732 135.950 127.875  1.00  0.00     0.014 C 
ATOM      2  C   UNL     1     136.916 135.336 129.287  1.00  0.00    -0.006 C 
ATOM      3  C   UNL     1     137.288 136.396 130.380  1.00  0.00    -0.002 C 
ATOM      4  C   UNL     1     136.339 137.612 130.324  1.00  0.00     0.005 C 
ATOM      5  C   UNL     1     134.999 137.020 130.786  1.00  0.00     0.010 C 
ATOM      6  C   UNL     1     135.378 135.566 131.159  1.00  0.00    -0.006 C 
ATOM      7  C   UNL     1     136.795 135.741 131.660  1.00  0.00     0.013 C 
ATOM      8  C   UNL     1     135.603 134.720 129.880  1.00  0.00     0.126 C 
ATOM      9  C   UNL     1     134.433 134.919 132.175  1.00  0.00     0.014 C 
ATOM     10  C   UNL     1     138.029 134.266 129.183  1.00  0.00     0.014 C 
ENDROOT
BRANCH   8  11
ATOM     11  O   UNL     1     134.499 134.800 129.013  1.00  0.00    -0.392 OA
ATOM     12  H   UNL     1     134.822 135.243 128.186  1.00  0.00     0.211 HD
ENDBRANCH   8  11
TORSDOF 1
ENDMDL
MODEL 4
REMARK VINA RESULT:    -3.872      3.355      4.248
REMARK INTER + INTRA:          -3.985
REMARK INTER:                  -3.985
REMARK INTRA:                   0.000
REMARK UNBOUND:                 0.000
REMARK SMILES CC1(C)[C@H]2CC[C@](C)(C2)[C@H]1O
REMARK SMILES IDX 1 1 2 2 4 3 5 4 6 5 7 6 9 7 10 8 8 9 3 10 11 11
REMARK H PARENT 11 12
REMARK Flexibility Score: inf
ROOT
ATOM      1  C   UNL     1     138.548 139.461 127.875  1.00  0.00     0.014 C 
ATOM      2  C   UNL     1     138.301 139.964 129.321  1.00  0.00    -0.006 C 
ATOM      3  C   UNL     1     137.950 138.812 130.325  1.00  0.00    -0.002 C 
ATOM      4  C   UNL     1     138.953 137.645 130.210  1.00  0.00     0.005 C 
ATOM      5  C   UNL     1     140.253 138.260 130.751  1.00  0.00     0.010 C 
ATOM      6  C   UNL     1     139.799 139.666 131.215  1.00  0.00    -0.006 C 
ATOM      7  C   UNL     1     138.379 139.394 131.662  1.00  0.00     0.013 C 
ATOM      8  C   UNL     1     139.569 140.591 129.993  1.00  0.00     0.126 C 
ATOM      9  C   UNL     1     140.688 140.278 132.301  1.00  0.00     0.014 C 
ATOM     10  C   UNL     1     137.143 140.989 129.261  1.00  0.00     0.014 C 
ENDROOT
BRANCH   8  11
ATOM     11  O   UNL     1     140.697 140.621 129.155  1.00  0.00    -0.392 OA
ATOM     12  H   UNL     1     140.386 140.965 128.278  1.00  0.00     0.211 HD
ENDBRANCH   8  11
TORSDOF 1
ENDMDL
MODEL 5
REMARK VINA RESULT:    -3.871      1.620      2.425
REMARK INTER + INTRA:          -3.985
REMARK INTER:                  -3.985
REMARK INTRA:                   0.000
REMARK UNBOUND:                 0.000
REMARK SMILES CC1(C)[C@H]2CC[C@](C)(C2)[C@H]1O
REMARK SMILES IDX 1 1 2 2 4 3 5 4 6 5 7 6 9 7 10 8 8 9 3 10 11 11
REMARK H PARENT 11 12
REMARK Flexibility Score: inf
ROOT
ATOM      1  C   UNL     1     138.546 138.240 130.030  1.00  0.00     0.014 C 
ATOM      2  C   UNL     1     139.636 137.236 129.573  1.00  0.00    -0.006 C 
ATOM      3  C   UNL     1     139.971 136.150 130.653  1.00  0.00    -0.002 C 
ATOM      4  C   UNL     1     138.686 135.500 131.209  1.00  0.00     0.005 C 
ATOM      5  C   UNL     1     138.157 134.709 130.003  1.00  0.00     0.010 C 
ATOM      6  C   UNL     1     139.269 134.914 128.945  1.00  0.00    -0.006 C 
ATOM      7  C   UNL     1     140.503 134.999 129.816  1.00  0.00     0.013 C 
ATOM      8  C   UNL     1     139.201 136.347 128.359  1.00  0.00     0.126 C 
ATOM      9  C   UNL     1     139.328 133.810 127.886  1.00  0.00     0.014 C 
ATOM     10  C   UNL     1     140.904 138.055 129.231  1.00  0.00     0.014 C 
ENDROOT
BRANCH   8  11
ATOM     11  O   UNL     1     137.914 136.641 127.875  1.00  0.00    -0.392 OA
ATOM     12  H   UNL     1     137.344 135.861 128.101  1.00  0.00     0.211 HD
ENDBRANCH   8  11
TORSDOF 1
ENDMDL
MODEL 6
REMARK VINA RESULT:    -3.845      4.217      5.936
REMARK INTER + INTRA:          -3.958
REMARK INTER:                  -3.958
REMARK INTRA:                   0.000
REMARK UNBOUND:                 0.000
REMARK SMILES CC1(C)[C@H]2CC[C@](C)(C2)[C@H]1O
REMARK SMILES IDX 1 1 2 2 4 3 5 4 6 5 7 6 9 7 10 8 8 9 3 10 11 11
REMARK H PARENT 11 12
REMARK Flexibility Score: inf
ROOT
ATOM      1  C   UNL     1     136.583 137.017 130.074  1.00  0.00     0.014 C 
ATOM      2  C   UNL     1     135.512 138.014 129.561  1.00  0.00    -0.006 C 
ATOM      3  C   UNL     1     135.122 139.103 130.620  1.00  0.00    -0.002 C 
ATOM      4  C   UNL     1     136.377 139.761 131.233  1.00  0.00     0.005 C 
ATOM      5  C   UNL     1     136.959 140.549 130.049  1.00  0.00     0.010 C 
ATOM      6  C   UNL     1     135.898 140.335 128.941  1.00  0.00    -0.006 C 
ATOM      7  C   UNL     1     134.625 140.248 129.753  1.00  0.00     0.013 C 
ATOM      8  C   UNL     1     135.999 138.900 128.365  1.00  0.00     0.126 C 
ATOM      9  C   UNL     1     135.884 141.434 127.875  1.00  0.00     0.014 C 
ATOM     10  C   UNL     1     134.264 137.188 129.164  1.00  0.00     0.014 C 
ENDROOT
BRANCH   8  11
ATOM     11  O   UNL     1     137.308 138.609 127.943  1.00  0.00    -0.392 OA
ATOM     12  H   UNL     1     137.645 139.425 127.490  1.00  0.00     0.211 HD
ENDBRANCH   8  11
TORSDOF 1
ENDMDL
MODEL 7
REMARK VINA RESULT:    -3.777      3.612      5.123
REMARK INTER + INTRA:          -3.887
REMARK INTER:                  -3.887
REMARK INTRA:                   0.000
REMARK UNBOUND:                 0.000
REMARK SMILES CC1(C)[C@H]2CC[C@](C)(C2)[C@H]1O
REMARK SMILES IDX 1 1 2 2 4 3 5 4 6 5 7 6 9 7 10 8 8 9 3 10 11 11
REMARK H PARENT 11 12
REMARK Flexibility Score: inf
ROOT
ATOM      1  C   UNL     1     135.376 137.888 127.876  1.00  0.00     0.014 C 
ATOM      2  C   UNL     1     134.709 136.699 128.614  1.00  0.00    -0.006 C 
ATOM      3  C   UNL     1     135.542 135.373 128.534  1.00  0.00    -0.002 C 
ATOM      4  C   UNL     1     137.019 135.618 128.908  1.00  0.00     0.005 C 
ATOM      5  C   UNL     1     136.939 135.947 130.407  1.00  0.00     0.010 C 
ATOM      6  C   UNL     1     135.439 135.734 130.725  1.00  0.00    -0.006 C 
ATOM      7  C   UNL     1     135.083 134.616 129.769  1.00  0.00     0.013 C 
ATOM      8  C   UNL     1     134.595 136.905 130.163  1.00  0.00     0.126 C 
ATOM      9  C   UNL     1     135.156 135.412 132.195  1.00  0.00     0.014 C 
ATOM     10  C   UNL     1     133.312 136.489 127.981  1.00  0.00     0.014 C 
ENDROOT
BRANCH   8  11
ATOM     11  O   UNL     1     135.085 138.146 130.605  1.00  0.00    -0.392 OA
ATOM     12  H   UNL     1     135.815 138.399 129.982  1.00  0.00     0.211 HD
ENDBRANCH   8  11
TORSDOF 1
ENDMDL
MODEL 8
REMARK VINA RESULT:    -3.730      3.966      5.303
REMARK INTER + INTRA:          -3.839
REMARK INTER:                  -3.839
REMARK INTRA:                   0.000
REMARK UNBOUND:                 0.000
REMARK SMILES CC1(C)[C@H]2CC[C@](C)(C2)[C@H]1O
REMARK SMILES IDX 1 1 2 2 4 3 5 4 6 5 7 6 9 7 10 8 8 9 3 10 11 11
REMARK H PARENT 11 12
REMARK Flexibility Score: inf
ROOT
ATOM      1  C   UNL     1     138.730 140.213 129.728  1.00  0.00     0.014 C 
ATOM      2  C   UNL     1     137.399 139.731 130.361  1.00  0.00    -0.006 C 
ATOM      3  C   UNL     1     136.195 140.696 130.081  1.00  0.00    -0.002 C 
ATOM      4  C   UNL     1     136.105 141.058 128.584  1.00  0.00     0.005 C 
ATOM      5  C   UNL     1     135.702 139.724 127.936  1.00  0.00     0.010 C 
ATOM      6  C   UNL     1     135.500 138.797 129.160  1.00  0.00    -0.006 C 
ATOM      7  C   UNL     1     134.993 139.774 130.199  1.00  0.00     0.013 C 
ATOM      8  C   UNL     1     136.868 138.386 129.759  1.00  0.00     0.126 C 
ATOM      9  C   UNL     1     134.555 137.621 128.898  1.00  0.00     0.014 C 
ATOM     10  C   UNL     1     137.633 139.600 131.885  1.00  0.00     0.014 C 
ENDROOT
BRANCH   8  11
ATOM     11  O   UNL     1     137.710 137.833 128.779  1.00  0.00    -0.392 OA
ATOM     12  H   UNL     1     138.313 138.564 128.482  1.00  0.00     0.211 HD
ENDBRANCH   8  11
TORSDOF 1
ENDMDL
