MODEL 1
REMARK VINA RESULT:    -3.162      0.000      0.000
REMARK INTER + INTRA:          -5.111
REMARK INTER:                  -4.825
REMARK INTRA:                  -0.286
REMARK UNBOUND:                -0.286
REMARK SMILES CC1=CCC[C@H](C)C(=O)C[C@@H](C(C)C)C(=O)C1
REMARK SMILES IDX 8 1 9 2 6 3 7 4 5 5 4 6 3 7 2 8 1 9 10 11 11 12 15 13 16 14
REMARK SMILES IDX 17 15 12 17 13 18 14 19
REMARK H PARENT
REMARK Flexibility Score: 70.00
ROOT
ATOM      1  C   UNL     1       0.502  -0.283  15.308  1.00  0.00     0.136 C 
ATOM      2  O   UNL     1       0.456   0.043  16.486  1.00  0.00    -0.299 OA
ENDROOT
BRANCH   1   3
ATOM      3  C   UNL     1      -0.023   0.657  14.234  1.00  0.00     0.053 C 
ATOM      4  C   UNL     1      -1.397   1.247  14.590  1.00  0.00     0.016 C 
BRANCH   3   5
ATOM      5  C   UNL     1       0.997   1.756  13.849  1.00  0.00     0.015 C 
BRANCH   5   6
ATOM      6  C   UNL     1       2.204   1.325  12.987  1.00  0.00     0.028 C 
BRANCH   6   7
ATOM      7  C   UNL     1       3.528   1.232  13.709  1.00  0.00    -0.028 C 
ATOM      8  C   UNL     1       4.232   0.100  13.945  1.00  0.00    -0.070 CG0
ATOM      9  C   UNL     1       5.578   0.232  14.615  1.00  0.00     0.039 C 
ATOM     10  G   UNL     1       3.745  -1.282  13.555  1.00  0.00     0.000 G0
ENDBRANCH   6   7
ENDBRANCH   5   6
ENDBRANCH   3   5
ENDBRANCH   1   3
BRANCH   1  11
ATOM     11  C   UNL     1       1.055  -1.644  14.952  1.00  0.00     0.087 C 
BRANCH  11  12
ATOM     12  C   UNL     1       2.344  -1.979  15.751  1.00  0.00     0.066 C 
BRANCH  12  13
ATOM     13  C   UNL     1       3.491  -2.187  14.771  1.00  0.00     0.140 C 
ATOM     14  O   UNL     1       4.305  -3.072  14.995  1.00  0.00    -0.299 OA
BRANCH  13  15
ATOM     15  C   UNL     1       3.720  -1.291  13.577  1.00  0.00     0.106 CG0
ATOM     16  G   UNL     1       4.221   0.091  13.948  1.00  0.00     0.000 G0
ENDBRANCH  13  15
ENDBRANCH  12  13
BRANCH  12  17
ATOM     17  C   UNL     1       2.177  -3.231  16.674  1.00  0.00    -0.006 C 
ATOM     18  C   UNL     1       2.412  -2.865  18.154  1.00  0.00     0.008 C 
ATOM     19  C   UNL     1       0.783  -3.875  16.543  1.00  0.00     0.008 C 
ENDBRANCH  12  17
ENDBRANCH  11  12
ENDBRANCH   1  11
TORSDOF 1
ENDMDL
MODEL 2
REMARK VINA RESULT:    -2.856      2.803      4.542
REMARK INTER + INTRA:          -4.645
REMARK INTER:                  -4.543
REMARK INTRA:                  -0.102
REMARK UNBOUND:                -0.286
REMARK SMILES CC1=CCC[C@H](C)C(=O)C[C@@H](C(C)C)C(=O)C1
REMARK SMILES IDX 8 1 9 2 6 3 7 4 5 5 4 6 3 7 2 8 1 9 10 11 11 12 15 13 16 14
REMARK SMILES IDX 17 15 12 17 13 18 14 19
REMARK H PARENT
REMARK Flexibility Score: 70.00
ROOT
ATOM      1  C   UNL     1       1.996  -4.138  19.220  1.00  0.00     0.136 C 
ATOM      2  O   UNL     1       1.597  -4.053  20.373  1.00  0.00    -0.299 OA
ENDROOT
BRANCH   1   3
ATOM      3  C   UNL     1       1.002  -4.263  18.076  1.00  0.00     0.053 C 
ATOM      4  C   UNL     1      -0.377  -4.753  18.545  1.00  0.00     0.016 C 
BRANCH   3   5
ATOM      5  C   UNL     1       0.901  -2.973  17.226  1.00  0.00     0.015 C 
BRANCH   5   6
ATOM      6  C   UNL     1       1.154  -3.110  15.708  1.00  0.00     0.028 C 
BRANCH   6   7
ATOM      7  C   UNL     1       2.152  -2.141  15.118  1.00  0.00    -0.028 C 
ATOM      8  C   UNL     1       3.499  -2.282  15.119  1.00  0.00    -0.070 CG0
ATOM      9  C   UNL     1       4.319  -1.237  14.404  1.00  0.00     0.039 C 
ATOM     10  G   UNL     1       4.216  -3.441  15.784  1.00  0.00     0.000 G0
ENDBRANCH   6   7
ENDBRANCH   5   6
ENDBRANCH   3   5
ENDBRANCH   1   3
BRANCH   1  11
ATOM     11  C   UNL     1       3.485  -4.152  18.966  1.00  0.00     0.087 C 
BRANCH  11  12
ATOM     12  C   UNL     1       3.986  -2.816  18.351  1.00  0.00     0.066 C 
BRANCH  12  13
ATOM     13  C   UNL     1       4.836  -3.127  17.125  1.00  0.00     0.140 C 
ATOM     14  O   UNL     1       6.053  -3.047  17.216  1.00  0.00    -0.299 OA
BRANCH  13  15
ATOM     15  C   UNL     1       4.239  -3.445  15.775  1.00  0.00     0.106 CG0
ATOM     16  G   UNL     1       3.510  -2.274  15.147  1.00  0.00     0.000 G0
ENDBRANCH  13  15
ENDBRANCH  12  13
BRANCH  12  17
ATOM     17  C   UNL     1       4.791  -1.943  19.370  1.00  0.00    -0.006 C 
ATOM     18  C   UNL     1       3.951  -0.748  19.862  1.00  0.00     0.008 C 
ATOM     19  C   UNL     1       5.257  -2.752  20.596  1.00  0.00     0.008 C 
ENDBRANCH  12  17
ENDBRANCH  11  12
ENDBRANCH   1  11
TORSDOF 1
ENDMDL
MODEL 3
REMARK VINA RESULT:    -2.851      7.485      8.768
REMARK INTER + INTRA:          -4.637
REMARK INTER:                  -4.341
REMARK INTRA:                  -0.296
REMARK UNBOUND:                -0.286
REMARK SMILES CC1=CCC[C@H](C)C(=O)C[C@@H](C(C)C)C(=O)C1
REMARK SMILES IDX 8 1 9 2 6 3 7 4 5 5 4 6 3 7 2 8 1 9 10 11 11 12 15 13 16 14
REMARK SMILES IDX 17 15 12 17 13 18 14 19
REMARK H PARENT
REMARK Flexibility Score: 70.00
ROOT
ATOM      1  C   UNL     1       0.495   2.266  20.842  1.00  0.00     0.136 C 
ATOM      2  O   UNL     1      -0.482   2.394  20.118  1.00  0.00    -0.299 OA
ENDROOT
BRANCH   1   3
ATOM      3  C   UNL     1       1.269   3.490  21.303  1.00  0.00     0.053 C 
ATOM      4  C   UNL     1       0.462   4.366  22.275  1.00  0.00     0.016 C 
BRANCH   3   5
ATOM      5  C   UNL     1       2.668   3.139  21.866  1.00  0.00     0.015 C 
BRANCH   5   6
ATOM      6  C   UNL     1       2.831   3.149  23.402  1.00  0.00     0.028 C 
BRANCH   6   7
ATOM      7  C   UNL     1       3.800   2.137  23.967  1.00  0.00    -0.028 C 
ATOM      8  C   UNL     1       3.479   0.935  24.501  1.00  0.00    -0.070 CG0
ATOM      9  C   UNL     1       4.607   0.034  24.940  1.00  0.00     0.039 C 
ATOM     10  G   UNL     1       2.053   0.447  24.661  1.00  0.00     0.000 G0
ENDBRANCH   6   7
ENDBRANCH   5   6
ENDBRANCH   3   5
ENDBRANCH   1   3
BRANCH   1  11
ATOM     11  C   UNL     1       0.929   0.873  21.236  1.00  0.00     0.087 C 
BRANCH  11  12
ATOM     12  C   UNL     1       0.369   0.455  22.623  1.00  0.00     0.066 C 
BRANCH  12  13
ATOM     13  C   UNL     1       1.483  -0.204  23.426  1.00  0.00     0.140 C 
ATOM     14  O   UNL     1       1.884  -1.308  23.083  1.00  0.00    -0.299 OA
BRANCH  13  15
ATOM     15  C   UNL     1       2.059   0.406  24.681  1.00  0.00     0.106 CG0
ATOM     16  G   UNL     1       3.469   0.936  24.503  1.00  0.00     0.000 G0
ENDBRANCH  13  15
ENDBRANCH  12  13
BRANCH  12  17
ATOM     17  C   UNL     1      -0.868  -0.497  22.517  1.00  0.00    -0.006 C 
ATOM     18  C   UNL     1      -2.187   0.286  22.676  1.00  0.00     0.008 C 
ATOM     19  C   UNL     1      -0.908  -1.258  21.178  1.00  0.00     0.008 C 
ENDBRANCH  12  17
ENDBRANCH  11  12
ENDBRANCH   1  11
TORSDOF 1
ENDMDL
MODEL 4
REMARK VINA RESULT:    -2.804      7.316      9.750
REMARK INTER + INTRA:          -4.566
REMARK INTER:                  -4.222
REMARK INTRA:                  -0.344
REMARK UNBOUND:                -0.286
REMARK SMILES CC1=CCC[C@H](C)C(=O)C[C@@H](C(C)C)C(=O)C1
REMARK SMILES IDX 8 1 9 2 6 3 7 4 5 5 4 6 3 7 2 8 1 9 10 11 11 12 15 13 16 14
REMARK SMILES IDX 17 15 12 17 13 18 14 19
REMARK H PARENT
REMARK Flexibility Score: 70.00
ROOT
ATOM      1  C   UNL     1       2.628   0.849  24.154  1.00  0.00     0.136 C 
ATOM      2  O   UNL     1       3.187   1.744  24.773  1.00  0.00    -0.299 OA
ENDROOT
BRANCH   1   3
ATOM      3  C   UNL     1       2.241  -0.440  24.860  1.00  0.00     0.053 C 
ATOM      4  C   UNL     1       3.367  -0.982  25.756  1.00  0.00     0.016 C 
BRANCH   3   5
ATOM      5  C   UNL     1       0.898  -0.327  25.622  1.00  0.00     0.015 C 
BRANCH   5   6
ATOM      6  C   UNL     1      -0.291  -1.148  25.076  1.00  0.00     0.028 C 
BRANCH   6   7
ATOM      7  C   UNL     1      -0.027  -1.926  23.808  1.00  0.00    -0.028 C 
ATOM      8  C   UNL     1      -0.235  -1.487  22.544  1.00  0.00    -0.070 CG0
ATOM      9  C   UNL     1       0.170  -2.393  21.407  1.00  0.00     0.039 C 
ATOM     10  G   UNL     1      -0.833  -0.132  22.219  1.00  0.00     0.000 G0
ENDBRANCH   6   7
ENDBRANCH   5   6
ENDBRANCH   3   5
ENDBRANCH   1   3
BRANCH   1  11
ATOM     11  C   UNL     1       2.365   1.042  22.678  1.00  0.00     0.087 C 
BRANCH  11  12
ATOM     12  C   UNL     1       1.015   1.762  22.412  1.00  0.00     0.066 C 
BRANCH  12  13
ATOM     13  C   UNL     1       0.120   0.843  21.591  1.00  0.00     0.140 C 
ATOM     14  O   UNL     1       0.131   0.945  20.372  1.00  0.00    -0.299 OA
BRANCH  13  15
ATOM     15  C   UNL     1      -0.847  -0.132  22.217  1.00  0.00     0.106 CG0
ATOM     16  G   UNL     1      -0.232  -1.485  22.515  1.00  0.00     0.000 G0
ENDBRANCH  13  15
ENDBRANCH  12  13
BRANCH  12  17
ATOM     17  C   UNL     1       1.193   3.140  21.694  1.00  0.00    -0.006 C 
ATOM     18  C   UNL     1       0.780   4.304  22.617  1.00  0.00     0.008 C 
ATOM     19  C   UNL     1       2.643   3.375  21.229  1.00  0.00     0.008 C 
ENDBRANCH  12  17
ENDBRANCH  11  12
ENDBRANCH   1  11
TORSDOF 1
ENDMDL
MODEL 5
REMARK VINA RESULT:    -2.791      2.939      4.453
REMARK INTER + INTRA:          -4.545
REMARK INTER:                  -4.232
REMARK INTRA:                  -0.314
REMARK UNBOUND:                -0.286
REMARK SMILES CC1=CCC[C@H](C)C(=O)C[C@@H](C(C)C)C(=O)C1
REMARK SMILES IDX 8 1 9 2 6 3 7 4 5 5 4 6 3 7 2 8 1 9 10 11 11 12 15 13 16 14
REMARK SMILES IDX 17 15 12 17 13 18 14 19
REMARK H PARENT
REMARK Flexibility Score: 70.00
ROOT
ATOM      1  C   UNL     1       1.651  -1.839  15.425  1.00  0.00     0.136 C 
ATOM      2  O   UNL     1       1.358  -2.742  14.654  1.00  0.00    -0.299 OA
ENDROOT
BRANCH   1   3
ATOM      3  C   UNL     1       1.905  -0.436  14.897  1.00  0.00     0.053 C 
ATOM      4  C   UNL     1       3.171  -0.354  14.029  1.00  0.00     0.016 C 
BRANCH   3   5
ATOM      5  C   UNL     1       0.672   0.167  14.181  1.00  0.00     0.015 C 
BRANCH   5   6
ATOM      6  C   UNL     1      -0.460   0.720  15.076  1.00  0.00     0.028 C 
BRANCH   6   7
ATOM      7  C   UNL     1      -0.022   1.600  16.223  1.00  0.00    -0.028 C 
ATOM      8  C   UNL     1      -0.136   1.309  17.541  1.00  0.00    -0.070 CG0
ATOM      9  C   UNL     1       0.438   2.292  18.532  1.00  0.00     0.039 C 
ATOM     10  G   UNL     1      -0.790   0.045  18.063  1.00  0.00     0.000 G0
ENDBRANCH   6   7
ENDBRANCH   5   6
ENDBRANCH   3   5
ENDBRANCH   1   3
BRANCH   1  11
ATOM     11  C   UNL     1       1.788  -2.157  16.896  1.00  0.00     0.087 C 
BRANCH  11  12
ATOM     12  C   UNL     1       0.409  -2.284  17.599  1.00  0.00     0.066 C 
BRANCH  12  13
ATOM     13  C   UNL     1       0.182  -1.052  18.465  1.00  0.00     0.140 C 
ATOM     14  O   UNL     1       0.760  -0.973  19.540  1.00  0.00    -0.299 OA
BRANCH  13  15
ATOM     15  C   UNL     1      -0.795   0.039  18.097  1.00  0.00     0.106 CG0
ATOM     16  G   UNL     1      -0.127   1.285  17.548  1.00  0.00     0.000 G0
ENDBRANCH  13  15
ENDBRANCH  12  13
BRANCH  12  17
ATOM     17  C   UNL     1       0.281  -3.588  18.454  1.00  0.00    -0.006 C 
ATOM     18  C   UNL     1      -0.663  -4.604  17.779  1.00  0.00     0.008 C 
ATOM     19  C   UNL     1       1.643  -4.268  18.693  1.00  0.00     0.008 C 
ENDBRANCH  12  17
ENDBRANCH  11  12
ENDBRANCH   1  11
TORSDOF 1
ENDMDL
MODEL 6
REMARK VINA RESULT:    -2.677      3.454      5.548
REMARK INTER + INTRA:          -4.372
REMARK INTER:                  -4.233
REMARK INTRA:                  -0.138
REMARK UNBOUND:                -0.286
REMARK SMILES CC1=CCC[C@H](C)C(=O)C[C@@H](C(C)C)C(=O)C1
REMARK SMILES IDX 8 1 9 2 6 3 7 4 5 5 4 6 3 7 2 8 1 9 10 11 11 12 15 13 16 14
REMARK SMILES IDX 17 15 12 17 13 18 14 19
REMARK H PARENT
REMARK Flexibility Score: 70.00
ROOT
ATOM      1  C   UNL     1       0.428  -3.910  19.895  1.00  0.00     0.136 C 
ATOM      2  O   UNL     1       0.277  -4.559  20.921  1.00  0.00    -0.299 OA
ENDROOT
BRANCH   1   3
ATOM      3  C   UNL     1       0.520  -4.616  18.552  1.00  0.00     0.053 C 
ATOM      4  C   UNL     1      -0.860  -4.874  17.926  1.00  0.00     0.016 C 
BRANCH   3   5
ATOM      5  C   UNL     1       1.479  -3.905  17.566  1.00  0.00     0.015 C 
BRANCH   5   6
ATOM      6  C   UNL     1       0.846  -3.258  16.314  1.00  0.00     0.028 C 
BRANCH   6   7
ATOM      7  C   UNL     1       1.507  -1.991  15.823  1.00  0.00    -0.028 C 
ATOM      8  C   UNL     1       1.117  -0.725  16.108  1.00  0.00    -0.070 CG0
ATOM      9  C   UNL     1       1.963   0.409  15.583  1.00  0.00     0.039 C 
ATOM     10  G   UNL     1      -0.108  -0.396  16.938  1.00  0.00     0.000 G0
ENDBRANCH   6   7
ENDBRANCH   5   6
ENDBRANCH   3   5
ENDBRANCH   1   3
BRANCH   1  11
ATOM     11  C   UNL     1       0.554  -2.408  19.999  1.00  0.00     0.087 C 
BRANCH  11  12
ATOM     12  C   UNL     1      -0.558  -1.670  19.203  1.00  0.00     0.066 C 
BRANCH  12  13
ATOM     13  C   UNL     1       0.076  -0.534  18.411  1.00  0.00     0.140 C 
ATOM     14  O   UNL     1       0.710   0.322  19.012  1.00  0.00    -0.299 OA
BRANCH  13  15
ATOM     15  C   UNL     1      -0.117  -0.366  16.923  1.00  0.00     0.106 CG0
ATOM     16  G   UNL     1       1.112  -0.724  16.111  1.00  0.00     0.000 G0
ENDBRANCH  13  15
ENDBRANCH  12  13
BRANCH  12  17
ATOM     17  C   UNL     1      -1.703  -1.128  20.120  1.00  0.00    -0.006 C 
ATOM     18  C   UNL     1      -2.919  -2.077  20.108  1.00  0.00     0.008 C 
ATOM     19  C   UNL     1      -1.245  -0.937  21.579  1.00  0.00     0.008 C 
ENDBRANCH  12  17
ENDBRANCH  11  12
ENDBRANCH   1  11
TORSDOF 1
ENDMDL
MODEL 7
REMARK VINA RESULT:    -2.668      6.653      8.563
REMARK INTER + INTRA:          -4.358
REMARK INTER:                  -4.452
REMARK INTRA:                   0.094
REMARK UNBOUND:                -0.286
REMARK SMILES CC1=CCC[C@H](C)C(=O)C[C@@H](C(C)C)C(=O)C1
REMARK SMILES IDX 8 1 9 2 6 3 7 4 5 5 4 6 3 7 2 8 1 9 10 11 11 12 15 13 16 14
REMARK SMILES IDX 17 15 12 17 13 18 14 19
REMARK H PARENT
REMARK Flexibility Score: 70.00
ROOT
ATOM      1  C   UNL     1       3.418   1.481  24.196  1.00  0.00     0.136 C 
ATOM      2  O   UNL     1       2.851   1.012  25.173  1.00  0.00    -0.299 OA
ENDROOT
BRANCH   1   3
ATOM      3  C   UNL     1       4.772   0.939  23.767  1.00  0.00     0.053 C 
ATOM      4  C   UNL     1       5.847   1.114  24.851  1.00  0.00     0.016 C 
BRANCH   3   5
ATOM      5  C   UNL     1       4.698  -0.520  23.255  1.00  0.00     0.015 C 
BRANCH   5   6
ATOM      6  C   UNL     1       4.703  -0.729  21.724  1.00  0.00     0.028 C 
BRANCH   6   7
ATOM      7  C   UNL     1       5.541   0.245  20.929  1.00  0.00    -0.028 C 
ATOM      8  C   UNL     1       5.077   1.278  20.187  1.00  0.00    -0.070 CG0
ATOM      9  C   UNL     1       6.087   2.187  19.532  1.00  0.00     0.039 C 
ATOM     10  G   UNL     1       3.602   1.574  20.000  1.00  0.00     0.000 G0
ENDBRANCH   6   7
ENDBRANCH   5   6
ENDBRANCH   3   5
ENDBRANCH   1   3
BRANCH   1  11
ATOM     11  C   UNL     1       2.764   2.626  23.457  1.00  0.00     0.087 C 
BRANCH  11  12
ATOM     12  C   UNL     1       2.112   2.165  22.125  1.00  0.00     0.066 C 
BRANCH  12  13
ATOM     13  C   UNL     1       3.016   2.571  20.968  1.00  0.00     0.140 C 
ATOM     14  O   UNL     1       3.238   3.760  20.782  1.00  0.00    -0.299 OA
BRANCH  13  15
ATOM     15  C   UNL     1       3.583   1.577  19.983  1.00  0.00     0.106 CG0
ATOM     16  G   UNL     1       5.058   1.296  20.191  1.00  0.00     0.000 G0
ENDBRANCH  13  15
ENDBRANCH  12  13
BRANCH  12  17
ATOM     17  C   UNL     1       0.672   2.740  21.923  1.00  0.00    -0.006 C 
ATOM     18  C   UNL     1       0.609   4.230  22.315  1.00  0.00     0.008 C 
ATOM     19  C   UNL     1       0.180   2.594  20.470  1.00  0.00     0.008 C 
ENDBRANCH  12  17
ENDBRANCH  11  12
ENDBRANCH   1  11
TORSDOF 1
ENDMDL
MODEL 8
REMARK VINA RESULT:    -2.643      7.816      9.693
REMARK INTER + INTRA:          -4.321
REMARK INTER:                  -4.070
REMARK INTRA:                  -0.251
REMARK UNBOUND:                -0.286
REMARK SMILES CC1=CCC[C@H](C)C(=O)C[C@@H](C(C)C)C(=O)C1
REMARK SMILES IDX 8 1 9 2 6 3 7 4 5 5 4 6 3 7 2 8 1 9 10 11 11 12 15 13 16 14
REMARK SMILES IDX 17 15 12 17 13 18 14 19
REMARK H PARENT
REMARK Flexibility Score: 70.00
ROOT
ATOM      1  C   UNL     1       2.740   2.502  23.225  1.00  0.00     0.136 C 
ATOM      2  O   UNL     1       3.570   3.252  22.730  1.00  0.00    -0.299 OA
ENDROOT
BRANCH   1   3
ATOM      3  C   UNL     1       1.384   2.320  22.562  1.00  0.00     0.053 C 
ATOM      4  C   UNL     1       0.701   3.660  22.242  1.00  0.00     0.016 C 
BRANCH   3   5
ATOM      5  C   UNL     1       1.440   1.390  21.326  1.00  0.00     0.015 C 
BRANCH   5   6
ATOM      6  C   UNL     1       1.002  -0.077  21.529  1.00  0.00     0.028 C 
BRANCH   6   7
ATOM      7  C   UNL     1      -0.017  -0.314  22.620  1.00  0.00    -0.028 C 
ATOM      8  C   UNL     1       0.210  -0.927  23.805  1.00  0.00    -0.070 CG0
ATOM      9  C   UNL     1      -0.926  -0.994  24.795  1.00  0.00     0.039 C 
ATOM     10  G   UNL     1       1.547  -1.530  24.190  1.00  0.00     0.000 G0
ENDBRANCH   6   7
ENDBRANCH   5   6
ENDBRANCH   3   5
ENDBRANCH   1   3
BRANCH   1  11
ATOM     11  C   UNL     1       3.079   1.795  24.517  1.00  0.00     0.087 C 
BRANCH  11  12
ATOM     12  C   UNL     1       3.471   0.310  24.286  1.00  0.00     0.066 C 
BRANCH  12  13
ATOM     13  C   UNL     1       2.440  -0.582  24.966  1.00  0.00     0.140 C 
ATOM     14  O   UNL     1       2.376  -0.584  26.187  1.00  0.00    -0.299 OA
BRANCH  13  15
ATOM     15  C   UNL     1       1.551  -1.534  24.203  1.00  0.00     0.106 CG0
ATOM     16  G   UNL     1       0.223  -0.924  23.797  1.00  0.00     0.000 G0
ENDBRANCH  13  15
ENDBRANCH  12  13
BRANCH  12  17
ATOM     17  C   UNL     1       4.910  -0.024  24.800  1.00  0.00    -0.006 C 
ATOM     18  C   UNL     1       5.150  -1.547  24.826  1.00  0.00     0.008 C 
ATOM     19  C   UNL     1       6.007   0.630  23.937  1.00  0.00     0.008 C 
ENDBRANCH  12  17
ENDBRANCH  11  12
ENDBRANCH   1  11
TORSDOF 1
ENDMDL
MODEL 9
REMARK VINA RESULT:    -2.498      6.705      8.623
REMARK INTER + INTRA:          -4.098
REMARK INTER:                  -3.811
REMARK INTRA:                  -0.287
REMARK UNBOUND:                -0.286
REMARK SMILES CC1=CCC[C@H](C)C(=O)C[C@@H](C(C)C)C(=O)C1
REMARK SMILES IDX 8 1 9 2 6 3 7 4 5 5 4 6 3 7 2 8 1 9 10 11 11 12 15 13 16 14
REMARK SMILES IDX 17 15 12 17 13 18 14 19
REMARK H PARENT
REMARK Flexibility Score: 70.00
ROOT
ATOM      1  C   UNL     1       4.812   0.737  22.850  1.00  0.00     0.136 C 
ATOM      2  O   UNL     1       5.912   0.791  23.383  1.00  0.00    -0.299 OA
ENDROOT
BRANCH   1   3
ATOM      3  C   UNL     1       3.551   0.766  23.699  1.00  0.00     0.053 C 
ATOM      4  C   UNL     1       3.490  -0.398  24.701  1.00  0.00     0.016 C 
BRANCH   3   5
ATOM      5  C   UNL     1       3.322   2.134  24.387  1.00  0.00     0.015 C 
BRANCH   5   6
ATOM      6  C   UNL     1       2.732   3.267  23.518  1.00  0.00     0.028 C 
BRANCH   6   7
ATOM      7  C   UNL     1       1.746   2.837  22.457  1.00  0.00    -0.028 C 
ATOM      8  C   UNL     1       1.926   2.923  21.118  1.00  0.00    -0.070 CG0
ATOM      9  C   UNL     1       0.849   2.363  20.223  1.00  0.00     0.039 C 
ATOM     10  G   UNL     1       3.158   3.534  20.479  1.00  0.00     0.000 G0
ENDBRANCH   6   7
ENDBRANCH   5   6
ENDBRANCH   3   5
ENDBRANCH   1   3
BRANCH   1  11
ATOM     11  C   UNL     1       4.739   0.608  21.347  1.00  0.00     0.087 C 
BRANCH  11  12
ATOM     12  C   UNL     1       5.244   1.886  20.624  1.00  0.00     0.066 C 
BRANCH  12  13
ATOM     13  C   UNL     1       4.084   2.509  19.857  1.00  0.00     0.140 C 
ATOM     14  O   UNL     1       3.935   2.222  18.678  1.00  0.00    -0.299 OA
BRANCH  13  15
ATOM     15  C   UNL     1       3.159   3.536  20.465  1.00  0.00     0.106 CG0
ATOM     16  G   UNL     1       1.938   2.928  21.128  1.00  0.00     0.000 G0
ENDBRANCH  13  15
ENDBRANCH  12  13
BRANCH  12  17
ATOM     17  C   UNL     1       6.448   1.606  19.665  1.00  0.00    -0.006 C 
ATOM     18  C   UNL     1       7.210   2.906  19.337  1.00  0.00     0.008 C 
ATOM     19  C   UNL     1       7.444   0.590  20.256  1.00  0.00     0.008 C 
ENDBRANCH  12  17
ENDBRANCH  11  12
ENDBRANCH   1  11
TORSDOF 1
ENDMDL
