MODEL 1
REMARK VINA RESULT:     0.620      0.000      0.000
REMARK INTER + INTRA:           0.672
REMARK INTER:                   1.561
REMARK INTRA:                  -0.889
REMARK UNBOUND:                -0.889
REMARK SMILES CCCCCCCCCCCCCCCCCCCCCCCCCCCC(=O)[O-]
REMARK SMILES IDX 15 1 16 2 17 3 18 4 19 5 20 6 21 7 22 8 23 9 24 10 25 11
REMARK SMILES IDX 26 12 27 13 28 14 29 15 30 16 14 17 13 18 12 19 11 20 10 21
REMARK SMILES IDX 9 22 8 23 7 24 6 25 5 26 4 27 3 28 2 29 1 30
REMARK H PARENT
REMARK Flexibility Score: inf
ROOT
ATOM      1  C   UNL     1      34.321  28.312  18.331  1.00  0.00     0.000 C 
ENDROOT
BRANCH   1   2
ATOM      2  C   UNL     1      33.885  28.916  16.984  1.00  0.00     0.000 C 
BRANCH   2   3
ATOM      3  C   UNL     1      34.632  28.293  15.793  1.00  0.00     0.000 C 
BRANCH   3   4
ATOM      4  C   UNL     1      36.002  28.953  15.549  1.00  0.00     0.000 C 
BRANCH   4   5
ATOM      5  C   UNL     1      37.035  27.975  14.947  1.00  0.00     0.000 C 
BRANCH   5   6
ATOM      6  C   UNL     1      36.423  26.900  14.028  1.00  0.00     0.000 C 
BRANCH   6   7
ATOM      7  C   UNL     1      36.721  27.076  12.527  1.00  0.00     0.000 C 
BRANCH   7   8
ATOM      8  C   UNL     1      35.509  26.894  11.587  1.00  0.00     0.000 C 
BRANCH   8   9
ATOM      9  C   UNL     1      34.187  27.486  12.109  1.00  0.00     0.000 C 
BRANCH   9  10
ATOM     10  C   UNL     1      33.905  28.894  11.558  1.00  0.00     0.000 C 
BRANCH  10  11
ATOM     11  C   UNL     1      33.396  29.867  12.639  1.00  0.00     0.000 C 
BRANCH  11  12
ATOM     12  C   UNL     1      32.196  29.360  13.460  1.00  0.00     0.006 C 
BRANCH  12  13
ATOM     13  C   UNL     1      31.293  30.494  13.968  1.00  0.00     0.053 C 
BRANCH  13  14
ATOM     14  C   UNL     1      31.128  31.558  12.925  1.00  0.00     0.041 C 
ATOM     15  O   UNL     1      32.135  32.131  12.430  1.00  0.00    -0.550 OA
ATOM     16  O   UNL     1      29.852  31.936  12.519  1.00  0.00    -0.550 OA
ENDBRANCH  13  14
ENDBRANCH  12  13
ENDBRANCH  11  12
ENDBRANCH  10  11
ENDBRANCH   9  10
ENDBRANCH   8   9
ENDBRANCH   7   8
ENDBRANCH   6   7
ENDBRANCH   5   6
ENDBRANCH   4   5
ENDBRANCH   3   4
ENDBRANCH   2   3
ENDBRANCH   1   2
BRANCH   1  17
ATOM     17  C   UNL     1      35.806  27.920  18.309  1.00  0.00     0.000 C 
BRANCH  17  18
ATOM     18  C   UNL     1      36.179  26.984  19.474  1.00  0.00     0.000 C 
BRANCH  18  19
ATOM     19  C   UNL     1      35.717  27.495  20.858  1.00  0.00     0.000 C 
BRANCH  19  20
ATOM     20  C   UNL     1      36.841  27.566  21.906  1.00  0.00     0.000 C 
BRANCH  20  21
ATOM     21  C   UNL     1      36.458  26.968  23.278  1.00  0.00     0.000 C 
BRANCH  21  22
ATOM     22  C   UNL     1      36.563  27.965  24.450  1.00  0.00    -0.000 C 
BRANCH  22  23
ATOM     23  C   UNL     1      36.554  29.449  24.032  1.00  0.00    -0.000 C 
BRANCH  23  24
ATOM     24  C   UNL     1      37.125  30.383  25.116  1.00  0.00    -0.000 C 
BRANCH  24  25
ATOM     25  C   UNL     1      36.554  31.807  25.033  1.00  0.00    -0.000 C 
BRANCH  25  26
ATOM     26  C   UNL     1      36.818  32.468  23.668  1.00  0.00    -0.000 C 
BRANCH  26  27
ATOM     27  C   UNL     1      36.493  33.968  23.666  1.00  0.00    -0.000 C 
BRANCH  27  28
ATOM     28  C   UNL     1      36.885  34.663  24.982  1.00  0.00    -0.000 C 
BRANCH  28  29
ATOM     29  C   UNL     1      36.789  36.195  24.889  1.00  0.00    -0.003 C 
ATOM     30  C   UNL     1      35.355  36.708  25.018  1.00  0.00     0.004 C 
ENDBRANCH  28  29
ENDBRANCH  27  28
ENDBRANCH  26  27
ENDBRANCH  25  26
ENDBRANCH  24  25
ENDBRANCH  23  24
ENDBRANCH  22  23
ENDBRANCH  21  22
ENDBRANCH  20  21
ENDBRANCH  19  20
ENDBRANCH  18  19
ENDBRANCH  17  18
ENDBRANCH   1  17
TORSDOF 26
ENDMDL
MODEL 2
REMARK VINA RESULT:     1.020      5.634     12.970
REMARK INTER + INTRA:           1.681
REMARK INTER:                   2.869
REMARK INTRA:                  -1.188
REMARK UNBOUND:                -0.889
REMARK SMILES CCCCCCCCCCCCCCCCCCCCCCCCCCCC(=O)[O-]
REMARK SMILES IDX 15 1 16 2 17 3 18 4 19 5 20 6 21 7 22 8 23 9 24 10 25 11
REMARK SMILES IDX 26 12 27 13 28 14 29 15 30 16 14 17 13 18 12 19 11 20 10 21
REMARK SMILES IDX 9 22 8 23 7 24 6 25 5 26 4 27 3 28 2 29 1 30
REMARK H PARENT
REMARK Flexibility Score: inf
ROOT
ATOM      1  C   UNL     1      36.102  32.180  21.771  1.00  0.00     0.000 C 
ENDROOT
BRANCH   1   2
ATOM      2  C   UNL     1      36.294  31.730  23.230  1.00  0.00     0.000 C 
BRANCH   2   3
ATOM      3  C   UNL     1      36.026  32.865  24.233  1.00  0.00     0.000 C 
BRANCH   3   4
ATOM      4  C   UNL     1      36.839  34.134  23.917  1.00  0.00     0.000 C 
BRANCH   4   5
ATOM      5  C   UNL     1      36.825  35.154  25.076  1.00  0.00     0.000 C 
BRANCH   5   6
ATOM      6  C   UNL     1      36.122  36.483  24.736  1.00  0.00     0.000 C 
BRANCH   6   7
ATOM      7  C   UNL     1      37.007  37.739  24.852  1.00  0.00     0.000 C 
BRANCH   7   8
ATOM      8  C   UNL     1      36.249  39.057  25.121  1.00  0.00     0.000 C 
BRANCH   8   9
ATOM      9  C   UNL     1      37.110  40.331  25.038  1.00  0.00     0.000 C 
BRANCH   9  10
ATOM     10  C   UNL     1      36.289  41.588  24.703  1.00  0.00     0.000 C 
BRANCH  10  11
ATOM     11  C   UNL     1      37.048  42.894  25.005  1.00  0.00     0.000 C 
BRANCH  11  12
ATOM     12  C   UNL     1      36.843  44.020  23.973  1.00  0.00     0.006 C 
BRANCH  12  13
ATOM     13  C   UNL     1      35.514  44.768  24.156  1.00  0.00     0.053 C 
BRANCH  13  14
ATOM     14  C   UNL     1      35.248  45.683  22.999  1.00  0.00     0.041 C 
ATOM     15  O   UNL     1      36.122  46.508  22.621  1.00  0.00    -0.550 OA
ATOM     16  O   UNL     1      34.017  45.640  22.353  1.00  0.00    -0.550 OA
ENDBRANCH  13  14
ENDBRANCH  12  13
ENDBRANCH  11  12
ENDBRANCH  10  11
ENDBRANCH   9  10
ENDBRANCH   8   9
ENDBRANCH   7   8
ENDBRANCH   6   7
ENDBRANCH   5   6
ENDBRANCH   4   5
ENDBRANCH   3   4
ENDBRANCH   2   3
ENDBRANCH   1   2
BRANCH   1  17
ATOM     17  C   UNL     1      35.719  30.997  20.869  1.00  0.00     0.000 C 
BRANCH  17  18
ATOM     18  C   UNL     1      34.618  30.120  21.496  1.00  0.00     0.000 C 
BRANCH  18  19
ATOM     19  C   UNL     1      34.884  28.602  21.372  1.00  0.00     0.000 C 
BRANCH  19  20
ATOM     20  C   UNL     1      36.364  28.242  21.162  1.00  0.00     0.000 C 
BRANCH  20  21
ATOM     21  C   UNL     1      36.586  26.878  20.471  1.00  0.00     0.000 C 
BRANCH  21  22
ATOM     22  C   UNL     1      37.009  26.985  18.992  1.00  0.00    -0.000 C 
BRANCH  22  23
ATOM     23  C   UNL     1      35.842  27.183  18.003  1.00  0.00    -0.000 C 
BRANCH  23  24
ATOM     24  C   UNL     1      36.256  26.976  16.533  1.00  0.00    -0.000 C 
BRANCH  24  25
ATOM     25  C   UNL     1      35.318  27.689  15.548  1.00  0.00    -0.000 C 
BRANCH  25  26
ATOM     26  C   UNL     1      35.648  27.362  14.080  1.00  0.00    -0.000 C 
BRANCH  26  27
ATOM     27  C   UNL     1      34.616  27.938  13.100  1.00  0.00    -0.000 C 
BRANCH  27  28
ATOM     28  C   UNL     1      33.299  28.335  13.790  1.00  0.00    -0.000 C 
BRANCH  28  29
ATOM     29  C   UNL     1      32.386  29.169  12.878  1.00  0.00    -0.003 C 
ATOM     30  C   UNL     1      33.083  30.410  12.317  1.00  0.00     0.004 C 
ENDBRANCH  28  29
ENDBRANCH  27  28
ENDBRANCH  26  27
ENDBRANCH  25  26
ENDBRANCH  24  25
ENDBRANCH  23  24
ENDBRANCH  22  23
ENDBRANCH  21  22
ENDBRANCH  20  21
ENDBRANCH  19  20
ENDBRANCH  18  19
ENDBRANCH  17  18
ENDBRANCH   1  17
TORSDOF 26
ENDMDL
MODEL 3
REMARK VINA RESULT:     2.027      3.212     10.808
REMARK INTER + INTRA:           4.218
REMARK INTER:                   2.850
REMARK INTRA:                   1.368
REMARK UNBOUND:                -0.889
REMARK SMILES CCCCCCCCCCCCCCCCCCCCCCCCCCCC(=O)[O-]
REMARK SMILES IDX 15 1 16 2 17 3 18 4 19 5 20 6 21 7 22 8 23 9 24 10 25 11
REMARK SMILES IDX 26 12 27 13 28 14 29 15 30 16 14 17 13 18 12 19 11 20 10 21
REMARK SMILES IDX 9 22 8 23 7 24 6 25 5 26 4 27 3 28 2 29 1 30
REMARK H PARENT
REMARK Flexibility Score: inf
ROOT
ATOM      1  C   UNL     1      36.265  29.310  17.149  1.00  0.00     0.000 C 
ENDROOT
BRANCH   1   2
ATOM      2  C   UNL     1      35.407  28.595  18.209  1.00  0.00     0.000 C 
BRANCH   2   3
ATOM      3  C   UNL     1      34.482  29.564  18.965  1.00  0.00     0.000 C 
BRANCH   3   4
ATOM      4  C   UNL     1      34.843  29.678  20.458  1.00  0.00     0.000 C 
BRANCH   4   5
ATOM      5  C   UNL     1      34.576  28.371  21.236  1.00  0.00     0.000 C 
BRANCH   5   6
ATOM      6  C   UNL     1      35.394  28.235  22.535  1.00  0.00     0.000 C 
BRANCH   6   7
ATOM      7  C   UNL     1      34.854  27.203  23.543  1.00  0.00     0.000 C 
BRANCH   7   8
ATOM      8  C   UNL     1      35.405  27.332  24.979  1.00  0.00     0.000 C 
BRANCH   8   9
ATOM      9  C   UNL     1      36.856  27.839  25.076  1.00  0.00     0.000 C 
BRANCH   9  10
ATOM     10  C   UNL     1      37.112  29.084  24.209  1.00  0.00     0.000 C 
BRANCH  10  11
ATOM     11  C   UNL     1      35.949  30.094  24.255  1.00  0.00     0.000 C 
BRANCH  11  12
ATOM     12  C   UNL     1      36.305  31.471  24.848  1.00  0.00     0.006 C 
BRANCH  12  13
ATOM     13  C   UNL     1      37.125  32.345  23.887  1.00  0.00     0.053 C 
BRANCH  13  14
ATOM     14  C   UNL     1      36.650  32.183  22.474  1.00  0.00     0.041 C 
ATOM     15  O   UNL     1      37.007  31.187  21.789  1.00  0.00    -0.550 OA
ATOM     16  O   UNL     1      35.831  33.152  21.905  1.00  0.00    -0.550 OA
ENDBRANCH  13  14
ENDBRANCH  12  13
ENDBRANCH  11  12
ENDBRANCH  10  11
ENDBRANCH   9  10
ENDBRANCH   8   9
ENDBRANCH   7   8
ENDBRANCH   6   7
ENDBRANCH   5   6
ENDBRANCH   4   5
ENDBRANCH   3   4
ENDBRANCH   2   3
ENDBRANCH   1   2
BRANCH   1  17
ATOM     17  C   UNL     1      36.376  28.472  15.867  1.00  0.00     0.000 C 
BRANCH  17  18
ATOM     18  C   UNL     1      35.042  27.798  15.493  1.00  0.00     0.000 C 
BRANCH  18  19
ATOM     19  C   UNL     1      35.133  26.876  14.256  1.00  0.00     0.000 C 
BRANCH  19  20
ATOM     20  C   UNL     1      36.189  27.315  13.226  1.00  0.00     0.000 C 
BRANCH  20  21
ATOM     21  C   UNL     1      35.874  26.875  11.779  1.00  0.00     0.000 C 
BRANCH  21  22
ATOM     22  C   UNL     1      34.379  26.955  11.409  1.00  0.00    -0.000 C 
BRANCH  22  23
ATOM     23  C   UNL     1      33.949  28.287  10.762  1.00  0.00    -0.000 C 
BRANCH  23  24
ATOM     24  C   UNL     1      33.612  29.378  11.798  1.00  0.00    -0.000 C 
BRANCH  24  25
ATOM     25  C   UNL     1      32.752  28.850  12.956  1.00  0.00    -0.000 C 
BRANCH  25  26
ATOM     26  C   UNL     1      32.343  29.962  13.939  1.00  0.00    -0.000 C 
BRANCH  26  27
ATOM     27  C   UNL     1      32.614  31.368  13.385  1.00  0.00    -0.000 C 
BRANCH  27  28
ATOM     28  C   UNL     1      31.355  32.029  12.797  1.00  0.00    -0.000 C 
BRANCH  28  29
ATOM     29  C   UNL     1      30.206  31.027  12.594  1.00  0.00    -0.003 C 
ATOM     30  C   UNL     1      29.142  31.535  11.621  1.00  0.00     0.004 C 
ENDBRANCH  28  29
ENDBRANCH  27  28
ENDBRANCH  26  27
ENDBRANCH  25  26
ENDBRANCH  24  25
ENDBRANCH  23  24
ENDBRANCH  22  23
ENDBRANCH  21  22
ENDBRANCH  20  21
ENDBRANCH  19  20
ENDBRANCH  18  19
ENDBRANCH  17  18
ENDBRANCH   1  17
TORSDOF 26
ENDMDL
MODEL 4
REMARK VINA RESULT:     3.495      1.870      3.107
REMARK INTER + INTRA:           7.919
REMARK INTER:                   6.192
REMARK INTRA:                   1.727
REMARK UNBOUND:                -0.889
REMARK SMILES CCCCCCCCCCCCCCCCCCCCCCCCCCCC(=O)[O-]
REMARK SMILES IDX 15 1 16 2 17 3 18 4 19 5 20 6 21 7 22 8 23 9 24 10 25 11
REMARK SMILES IDX 26 12 27 13 28 14 29 15 30 16 14 17 13 18 12 19 11 20 10 21
REMARK SMILES IDX 9 22 8 23 7 24 6 25 5 26 4 27 3 28 2 29 1 30
REMARK H PARENT
REMARK Flexibility Score: inf
ROOT
ATOM      1  C   UNL     1      33.638  29.386  16.454  1.00  0.00     0.000 C 
ENDROOT
BRANCH   1   2
ATOM      2  C   UNL     1      32.907  28.646  15.320  1.00  0.00     0.000 C 
BRANCH   2   3
ATOM      3  C   UNL     1      33.628  27.353  14.903  1.00  0.00     0.000 C 
BRANCH   3   4
ATOM      4  C   UNL     1      35.118  27.358  15.295  1.00  0.00     0.000 C 
BRANCH   4   5
ATOM      5  C   UNL     1      36.026  27.910  14.175  1.00  0.00     0.000 C 
BRANCH   5   6
ATOM      6  C   UNL     1      36.384  26.877  13.089  1.00  0.00     0.000 C 
BRANCH   6   7
ATOM      7  C   UNL     1      35.750  27.132  11.708  1.00  0.00     0.000 C 
BRANCH   7   8
ATOM      8  C   UNL     1      34.221  26.927  11.635  1.00  0.00     0.000 C 
BRANCH   8   9
ATOM      9  C   UNL     1      33.413  28.186  11.271  1.00  0.00     0.000 C 
BRANCH   9  10
ATOM     10  C   UNL     1      34.192  29.489  11.519  1.00  0.00     0.000 C 
BRANCH  10  11
ATOM     11  C   UNL     1      33.901  30.104  12.902  1.00  0.00     0.000 C 
BRANCH  11  12
ATOM     12  C   UNL     1      32.425  30.467  13.156  1.00  0.00     0.006 C 
BRANCH  12  13
ATOM     13  C   UNL     1      31.945  31.656  12.311  1.00  0.00     0.053 C 
BRANCH  13  14
ATOM     14  C   UNL     1      30.479  31.900  12.508  1.00  0.00     0.041 C 
ATOM     15  O   UNL     1      30.066  33.012  12.933  1.00  0.00    -0.550 OA
ATOM     16  O   UNL     1      29.568  30.882  12.245  1.00  0.00    -0.550 OA
ENDBRANCH  13  14
ENDBRANCH  12  13
ENDBRANCH  11  12
ENDBRANCH  10  11
ENDBRANCH   9  10
ENDBRANCH   8   9
ENDBRANCH   7   8
ENDBRANCH   6   7
ENDBRANCH   5   6
ENDBRANCH   4   5
ENDBRANCH   3   4
ENDBRANCH   2   3
ENDBRANCH   1   2
BRANCH   1  17
ATOM     17  C   UNL     1      34.133  28.406  17.529  1.00  0.00     0.000 C 
BRANCH  17  18
ATOM     18  C   UNL     1      35.589  28.684  17.946  1.00  0.00     0.000 C 
BRANCH  18  19
ATOM     19  C   UNL     1      36.489  27.427  17.950  1.00  0.00     0.000 C 
BRANCH  19  20
ATOM     20  C   UNL     1      36.812  26.895  19.357  1.00  0.00     0.000 C 
BRANCH  20  21
ATOM     21  C   UNL     1      36.304  27.799  20.502  1.00  0.00     0.000 C 
BRANCH  21  22
ATOM     22  C   UNL     1      37.077  29.126  20.645  1.00  0.00    -0.000 C 
BRANCH  22  23
ATOM     23  C   UNL     1      36.258  30.282  21.254  1.00  0.00    -0.000 C 
BRANCH  23  24
ATOM     24  C   UNL     1      37.094  31.192  22.175  1.00  0.00    -0.000 C 
BRANCH  24  25
ATOM     25  C   UNL     1      36.350  31.578  23.462  1.00  0.00    -0.000 C 
BRANCH  25  26
ATOM     26  C   UNL     1      36.829  30.771  24.683  1.00  0.00    -0.000 C 
BRANCH  26  27
ATOM     27  C   UNL     1      36.894  29.263  24.405  1.00  0.00    -0.000 C 
BRANCH  27  28
ATOM     28  C   UNL     1      35.552  28.690  23.915  1.00  0.00    -0.000 C 
BRANCH  28  29
ATOM     29  C   UNL     1      34.354  29.555  24.340  1.00  0.00    -0.003 C 
ATOM     30  C   UNL     1      33.304  28.769  25.125  1.00  0.00     0.004 C 
ENDBRANCH  28  29
ENDBRANCH  27  28
ENDBRANCH  26  27
ENDBRANCH  25  26
ENDBRANCH  24  25
ENDBRANCH  23  24
ENDBRANCH  22  23
ENDBRANCH  21  22
ENDBRANCH  20  21
ENDBRANCH  19  20
ENDBRANCH  18  19
ENDBRANCH  17  18
ENDBRANCH   1  17
TORSDOF 26
ENDMDL
MODEL 5
REMARK VINA RESULT:     3.551      3.598     10.510
REMARK INTER + INTRA:           8.058
REMARK INTER:                   6.217
REMARK INTRA:                   1.841
REMARK UNBOUND:                -0.889
REMARK SMILES CCCCCCCCCCCCCCCCCCCCCCCCCCCC(=O)[O-]
REMARK SMILES IDX 15 1 16 2 17 3 18 4 19 5 20 6 21 7 22 8 23 9 24 10 25 11
REMARK SMILES IDX 26 12 27 13 28 14 29 15 30 16 14 17 13 18 12 19 11 20 10 21
REMARK SMILES IDX 9 22 8 23 7 24 6 25 5 26 4 27 3 28 2 29 1 30
REMARK H PARENT
REMARK Flexibility Score: inf
ROOT
ATOM      1  C   UNL     1      33.824  28.752  16.123  1.00  0.00     0.000 C 
ENDROOT
BRANCH   1   2
ATOM      2  C   UNL     1      34.993  29.734  15.927  1.00  0.00     0.000 C 
BRANCH   2   3
ATOM      3  C   UNL     1      36.185  29.416  16.845  1.00  0.00     0.000 C 
BRANCH   3   4
ATOM      4  C   UNL     1      35.840  29.583  18.337  1.00  0.00     0.000 C 
BRANCH   4   5
ATOM      5  C   UNL     1      36.824  28.835  19.263  1.00  0.00     0.000 C 
BRANCH   5   6
ATOM      6  C   UNL     1      36.177  27.700  20.081  1.00  0.00     0.000 C 
BRANCH   6   7
ATOM      7  C   UNL     1      36.771  27.485  21.486  1.00  0.00     0.000 C 
BRANCH   7   8
ATOM      8  C   UNL     1      36.963  28.768  22.325  1.00  0.00     0.000 C 
BRANCH   8   9
ATOM      9  C   UNL     1      36.884  30.083  21.528  1.00  0.00     0.000 C 
BRANCH   9  10
ATOM     10  C   UNL     1      36.871  31.329  22.431  1.00  0.00     0.000 C 
BRANCH  10  11
ATOM     11  C   UNL     1      37.125  30.994  23.913  1.00  0.00     0.000 C 
BRANCH  11  12
ATOM     12  C   UNL     1      35.860  30.904  24.788  1.00  0.00     0.006 C 
BRANCH  12  13
ATOM     13  C   UNL     1      35.448  29.457  25.100  1.00  0.00     0.053 C 
BRANCH  13  14
ATOM     14  C   UNL     1      34.168  29.100  24.407  1.00  0.00     0.041 C 
ATOM     15  O   UNL     1      33.106  28.937  25.066  1.00  0.00    -0.550 OA
ATOM     16  O   UNL     1      34.156  28.921  23.027  1.00  0.00    -0.550 OA
ENDBRANCH  13  14
ENDBRANCH  12  13
ENDBRANCH  11  12
ENDBRANCH  10  11
ENDBRANCH   9  10
ENDBRANCH   8   9
ENDBRANCH   7   8
ENDBRANCH   6   7
ENDBRANCH   5   6
ENDBRANCH   4   5
ENDBRANCH   3   4
ENDBRANCH   2   3
ENDBRANCH   1   2
BRANCH   1  17
ATOM     17  C   UNL     1      34.331  27.353  16.507  1.00  0.00     0.000 C 
BRANCH  17  18
ATOM     18  C   UNL     1      35.476  26.877  15.592  1.00  0.00     0.000 C 
BRANCH  18  19
ATOM     19  C   UNL     1      35.160  26.996  14.084  1.00  0.00     0.000 C 
BRANCH  19  20
ATOM     20  C   UNL     1      36.396  26.876  13.175  1.00  0.00     0.000 C 
BRANCH  20  21
ATOM     21  C   UNL     1      36.220  27.531  11.787  1.00  0.00     0.000 C 
BRANCH  21  22
ATOM     22  C   UNL     1      34.978  27.040  11.014  1.00  0.00    -0.000 C 
BRANCH  22  23
ATOM     23  C   UNL     1      33.631  27.370  11.689  1.00  0.00    -0.000 C 
BRANCH  23  24
ATOM     24  C   UNL     1      33.409  28.883  11.881  1.00  0.00    -0.000 C 
BRANCH  24  25
ATOM     25  C   UNL     1      32.455  29.198  13.043  1.00  0.00    -0.000 C 
BRANCH  25  26
ATOM     26  C   UNL     1      32.815  30.513  13.759  1.00  0.00    -0.000 C 
BRANCH  26  27
ATOM     27  C   UNL     1      31.681  31.547  13.700  1.00  0.00    -0.000 C 
BRANCH  27  28
ATOM     28  C   UNL     1      30.454  31.039  12.922  1.00  0.00    -0.000 C 
BRANCH  28  29
ATOM     29  C   UNL     1      29.970  32.046  11.866  1.00  0.00    -0.003 C 
ATOM     30  C   UNL     1      28.466  31.955  11.606  1.00  0.00     0.004 C 
ENDBRANCH  28  29
ENDBRANCH  27  28
ENDBRANCH  26  27
ENDBRANCH  25  26
ENDBRANCH  24  25
ENDBRANCH  23  24
ENDBRANCH  22  23
ENDBRANCH  21  22
ENDBRANCH  20  21
ENDBRANCH  19  20
ENDBRANCH  18  19
ENDBRANCH  17  18
ENDBRANCH   1  17
TORSDOF 26
ENDMDL
