MODEL 1
REMARK VINA RESULT:    -3.743      0.000      0.000
REMARK INTER + INTRA:          -4.299
REMARK INTER:                  -3.961
REMARK INTRA:                  -0.338
REMARK UNBOUND:                -0.338
REMARK SMILES C=C(C)[C@@H]1CC[C@H](C)[C@@]12CC=C(C)CC2
REMARK SMILES IDX 8 1 7 2 6 3 5 4 4 5 9 6 15 7 14 8 12 9 11 10 10 11 13 12
REMARK SMILES IDX 2 13 1 14 3 15
REMARK H PARENT
REMARK Flexibility Score: inf
ROOT
ATOM      1  C   UNL     1      48.200  29.481  27.196  1.00  0.00     0.008 C 
ATOM      2  C   UNL     1      48.169  30.553  28.301  1.00  0.00    -0.007 C 
ATOM      3  C   UNL     1      47.875  29.961  29.684  1.00  0.00     0.004 C 
ATOM      4  C   UNL     1      48.623  30.834  30.693  1.00  0.00     0.009 C 
ATOM      5  C   UNL     1      49.204  32.008  29.893  1.00  0.00     0.021 C 
ATOM      6  C   UNL     1      49.447  31.429  28.465  1.00  0.00    -0.017 C 
ATOM      7  C   UNL     1      50.765  30.556  28.425  1.00  0.00     0.012 C 
ATOM      8  C   UNL     1      51.495  30.643  27.079  1.00  0.00     0.031 C 
ATOM      9  C   UNL     1      51.803  32.092  26.792  1.00  0.00    -0.077 C 
ATOM     10  C   UNL     1      50.833  33.002  26.980  1.00  0.00    -0.027 C 
ATOM     11  C   UNL     1      49.447  32.557  27.371  1.00  0.00     0.035 C 
ATOM     12  C   UNL     1      53.187  32.534  26.407  1.00  0.00     0.039 C 
ENDROOT
BRANCH   5  13
ATOM     13  C   UNL     1      50.385  32.728  30.556  1.00  0.00    -0.077 C 
ATOM     14  C   UNL     1      50.563  34.043  30.338  1.00  0.00     0.008 C 
ATOM     15  C   UNL     1      51.276  32.035  31.563  1.00  0.00     0.039 C 
ENDBRANCH   5  13
TORSDOF 1
ENDMDL
MODEL 2
REMARK VINA RESULT:    -3.535      4.394      7.350
REMARK INTER + INTRA:          -4.080
REMARK INTER:                  -3.733
REMARK INTRA:                  -0.346
REMARK UNBOUND:                -0.338
REMARK SMILES C=C(C)[C@@H]1CC[C@H](C)[C@@]12CC=C(C)CC2
REMARK SMILES IDX 8 1 7 2 6 3 5 4 4 5 9 6 15 7 14 8 12 9 11 10 10 11 13 12
REMARK SMILES IDX 2 13 1 14 3 15
REMARK H PARENT
REMARK Flexibility Score: inf
ROOT
ATOM      1  C   UNL     1      57.136  27.179  25.153  1.00  0.00     0.008 C 
ATOM      2  C   UNL     1      56.733  28.659  25.280  1.00  0.00    -0.007 C 
ATOM      3  C   UNL     1      56.950  29.441  23.979  1.00  0.00     0.004 C 
ATOM      4  C   UNL     1      55.865  30.517  23.938  1.00  0.00     0.009 C 
ATOM      5  C   UNL     1      55.140  30.444  25.289  1.00  0.00     0.021 C 
ATOM      6  C   UNL     1      55.268  28.952  25.723  1.00  0.00    -0.017 C 
ATOM      7  C   UNL     1      54.229  28.045  24.949  1.00  0.00     0.012 C 
ATOM      8  C   UNL     1      53.713  26.875  25.795  1.00  0.00     0.031 C 
ATOM      9  C   UNL     1      53.104  27.429  27.060  1.00  0.00    -0.077 C 
ATOM     10  C   UNL     1      53.778  28.374  27.735  1.00  0.00    -0.027 C 
ATOM     11  C   UNL     1      55.154  28.787  27.281  1.00  0.00     0.035 C 
ATOM     12  C   UNL     1      51.729  27.018  27.506  1.00  0.00     0.039 C 
ENDROOT
BRANCH   5  13
ATOM     13  C   UNL     1      53.731  31.050  25.307  1.00  0.00    -0.077 C 
ATOM     14  C   UNL     1      53.344  31.790  26.360  1.00  0.00     0.008 C 
ATOM     15  C   UNL     1      52.811  30.959  24.109  1.00  0.00     0.039 C 
ENDBRANCH   5  13
TORSDOF 1
ENDMDL
MODEL 3
REMARK VINA RESULT:    -3.491      1.528      2.947
REMARK INTER + INTRA:          -4.033
REMARK INTER:                  -3.715
REMARK INTRA:                  -0.318
REMARK UNBOUND:                -0.338
REMARK SMILES C=C(C)[C@@H]1CC[C@H](C)[C@@]12CC=C(C)CC2
REMARK SMILES IDX 8 1 7 2 6 3 5 4 4 5 9 6 15 7 14 8 12 9 11 10 10 11 13 12
REMARK SMILES IDX 2 13 1 14 3 15
REMARK H PARENT
REMARK Flexibility Score: inf
ROOT
ATOM      1  C   UNL     1      48.599  34.363  26.130  1.00  0.00     0.008 C 
ATOM      2  C   UNL     1      49.024  34.356  27.609  1.00  0.00    -0.007 C 
ATOM      3  C   UNL     1      47.875  34.734  28.551  1.00  0.00     0.004 C 
ATOM      4  C   UNL     1      48.110  33.961  29.849  1.00  0.00     0.009 C 
ATOM      5  C   UNL     1      49.475  33.274  29.695  1.00  0.00     0.021 C 
ATOM      6  C   UNL     1      49.619  33.026  28.162  1.00  0.00    -0.017 C 
ATOM      7  C   UNL     1      48.771  31.771  27.709  1.00  0.00     0.012 C 
ATOM      8  C   UNL     1      49.424  30.993  26.561  1.00  0.00     0.031 C 
ATOM      9  C   UNL     1      50.810  30.577  26.990  1.00  0.00    -0.077 C 
ATOM     10  C   UNL     1      51.595  31.488  27.589  1.00  0.00    -0.027 C 
ATOM     11  C   UNL     1      51.125  32.912  27.730  1.00  0.00     0.035 C 
ATOM     12  C   UNL     1      51.274  29.154  26.852  1.00  0.00     0.039 C 
ENDROOT
BRANCH   5  13
ATOM     13  C   UNL     1      49.706  32.068  30.614  1.00  0.00    -0.077 C 
ATOM     14  C   UNL     1      50.868  31.960  31.282  1.00  0.00     0.008 C 
ATOM     15  C   UNL     1      48.609  31.067  30.905  1.00  0.00     0.039 C 
ENDBRANCH   5  13
TORSDOF 1
ENDMDL
MODEL 4
REMARK VINA RESULT:    -3.465      4.578      6.524
REMARK INTER + INTRA:          -4.005
REMARK INTER:                  -3.711
REMARK INTRA:                  -0.294
REMARK UNBOUND:                -0.338
REMARK SMILES C=C(C)[C@@H]1CC[C@H](C)[C@@]12CC=C(C)CC2
REMARK SMILES IDX 8 1 7 2 6 3 5 4 4 5 9 6 15 7 14 8 12 9 11 10 10 11 13 12
REMARK SMILES IDX 2 13 1 14 3 15
REMARK H PARENT
REMARK Flexibility Score: inf
ROOT
ATOM      1  C   UNL     1      54.671  31.587  23.875  1.00  0.00     0.008 C 
ATOM      2  C   UNL     1      53.824  31.110  25.069  1.00  0.00    -0.007 C 
ATOM      3  C   UNL     1      52.349  30.912  24.701  1.00  0.00     0.004 C 
ATOM      4  C   UNL     1      51.836  29.770  25.578  1.00  0.00     0.009 C 
ATOM      5  C   UNL     1      52.976  29.434  26.551  1.00  0.00     0.021 C 
ATOM      6  C   UNL     1      54.278  29.795  25.770  1.00  0.00    -0.017 C 
ATOM      7  C   UNL     1      54.641  28.668  24.722  1.00  0.00     0.012 C 
ATOM      8  C   UNL     1      56.153  28.491  24.537  1.00  0.00     0.031 C 
ATOM      9  C   UNL     1      56.769  28.192  25.882  1.00  0.00    -0.077 C 
ATOM     10  C   UNL     1      56.401  28.940  26.936  1.00  0.00    -0.027 C 
ATOM     11  C   UNL     1      55.471  30.109  26.742  1.00  0.00     0.035 C 
ATOM     12  C   UNL     1      57.693  27.022  26.073  1.00  0.00     0.039 C 
ENDROOT
BRANCH   5  13
ATOM     13  C   UNL     1      52.911  28.034  27.174  1.00  0.00    -0.077 C 
ATOM     14  C   UNL     1      53.482  27.817  28.372  1.00  0.00     0.008 C 
ATOM     15  C   UNL     1      52.100  26.921  26.548  1.00  0.00     0.039 C 
ENDBRANCH   5  13
TORSDOF 1
ENDMDL
MODEL 5
REMARK VINA RESULT:    -3.382     18.886     20.763
REMARK INTER + INTRA:          -3.918
REMARK INTER:                  -4.000
REMARK INTRA:                   0.082
REMARK UNBOUND:                -0.338
REMARK SMILES C=C(C)[C@@H]1CC[C@H](C)[C@@]12CC=C(C)CC2
REMARK SMILES IDX 8 1 7 2 6 3 5 4 4 5 9 6 15 7 14 8 12 9 11 10 10 11 13 12
REMARK SMILES IDX 2 13 1 14 3 15
REMARK H PARENT
REMARK Flexibility Score: inf
ROOT
ATOM      1  C   UNL     1      58.545  41.843  44.122  1.00  0.00     0.008 C 
ATOM      2  C   UNL     1      59.056  43.240  43.725  1.00  0.00    -0.007 C 
ATOM      3  C   UNL     1      60.288  43.178  42.815  1.00  0.00     0.004 C 
ATOM      4  C   UNL     1      60.207  44.397  41.896  1.00  0.00     0.009 C 
ATOM      5  C   UNL     1      59.017  45.229  42.396  1.00  0.00     0.021 C 
ATOM      6  C   UNL     1      58.039  44.184  43.016  1.00  0.00    -0.017 C 
ATOM      7  C   UNL     1      57.228  43.429  41.888  1.00  0.00     0.012 C 
ATOM      8  C   UNL     1      55.805  43.059  42.324  1.00  0.00     0.031 C 
ATOM      9  C   UNL     1      55.090  44.319  42.748  1.00  0.00    -0.077 C 
ATOM     10  C   UNL     1      55.733  45.181  43.553  1.00  0.00    -0.027 C 
ATOM     11  C   UNL     1      57.097  44.834  44.092  1.00  0.00     0.035 C 
ATOM     12  C   UNL     1      53.731  44.664  42.205  1.00  0.00     0.039 C 
ENDROOT
BRANCH   5  13
ATOM     13  C   UNL     1      58.425  46.204  41.370  1.00  0.00    -0.077 C 
ATOM     14  C   UNL     1      58.847  46.155  40.095  1.00  0.00     0.008 C 
ATOM     15  C   UNL     1      57.277  47.125  41.718  1.00  0.00     0.039 C 
ENDBRANCH   5  13
TORSDOF 1
ENDMDL
MODEL 6
REMARK VINA RESULT:    -3.380      1.406      3.853
REMARK INTER + INTRA:          -3.915
REMARK INTER:                  -3.559
REMARK INTRA:                  -0.356
REMARK UNBOUND:                -0.338
REMARK SMILES C=C(C)[C@@H]1CC[C@H](C)[C@@]12CC=C(C)CC2
REMARK SMILES IDX 8 1 7 2 6 3 5 4 4 5 9 6 15 7 14 8 12 9 11 10 10 11 13 12
REMARK SMILES IDX 2 13 1 14 3 15
REMARK H PARENT
REMARK Flexibility Score: inf
ROOT
ATOM      1  C   UNL     1      50.752  34.254  30.680  1.00  0.00     0.008 C 
ATOM      2  C   UNL     1      50.890  32.795  30.210  1.00  0.00    -0.007 C 
ATOM      3  C   UNL     1      50.352  31.793  31.238  1.00  0.00     0.004 C 
ATOM      4  C   UNL     1      49.803  30.610  30.439  1.00  0.00     0.009 C 
ATOM      5  C   UNL     1      50.178  30.874  28.974  1.00  0.00     0.021 C 
ATOM      6  C   UNL     1      50.219  32.429  28.852  1.00  0.00    -0.017 C 
ATOM      7  C   UNL     1      48.759  33.027  28.741  1.00  0.00     0.012 C 
ATOM      8  C   UNL     1      48.694  34.277  27.855  1.00  0.00     0.031 C 
ATOM      9  C   UNL     1      49.237  33.927  26.491  1.00  0.00    -0.077 C 
ATOM     10  C   UNL     1      50.381  33.229  26.416  1.00  0.00    -0.027 C 
ATOM     11  C   UNL     1      51.144  32.897  27.672  1.00  0.00     0.035 C 
ATOM     12  C   UNL     1      48.470  34.256  25.240  1.00  0.00     0.039 C 
ENDROOT
BRANCH   5  13
ATOM     13  C   UNL     1      49.332  30.123  27.938  1.00  0.00    -0.077 C 
ATOM     14  C   UNL     1      49.917  29.655  26.822  1.00  0.00     0.008 C 
ATOM     15  C   UNL     1      47.885  29.767  28.200  1.00  0.00     0.039 C 
ENDBRANCH   5  13
TORSDOF 1
ENDMDL
MODEL 7
REMARK VINA RESULT:    -3.322      3.989      6.930
REMARK INTER + INTRA:          -3.855
REMARK INTER:                  -3.613
REMARK INTRA:                  -0.242
REMARK UNBOUND:                -0.338
REMARK SMILES C=C(C)[C@@H]1CC[C@H](C)[C@@]12CC=C(C)CC2
REMARK SMILES IDX 8 1 7 2 6 3 5 4 4 5 9 6 15 7 14 8 12 9 11 10 10 11 13 12
REMARK SMILES IDX 2 13 1 14 3 15
REMARK H PARENT
REMARK Flexibility Score: inf
ROOT
ATOM      1  C   UNL     1      56.875  30.243  24.254  1.00  0.00     0.008 C 
ATOM      2  C   UNL     1      56.215  28.910  24.652  1.00  0.00    -0.007 C 
ATOM      3  C   UNL     1      57.115  28.054  25.551  1.00  0.00     0.004 C 
ATOM      4  C   UNL     1      56.182  27.272  26.475  1.00  0.00     0.009 C 
ATOM      5  C   UNL     1      54.755  27.565  25.988  1.00  0.00     0.021 C 
ATOM      6  C   UNL     1      54.837  28.997  25.373  1.00  0.00    -0.017 C 
ATOM      7  C   UNL     1      54.836  30.100  26.505  1.00  0.00     0.012 C 
ATOM      8  C   UNL     1      54.123  31.389  26.079  1.00  0.00     0.031 C 
ATOM      9  C   UNL     1      52.713  31.044  25.666  1.00  0.00    -0.077 C 
ATOM     10  C   UNL     1      52.523  29.987  24.859  1.00  0.00    -0.027 C 
ATOM     11  C   UNL     1      53.708  29.238  24.308  1.00  0.00     0.035 C 
ATOM     12  C   UNL     1      51.533  31.791  26.222  1.00  0.00     0.039 C 
ENDROOT
BRANCH   5  13
ATOM     13  C   UNL     1      53.649  27.321  27.022  1.00  0.00    -0.077 C 
ATOM     14  C   UNL     1      53.873  27.625  28.313  1.00  0.00     0.008 C 
ATOM     15  C   UNL     1      52.261  26.880  26.614  1.00  0.00     0.039 C 
ENDBRANCH   5  13
TORSDOF 1
ENDMDL
MODEL 8
REMARK VINA RESULT:    -3.262      1.646      3.809
REMARK INTER + INTRA:          -3.791
REMARK INTER:                  -3.451
REMARK INTRA:                  -0.340
REMARK UNBOUND:                -0.338
REMARK SMILES C=C(C)[C@@H]1CC[C@H](C)[C@@]12CC=C(C)CC2
REMARK SMILES IDX 8 1 7 2 6 3 5 4 4 5 9 6 15 7 14 8 12 9 11 10 10 11 13 12
REMARK SMILES IDX 2 13 1 14 3 15
REMARK H PARENT
REMARK Flexibility Score: inf
ROOT
ATOM      1  C   UNL     1      51.218  33.637  30.640  1.00  0.00     0.008 C 
ATOM      2  C   UNL     1      49.946  33.079  29.975  1.00  0.00    -0.007 C 
ATOM      3  C   UNL     1      48.743  34.015  30.131  1.00  0.00     0.004 C 
ATOM      4  C   UNL     1      47.886  33.827  28.878  1.00  0.00     0.009 C 
ATOM      5  C   UNL     1      48.524  32.670  28.095  1.00  0.00     0.021 C 
ATOM      6  C   UNL     1      50.040  32.739  28.457  1.00  0.00    -0.017 C 
ATOM      7  C   UNL     1      50.765  33.885  27.644  1.00  0.00     0.012 C 
ATOM      8  C   UNL     1      52.216  33.538  27.291  1.00  0.00     0.031 C 
ATOM      9  C   UNL     1      52.225  32.242  26.517  1.00  0.00    -0.077 C 
ATOM     10  C   UNL     1      51.483  31.220  26.971  1.00  0.00    -0.027 C 
ATOM     11  C   UNL     1      50.745  31.347  28.279  1.00  0.00     0.035 C 
ATOM     12  C   UNL     1      52.960  32.121  25.211  1.00  0.00     0.039 C 
ENDROOT
BRANCH   5  13
ATOM     13  C   UNL     1      48.173  32.620  26.603  1.00  0.00    -0.077 C 
ATOM     14  C   UNL     1      47.875  31.439  26.034  1.00  0.00     0.008 C 
ATOM     15  C   UNL     1      48.010  33.880  25.781  1.00  0.00     0.039 C 
ENDBRANCH   5  13
TORSDOF 1
ENDMDL
