MODEL 1
REMARK VINA RESULT:    -2.972      0.000      0.000
REMARK INTER + INTRA:         -12.824
REMARK INTER:                  -7.488
REMARK INTRA:                  -5.336
REMARK UNBOUND:                -5.336
REMARK SMILES CCCCCCCCCCCCCCCCCCCCCCCCCCCC(=O)[O-]
REMARK SMILES IDX 15 1 16 2 17 3 18 4 19 5 20 6 21 7 22 8 23 9 24 10 25 11
REMARK SMILES IDX 26 12 27 13 28 14 29 15 30 16 14 17 13 18 12 19 11 20 10 21
REMARK SMILES IDX 9 22 8 23 7 24 6 25 5 26 4 27 3 28 2 29 1 30
REMARK H PARENT
REMARK Flexibility Score: inf
ROOT
ATOM      1  C   UNL     1      -4.240  -7.782  -0.648  1.00  0.00     0.000 C 
ENDROOT
BRANCH   1   2
ATOM      2  C   UNL     1      -4.913  -7.418  -1.989  1.00  0.00     0.000 C 
BRANCH   2   3
ATOM      3  C   UNL     1      -5.643  -8.596  -2.658  1.00  0.00     0.000 C 
BRANCH   3   4
ATOM      4  C   UNL     1      -6.170  -8.254  -4.058  1.00  0.00     0.000 C 
BRANCH   4   5
ATOM      5  C   UNL     1      -7.285  -9.220  -4.484  1.00  0.00     0.000 C 
BRANCH   5   6
ATOM      6  C   UNL     1      -8.603  -8.492  -4.825  1.00  0.00     0.000 C 
BRANCH   6   7
ATOM      7  C   UNL     1      -9.087  -7.524  -3.728  1.00  0.00     0.000 C 
BRANCH   7   8
ATOM      8  C   UNL     1      -9.874  -6.298  -4.230  1.00  0.00     0.000 C 
BRANCH   8   9
ATOM      9  C   UNL     1      -9.050  -5.002  -4.353  1.00  0.00     0.000 C 
BRANCH   9  10
ATOM     10  C   UNL     1      -7.713  -5.071  -3.603  1.00  0.00     0.000 C 
BRANCH  10  11
ATOM     11  C   UNL     1      -6.843  -3.847  -3.915  1.00  0.00     0.000 C 
BRANCH  11  12
ATOM     12  C   UNL     1      -5.373  -4.111  -3.554  1.00  0.00     0.006 C 
BRANCH  12  13
ATOM     13  C   UNL     1      -4.501  -2.858  -3.714  1.00  0.00     0.053 C 
BRANCH  13  14
ATOM     14  C   UNL     1      -3.451  -3.038  -4.768  1.00  0.00     0.041 C 
ATOM     15  O   UNL     1      -3.030  -2.046  -5.418  1.00  0.00    -0.550 OA
ATOM     16  O   UNL     1      -2.951  -4.305  -5.045  1.00  0.00    -0.550 OA
ENDBRANCH  13  14
ENDBRANCH  12  13
ENDBRANCH  11  12
ENDBRANCH  10  11
ENDBRANCH   9  10
ENDBRANCH   8   9
ENDBRANCH   7   8
ENDBRANCH   6   7
ENDBRANCH   5   6
ENDBRANCH   4   5
ENDBRANCH   3   4
ENDBRANCH   2   3
ENDBRANCH   1   2
BRANCH   1  17
ATOM     17  C   UNL     1      -5.039  -8.838   0.138  1.00  0.00     0.000 C 
BRANCH  17  18
ATOM     18  C   UNL     1      -6.179  -8.221   0.962  1.00  0.00     0.000 C 
BRANCH  18  19
ATOM     19  C   UNL     1      -7.459  -9.075   0.925  1.00  0.00     0.000 C 
BRANCH  19  20
ATOM     20  C   UNL     1      -8.634  -8.356   0.240  1.00  0.00     0.000 C 
BRANCH  20  21
ATOM     21  C   UNL     1      -8.253  -7.066  -0.509  1.00  0.00     0.000 C 
BRANCH  21  22
ATOM     22  C   UNL     1      -9.353  -5.991  -0.438  1.00  0.00    -0.000 C 
BRANCH  22  23
ATOM     23  C   UNL     1      -8.801  -4.600  -0.079  1.00  0.00    -0.000 C 
BRANCH  23  24
ATOM     24  C   UNL     1      -7.312  -4.644   0.308  1.00  0.00    -0.000 C 
BRANCH  24  25
ATOM     25  C   UNL     1      -7.045  -4.069   1.708  1.00  0.00    -0.000 C 
BRANCH  25  26
ATOM     26  C   UNL     1      -6.490  -5.124   2.682  1.00  0.00    -0.000 C 
BRANCH  26  27
ATOM     27  C   UNL     1      -7.588  -5.770   3.544  1.00  0.00    -0.000 C 
BRANCH  27  28
ATOM     28  C   UNL     1      -8.851  -4.894   3.641  1.00  0.00    -0.000 C 
BRANCH  28  29
ATOM     29  C   UNL     1     -10.125  -5.648   3.230  1.00  0.00    -0.003 C 
ATOM     30  C   UNL     1      -9.989  -7.165   3.367  1.00  0.00     0.004 C 
ENDBRANCH  28  29
ENDBRANCH  27  28
ENDBRANCH  26  27
ENDBRANCH  25  26
ENDBRANCH  24  25
ENDBRANCH  23  24
ENDBRANCH  22  23
ENDBRANCH  21  22
ENDBRANCH  20  21
ENDBRANCH  19  20
ENDBRANCH  18  19
ENDBRANCH  17  18
ENDBRANCH   1  17
TORSDOF 26
ENDMDL
MODEL 2
REMARK VINA RESULT:    -2.927     13.160     16.577
REMARK INTER + INTRA:         -12.712
REMARK INTER:                  -7.388
REMARK INTRA:                  -5.324
REMARK UNBOUND:                -5.336
REMARK SMILES CCCCCCCCCCCCCCCCCCCCCCCCCCCC(=O)[O-]
REMARK SMILES IDX 15 1 16 2 17 3 18 4 19 5 20 6 21 7 22 8 23 9 24 10 25 11
REMARK SMILES IDX 26 12 27 13 28 14 29 15 30 16 14 17 13 18 12 19 11 20 10 21
REMARK SMILES IDX 9 22 8 23 7 24 6 25 5 26 4 27 3 28 2 29 1 30
REMARK H PARENT
REMARK Flexibility Score: inf
ROOT
ATOM      1  C   UNL     1      -0.462   9.363   4.752  1.00  0.00     0.000 C 
ENDROOT
BRANCH   1   2
ATOM      2  C   UNL     1      -0.731   9.369   3.232  1.00  0.00     0.000 C 
BRANCH   2   3
ATOM      3  C   UNL     1      -2.026   8.643   2.826  1.00  0.00     0.000 C 
BRANCH   3   4
ATOM      4  C   UNL     1      -2.745   7.995   4.017  1.00  0.00     0.000 C 
BRANCH   4   5
ATOM      5  C   UNL     1      -4.088   8.685   4.298  1.00  0.00     0.000 C 
BRANCH   5   6
ATOM      6  C   UNL     1      -4.436   9.757   3.243  1.00  0.00     0.000 C 
BRANCH   6   7
ATOM      7  C   UNL     1      -5.910   9.742   2.796  1.00  0.00     0.000 C 
BRANCH   7   8
ATOM      8  C   UNL     1      -6.247   8.749   1.667  1.00  0.00     0.000 C 
BRANCH   8   9
ATOM      9  C   UNL     1      -5.038   8.266   0.843  1.00  0.00     0.000 C 
BRANCH   9  10
ATOM     10  C   UNL     1      -4.936   6.736   0.772  1.00  0.00     0.000 C 
BRANCH  10  11
ATOM     11  C   UNL     1      -5.641   6.082   1.967  1.00  0.00     0.000 C 
BRANCH  11  12
ATOM     12  C   UNL     1      -4.684   5.151   2.728  1.00  0.00     0.006 C 
BRANCH  12  13
ATOM     13  C   UNL     1      -3.456   4.771   1.891  1.00  0.00     0.053 C 
BRANCH  13  14
ATOM     14  C   UNL     1      -2.788   3.533   2.408  1.00  0.00     0.041 C 
ATOM     15  O   UNL     1      -1.858   2.994   1.751  1.00  0.00    -0.550 OA
ATOM     16  O   UNL     1      -3.206   2.963   3.605  1.00  0.00    -0.550 OA
ENDBRANCH  13  14
ENDBRANCH  12  13
ENDBRANCH  11  12
ENDBRANCH  10  11
ENDBRANCH   9  10
ENDBRANCH   8   9
ENDBRANCH   7   8
ENDBRANCH   6   7
ENDBRANCH   5   6
ENDBRANCH   4   5
ENDBRANCH   3   4
ENDBRANCH   2   3
ENDBRANCH   1   2
BRANCH   1  17
ATOM     17  C   UNL     1       0.990   9.748   5.089  1.00  0.00     0.000 C 
BRANCH  17  18
ATOM     18  C   UNL     1       1.260   9.758   6.602  1.00  0.00     0.000 C 
BRANCH  18  19
ATOM     19  C   UNL     1       2.371   8.773   7.007  1.00  0.00     0.000 C 
BRANCH  19  20
ATOM     20  C   UNL     1       2.855   7.907   5.831  1.00  0.00     0.000 C 
BRANCH  20  21
ATOM     21  C   UNL     1       2.954   6.402   6.137  1.00  0.00     0.000 C 
BRANCH  21  22
ATOM     22  C   UNL     1       2.276   5.531   5.064  1.00  0.00    -0.000 C 
BRANCH  22  23
ATOM     23  C   UNL     1       0.997   6.173   4.499  1.00  0.00    -0.000 C 
BRANCH  23  24
ATOM     24  C   UNL     1       0.286   5.262   3.482  1.00  0.00    -0.000 C 
BRANCH  24  25
ATOM     25  C   UNL     1       0.206   5.887   2.080  1.00  0.00    -0.000 C 
BRANCH  25  26
ATOM     26  C   UNL     1       1.314   5.376   1.143  1.00  0.00    -0.000 C 
BRANCH  26  27
ATOM     27  C   UNL     1       2.211   6.509   0.615  1.00  0.00    -0.000 C 
BRANCH  27  28
ATOM     28  C   UNL     1       3.288   6.930   1.632  1.00  0.00    -0.000 C 
BRANCH  28  29
ATOM     29  C   UNL     1       3.033   8.328   2.216  1.00  0.00    -0.003 C 
ATOM     30  C   UNL     1       2.331   9.265   1.233  1.00  0.00     0.004 C 
ENDBRANCH  28  29
ENDBRANCH  27  28
ENDBRANCH  26  27
ENDBRANCH  25  26
ENDBRANCH  24  25
ENDBRANCH  23  24
ENDBRANCH  22  23
ENDBRANCH  21  22
ENDBRANCH  20  21
ENDBRANCH  19  20
ENDBRANCH  18  19
ENDBRANCH  17  18
ENDBRANCH   1  17
TORSDOF 26
ENDMDL
MODEL 3
REMARK VINA RESULT:    -2.911      2.344      5.652
REMARK INTER + INTRA:         -12.671
REMARK INTER:                  -7.402
REMARK INTRA:                  -5.269
REMARK UNBOUND:                -5.336
REMARK SMILES CCCCCCCCCCCCCCCCCCCCCCCCCCCC(=O)[O-]
REMARK SMILES IDX 15 1 16 2 17 3 18 4 19 5 20 6 21 7 22 8 23 9 24 10 25 11
REMARK SMILES IDX 26 12 27 13 28 14 29 15 30 16 14 17 13 18 12 19 11 20 10 21
REMARK SMILES IDX 9 22 8 23 7 24 6 25 5 26 4 27 3 28 2 29 1 30
REMARK H PARENT
REMARK Flexibility Score: inf
ROOT
ATOM      1  C   UNL     1      -8.560  -7.848  -0.759  1.00  0.00     0.000 C 
ENDROOT
BRANCH   1   2
ATOM      2  C   UNL     1      -7.614  -8.300   0.373  1.00  0.00     0.000 C 
BRANCH   2   3
ATOM      3  C   UNL     1      -6.219  -7.652   0.313  1.00  0.00     0.000 C 
BRANCH   3   4
ATOM      4  C   UNL     1      -5.083  -8.684   0.278  1.00  0.00     0.000 C 
BRANCH   4   5
ATOM      5  C   UNL     1      -3.731  -8.032   0.604  1.00  0.00     0.000 C 
BRANCH   5   6
ATOM      6  C   UNL     1      -3.271  -7.042  -0.487  1.00  0.00     0.000 C 
BRANCH   6   7
ATOM      7  C   UNL     1      -2.905  -7.710  -1.827  1.00  0.00     0.000 C 
BRANCH   7   8
ATOM      8  C   UNL     1      -1.690  -7.104  -2.556  1.00  0.00     0.000 C 
BRANCH   8   9
ATOM      9  C   UNL     1      -2.036  -6.181  -3.740  1.00  0.00     0.000 C 
BRANCH   9  10
ATOM     10  C   UNL     1      -2.445  -4.769  -3.297  1.00  0.00     0.000 C 
BRANCH  10  11
ATOM     11  C   UNL     1      -2.860  -3.914  -4.500  1.00  0.00     0.000 C 
BRANCH  11  12
ATOM     12  C   UNL     1      -1.734  -2.951  -4.905  1.00  0.00     0.006 C 
BRANCH  12  13
ATOM     13  C   UNL     1      -1.925  -1.549  -4.310  1.00  0.00     0.053 C 
BRANCH  13  14
ATOM     14  C   UNL     1      -0.616  -0.870  -4.043  1.00  0.00     0.041 C 
ATOM     15  O   UNL     1      -0.576   0.175  -3.342  1.00  0.00    -0.550 OA
ATOM     16  O   UNL     1       0.557  -1.382  -4.585  1.00  0.00    -0.550 OA
ENDBRANCH  13  14
ENDBRANCH  12  13
ENDBRANCH  11  12
ENDBRANCH  10  11
ENDBRANCH   9  10
ENDBRANCH   8   9
ENDBRANCH   7   8
ENDBRANCH   6   7
ENDBRANCH   5   6
ENDBRANCH   4   5
ENDBRANCH   3   4
ENDBRANCH   2   3
ENDBRANCH   1   2
BRANCH   1  17
ATOM     17  C   UNL     1      -9.044  -6.398  -0.570  1.00  0.00     0.000 C 
BRANCH  17  18
ATOM     18  C   UNL     1      -9.467  -5.741  -1.894  1.00  0.00     0.000 C 
BRANCH  18  19
ATOM     19  C   UNL     1     -10.012  -6.762  -2.907  1.00  0.00     0.000 C 
BRANCH  19  20
ATOM     20  C   UNL     1      -9.470  -6.537  -4.330  1.00  0.00     0.000 C 
BRANCH  20  21
ATOM     21  C   UNL     1      -9.183  -7.824  -5.122  1.00  0.00     0.000 C 
BRANCH  21  22
ATOM     22  C   UNL     1      -8.566  -8.934  -4.252  1.00  0.00    -0.000 C 
BRANCH  22  23
ATOM     23  C   UNL     1      -7.073  -9.158  -4.545  1.00  0.00    -0.000 C 
BRANCH  23  24
ATOM     24  C   UNL     1      -6.164  -8.456  -3.520  1.00  0.00    -0.000 C 
BRANCH  24  25
ATOM     25  C   UNL     1      -5.688  -7.074  -3.996  1.00  0.00    -0.000 C 
BRANCH  25  26
ATOM     26  C   UNL     1      -5.943  -5.972  -2.954  1.00  0.00    -0.000 C 
BRANCH  26  27
ATOM     27  C   UNL     1      -6.309  -4.623  -3.596  1.00  0.00    -0.000 C 
BRANCH  27  28
ATOM     28  C   UNL     1      -6.567  -3.523  -2.549  1.00  0.00    -0.000 C 
BRANCH  28  29
ATOM     29  C   UNL     1      -5.410  -3.378  -1.549  1.00  0.00    -0.003 C 
ATOM     30  C   UNL     1      -4.749  -2.000  -1.599  1.00  0.00     0.004 C 
ENDBRANCH  28  29
ENDBRANCH  27  28
ENDBRANCH  26  27
ENDBRANCH  25  26
ENDBRANCH  24  25
ENDBRANCH  23  24
ENDBRANCH  22  23
ENDBRANCH  21  22
ENDBRANCH  20  21
ENDBRANCH  19  20
ENDBRANCH  18  19
ENDBRANCH  17  18
ENDBRANCH   1  17
TORSDOF 26
ENDMDL
MODEL 4
REMARK VINA RESULT:    -2.893      2.638      5.462
REMARK INTER + INTRA:         -12.627
REMARK INTER:                  -6.914
REMARK INTRA:                  -5.713
REMARK UNBOUND:                -5.336
REMARK SMILES CCCCCCCCCCCCCCCCCCCCCCCCCCCC(=O)[O-]
REMARK SMILES IDX 15 1 16 2 17 3 18 4 19 5 20 6 21 7 22 8 23 9 24 10 25 11
REMARK SMILES IDX 26 12 27 13 28 14 29 15 30 16 14 17 13 18 12 19 11 20 10 21
REMARK SMILES IDX 9 22 8 23 7 24 6 25 5 26 4 27 3 28 2 29 1 30
REMARK H PARENT
REMARK Flexibility Score: inf
ROOT
ATOM      1  C   UNL     1      -5.418  -7.015  -3.994  1.00  0.00     0.000 C 
ENDROOT
BRANCH   1   2
ATOM      2  C   UNL     1      -6.137  -5.704  -3.613  1.00  0.00     0.000 C 
BRANCH   2   3
ATOM      3  C   UNL     1      -5.714  -5.137  -2.246  1.00  0.00     0.000 C 
BRANCH   3   4
ATOM      4  C   UNL     1      -6.079  -3.656  -2.075  1.00  0.00     0.000 C 
BRANCH   4   5
ATOM      5  C   UNL     1      -4.845  -2.757  -2.236  1.00  0.00     0.000 C 
BRANCH   5   6
ATOM      6  C   UNL     1      -4.914  -1.876  -3.502  1.00  0.00     0.000 C 
BRANCH   6   7
ATOM      7  C   UNL     1      -4.562  -2.621  -4.805  1.00  0.00     0.000 C 
BRANCH   7   8
ATOM      8  C   UNL     1      -3.078  -3.002  -4.966  1.00  0.00     0.000 C 
BRANCH   8   9
ATOM      9  C   UNL     1      -2.716  -4.426  -4.500  1.00  0.00     0.000 C 
BRANCH   9  10
ATOM     10  C   UNL     1      -1.721  -4.436  -3.331  1.00  0.00     0.000 C 
BRANCH  10  11
ATOM     11  C   UNL     1      -2.084  -5.521  -2.309  1.00  0.00     0.000 C 
BRANCH  11  12
ATOM     12  C   UNL     1      -2.068  -6.913  -2.957  1.00  0.00     0.006 C 
BRANCH  12  13
ATOM     13  C   UNL     1      -0.686  -7.576  -2.878  1.00  0.00     0.053 C 
BRANCH  13  14
ATOM     14  C   UNL     1      -0.072  -7.429  -1.519  1.00  0.00     0.041 C 
ATOM     15  O   UNL     1      -0.522  -8.090  -0.546  1.00  0.00    -0.550 OA
ATOM     16  O   UNL     1       0.986  -6.549  -1.324  1.00  0.00    -0.550 OA
ENDBRANCH  13  14
ENDBRANCH  12  13
ENDBRANCH  11  12
ENDBRANCH  10  11
ENDBRANCH   9  10
ENDBRANCH   8   9
ENDBRANCH   7   8
ENDBRANCH   6   7
ENDBRANCH   5   6
ENDBRANCH   4   5
ENDBRANCH   3   4
ENDBRANCH   2   3
ENDBRANCH   1   2
BRANCH   1  17
ATOM     17  C   UNL     1      -6.133  -8.258  -3.433  1.00  0.00     0.000 C 
BRANCH  17  18
ATOM     18  C   UNL     1      -7.047  -8.929  -4.470  1.00  0.00     0.000 C 
BRANCH  18  19
ATOM     19  C   UNL     1      -8.538  -8.785  -4.119  1.00  0.00     0.000 C 
BRANCH  19  20
ATOM     20  C   UNL     1      -9.269  -7.777  -5.024  1.00  0.00     0.000 C 
BRANCH  20  21
ATOM     21  C   UNL     1      -9.684  -6.469  -4.328  1.00  0.00     0.000 C 
BRANCH  21  22
ATOM     22  C   UNL     1     -10.051  -6.673  -2.847  1.00  0.00    -0.000 C 
BRANCH  22  23
ATOM     23  C   UNL     1      -9.508  -5.555  -1.941  1.00  0.00    -0.000 C 
BRANCH  23  24
ATOM     24  C   UNL     1      -8.939  -6.098  -0.619  1.00  0.00    -0.000 C 
BRANCH  24  25
ATOM     25  C   UNL     1      -8.391  -7.529  -0.751  1.00  0.00    -0.000 C 
BRANCH  25  26
ATOM     26  C   UNL     1      -7.922  -8.107   0.596  1.00  0.00    -0.000 C 
BRANCH  26  27
ATOM     27  C   UNL     1      -6.459  -8.579   0.561  1.00  0.00    -0.000 C 
BRANCH  27  28
ATOM     28  C   UNL     1      -5.462  -7.421   0.758  1.00  0.00    -0.000 C 
BRANCH  28  29
ATOM     29  C   UNL     1      -4.155  -7.629  -0.023  1.00  0.00    -0.003 C 
ATOM     30  C   UNL     1      -3.954  -9.076  -0.472  1.00  0.00     0.004 C 
ENDBRANCH  28  29
ENDBRANCH  27  28
ENDBRANCH  26  27
ENDBRANCH  25  26
ENDBRANCH  24  25
ENDBRANCH  23  24
ENDBRANCH  22  23
ENDBRANCH  21  22
ENDBRANCH  20  21
ENDBRANCH  19  20
ENDBRANCH  18  19
ENDBRANCH  17  18
ENDBRANCH   1  17
TORSDOF 26
ENDMDL
MODEL 5
REMARK VINA RESULT:    -2.863      3.691      7.735
REMARK INTER + INTRA:         -12.551
REMARK INTER:                  -8.000
REMARK INTRA:                  -4.551
REMARK UNBOUND:                -5.336
REMARK SMILES CCCCCCCCCCCCCCCCCCCCCCCCCCCC(=O)[O-]
REMARK SMILES IDX 15 1 16 2 17 3 18 4 19 5 20 6 21 7 22 8 23 9 24 10 25 11
REMARK SMILES IDX 26 12 27 13 28 14 29 15 30 16 14 17 13 18 12 19 11 20 10 21
REMARK SMILES IDX 9 22 8 23 7 24 6 25 5 26 4 27 3 28 2 29 1 30
REMARK H PARENT
REMARK Flexibility Score: inf
ROOT
ATOM      1  C   UNL     1     -10.109  -4.554  -1.612  1.00  0.00     0.000 C 
ENDROOT
BRANCH   1   2
ATOM      2  C   UNL     1      -9.474  -5.768  -0.902  1.00  0.00     0.000 C 
BRANCH   2   3
ATOM      3  C   UNL     1      -9.396  -7.031  -1.778  1.00  0.00     0.000 C 
BRANCH   3   4
ATOM      4  C   UNL     1      -9.648  -6.742  -3.264  1.00  0.00     0.000 C 
BRANCH   4   5
ATOM      5  C   UNL     1      -8.668  -7.519  -4.155  1.00  0.00     0.000 C 
BRANCH   5   6
ATOM      6  C   UNL     1      -7.840  -8.555  -3.363  1.00  0.00     0.000 C 
BRANCH   6   7
ATOM      7  C   UNL     1      -6.318  -8.429  -3.567  1.00  0.00     0.000 C 
BRANCH   7   8
ATOM      8  C   UNL     1      -5.479  -8.405  -2.274  1.00  0.00     0.000 C 
BRANCH   8   9
ATOM      9  C   UNL     1      -6.181  -7.778  -1.055  1.00  0.00     0.000 C 
BRANCH   9  10
ATOM     10  C   UNL     1      -5.429  -8.027   0.260  1.00  0.00     0.000 C 
BRANCH  10  11
ATOM     11  C   UNL     1      -6.122  -9.111   1.094  1.00  0.00     0.000 C 
BRANCH  11  12
ATOM     12  C   UNL     1      -7.649  -9.029   0.943  1.00  0.00     0.006 C 
BRANCH  12  13
ATOM     13  C   UNL     1      -8.288  -8.112   1.994  1.00  0.00     0.053 C 
BRANCH  13  14
ATOM     14  C   UNL     1      -9.153  -8.875   2.951  1.00  0.00     0.041 C 
ATOM     15  O   UNL     1      -9.309 -10.117   2.811  1.00  0.00    -0.550 OA
ATOM     16  O   UNL     1      -9.802  -8.212   3.986  1.00  0.00    -0.550 OA
ENDBRANCH  13  14
ENDBRANCH  12  13
ENDBRANCH  11  12
ENDBRANCH  10  11
ENDBRANCH   9  10
ENDBRANCH   8   9
ENDBRANCH   7   8
ENDBRANCH   6   7
ENDBRANCH   5   6
ENDBRANCH   4   5
ENDBRANCH   3   4
ENDBRANCH   2   3
ENDBRANCH   1   2
BRANCH   1  17
ATOM     17  C   UNL     1      -9.521  -3.218  -1.121  1.00  0.00     0.000 C 
BRANCH  17  18
ATOM     18  C   UNL     1      -8.307  -2.769  -1.948  1.00  0.00     0.000 C 
BRANCH  18  19
ATOM     19  C   UNL     1      -8.436  -3.148  -3.434  1.00  0.00     0.000 C 
BRANCH  19  20
ATOM     20  C   UNL     1      -7.209  -3.910  -3.963  1.00  0.00     0.000 C 
BRANCH  20  21
ATOM     21  C   UNL     1      -6.387  -4.637  -2.884  1.00  0.00     0.000 C 
BRANCH  21  22
ATOM     22  C   UNL     1      -4.952  -4.953  -3.341  1.00  0.00    -0.000 C 
BRANCH  22  23
ATOM     23  C   UNL     1      -3.904  -4.036  -2.687  1.00  0.00    -0.000 C 
BRANCH  23  24
ATOM     24  C   UNL     1      -2.613  -3.936  -3.519  1.00  0.00    -0.000 C 
BRANCH  24  25
ATOM     25  C   UNL     1      -2.868  -3.441  -4.952  1.00  0.00    -0.000 C 
BRANCH  25  26
ATOM     26  C   UNL     1      -2.626  -1.929  -5.105  1.00  0.00    -0.000 C 
BRANCH  26  27
ATOM     27  C   UNL     1      -3.928  -1.112  -5.042  1.00  0.00    -0.000 C 
BRANCH  27  28
ATOM     28  C   UNL     1      -5.088  -1.794  -5.791  1.00  0.00    -0.000 C 
BRANCH  28  29
ATOM     29  C   UNL     1      -5.630  -0.936  -6.944  1.00  0.00    -0.003 C 
ATOM     30  C   UNL     1      -7.083  -0.510  -6.738  1.00  0.00     0.004 C 
ENDBRANCH  28  29
ENDBRANCH  27  28
ENDBRANCH  26  27
ENDBRANCH  25  26
ENDBRANCH  24  25
ENDBRANCH  23  24
ENDBRANCH  22  23
ENDBRANCH  21  22
ENDBRANCH  20  21
ENDBRANCH  19  20
ENDBRANCH  18  19
ENDBRANCH  17  18
ENDBRANCH   1  17
TORSDOF 26
ENDMDL
MODEL 6
REMARK VINA RESULT:    -2.848      2.925      6.492
REMARK INTER + INTRA:         -12.512
REMARK INTER:                  -6.820
REMARK INTRA:                  -5.692
REMARK UNBOUND:                -5.336
REMARK SMILES CCCCCCCCCCCCCCCCCCCCCCCCCCCC(=O)[O-]
REMARK SMILES IDX 15 1 16 2 17 3 18 4 19 5 20 6 21 7 22 8 23 9 24 10 25 11
REMARK SMILES IDX 26 12 27 13 28 14 29 15 30 16 14 17 13 18 12 19 11 20 10 21
REMARK SMILES IDX 9 22 8 23 7 24 6 25 5 26 4 27 3 28 2 29 1 30
REMARK H PARENT
REMARK Flexibility Score: inf
ROOT
ATOM      1  C   UNL     1      -4.641  -5.714  -1.981  1.00  0.00     0.000 C 
ENDROOT
BRANCH   1   2
ATOM      2  C   UNL     1      -5.939  -4.901  -2.173  1.00  0.00     0.000 C 
BRANCH   2   3
ATOM      3  C   UNL     1      -6.591  -5.088  -3.554  1.00  0.00     0.000 C 
BRANCH   3   4
ATOM      4  C   UNL     1      -7.936  -4.359  -3.683  1.00  0.00     0.000 C 
BRANCH   4   5
ATOM      5  C   UNL     1      -8.467  -3.926  -2.309  1.00  0.00     0.000 C 
BRANCH   5   6
ATOM      6  C   UNL     1      -9.913  -4.404  -2.054  1.00  0.00     0.000 C 
BRANCH   6   7
ATOM      7  C   UNL     1     -10.076  -5.258  -0.782  1.00  0.00     0.000 C 
BRANCH   7   8
ATOM      8  C   UNL     1      -8.864  -5.262   0.170  1.00  0.00     0.000 C 
BRANCH   8   9
ATOM      9  C   UNL     1      -8.129  -6.611   0.282  1.00  0.00     0.000 C 
BRANCH   9  10
ATOM     10  C   UNL     1      -8.637  -7.653  -0.724  1.00  0.00     0.000 C 
BRANCH  10  11
ATOM     11  C   UNL     1      -7.474  -8.277  -1.505  1.00  0.00     0.000 C 
BRANCH  11  12
ATOM     12  C   UNL     1      -7.845  -8.471  -2.983  1.00  0.00     0.006 C 
BRANCH  12  13
ATOM     13  C   UNL     1      -9.111  -7.695  -3.371  1.00  0.00     0.053 C 
BRANCH  13  14
ATOM     14  C   UNL     1      -9.374  -7.753  -4.845  1.00  0.00     0.041 C 
ATOM     15  O   UNL     1     -10.118  -6.896  -5.390  1.00  0.00    -0.550 OA
ATOM     16  O   UNL     1      -8.812  -8.766  -5.614  1.00  0.00    -0.550 OA
ENDBRANCH  13  14
ENDBRANCH  12  13
ENDBRANCH  11  12
ENDBRANCH  10  11
ENDBRANCH   9  10
ENDBRANCH   8   9
ENDBRANCH   7   8
ENDBRANCH   6   7
ENDBRANCH   5   6
ENDBRANCH   4   5
ENDBRANCH   3   4
ENDBRANCH   2   3
ENDBRANCH   1   2
BRANCH   1  17
ATOM     17  C   UNL     1      -4.527  -6.878  -2.984  1.00  0.00     0.000 C 
BRANCH  17  18
ATOM     18  C   UNL     1      -3.377  -6.682  -3.983  1.00  0.00     0.000 C 
BRANCH  18  19
ATOM     19  C   UNL     1      -2.512  -5.454  -3.649  1.00  0.00     0.000 C 
BRANCH  19  20
ATOM     20  C   UNL     1      -2.554  -4.380  -4.750  1.00  0.00     0.000 C 
BRANCH  20  21
ATOM     21  C   UNL     1      -2.339  -2.939  -4.253  1.00  0.00     0.000 C 
BRANCH  21  22
ATOM     22  C   UNL     1      -2.484  -1.895  -5.375  1.00  0.00    -0.000 C 
BRANCH  22  23
ATOM     23  C   UNL     1      -3.809  -1.117  -5.294  1.00  0.00    -0.000 C 
BRANCH  23  24
ATOM     24  C   UNL     1      -5.019  -2.044  -5.080  1.00  0.00    -0.000 C 
BRANCH  24  25
ATOM     25  C   UNL     1      -6.148  -1.372  -4.282  1.00  0.00    -0.000 C 
BRANCH  25  26
ATOM     26  C   UNL     1      -5.632  -0.649  -3.025  1.00  0.00    -0.000 C 
BRANCH  26  27
ATOM     27  C   UNL     1      -6.256  -1.195  -1.730  1.00  0.00    -0.000 C 
BRANCH  27  28
ATOM     28  C   UNL     1      -5.245  -1.259  -0.570  1.00  0.00    -0.000 C 
BRANCH  28  29
ATOM     29  C   UNL     1      -3.789  -1.285  -1.059  1.00  0.00    -0.003 C 
ATOM     30  C   UNL     1      -3.095  -2.622  -0.795  1.00  0.00     0.004 C 
ENDBRANCH  28  29
ENDBRANCH  27  28
ENDBRANCH  26  27
ENDBRANCH  25  26
ENDBRANCH  24  25
ENDBRANCH  23  24
ENDBRANCH  22  23
ENDBRANCH  21  22
ENDBRANCH  20  21
ENDBRANCH  19  20
ENDBRANCH  18  19
ENDBRANCH  17  18
ENDBRANCH   1  17
TORSDOF 26
ENDMDL
MODEL 7
REMARK VINA RESULT:    -2.833     13.101     16.268
REMARK INTER + INTRA:         -12.474
REMARK INTER:                  -8.157
REMARK INTRA:                  -4.317
REMARK UNBOUND:                -5.336
REMARK SMILES CCCCCCCCCCCCCCCCCCCCCCCCCCCC(=O)[O-]
REMARK SMILES IDX 15 1 16 2 17 3 18 4 19 5 20 6 21 7 22 8 23 9 24 10 25 11
REMARK SMILES IDX 26 12 27 13 28 14 29 15 30 16 14 17 13 18 12 19 11 20 10 21
REMARK SMILES IDX 9 22 8 23 7 24 6 25 5 26 4 27 3 28 2 29 1 30
REMARK H PARENT
REMARK Flexibility Score: inf
ROOT
ATOM      1  C   UNL     1      -0.404  10.070   5.755  1.00  0.00     0.000 C 
ENDROOT
BRANCH   1   2
ATOM      2  C   UNL     1      -0.424   9.029   4.616  1.00  0.00     0.000 C 
BRANCH   2   3
ATOM      3  C   UNL     1      -1.722   9.035   3.790  1.00  0.00     0.000 C 
BRANCH   3   4
ATOM      4  C   UNL     1      -2.983   9.132   4.660  1.00  0.00     0.000 C 
BRANCH   4   5
ATOM      5  C   UNL     1      -4.251   8.879   3.832  1.00  0.00     0.000 C 
BRANCH   5   6
ATOM      6  C   UNL     1      -4.626  10.083   2.941  1.00  0.00     0.000 C 
BRANCH   6   7
ATOM      7  C   UNL     1      -4.813   9.728   1.453  1.00  0.00     0.000 C 
BRANCH   7   8
ATOM      8  C   UNL     1      -4.336   8.319   1.046  1.00  0.00     0.000 C 
BRANCH   8   9
ATOM      9  C   UNL     1      -2.930   8.263   0.420  1.00  0.00     0.000 C 
BRANCH   9  10
ATOM     10  C   UNL     1      -2.177   6.968   0.757  1.00  0.00     0.000 C 
BRANCH  10  11
ATOM     11  C   UNL     1      -2.943   6.142   1.798  1.00  0.00     0.000 C 
BRANCH  11  12
ATOM     12  C   UNL     1      -2.708   4.639   1.588  1.00  0.00     0.006 C 
BRANCH  12  13
ATOM     13  C   UNL     1      -2.804   3.847   2.899  1.00  0.00     0.053 C 
BRANCH  13  14
ATOM     14  C   UNL     1      -3.985   2.924   2.910  1.00  0.00     0.041 C 
ATOM     15  O   UNL     1      -5.152   3.391   3.000  1.00  0.00    -0.550 OA
ATOM     16  O   UNL     1      -3.797   1.549   2.839  1.00  0.00    -0.550 OA
ENDBRANCH  13  14
ENDBRANCH  12  13
ENDBRANCH  11  12
ENDBRANCH  10  11
ENDBRANCH   9  10
ENDBRANCH   8   9
ENDBRANCH   7   8
ENDBRANCH   6   7
ENDBRANCH   5   6
ENDBRANCH   4   5
ENDBRANCH   3   4
ENDBRANCH   2   3
ENDBRANCH   1   2
BRANCH   1  17
ATOM     17  C   UNL     1       0.949  10.106   6.489  1.00  0.00     0.000 C 
BRANCH  17  18
ATOM     18  C   UNL     1       2.144  10.050   5.525  1.00  0.00     0.000 C 
BRANCH  18  19
ATOM     19  C   UNL     1       3.316   9.228   6.089  1.00  0.00     0.000 C 
BRANCH  19  20
ATOM     20  C   UNL     1       3.543   7.913   5.324  1.00  0.00     0.000 C 
BRANCH  20  21
ATOM     21  C   UNL     1       2.998   6.656   6.025  1.00  0.00     0.000 C 
BRANCH  21  22
ATOM     22  C   UNL     1       1.648   6.193   5.450  1.00  0.00    -0.000 C 
BRANCH  22  23
ATOM     23  C   UNL     1       1.621   6.206   3.912  1.00  0.00    -0.000 C 
BRANCH  23  24
ATOM     24  C   UNL     1       0.651   5.160   3.335  1.00  0.00    -0.000 C 
BRANCH  24  25
ATOM     25  C   UNL     1       1.143   3.718   3.538  1.00  0.00    -0.000 C 
BRANCH  25  26
ATOM     26  C   UNL     1       0.257   2.926   4.516  1.00  0.00    -0.000 C 
BRANCH  26  27
ATOM     27  C   UNL     1       1.077   2.134   5.548  1.00  0.00    -0.000 C 
BRANCH  27  28
ATOM     28  C   UNL     1       1.173   2.858   6.905  1.00  0.00    -0.000 C 
BRANCH  28  29
ATOM     29  C   UNL     1       2.626   3.078   7.354  1.00  0.00    -0.003 C 
ATOM     30  C   UNL     1       3.633   2.911   6.216  1.00  0.00     0.004 C 
ENDBRANCH  28  29
ENDBRANCH  27  28
ENDBRANCH  26  27
ENDBRANCH  25  26
ENDBRANCH  24  25
ENDBRANCH  23  24
ENDBRANCH  22  23
ENDBRANCH  21  22
ENDBRANCH  20  21
ENDBRANCH  19  20
ENDBRANCH  18  19
ENDBRANCH  17  18
ENDBRANCH   1  17
TORSDOF 26
ENDMDL
MODEL 8
REMARK VINA RESULT:    -2.821      3.303      7.386
REMARK INTER + INTRA:         -12.444
REMARK INTER:                  -7.084
REMARK INTRA:                  -5.360
REMARK UNBOUND:                -5.336
REMARK SMILES CCCCCCCCCCCCCCCCCCCCCCCCCCCC(=O)[O-]
REMARK SMILES IDX 15 1 16 2 17 3 18 4 19 5 20 6 21 7 22 8 23 9 24 10 25 11
REMARK SMILES IDX 26 12 27 13 28 14 29 15 30 16 14 17 13 18 12 19 11 20 10 21
REMARK SMILES IDX 9 22 8 23 7 24 6 25 5 26 4 27 3 28 2 29 1 30
REMARK H PARENT
REMARK Flexibility Score: inf
ROOT
ATOM      1  C   UNL     1      -3.536  -2.951  -3.368  1.00  0.00     0.000 C 
ENDROOT
BRANCH   1   2
ATOM      2  C   UNL     1      -4.741  -3.819  -2.950  1.00  0.00     0.000 C 
BRANCH   2   3
ATOM      3  C   UNL     1      -5.709  -3.116  -1.983  1.00  0.00     0.000 C 
BRANCH   3   4
ATOM      4  C   UNL     1      -7.182  -3.436  -2.273  1.00  0.00     0.000 C 
BRANCH   4   5
ATOM      5  C   UNL     1      -7.343  -4.117  -3.640  1.00  0.00     0.000 C 
BRANCH   5   6
ATOM      6  C   UNL     1      -8.615  -3.659  -4.385  1.00  0.00     0.000 C 
BRANCH   6   7
ATOM      7  C   UNL     1      -9.922  -3.910  -3.607  1.00  0.00     0.000 C 
BRANCH   7   8
ATOM      8  C   UNL     1     -10.124  -5.353  -3.106  1.00  0.00     0.000 C 
BRANCH   8   9
ATOM      9  C   UNL     1     -10.054  -6.437  -4.199  1.00  0.00     0.000 C 
BRANCH   9  10
ATOM     10  C   UNL     1      -9.089  -7.578  -3.846  1.00  0.00     0.000 C 
BRANCH  10  11
ATOM     11  C   UNL     1      -8.622  -7.474  -2.389  1.00  0.00     0.000 C 
BRANCH  11  12
ATOM     12  C   UNL     1      -7.089  -7.508  -2.298  1.00  0.00     0.006 C 
BRANCH  12  13
ATOM     13  C   UNL     1      -6.435  -7.850  -3.643  1.00  0.00     0.053 C 
BRANCH  13  14
ATOM     14  C   UNL     1      -4.939  -7.805  -3.566  1.00  0.00     0.041 C 
ATOM     15  O   UNL     1      -4.284  -7.112  -4.388  1.00  0.00    -0.550 OA
ATOM     16  O   UNL     1      -4.268  -8.542  -2.597  1.00  0.00    -0.550 OA
ENDBRANCH  13  14
ENDBRANCH  12  13
ENDBRANCH  11  12
ENDBRANCH  10  11
ENDBRANCH   9  10
ENDBRANCH   8   9
ENDBRANCH   7   8
ENDBRANCH   6   7
ENDBRANCH   5   6
ENDBRANCH   4   5
ENDBRANCH   3   4
ENDBRANCH   2   3
ENDBRANCH   1   2
BRANCH   1  17
ATOM     17  C   UNL     1      -3.385  -2.858  -4.898  1.00  0.00     0.000 C 
BRANCH  17  18
ATOM     18  C   UNL     1      -3.952  -1.548  -5.467  1.00  0.00     0.000 C 
BRANCH  18  19
ATOM     19  C   UNL     1      -5.441  -1.663  -5.835  1.00  0.00     0.000 C 
BRANCH  19  20
ATOM     20  C   UNL     1      -5.813  -0.833  -7.076  1.00  0.00     0.000 C 
BRANCH  20  21
ATOM     21  C   UNL     1      -5.625   0.686  -6.916  1.00  0.00     0.000 C 
BRANCH  21  22
ATOM     22  C   UNL     1      -6.861   1.488  -7.363  1.00  0.00    -0.000 C 
BRANCH  22  23
ATOM     23  C   UNL     1      -8.117   0.612  -7.507  1.00  0.00    -0.000 C 
BRANCH  23  24
ATOM     24  C   UNL     1      -9.116   0.828  -6.356  1.00  0.00    -0.000 C 
BRANCH  24  25
ATOM     25  C   UNL     1      -9.121  -0.332  -5.348  1.00  0.00    -0.000 C 
BRANCH  25  26
ATOM     26  C   UNL     1      -8.910   0.145  -3.900  1.00  0.00    -0.000 C 
BRANCH  26  27
ATOM     27  C   UNL     1      -7.443   0.045  -3.451  1.00  0.00    -0.000 C 
BRANCH  27  28
ATOM     28  C   UNL     1      -6.733   1.412  -3.449  1.00  0.00    -0.000 C 
BRANCH  28  29
ATOM     29  C   UNL     1      -5.202   1.281  -3.419  1.00  0.00    -0.003 C 
ATOM     30  C   UNL     1      -4.700   0.442  -2.244  1.00  0.00     0.004 C 
ENDBRANCH  28  29
ENDBRANCH  27  28
ENDBRANCH  26  27
ENDBRANCH  25  26
ENDBRANCH  24  25
ENDBRANCH  23  24
ENDBRANCH  22  23
ENDBRANCH  21  22
ENDBRANCH  20  21
ENDBRANCH  19  20
ENDBRANCH  18  19
ENDBRANCH  17  18
ENDBRANCH   1  17
TORSDOF 26
ENDMDL
MODEL 9
REMARK VINA RESULT:    -2.818      2.159      3.980
REMARK INTER + INTRA:         -12.436
REMARK INTER:                  -6.923
REMARK INTRA:                  -5.513
REMARK UNBOUND:                -5.336
REMARK SMILES CCCCCCCCCCCCCCCCCCCCCCCCCCCC(=O)[O-]
REMARK SMILES IDX 15 1 16 2 17 3 18 4 19 5 20 6 21 7 22 8 23 9 24 10 25 11
REMARK SMILES IDX 26 12 27 13 28 14 29 15 30 16 14 17 13 18 12 19 11 20 10 21
REMARK SMILES IDX 9 22 8 23 7 24 6 25 5 26 4 27 3 28 2 29 1 30
REMARK H PARENT
REMARK Flexibility Score: inf
ROOT
ATOM      1  C   UNL     1      -6.521  -6.984  -1.107  1.00  0.00     0.000 C 
ENDROOT
BRANCH   1   2
ATOM      2  C   UNL     1      -5.508  -7.339  -2.217  1.00  0.00     0.000 C 
BRANCH   2   3
ATOM      3  C   UNL     1      -5.868  -8.610  -3.005  1.00  0.00     0.000 C 
BRANCH   3   4
ATOM      4  C   UNL     1      -6.706  -8.317  -4.258  1.00  0.00     0.000 C 
BRANCH   4   5
ATOM      5  C   UNL     1      -8.176  -8.708  -4.048  1.00  0.00     0.000 C 
BRANCH   5   6
ATOM      6  C   UNL     1      -9.151  -7.573  -4.428  1.00  0.00     0.000 C 
BRANCH   6   7
ATOM      7  C   UNL     1      -9.679  -6.770  -3.224  1.00  0.00     0.000 C 
BRANCH   7   8
ATOM      8  C   UNL     1      -9.353  -5.263  -3.242  1.00  0.00     0.000 C 
BRANCH   8   9
ATOM      9  C   UNL     1      -7.894  -4.918  -3.596  1.00  0.00     0.000 C 
BRANCH   9  10
ATOM     10  C   UNL     1      -7.745  -3.525  -4.223  1.00  0.00     0.000 C 
BRANCH  10  11
ATOM     11  C   UNL     1      -6.286  -3.054  -4.179  1.00  0.00     0.000 C 
BRANCH  11  12
ATOM     12  C   UNL     1      -6.150  -1.630  -4.737  1.00  0.00     0.006 C 
BRANCH  12  13
ATOM     13  C   UNL     1      -5.426  -1.602  -6.089  1.00  0.00     0.053 C 
BRANCH  13  14
ATOM     14  C   UNL     1      -6.224  -0.888  -7.137  1.00  0.00     0.041 C 
ATOM     15  O   UNL     1      -5.644  -0.182  -8.004  1.00  0.00    -0.550 OA
ATOM     16  O   UNL     1      -7.611  -0.987  -7.146  1.00  0.00    -0.550 OA
ENDBRANCH  13  14
ENDBRANCH  12  13
ENDBRANCH  11  12
ENDBRANCH  10  11
ENDBRANCH   9  10
ENDBRANCH   8   9
ENDBRANCH   7   8
ENDBRANCH   6   7
ENDBRANCH   5   6
ENDBRANCH   4   5
ENDBRANCH   3   4
ENDBRANCH   2   3
ENDBRANCH   1   2
BRANCH   1  17
ATOM     17  C   UNL     1      -7.185  -8.235  -0.502  1.00  0.00     0.000 C 
BRANCH  17  18
ATOM     18  C   UNL     1      -8.599  -7.953   0.026  1.00  0.00     0.000 C 
BRANCH  18  19
ATOM     19  C   UNL     1      -8.661  -6.679   0.887  1.00  0.00     0.000 C 
BRANCH  19  20
ATOM     20  C   UNL     1      -9.692  -5.661   0.369  1.00  0.00     0.000 C 
BRANCH  20  21
ATOM     21  C   UNL     1      -9.494  -4.224   0.884  1.00  0.00     0.000 C 
BRANCH  21  22
ATOM     22  C   UNL     1      -9.673  -3.167  -0.220  1.00  0.00    -0.000 C 
BRANCH  22  23
ATOM     23  C   UNL     1      -8.335  -2.590  -0.713  1.00  0.00    -0.000 C 
BRANCH  23  24
ATOM     24  C   UNL     1      -7.156  -2.993   0.191  1.00  0.00    -0.000 C 
BRANCH  24  25
ATOM     25  C   UNL     1      -5.899  -3.377  -0.607  1.00  0.00    -0.000 C 
BRANCH  25  26
ATOM     26  C   UNL     1      -4.834  -4.064   0.266  1.00  0.00    -0.000 C 
BRANCH  26  27
ATOM     27  C   UNL     1      -3.618  -4.538  -0.547  1.00  0.00    -0.000 C 
BRANCH  27  28
ATOM     28  C   UNL     1      -3.600  -3.956  -1.973  1.00  0.00    -0.000 C 
BRANCH  28  29
ATOM     29  C   UNL     1      -2.562  -4.640  -2.875  1.00  0.00    -0.003 C 
ATOM     30  C   UNL     1      -3.169  -5.206  -4.159  1.00  0.00     0.004 C 
ENDBRANCH  28  29
ENDBRANCH  27  28
ENDBRANCH  26  27
ENDBRANCH  25  26
ENDBRANCH  24  25
ENDBRANCH  23  24
ENDBRANCH  22  23
ENDBRANCH  21  22
ENDBRANCH  20  21
ENDBRANCH  19  20
ENDBRANCH  18  19
ENDBRANCH  17  18
ENDBRANCH   1  17
TORSDOF 26
ENDMDL
