MODEL 1
REMARK VINA RESULT:    -6.066      0.000      0.000
REMARK INTER + INTRA:          -7.552
REMARK INTER:                  -7.484
REMARK INTRA:                  -0.067
REMARK UNBOUND:                -0.067
REMARK SMILES COc1cc(-c2oc3cc(O)cc(O)c3c(=O)c2O)ccc1O
REMARK SMILES IDX 6 1 18 2 16 3 17 4 15 5 13 6 12 7 10 8 9 9 8 10 7 11 5 12
REMARK SMILES IDX 3 13 22 14 4 15 21 16 20 17 2 18 1 19 23 20 19 22 14 24
REMARK SMILES IDX 11 26
REMARK H PARENT 23 21 19 23 14 25 11 27
REMARK Flexibility Score: inf
ROOT
ATOM      1  C   UNL     1       1.396  16.062  26.329  1.00  0.00     0.180 A 
ATOM      2  C   UNL     1       1.036  16.708  25.131  1.00  0.00     0.208 A 
ATOM      3  C   UNL     1       0.331  17.920  25.199  1.00  0.00     0.238 A 
ATOM      4  O   UNL     1      -0.006  18.502  24.131  1.00  0.00    -0.285 OA
ATOM      5  C   UNL     1       0.015  18.473  26.456  1.00  0.00     0.111 A 
ATOM      6  C   UNL     1      -0.690  19.690  26.612  1.00  0.00     0.134 A 
ATOM      7  C   UNL     1      -0.957  20.180  27.899  1.00  0.00     0.093 A 
ATOM      8  C   UNL     1      -0.535  19.479  29.030  1.00  0.00     0.123 A 
ATOM      9  C   UNL     1       0.160  18.274  28.883  1.00  0.00     0.094 A 
ATOM     10  C   UNL     1       0.436  17.769  27.610  1.00  0.00     0.146 A 
ATOM     11  O   UNL     1       1.094  16.620  27.498  1.00  0.00    -0.452 OA
ENDROOT
BRANCH   1  12
ATOM     12  C   UNL     1       2.123  14.773  26.339  1.00  0.00     0.025 A 
ATOM     13  C   UNL     1       2.384  12.467  27.115  1.00  0.00     0.161 A 
ATOM     14  C   UNL     1       3.571  12.360  26.367  1.00  0.00     0.157 A 
ATOM     15  C   UNL     1       1.669  13.681  27.101  1.00  0.00     0.062 A 
ATOM     16  C   UNL     1       4.032  13.452  25.628  1.00  0.00     0.051 A 
ATOM     17  C   UNL     1       3.319  14.652  25.618  1.00  0.00     0.016 A 
BRANCH  13  18
ATOM     18  O   UNL     1       1.950  11.357  27.858  1.00  0.00    -0.493 OA
ATOM     19  C   UNL     1       1.711  11.367  29.261  1.00  0.00     0.278 C 
ENDBRANCH  13  18
BRANCH  14  20
ATOM     20  O   UNL     1       4.307  11.175  26.349  1.00  0.00    -0.504 OA
ATOM     21  H   UNL     1       4.674  10.754  27.194  1.00  0.00     0.293 HD
ENDBRANCH  14  20
ENDBRANCH   1  12
BRANCH   2  22
ATOM     22  O   UNL     1       1.405  16.164  23.897  1.00  0.00    -0.502 OA
ATOM     23  H   UNL     1       0.777  15.589  23.349  1.00  0.00     0.293 HD
ENDBRANCH   2  22
BRANCH   6  24
ATOM     24  O   UNL     1      -1.124  20.416  25.502  1.00  0.00    -0.507 OA
ATOM     25  H   UNL     1      -1.275  21.417  25.545  1.00  0.00     0.293 HD
ENDBRANCH   6  24
BRANCH   8  26
ATOM     26  O   UNL     1      -0.814  19.986  30.297  1.00  0.00    -0.508 OA
ATOM     27  H   UNL     1      -0.505  20.910  30.578  1.00  0.00     0.293 HD
ENDBRANCH   8  26
TORSDOF 6
ENDMDL
MODEL 2
REMARK VINA RESULT:    -5.714      1.034      1.973
REMARK INTER + INTRA:          -7.118
REMARK INTER:                  -6.950
REMARK INTRA:                  -0.168
REMARK UNBOUND:                -0.067
REMARK SMILES COc1cc(-c2oc3cc(O)cc(O)c3c(=O)c2O)ccc1O
REMARK SMILES IDX 6 1 18 2 16 3 17 4 15 5 13 6 12 7 10 8 9 9 8 10 7 11 5 12
REMARK SMILES IDX 3 13 22 14 4 15 21 16 20 17 2 18 1 19 23 20 19 22 14 24
REMARK SMILES IDX 11 26
REMARK H PARENT 23 21 19 23 14 25 11 27
REMARK Flexibility Score: inf
ROOT
ATOM      1  C   UNL     1       1.441  15.308  26.539  1.00  0.00     0.180 A 
ATOM      2  C   UNL     1       1.262  15.834  25.245  1.00  0.00     0.208 A 
ATOM      3  C   UNL     1       0.722  17.122  25.105  1.00  0.00     0.238 A 
ATOM      4  O   UNL     1       0.548  17.599  23.951  1.00  0.00    -0.285 OA
ATOM      5  C   UNL     1       0.390  17.867  26.255  1.00  0.00     0.111 A 
ATOM      6  C   UNL     1      -0.154  19.173  26.202  1.00  0.00     0.134 A 
ATOM      7  C   UNL     1      -0.449  19.853  27.392  1.00  0.00     0.093 A 
ATOM      8  C   UNL     1      -0.211  19.256  28.631  1.00  0.00     0.123 A 
ATOM      9  C   UNL     1       0.326  17.966  28.691  1.00  0.00     0.094 A 
ATOM     10  C   UNL     1       0.626  17.271  27.517  1.00  0.00     0.146 A 
ATOM     11  O   UNL     1       1.131  16.045  27.601  1.00  0.00    -0.452 OA
ENDROOT
BRANCH   1  12
ATOM     12  C   UNL     1       1.986  13.951  26.767  1.00  0.00     0.025 A 
ATOM     13  C   UNL     1       3.767  12.290  26.527  1.00  0.00     0.161 A 
ATOM     14  C   UNL     1       2.956  11.341  27.176  1.00  0.00     0.157 A 
ATOM     15  C   UNL     1       3.270  13.592  26.320  1.00  0.00     0.062 A 
ATOM     16  C   UNL     1       1.672  11.692  27.601  1.00  0.00     0.051 A 
ATOM     17  C   UNL     1       1.186  12.984  27.392  1.00  0.00     0.016 A 
BRANCH  13  18
ATOM     18  O   UNL     1       5.048  11.906  26.101  1.00  0.00    -0.493 OA
ATOM     19  C   UNL     1       5.336  11.311  24.840  1.00  0.00     0.278 C 
ENDBRANCH  13  18
BRANCH  14  20
ATOM     20  O   UNL     1       3.409  10.042  27.406  1.00  0.00    -0.504 OA
ATOM     21  H   UNL     1       2.799   9.309  27.746  1.00  0.00     0.293 HD
ENDBRANCH  14  20
ENDBRANCH   1  12
BRANCH   2  22
ATOM     22  O   UNL     1       1.646  15.094  24.123  1.00  0.00    -0.502 OA
ATOM     23  H   UNL     1       2.613  15.005  23.837  1.00  0.00     0.293 HD
ENDBRANCH   2  22
BRANCH   6  24
ATOM     24  O   UNL     1      -0.403  19.797  24.978  1.00  0.00    -0.507 OA
ATOM     25  H   UNL     1       0.302  20.356  24.512  1.00  0.00     0.293 HD
ENDBRANCH   6  24
BRANCH   8  26
ATOM     26  O   UNL     1      -0.513  19.954  29.799  1.00  0.00    -0.508 OA
ATOM     27  H   UNL     1       0.112  19.947  30.597  1.00  0.00     0.293 HD
ENDBRANCH   8  26
TORSDOF 6
ENDMDL
MODEL 3
REMARK VINA RESULT:    -5.513      1.781      7.251
REMARK INTER + INTRA:          -6.870
REMARK INTER:                  -6.520
REMARK INTRA:                  -0.350
REMARK UNBOUND:                -0.067
REMARK SMILES COc1cc(-c2oc3cc(O)cc(O)c3c(=O)c2O)ccc1O
REMARK SMILES IDX 6 1 18 2 16 3 17 4 15 5 13 6 12 7 10 8 9 9 8 10 7 11 5 12
REMARK SMILES IDX 3 13 22 14 4 15 21 16 20 17 2 18 1 19 23 20 19 22 14 24
REMARK SMILES IDX 11 26
REMARK H PARENT 23 21 19 23 14 25 11 27
REMARK Flexibility Score: inf
ROOT
ATOM      1  C   UNL     1       1.093  16.675  26.035  1.00  0.00     0.180 A 
ATOM      2  C   UNL     1       0.308  15.590  26.472  1.00  0.00     0.208 A 
ATOM      3  C   UNL     1       0.894  14.316  26.547  1.00  0.00     0.238 A 
ATOM      4  O   UNL     1       0.197  13.335  26.927  1.00  0.00    -0.285 OA
ATOM      5  C   UNL     1       2.251  14.152  26.204  1.00  0.00     0.111 A 
ATOM      6  C   UNL     1       2.917  12.904  26.256  1.00  0.00     0.134 A 
ATOM      7  C   UNL     1       4.274  12.824  25.909  1.00  0.00     0.093 A 
ATOM      8  C   UNL     1       4.976  13.964  25.512  1.00  0.00     0.123 A 
ATOM      9  C   UNL     1       4.323  15.200  25.458  1.00  0.00     0.094 A 
ATOM     10  C   UNL     1       2.972  15.300  25.799  1.00  0.00     0.146 A 
ATOM     11  O   UNL     1       2.374  16.485  25.734  1.00  0.00    -0.452 OA
ENDROOT
BRANCH   1  12
ATOM     12  C   UNL     1       0.542  18.043  25.911  1.00  0.00     0.025 A 
ATOM     13  C   UNL     1       0.123  20.274  26.825  1.00  0.00     0.161 A 
ATOM     14  C   UNL     1      -0.571  20.614  25.648  1.00  0.00     0.157 A 
ATOM     15  C   UNL     1       0.670  18.981  26.950  1.00  0.00     0.062 A 
ATOM     16  C   UNL     1      -0.716  19.674  24.626  1.00  0.00     0.051 A 
ATOM     17  C   UNL     1      -0.171  18.395  24.757  1.00  0.00     0.016 A 
BRANCH  13  18
ATOM     18  O   UNL     1       0.244  21.235  27.841  1.00  0.00    -0.493 OA
ATOM     19  C   UNL     1      -0.738  21.480  28.843  1.00  0.00     0.278 C 
ENDBRANCH  13  18
BRANCH  14  20
ATOM     20  O   UNL     1      -1.125  21.884  25.481  1.00  0.00    -0.504 OA
ATOM     21  H   UNL     1      -0.988  22.626  26.155  1.00  0.00     0.293 HD
ENDBRANCH  14  20
ENDBRANCH   1  12
BRANCH   2  22
ATOM     22  O   UNL     1      -1.022  15.788  26.853  1.00  0.00    -0.502 OA
ATOM     23  H   UNL     1      -1.295  16.502  27.517  1.00  0.00     0.293 HD
ENDBRANCH   2  22
BRANCH   6  24
ATOM     24  O   UNL     1       2.244  11.746  26.649  1.00  0.00    -0.507 OA
ATOM     25  H   UNL     1       1.283  11.571  26.379  1.00  0.00     0.293 HD
ENDBRANCH   6  24
BRANCH   8  26
ATOM     26  O   UNL     1       6.323  13.859  25.172  1.00  0.00    -0.508 OA
ATOM     27  H   UNL     1       6.731  14.428  24.440  1.00  0.00     0.293 HD
ENDBRANCH   8  26
TORSDOF 6
ENDMDL
MODEL 4
REMARK VINA RESULT:    -5.166      1.456      2.447
REMARK INTER + INTRA:          -6.441
REMARK INTER:                  -6.091
REMARK INTRA:                  -0.350
REMARK UNBOUND:                -0.067
REMARK SMILES COc1cc(-c2oc3cc(O)cc(O)c3c(=O)c2O)ccc1O
REMARK SMILES IDX 6 1 18 2 16 3 17 4 15 5 13 6 12 7 10 8 9 9 8 10 7 11 5 12
REMARK SMILES IDX 3 13 22 14 4 15 21 16 20 17 2 18 1 19 23 20 19 22 14 24
REMARK SMILES IDX 11 26
REMARK H PARENT 23 21 19 23 14 25 11 27
REMARK Flexibility Score: inf
ROOT
ATOM      1  C   UNL     1       0.962  17.161  26.912  1.00  0.00     0.180 A 
ATOM      2  C   UNL     1       0.713  18.105  25.896  1.00  0.00     0.208 A 
ATOM      3  C   UNL     1       0.117  19.329  26.240  1.00  0.00     0.238 A 
ATOM      4  O   UNL     1      -0.121  20.177  25.337  1.00  0.00    -0.285 OA
ATOM      5  C   UNL     1      -0.201  19.596  27.586  1.00  0.00     0.111 A 
ATOM      6  C   UNL     1      -0.798  20.805  28.016  1.00  0.00     0.134 A 
ATOM      7  C   UNL     1      -1.074  21.000  29.378  1.00  0.00     0.093 A 
ATOM      8  C   UNL     1      -0.765  20.012  30.315  1.00  0.00     0.123 A 
ATOM      9  C   UNL     1      -0.175  18.815  29.897  1.00  0.00     0.094 A 
ATOM     10  C   UNL     1       0.107  18.602  28.545  1.00  0.00     0.146 A 
ATOM     11  O   UNL     1       0.663  17.454  28.174  1.00  0.00    -0.452 OA
ENDROOT
BRANCH   1  12
ATOM     12  C   UNL     1       1.569  15.842  26.626  1.00  0.00     0.025 A 
ATOM     13  C   UNL     1       3.512  14.441  26.127  1.00  0.00     0.161 A 
ATOM     14  C   UNL     1       2.667  13.320  26.032  1.00  0.00     0.157 A 
ATOM     15  C   UNL     1       2.952  15.701  26.418  1.00  0.00     0.062 A 
ATOM     16  C   UNL     1       1.290  13.465  26.217  1.00  0.00     0.051 A 
ATOM     17  C   UNL     1       0.742  14.716  26.504  1.00  0.00     0.016 A 
BRANCH  13  18
ATOM     18  O   UNL     1       4.891  14.268  25.925  1.00  0.00    -0.493 OA
ATOM     19  C   UNL     1       5.746  15.232  25.318  1.00  0.00     0.278 C 
ENDBRANCH  13  18
BRANCH  14  20
ATOM     20  O   UNL     1       3.179  12.053  25.750  1.00  0.00    -0.504 OA
ATOM     21  H   UNL     1       2.587  11.237  25.668  1.00  0.00     0.293 HD
ENDBRANCH  14  20
ENDBRANCH   1  12
BRANCH   2  22
ATOM     22  O   UNL     1       1.082  17.835  24.576  1.00  0.00    -0.502 OA
ATOM     23  H   UNL     1       1.219  18.568  23.891  1.00  0.00     0.293 HD
ENDBRANCH   2  22
BRANCH   6  24
ATOM     24  O   UNL     1      -1.119  21.811  27.104  1.00  0.00    -0.507 OA
ATOM     25  H   UNL     1      -0.618  21.917  26.229  1.00  0.00     0.293 HD
ENDBRANCH   6  24
BRANCH   8  26
ATOM     26  O   UNL     1      -1.050  20.230  31.662  1.00  0.00    -0.508 OA
ATOM     27  H   UNL     1      -1.126  21.165  32.043  1.00  0.00     0.293 HD
ENDBRANCH   8  26
TORSDOF 6
ENDMDL
MODEL 5
REMARK VINA RESULT:    -5.073      1.470      6.984
REMARK INTER + INTRA:          -6.327
REMARK INTER:                  -5.922
REMARK INTRA:                  -0.405
REMARK UNBOUND:                -0.067
REMARK SMILES COc1cc(-c2oc3cc(O)cc(O)c3c(=O)c2O)ccc1O
REMARK SMILES IDX 6 1 18 2 16 3 17 4 15 5 13 6 12 7 10 8 9 9 8 10 7 11 5 12
REMARK SMILES IDX 3 13 22 14 4 15 21 16 20 17 2 18 1 19 23 20 19 22 14 24
REMARK SMILES IDX 11 26
REMARK H PARENT 23 21 19 23 14 25 11 27
REMARK Flexibility Score: inf
ROOT
ATOM      1  C   UNL     1       1.690  15.992  26.230  1.00  0.00     0.180 A 
ATOM      2  C   UNL     1       3.035  15.824  25.847  1.00  0.00     0.208 A 
ATOM      3  C   UNL     1       3.648  14.578  26.053  1.00  0.00     0.238 A 
ATOM      4  O   UNL     1       4.856  14.419  25.724  1.00  0.00    -0.285 OA
ATOM      5  C   UNL     1       2.906  13.521  26.617  1.00  0.00     0.111 A 
ATOM      6  C   UNL     1       3.447  12.234  26.854  1.00  0.00     0.134 A 
ATOM      7  C   UNL     1       2.639  11.231  27.410  1.00  0.00     0.093 A 
ATOM      8  C   UNL     1       1.305  11.488  27.732  1.00  0.00     0.123 A 
ATOM      9  C   UNL     1       0.765  12.757  27.502  1.00  0.00     0.094 A 
ATOM     10  C   UNL     1       1.553  13.770  26.950  1.00  0.00     0.146 A 
ATOM     11  O   UNL     1       1.016  14.968  26.745  1.00  0.00    -0.452 OA
ENDROOT
BRANCH   1  12
ATOM     12  C   UNL     1       0.981  17.281  26.063  1.00  0.00     0.025 A 
ATOM     13  C   UNL     1       0.259  19.455  26.922  1.00  0.00     0.161 A 
ATOM     14  C   UNL     1      -0.426  19.693  25.716  1.00  0.00     0.157 A 
ATOM     15  C   UNL     1       0.955  18.241  27.089  1.00  0.00     0.062 A 
ATOM     16  C   UNL     1      -0.417  18.729  24.705  1.00  0.00     0.051 A 
ATOM     17  C   UNL     1       0.274  17.528  24.878  1.00  0.00     0.016 A 
BRANCH  13  18
ATOM     18  O   UNL     1       0.223  20.436  27.925  1.00  0.00    -0.493 OA
ATOM     19  C   UNL     1      -0.708  20.458  29.002  1.00  0.00     0.278 C 
ENDBRANCH  13  18
BRANCH  14  20
ATOM     20  O   UNL     1      -1.125  20.882  25.506  1.00  0.00    -0.504 OA
ATOM     21  H   UNL     1      -0.942  21.718  26.047  1.00  0.00     0.293 HD
ENDBRANCH  14  20
ENDBRANCH   1  12
BRANCH   2  22
ATOM     22  O   UNL     1       3.734  16.873  25.244  1.00  0.00    -0.502 OA
ATOM     23  H   UNL     1       4.343  17.491  25.767  1.00  0.00     0.293 HD
ENDBRANCH   2  22
BRANCH   6  24
ATOM     24  O   UNL     1       4.776  11.946  26.541  1.00  0.00    -0.507 OA
ATOM     25  H   UNL     1       5.093  11.866  25.582  1.00  0.00     0.293 HD
ENDBRANCH   6  24
BRANCH   8  26
ATOM     26  O   UNL     1       0.524  10.474  28.284  1.00  0.00    -0.508 OA
ATOM     27  H   UNL     1       0.267  10.477  29.263  1.00  0.00     0.293 HD
ENDBRANCH   8  26
TORSDOF 6
ENDMDL
MODEL 6
REMARK VINA RESULT:    -4.957      1.621      7.141
REMARK INTER + INTRA:          -6.184
REMARK INTER:                  -5.883
REMARK INTRA:                  -0.300
REMARK UNBOUND:                -0.067
REMARK SMILES COc1cc(-c2oc3cc(O)cc(O)c3c(=O)c2O)ccc1O
REMARK SMILES IDX 6 1 18 2 16 3 17 4 15 5 13 6 12 7 10 8 9 9 8 10 7 11 5 12
REMARK SMILES IDX 3 13 22 14 4 15 21 16 20 17 2 18 1 19 23 20 19 22 14 24
REMARK SMILES IDX 11 26
REMARK H PARENT 23 21 19 23 14 25 11 27
REMARK Flexibility Score: inf
ROOT
ATOM      1  C   UNL     1       2.072  16.110  26.662  1.00  0.00     0.180 A 
ATOM      2  C   UNL     1       3.271  16.240  25.934  1.00  0.00     0.208 A 
ATOM      3  C   UNL     1       4.040  15.093  25.683  1.00  0.00     0.238 A 
ATOM      4  O   UNL     1       5.121  15.199  25.042  1.00  0.00    -0.285 OA
ATOM      5  C   UNL     1       3.592  13.839  26.144  1.00  0.00     0.111 A 
ATOM      6  C   UNL     1       4.304  12.635  25.930  1.00  0.00     0.134 A 
ATOM      7  C   UNL     1       3.786  11.423  26.412  1.00  0.00     0.093 A 
ATOM      8  C   UNL     1       2.572  11.392  27.101  1.00  0.00     0.123 A 
ATOM      9  C   UNL     1       1.863  12.579  27.316  1.00  0.00     0.094 A 
ATOM     10  C   UNL     1       2.363  13.795  26.845  1.00  0.00     0.146 A 
ATOM     11  O   UNL     1       1.672  14.908  27.068  1.00  0.00    -0.452 OA
ENDROOT
BRANCH   1  12
ATOM     12  C   UNL     1       1.217  17.275  26.983  1.00  0.00     0.025 A 
ATOM     13  C   UNL     1      -0.339  19.039  26.310  1.00  0.00     0.161 A 
ATOM     14  C   UNL     1      -0.350  19.520  27.633  1.00  0.00     0.157 A 
ATOM     15  C   UNL     1       0.454  17.919  25.993  1.00  0.00     0.062 A 
ATOM     16  C   UNL     1       0.425  18.893  28.611  1.00  0.00     0.051 A 
ATOM     17  C   UNL     1       1.210  17.783  28.289  1.00  0.00     0.016 A 
BRANCH  13  18
ATOM     18  O   UNL     1      -1.119  19.696  25.345  1.00  0.00    -0.493 OA
ATOM     19  C   UNL     1      -0.980  19.523  23.939  1.00  0.00     0.278 C 
ENDBRANCH  13  18
BRANCH  14  20
ATOM     20  O   UNL     1      -1.124  20.624  27.992  1.00  0.00    -0.504 OA
ATOM     21  H   UNL     1      -2.079  20.740  27.676  1.00  0.00     0.293 HD
ENDBRANCH  14  20
ENDBRANCH   1  12
BRANCH   2  22
ATOM     22  O   UNL     1       3.668  17.488  25.446  1.00  0.00    -0.502 OA
ATOM     23  H   UNL     1       3.155  18.338  25.647  1.00  0.00     0.293 HD
ENDBRANCH   2  22
BRANCH   6  24
ATOM     24  O   UNL     1       5.520  12.632  25.244  1.00  0.00    -0.507 OA
ATOM     25  H   UNL     1       6.236  11.940  25.431  1.00  0.00     0.293 HD
ENDBRANCH   6  24
BRANCH   8  26
ATOM     26  O   UNL     1       2.079  10.176  27.569  1.00  0.00    -0.508 OA
ATOM     27  H   UNL     1       1.085  10.014  27.677  1.00  0.00     0.293 HD
ENDBRANCH   8  26
TORSDOF 6
ENDMDL
MODEL 7
REMARK VINA RESULT:    -4.873      1.593      7.323
REMARK INTER + INTRA:          -6.080
REMARK INTER:                  -5.687
REMARK INTRA:                  -0.392
REMARK UNBOUND:                -0.067
REMARK SMILES COc1cc(-c2oc3cc(O)cc(O)c3c(=O)c2O)ccc1O
REMARK SMILES IDX 6 1 18 2 16 3 17 4 15 5 13 6 12 7 10 8 9 9 8 10 7 11 5 12
REMARK SMILES IDX 3 13 22 14 4 15 21 16 20 17 2 18 1 19 23 20 19 22 14 24
REMARK SMILES IDX 11 26
REMARK H PARENT 23 21 19 23 14 25 11 27
REMARK Flexibility Score: inf
ROOT
ATOM      1  C   UNL     1       1.400  15.496  26.084  1.00  0.00     0.180 A 
ATOM      2  C   UNL     1       0.692  14.481  26.757  1.00  0.00     0.208 A 
ATOM      3  C   UNL     1       1.304  13.230  26.933  1.00  0.00     0.238 A 
ATOM      4  O   UNL     1       0.675  12.310  27.526  1.00  0.00    -0.285 OA
ATOM      5  C   UNL     1       2.612  13.020  26.454  1.00  0.00     0.111 A 
ATOM      6  C   UNL     1       3.301  11.792  26.594  1.00  0.00     0.134 A 
ATOM      7  C   UNL     1       4.607  11.665  26.098  1.00  0.00     0.093 A 
ATOM      8  C   UNL     1       5.237  12.739  25.467  1.00  0.00     0.123 A 
ATOM      9  C   UNL     1       4.561  13.956  25.325  1.00  0.00     0.094 A 
ATOM     10  C   UNL     1       3.259  14.102  25.811  1.00  0.00     0.146 A 
ATOM     11  O   UNL     1       2.639  15.267  25.658  1.00  0.00    -0.452 OA
ENDROOT
BRANCH   1  12
ATOM     12  C   UNL     1       0.815  16.834  25.842  1.00  0.00     0.025 A 
ATOM     13  C   UNL     1       0.395  19.144  26.531  1.00  0.00     0.161 A 
ATOM     14  C   UNL     1      -0.362  19.344  25.362  1.00  0.00     0.157 A 
ATOM     15  C   UNL     1       0.975  17.881  26.766  1.00  0.00     0.062 A 
ATOM     16  C   UNL     1      -0.539  18.297  24.455  1.00  0.00     0.051 A 
ATOM     17  C   UNL     1       0.038  17.048  24.695  1.00  0.00     0.016 A 
BRANCH  13  18
ATOM     18  O   UNL     1       0.546  20.211  27.431  1.00  0.00    -0.493 OA
ATOM     19  C   UNL     1      -0.294  20.444  28.557  1.00  0.00     0.278 C 
ENDBRANCH  13  18
BRANCH  14  20
ATOM     20  O   UNL     1      -0.951  20.579  25.088  1.00  0.00    -0.504 OA
ATOM     21  H   UNL     1      -1.629  21.004  25.708  1.00  0.00     0.293 HD
ENDBRANCH  14  20
ENDBRANCH   1  12
BRANCH   2  22
ATOM     22  O   UNL     1      -0.586  14.730  27.266  1.00  0.00    -0.502 OA
ATOM     23  H   UNL     1      -0.904  14.343  28.146  1.00  0.00     0.293 HD
ENDBRANCH   2  22
BRANCH   6  24
ATOM     24  O   UNL     1       2.700  10.699  27.221  1.00  0.00    -0.507 OA
ATOM     25  H   UNL     1       1.810  10.782  27.699  1.00  0.00     0.293 HD
ENDBRANCH   6  24
BRANCH   8  26
ATOM     26  O   UNL     1       6.534  12.588  24.983  1.00  0.00    -0.508 OA
ATOM     27  H   UNL     1       7.047  13.367  24.589  1.00  0.00     0.293 HD
ENDBRANCH   8  26
TORSDOF 6
ENDMDL
MODEL 8
REMARK VINA RESULT:    -4.325      2.539      4.493
REMARK INTER + INTRA:          -5.404
REMARK INTER:                  -5.112
REMARK INTRA:                  -0.292
REMARK UNBOUND:                -0.067
REMARK SMILES COc1cc(-c2oc3cc(O)cc(O)c3c(=O)c2O)ccc1O
REMARK SMILES IDX 6 1 18 2 16 3 17 4 15 5 13 6 12 7 10 8 9 9 8 10 7 11 5 12
REMARK SMILES IDX 3 13 22 14 4 15 21 16 20 17 2 18 1 19 23 20 19 22 14 24
REMARK SMILES IDX 11 26
REMARK H PARENT 23 21 19 23 14 25 11 27
REMARK Flexibility Score: inf
ROOT
ATOM      1  C   UNL     1       0.398  18.605  27.555  1.00  0.00     0.180 A 
ATOM      2  C   UNL     1       0.187  18.296  28.912  1.00  0.00     0.208 A 
ATOM      3  C   UNL     1      -0.241  19.312  29.781  1.00  0.00     0.238 A 
ATOM      4  O   UNL     1      -0.422  19.049  31.002  1.00  0.00    -0.285 OA
ATOM      5  C   UNL     1      -0.468  20.609  29.279  1.00  0.00     0.111 A 
ATOM      6  C   UNL     1      -0.903  21.688  30.085  1.00  0.00     0.134 A 
ATOM      7  C   UNL     1      -1.117  22.948  29.507  1.00  0.00     0.093 A 
ATOM      8  C   UNL     1      -0.905  23.150  28.142  1.00  0.00     0.123 A 
ATOM      9  C   UNL     1      -0.474  22.089  27.340  1.00  0.00     0.094 A 
ATOM     10  C   UNL     1      -0.255  20.826  27.897  1.00  0.00     0.146 A 
ATOM     11  O   UNL     1       0.159  19.837  27.113  1.00  0.00    -0.452 OA
ENDROOT
BRANCH   1  12
ATOM     12  C   UNL     1       0.867  17.593  26.582  1.00  0.00     0.025 A 
ATOM     13  C   UNL     1       2.654  16.267  25.565  1.00  0.00     0.161 A 
ATOM     14  C   UNL     1       1.718  15.704  24.678  1.00  0.00     0.157 A 
ATOM     15  C   UNL     1       2.220  17.217  26.510  1.00  0.00     0.062 A 
ATOM     16  C   UNL     1       0.377  16.094  24.735  1.00  0.00     0.051 A 
ATOM     17  C   UNL     1      -0.046  17.037  25.674  1.00  0.00     0.016 A 
BRANCH  13  18
ATOM     18  O   UNL     1       3.996  15.864  25.477  1.00  0.00    -0.493 OA
ATOM     19  C   UNL     1       4.511  14.645  26.002  1.00  0.00     0.278 C 
ENDBRANCH  13  18
BRANCH  14  20
ATOM     20  O   UNL     1       2.103  14.757  23.729  1.00  0.00    -0.504 OA
ATOM     21  H   UNL     1       1.843  13.781  23.803  1.00  0.00     0.293 HD
ENDBRANCH  14  20
ENDBRANCH   1  12
BRANCH   2  22
ATOM     22  O   UNL     1       0.372  16.990  29.376  1.00  0.00    -0.502 OA
ATOM     23  H   UNL     1       0.814  16.273  28.814  1.00  0.00     0.293 HD
ENDBRANCH   2  22
BRANCH   6  24
ATOM     24  O   UNL     1      -1.124  21.517  31.453  1.00  0.00    -0.507 OA
ATOM     25  H   UNL     1      -0.358  21.391  32.105  1.00  0.00     0.293 HD
ENDBRANCH   6  24
BRANCH   8  26
ATOM     26  O   UNL     1      -1.125  24.411  27.592  1.00  0.00    -0.508 OA
ATOM     27  H   UNL     1      -1.777  25.065  28.009  1.00  0.00     0.293 HD
ENDBRANCH   8  26
TORSDOF 6
ENDMDL
MODEL 9
REMARK VINA RESULT:    -4.025      1.708      7.363
REMARK INTER + INTRA:          -5.033
REMARK INTER:                  -4.991
REMARK INTRA:                  -0.042
REMARK UNBOUND:                -0.067
REMARK SMILES COc1cc(-c2oc3cc(O)cc(O)c3c(=O)c2O)ccc1O
REMARK SMILES IDX 6 1 18 2 16 3 17 4 15 5 13 6 12 7 10 8 9 9 8 10 7 11 5 12
REMARK SMILES IDX 3 13 22 14 4 15 21 16 20 17 2 18 1 19 23 20 19 22 14 24
REMARK SMILES IDX 11 26
REMARK H PARENT 23 21 19 23 14 25 11 27
REMARK Flexibility Score: inf
ROOT
ATOM      1  C   UNL     1       1.539  16.553  26.680  1.00  0.00     0.180 A 
ATOM      2  C   UNL     1       0.916  15.301  26.847  1.00  0.00     0.208 A 
ATOM      3  C   UNL     1       1.647  14.136  26.560  1.00  0.00     0.238 A 
ATOM      4  O   UNL     1       1.096  13.009  26.697  1.00  0.00    -0.285 OA
ATOM      5  C   UNL     1       2.985  14.241  26.132  1.00  0.00     0.111 A 
ATOM      6  C   UNL     1       3.791  13.118  25.826  1.00  0.00     0.134 A 
ATOM      7  C   UNL     1       5.119  13.305  25.416  1.00  0.00     0.093 A 
ATOM      8  C   UNL     1       5.656  14.589  25.305  1.00  0.00     0.123 A 
ATOM      9  C   UNL     1       4.865  15.703  25.604  1.00  0.00     0.094 A 
ATOM     10  C   UNL     1       3.540  15.538  26.014  1.00  0.00     0.146 A 
ATOM     11  O   UNL     1       2.808  16.613  26.288  1.00  0.00    -0.452 OA
ENDROOT
BRANCH   1  12
ATOM     12  C   UNL     1       0.829  17.824  26.943  1.00  0.00     0.025 A 
ATOM     13  C   UNL     1      -0.468  19.752  26.175  1.00  0.00     0.161 A 
ATOM     14  C   UNL     1      -0.461  20.266  27.485  1.00  0.00     0.157 A 
ATOM     15  C   UNL     1       0.187  18.532  25.911  1.00  0.00     0.062 A 
ATOM     16  C   UNL     1       0.195  19.572  28.504  1.00  0.00     0.051 A 
ATOM     17  C   UNL     1       0.842  18.365  28.237  1.00  0.00     0.016 A 
BRANCH  13  18
ATOM     18  O   UNL     1      -1.125  20.476  25.167  1.00  0.00    -0.493 OA
ATOM     19  C   UNL     1      -0.862  21.838  24.848  1.00  0.00     0.278 C 
ENDBRANCH  13  18
BRANCH  14  20
ATOM     20  O   UNL     1      -1.100  21.468  27.791  1.00  0.00    -0.504 OA
ATOM     21  H   UNL     1      -1.217  21.790  28.743  1.00  0.00     0.293 HD
ENDBRANCH  14  20
ENDBRANCH   1  12
BRANCH   2  22
ATOM     22  O   UNL     1      -0.396  15.222  27.321  1.00  0.00    -0.502 OA
ATOM     23  H   UNL     1      -0.710  15.734  28.136  1.00  0.00     0.293 HD
ENDBRANCH   2  22
BRANCH   6  24
ATOM     24  O   UNL     1       3.284  11.822  25.928  1.00  0.00    -0.507 OA
ATOM     25  H   UNL     1       2.496  11.512  25.371  1.00  0.00     0.293 HD
ENDBRANCH   6  24
BRANCH   8  26
ATOM     26  O   UNL     1       6.978  14.748  24.894  1.00  0.00    -0.508 OA
ATOM     27  H   UNL     1       7.692  15.090  25.527  1.00  0.00     0.293 HD
ENDBRANCH   8  26
TORSDOF 6
ENDMDL
