MODEL 1
REMARK VINA RESULT:    -5.449      0.000      0.000
REMARK INTER + INTRA:          -6.039
REMARK INTER:                  -5.767
REMARK INTRA:                  -0.272
REMARK UNBOUND:                -0.272
REMARK SMILES CC1=CC[C@H]2[C@H]3[C@@H]1[C@]2(C)CC[C@H]3C(C)C
REMARK SMILES IDX 1 1 2 2 3 3 4 4 5 5 6 6 7 7 8 8 10 9 11 10 12 11 9 12 13 13
REMARK SMILES IDX 14 14 15 15
REMARK H PARENT
REMARK Flexibility Score: inf
ROOT
ATOM      1  C   UNL     1      32.209  11.792  26.468  1.00  0.00     0.039 C 
ATOM      2  C   UNL     1      31.826  10.671  27.389  1.00  0.00    -0.073 C 
ATOM      3  C   UNL     1      32.031   9.374  27.042  1.00  0.00    -0.027 C 
ATOM      4  C   UNL     1      31.594   8.273  28.012  1.00  0.00     0.031 C 
ATOM      5  C   UNL     1      30.993   8.897  29.312  1.00  0.00     0.003 C 
ATOM      6  C   UNL     1      31.947  10.031  29.770  1.00  0.00     0.004 C 
ATOM      7  C   UNL     1      31.203  10.936  28.762  1.00  0.00     0.024 C 
ATOM      8  C   UNL     1      29.976  10.022  28.985  1.00  0.00    -0.022 C 
ATOM      9  C   UNL     1      29.229  10.477  30.277  1.00  0.00     0.008 C 
ATOM     10  C   UNL     1      30.120  10.380  31.545  1.00  0.00     0.005 C 
ATOM     11  C   UNL     1      31.641  10.510  31.221  1.00  0.00    -0.005 C 
ATOM     12  C   UNL     1      28.983   9.822  27.816  1.00  0.00     0.012 C 
ENDROOT
BRANCH  11  13
ATOM     13  C   UNL     1      32.581   9.850  32.274  1.00  0.00    -0.014 C 
ATOM     14  C   UNL     1      33.042  10.861  33.333  1.00  0.00     0.007 C 
ATOM     15  C   UNL     1      31.992   8.599  32.949  1.00  0.00     0.007 C 
ENDBRANCH  11  13
TORSDOF 1
ENDMDL
MODEL 2
REMARK VINA RESULT:    -5.411      1.158      2.438
REMARK INTER + INTRA:          -5.999
REMARK INTER:                  -5.579
REMARK INTRA:                  -0.420
REMARK UNBOUND:                -0.272
REMARK SMILES CC1=CC[C@H]2[C@H]3[C@@H]1[C@]2(C)CC[C@H]3C(C)C
REMARK SMILES IDX 1 1 2 2 3 3 4 4 5 5 6 6 7 7 8 8 10 9 11 10 12 11 9 12 13 13
REMARK SMILES IDX 14 14 15 15
REMARK H PARENT
REMARK Flexibility Score: inf
ROOT
ATOM      1  C   UNL     1      31.641   8.490  27.385  1.00  0.00     0.039 C 
ATOM      2  C   UNL     1      31.082   9.285  28.527  1.00  0.00    -0.073 C 
ATOM      3  C   UNL     1      29.753   9.276  28.808  1.00  0.00    -0.027 C 
ATOM      4  C   UNL     1      29.238  10.130  29.970  1.00  0.00     0.031 C 
ATOM      5  C   UNL     1      30.423  10.863  30.677  1.00  0.00     0.003 C 
ATOM      6  C   UNL     1      31.554   9.823  30.891  1.00  0.00     0.004 C 
ATOM      7  C   UNL     1      31.981  10.128  29.437  1.00  0.00     0.024 C 
ATOM      8  C   UNL     1      31.371  11.533  29.649  1.00  0.00    -0.022 C 
ATOM      9  C   UNL     1      32.414  12.438  30.374  1.00  0.00     0.008 C 
ATOM     10  C   UNL     1      32.811  11.887  31.770  1.00  0.00     0.005 C 
ATOM     11  C   UNL     1      32.651  10.337  31.871  1.00  0.00    -0.005 C 
ATOM     12  C   UNL     1      30.762  12.264  28.428  1.00  0.00     0.012 C 
ENDROOT
BRANCH  11  13
ATOM     13  C   UNL     1      32.445   9.806  33.322  1.00  0.00    -0.014 C 
ATOM     14  C   UNL     1      31.853  10.884  34.240  1.00  0.00     0.007 C 
ATOM     15  C   UNL     1      31.614   8.514  33.408  1.00  0.00     0.007 C 
ENDBRANCH  11  13
TORSDOF 1
ENDMDL
MODEL 3
REMARK VINA RESULT:    -5.410      3.086      6.139
REMARK INTER + INTRA:          -5.998
REMARK INTER:                  -5.595
REMARK INTRA:                  -0.403
REMARK UNBOUND:                -0.272
REMARK SMILES CC1=CC[C@H]2[C@H]3[C@@H]1[C@]2(C)CC[C@H]3C(C)C
REMARK SMILES IDX 1 1 2 2 3 3 4 4 5 5 6 6 7 7 8 8 10 9 11 10 12 11 9 12 13 13
REMARK SMILES IDX 14 14 15 15
REMARK H PARENT
REMARK Flexibility Score: inf
ROOT
ATOM      1  C   UNL     1      31.324   6.246  36.766  1.00  0.00     0.039 C 
ATOM      2  C   UNL     1      30.764   7.262  35.815  1.00  0.00    -0.073 C 
ATOM      3  C   UNL     1      29.816   8.150  36.211  1.00  0.00    -0.027 C 
ATOM      4  C   UNL     1      29.261   9.145  35.187  1.00  0.00     0.031 C 
ATOM      5  C   UNL     1      29.967   8.957  33.806  1.00  0.00     0.003 C 
ATOM      6  C   UNL     1      31.492   8.852  34.071  1.00  0.00     0.004 C 
ATOM      7  C   UNL     1      31.242   7.355  34.363  1.00  0.00     0.024 C 
ATOM      8  C   UNL     1      30.037   7.462  33.401  1.00  0.00    -0.022 C 
ATOM      9  C   UNL     1      30.541   7.314  31.932  1.00  0.00     0.008 C 
ATOM     10  C   UNL     1      31.553   8.424  31.537  1.00  0.00     0.005 C 
ATOM     11  C   UNL     1      32.330   8.992  32.765  1.00  0.00    -0.005 C 
ATOM     12  C   UNL     1      28.808   6.556  33.656  1.00  0.00     0.012 C 
ENDROOT
BRANCH  11  13
ATOM     13  C   UNL     1      32.878  10.438  32.566  1.00  0.00    -0.014 C 
ATOM     14  C   UNL     1      32.252  11.115  31.339  1.00  0.00     0.007 C 
ATOM     15  C   UNL     1      32.742  11.340  33.804  1.00  0.00     0.007 C 
ENDBRANCH  11  13
TORSDOF 1
ENDMDL
MODEL 4
REMARK VINA RESULT:    -5.354      1.408      5.054
REMARK INTER + INTRA:          -5.939
REMARK INTER:                  -5.653
REMARK INTRA:                  -0.286
REMARK UNBOUND:                -0.272
REMARK SMILES CC1=CC[C@H]2[C@H]3[C@@H]1[C@]2(C)CC[C@H]3C(C)C
REMARK SMILES IDX 1 1 2 2 3 3 4 4 5 5 6 6 7 7 8 8 10 9 11 10 12 11 9 12 13 13
REMARK SMILES IDX 14 14 15 15
REMARK H PARENT
REMARK Flexibility Score: inf
ROOT
ATOM      1  C   UNL     1      29.198  10.655  34.480  1.00  0.00     0.039 C 
ATOM      2  C   UNL     1      30.308  10.113  33.629  1.00  0.00    -0.073 C 
ATOM      3  C   UNL     1      30.867   8.903  33.887  1.00  0.00    -0.027 C 
ATOM      4  C   UNL     1      32.016   8.415  33.000  1.00  0.00     0.031 C 
ATOM      5  C   UNL     1      32.316   9.455  31.874  1.00  0.00     0.003 C 
ATOM      6  C   UNL     1      30.958   9.881  31.257  1.00  0.00     0.004 C 
ATOM      7  C   UNL     1      30.852  10.889  32.425  1.00  0.00     0.024 C 
ATOM      8  C   UNL     1      32.397  10.897  32.439  1.00  0.00    -0.022 C 
ATOM      9  C   UNL     1      32.913  11.885  31.348  1.00  0.00     0.008 C 
ATOM     10  C   UNL     1      32.461  11.480  29.918  1.00  0.00     0.005 C 
ATOM     11  C   UNL     1      31.135  10.658  29.919  1.00  0.00    -0.005 C 
ATOM     12  C   UNL     1      33.121  11.138  33.786  1.00  0.00     0.012 C 
ENDROOT
BRANCH  11  13
ATOM     13  C   UNL     1      30.948   9.740  28.672  1.00  0.00    -0.014 C 
ATOM     14  C   UNL     1      32.032   9.994  27.616  1.00  0.00     0.007 C 
ATOM     15  C   UNL     1      30.862   8.239  29.001  1.00  0.00     0.007 C 
ENDBRANCH  11  13
TORSDOF 1
ENDMDL
MODEL 5
REMARK VINA RESULT:    -5.345      1.034      4.716
REMARK INTER + INTRA:          -5.929
REMARK INTER:                  -5.675
REMARK INTRA:                  -0.255
REMARK UNBOUND:                -0.272
REMARK SMILES CC1=CC[C@H]2[C@H]3[C@@H]1[C@]2(C)CC[C@H]3C(C)C
REMARK SMILES IDX 1 1 2 2 3 3 4 4 5 5 6 6 7 7 8 8 10 9 11 10 12 11 9 12 13 13
REMARK SMILES IDX 14 14 15 15
REMARK H PARENT
REMARK Flexibility Score: inf
ROOT
ATOM      1  C   UNL     1      32.006   7.760  33.032  1.00  0.00     0.039 C 
ATOM      2  C   UNL     1      32.069   9.075  32.313  1.00  0.00    -0.073 C 
ATOM      3  C   UNL     1      32.992  10.015  32.644  1.00  0.00    -0.027 C 
ATOM      4  C   UNL     1      32.990  11.350  31.893  1.00  0.00     0.031 C 
ATOM      5  C   UNL     1      31.878  11.356  30.795  1.00  0.00     0.003 C 
ATOM      6  C   UNL     1      31.970  10.010  30.030  1.00  0.00     0.004 C 
ATOM      7  C   UNL     1      31.111   9.413  31.167  1.00  0.00     0.024 C 
ATOM      8  C   UNL     1      30.528  10.833  31.350  1.00  0.00    -0.022 C 
ATOM      9  C   UNL     1      29.386  11.053  30.310  1.00  0.00     0.008 C 
ATOM     10  C   UNL     1      29.886  10.940  28.844  1.00  0.00     0.005 C 
ATOM     11  C   UNL     1      31.143  10.024  28.709  1.00  0.00    -0.005 C 
ATOM     12  C   UNL     1      30.076  11.268  32.764  1.00  0.00     0.012 C 
ENDROOT
BRANCH  11  13
ATOM     13  C   UNL     1      32.026  10.326  27.461  1.00  0.00    -0.014 C 
ATOM     14  C   UNL     1      31.446   9.688  26.190  1.00  0.00     0.007 C 
ATOM     15  C   UNL     1      32.303  11.822  27.230  1.00  0.00     0.007 C 
ENDBRANCH  11  13
TORSDOF 1
ENDMDL
MODEL 6
REMARK VINA RESULT:    -5.314      2.621      4.485
REMARK INTER + INTRA:          -5.896
REMARK INTER:                  -5.475
REMARK INTRA:                  -0.421
REMARK UNBOUND:                -0.272
REMARK SMILES CC1=CC[C@H]2[C@H]3[C@@H]1[C@]2(C)CC[C@H]3C(C)C
REMARK SMILES IDX 1 1 2 2 3 3 4 4 5 5 6 6 7 7 8 8 10 9 11 10 12 11 9 12 13 13
REMARK SMILES IDX 14 14 15 15
REMARK H PARENT
REMARK Flexibility Score: inf
ROOT
ATOM      1  C   UNL     1      30.006  12.326  31.704  1.00  0.00     0.039 C 
ATOM      2  C   UNL     1      30.866  11.181  32.152  1.00  0.00    -0.073 C 
ATOM      3  C   UNL     1      32.221  11.264  32.121  1.00  0.00    -0.027 C 
ATOM      4  C   UNL     1      33.046  10.053  32.565  1.00  0.00     0.031 C 
ATOM      5  C   UNL     1      32.107   8.895  33.033  1.00  0.00     0.003 C 
ATOM      6  C   UNL     1      31.032   9.513  33.965  1.00  0.00     0.004 C 
ATOM      7  C   UNL     1      30.260   9.876  32.677  1.00  0.00     0.024 C 
ATOM      8  C   UNL     1      30.952   8.657  32.026  1.00  0.00    -0.022 C 
ATOM      9  C   UNL     1      30.161   7.364  32.394  1.00  0.00     0.008 C 
ATOM     10  C   UNL     1      30.115   7.111  33.926  1.00  0.00     0.005 C 
ATOM     11  C   UNL     1      30.241   8.428  34.754  1.00  0.00    -0.005 C 
ATOM     12  C   UNL     1      31.255   8.704  30.509  1.00  0.00     0.012 C 
ENDROOT
BRANCH  11  13
ATOM     13  C   UNL     1      30.791   8.227  36.199  1.00  0.00    -0.014 C 
ATOM     14  C   UNL     1      31.610   6.933  36.317  1.00  0.00     0.007 C 
ATOM     15  C   UNL     1      31.596   9.421  36.739  1.00  0.00     0.007 C 
ENDBRANCH  11  13
TORSDOF 1
ENDMDL
MODEL 7
REMARK VINA RESULT:    -5.208      2.645      6.300
REMARK INTER + INTRA:          -5.784
REMARK INTER:                  -5.368
REMARK INTRA:                  -0.417
REMARK UNBOUND:                -0.272
REMARK SMILES CC1=CC[C@H]2[C@H]3[C@@H]1[C@]2(C)CC[C@H]3C(C)C
REMARK SMILES IDX 1 1 2 2 3 3 4 4 5 5 6 6 7 7 8 8 10 9 11 10 12 11 9 12 13 13
REMARK SMILES IDX 14 14 15 15
REMARK H PARENT
REMARK Flexibility Score: inf
ROOT
ATOM      1  C   UNL     1      31.233  10.811  37.622  1.00  0.00     0.039 C 
ATOM      2  C   UNL     1      30.703  10.448  36.266  1.00  0.00    -0.073 C 
ATOM      3  C   UNL     1      29.437  10.773  35.895  1.00  0.00    -0.027 C 
ATOM      4  C   UNL     1      28.943  10.351  34.509  1.00  0.00     0.031 C 
ATOM      5  C   UNL     1      30.075   9.613  33.726  1.00  0.00     0.003 C 
ATOM      6  C   UNL     1      31.375  10.445  33.890  1.00  0.00     0.004 C 
ATOM      7  C   UNL     1      31.563   9.710  35.236  1.00  0.00     0.024 C 
ATOM      8  C   UNL     1      30.770   8.542  34.606  1.00  0.00    -0.022 C 
ATOM      9  C   UNL     1      31.739   7.671  33.748  1.00  0.00     0.008 C 
ATOM     10  C   UNL     1      32.389   8.474  32.588  1.00  0.00     0.005 C 
ATOM     11  C   UNL     1      32.490  10.000  32.897  1.00  0.00    -0.005 C 
ATOM     12  C   UNL     1      29.905   7.653  35.532  1.00  0.00     0.012 C 
ENDROOT
BRANCH  11  13
ATOM     13  C   UNL     1      32.553  10.909  31.632  1.00  0.00    -0.014 C 
ATOM     14  C   UNL     1      31.829  10.269  30.439  1.00  0.00     0.007 C 
ATOM     15  C   UNL     1      32.046  12.343  31.860  1.00  0.00     0.007 C 
ENDBRANCH  11  13
TORSDOF 1
ENDMDL
MODEL 8
REMARK VINA RESULT:    -5.200      1.697      3.663
REMARK INTER + INTRA:          -5.775
REMARK INTER:                  -5.545
REMARK INTRA:                  -0.231
REMARK UNBOUND:                -0.272
REMARK SMILES CC1=CC[C@H]2[C@H]3[C@@H]1[C@]2(C)CC[C@H]3C(C)C
REMARK SMILES IDX 1 1 2 2 3 3 4 4 5 5 6 6 7 7 8 8 10 9 11 10 12 11 9 12 13 13
REMARK SMILES IDX 14 14 15 15
REMARK H PARENT
REMARK Flexibility Score: inf
ROOT
ATOM      1  C   UNL     1      30.888   7.649  29.126  1.00  0.00     0.039 C 
ATOM      2  C   UNL     1      30.636   8.803  30.050  1.00  0.00    -0.073 C 
ATOM      3  C   UNL     1      29.489   9.528  29.975  1.00  0.00    -0.027 C 
ATOM      4  C   UNL     1      29.301  10.713  30.927  1.00  0.00     0.031 C 
ATOM      5  C   UNL     1      30.527  10.844  31.886  1.00  0.00     0.003 C 
ATOM      6  C   UNL     1      30.847   9.426  32.430  1.00  0.00     0.004 C 
ATOM      7  C   UNL     1      31.647   9.209  31.126  1.00  0.00     0.024 C 
ATOM      8  C   UNL     1      31.868  10.739  31.113  1.00  0.00    -0.022 C 
ATOM      9  C   UNL     1      33.067  11.091  32.046  1.00  0.00     0.008 C 
ATOM     10  C   UNL     1      32.818  10.668  33.519  1.00  0.00     0.005 C 
ATOM     11  C   UNL     1      31.829   9.467  33.639  1.00  0.00    -0.005 C 
ATOM     12  C   UNL     1      32.005  11.453  29.746  1.00  0.00     0.012 C 
ENDROOT
BRANCH  11  13
ATOM     13  C   UNL     1      31.087   9.379  35.008  1.00  0.00    -0.014 C 
ATOM     14  C   UNL     1      31.244   7.993  35.648  1.00  0.00     0.007 C 
ATOM     15  C   UNL     1      31.481  10.479  36.009  1.00  0.00     0.007 C 
ENDBRANCH  11  13
TORSDOF 1
ENDMDL
MODEL 9
REMARK VINA RESULT:    -5.190      3.715      7.474
REMARK INTER + INTRA:          -5.765
REMARK INTER:                  -5.468
REMARK INTRA:                  -0.297
REMARK UNBOUND:                -0.272
REMARK SMILES CC1=CC[C@H]2[C@H]3[C@@H]1[C@]2(C)CC[C@H]3C(C)C
REMARK SMILES IDX 1 1 2 2 3 3 4 4 5 5 6 6 7 7 8 8 10 9 11 10 12 11 9 12 13 13
REMARK SMILES IDX 14 14 15 15
REMARK H PARENT
REMARK Flexibility Score: inf
ROOT
ATOM      1  C   UNL     1      27.354   7.407  36.434  1.00  0.00     0.039 C 
ATOM      2  C   UNL     1      28.852   7.455  36.401  1.00  0.00    -0.073 C 
ATOM      3  C   UNL     1      29.600   6.388  36.786  1.00  0.00    -0.027 C 
ATOM      4  C   UNL     1      31.126   6.506  36.757  1.00  0.00     0.031 C 
ATOM      5  C   UNL     1      31.555   7.909  36.219  1.00  0.00     0.003 C 
ATOM      6  C   UNL     1      30.708   8.203  34.953  1.00  0.00     0.004 C 
ATOM      7  C   UNL     1      29.608   8.697  35.920  1.00  0.00     0.024 C 
ATOM      8  C   UNL     1      30.752   9.049  36.899  1.00  0.00    -0.022 C 
ATOM      9  C   UNL     1      31.343  10.440  36.515  1.00  0.00     0.008 C 
ATOM     10  C   UNL     1      31.935  10.459  35.079  1.00  0.00     0.005 C 
ATOM     11  C   UNL     1      31.262   9.410  34.139  1.00  0.00    -0.005 C 
ATOM     12  C   UNL     1      30.472   8.969  38.418  1.00  0.00     0.012 C 
ENDROOT
BRANCH  11  13
ATOM     13  C   UNL     1      32.151   8.958  32.941  1.00  0.00    -0.014 C 
ATOM     14  C   UNL     1      31.979   7.462  32.642  1.00  0.00     0.007 C 
ATOM     15  C   UNL     1      31.951   9.786  31.660  1.00  0.00     0.007 C 
ENDBRANCH  11  13
TORSDOF 1
ENDMDL
