MODEL 1
REMARK VINA RESULT:    -4.064      0.000      0.000
REMARK INTER + INTRA:          -4.519
REMARK INTER:                  -4.539
REMARK INTRA:                   0.019
REMARK UNBOUND:                 0.019
REMARK SMILES COc1cc2c(cc1C(C)=O)C=CC(C)(C)O2
REMARK SMILES IDX 8 1 3 2 4 3 5 4 6 5 7 6 12 7 13 8 14 9 17 10 15 11 16 12
REMARK SMILES IDX 9 13 10 14 11 15 2 16 1 17
REMARK H PARENT
REMARK Flexibility Score: inf
ROOT
ATOM      1  C   UNL     1      77.928  29.262  63.300  1.00  0.00     0.060 A 
ATOM      2  C   UNL     1      77.153  28.904  64.431  1.00  0.00     0.133 A 
ATOM      3  C   UNL     1      77.785  28.311  65.544  1.00  0.00     0.094 A 
ATOM      4  C   UNL     1      79.159  28.079  65.539  1.00  0.00     0.131 A 
ATOM      5  C   UNL     1      79.924  28.419  64.422  1.00  0.00     0.017 A 
ATOM      6  C   UNL     1      79.314  29.006  63.309  1.00  0.00     0.027 A 
ATOM      7  C   UNL     1      81.363  28.110  64.430  1.00  0.00     0.012 C 
ATOM      8  C   UNL     1      81.949  27.618  65.524  1.00  0.00     0.021 C 
ATOM      9  C   UNL     1      81.199  27.471  66.838  1.00  0.00     0.122 C 
ATOM     10  O   UNL     1      79.777  27.483  66.644  1.00  0.00    -0.483 OA
ATOM     11  C   UNL     1      81.583  26.141  67.497  1.00  0.00     0.061 C 
ATOM     12  C   UNL     1      81.577  28.639  67.758  1.00  0.00     0.061 C 
ENDROOT
BRANCH   1  13
ATOM     13  C   UNL     1      77.299  29.902  62.109  1.00  0.00     0.163 C 
ATOM     14  C   UNL     1      77.850  31.161  61.508  1.00  0.00     0.093 C 
ATOM     15  O   UNL     1      76.255  29.408  61.602  1.00  0.00    -0.294 OA
ENDBRANCH   1  13
BRANCH   2  16
ATOM     16  O   UNL     1      75.766  29.130  64.419  1.00  0.00    -0.496 OA
ATOM     17  C   UNL     1      74.809  28.358  65.136  1.00  0.00     0.278 C 
ENDBRANCH   2  16
TORSDOF 2
ENDMDL
MODEL 2
REMARK VINA RESULT:    -3.797      3.084      4.772
REMARK INTER + INTRA:          -4.222
REMARK INTER:                  -3.958
REMARK INTRA:                  -0.264
REMARK UNBOUND:                 0.019
REMARK SMILES COc1cc2c(cc1C(C)=O)C=CC(C)(C)O2
REMARK SMILES IDX 8 1 3 2 4 3 5 4 6 5 7 6 12 7 13 8 14 9 17 10 15 11 16 12
REMARK SMILES IDX 9 13 10 14 11 15 2 16 1 17
REMARK H PARENT
REMARK Flexibility Score: inf
ROOT
ATOM      1  C   UNL     1      78.260  27.167  65.993  1.00  0.00     0.060 A 
ATOM      2  C   UNL     1      79.540  27.566  65.534  1.00  0.00     0.133 A 
ATOM      3  C   UNL     1      80.523  26.586  65.284  1.00  0.00     0.094 A 
ATOM      4  C   UNL     1      80.244  25.235  65.483  1.00  0.00     0.131 A 
ATOM      5  C   UNL     1      78.989  24.839  65.946  1.00  0.00     0.017 A 
ATOM      6  C   UNL     1      78.003  25.796  66.202  1.00  0.00     0.027 A 
ATOM      7  C   UNL     1      78.747  23.409  66.197  1.00  0.00     0.012 C 
ATOM      8  C   UNL     1      79.669  22.495  65.881  1.00  0.00     0.021 C 
ATOM      9  C   UNL     1      80.944  22.866  65.143  1.00  0.00     0.122 C 
ATOM     10  O   UNL     1      81.228  24.270  65.240  1.00  0.00    -0.483 OA
ATOM     11  C   UNL     1      82.123  22.094  65.746  1.00  0.00     0.061 C 
ATOM     12  C   UNL     1      80.784  22.501  63.661  1.00  0.00     0.061 C 
ENDROOT
BRANCH   1  13
ATOM     13  C   UNL     1      77.191  28.172  66.257  1.00  0.00     0.163 C 
ATOM     14  C   UNL     1      76.880  28.646  67.645  1.00  0.00     0.093 C 
ATOM     15  O   UNL     1      76.494  28.620  65.305  1.00  0.00    -0.294 OA
ENDBRANCH   1  13
BRANCH   2  16
ATOM     16  O   UNL     1      79.814  28.932  65.350  1.00  0.00    -0.496 OA
ATOM     17  C   UNL     1      80.607  29.728  66.225  1.00  0.00     0.278 C 
ENDBRANCH   2  16
TORSDOF 2
ENDMDL
MODEL 3
REMARK VINA RESULT:    -3.759      2.520      5.880
REMARK INTER + INTRA:          -4.179
REMARK INTER:                  -3.934
REMARK INTRA:                  -0.245
REMARK UNBOUND:                 0.019
REMARK SMILES COc1cc2c(cc1C(C)=O)C=CC(C)(C)O2
REMARK SMILES IDX 8 1 3 2 4 3 5 4 6 5 7 6 12 7 13 8 14 9 17 10 15 11 16 12
REMARK SMILES IDX 9 13 10 14 11 15 2 16 1 17
REMARK H PARENT
REMARK Flexibility Score: inf
ROOT
ATOM      1  C   UNL     1      80.281  25.959  65.683  1.00  0.00     0.060 A 
ATOM      2  C   UNL     1      80.328  27.351  65.415  1.00  0.00     0.133 A 
ATOM      3  C   UNL     1      79.134  28.101  65.436  1.00  0.00     0.094 A 
ATOM      4  C   UNL     1      77.915  27.487  65.720  1.00  0.00     0.131 A 
ATOM      5  C   UNL     1      77.863  26.116  65.973  1.00  0.00     0.017 A 
ATOM      6  C   UNL     1      79.036  25.355  65.953  1.00  0.00     0.027 A 
ATOM      7  C   UNL     1      76.552  25.491  66.215  1.00  0.00     0.012 C 
ATOM      8  C   UNL     1      75.447  26.236  66.304  1.00  0.00     0.021 C 
ATOM      9  C   UNL     1      75.501  27.754  66.285  1.00  0.00     0.122 C 
ATOM     10  O   UNL     1      76.734  28.238  65.731  1.00  0.00    -0.483 OA
ATOM     11  C   UNL     1      74.347  28.294  65.433  1.00  0.00     0.061 C 
ATOM     12  C   UNL     1      75.375  28.274  67.724  1.00  0.00     0.061 C 
ENDROOT
BRANCH   1  13
ATOM     13  C   UNL     1      81.522  25.134  65.682  1.00  0.00     0.163 C 
ATOM     14  C   UNL     1      82.066  24.531  64.422  1.00  0.00     0.093 C 
ATOM     15  O   UNL     1      82.125  24.896  66.764  1.00  0.00    -0.294 OA
ENDBRANCH   1  13
BRANCH   2  16
ATOM     16  O   UNL     1      81.561  27.955  65.116  1.00  0.00    -0.496 OA
ATOM     17  C   UNL     1      82.108  29.072  65.810  1.00  0.00     0.278 C 
ENDBRANCH   2  16
TORSDOF 2
ENDMDL
MODEL 4
REMARK VINA RESULT:    -3.702      3.131      4.509
REMARK INTER + INTRA:          -4.116
REMARK INTER:                  -4.074
REMARK INTRA:                  -0.042
REMARK UNBOUND:                 0.019
REMARK SMILES COc1cc2c(cc1C(C)=O)C=CC(C)(C)O2
REMARK SMILES IDX 8 1 3 2 4 3 5 4 6 5 7 6 12 7 13 8 14 9 17 10 15 11 16 12
REMARK SMILES IDX 9 13 10 14 11 15 2 16 1 17
REMARK H PARENT
REMARK Flexibility Score: inf
ROOT
ATOM      1  C   UNL     1      79.817  27.726  66.294  1.00  0.00     0.060 A 
ATOM      2  C   UNL     1      78.478  27.263  66.283  1.00  0.00     0.133 A 
ATOM      3  C   UNL     1      78.205  25.940  65.878  1.00  0.00     0.094 A 
ATOM      4  C   UNL     1      79.239  25.089  65.491  1.00  0.00     0.131 A 
ATOM      5  C   UNL     1      80.558  25.545  65.489  1.00  0.00     0.017 A 
ATOM      6  C   UNL     1      80.847  26.854  65.886  1.00  0.00     0.027 A 
ATOM      7  C   UNL     1      81.619  24.637  65.023  1.00  0.00     0.012 C 
ATOM      8  C   UNL     1      81.343  23.367  64.716  1.00  0.00     0.021 C 
ATOM      9  C   UNL     1      79.966  22.767  64.948  1.00  0.00     0.122 C 
ATOM     10  O   UNL     1      78.959  23.781  65.083  1.00  0.00    -0.483 OA
ATOM     11  C   UNL     1      79.594  21.875  63.758  1.00  0.00     0.061 C 
ATOM     12  C   UNL     1      79.997  21.934  66.236  1.00  0.00     0.061 C 
ENDROOT
BRANCH   1  13
ATOM     13  C   UNL     1      80.148  29.114  66.728  1.00  0.00     0.163 C 
ATOM     14  C   UNL     1      80.988  30.025  65.884  1.00  0.00     0.093 C 
ATOM     15  O   UNL     1      79.750  29.539  67.847  1.00  0.00    -0.294 OA
ENDBRANCH   1  13
BRANCH   2  16
ATOM     16  O   UNL     1      77.443  28.135  66.662  1.00  0.00    -0.496 OA
ATOM     17  C   UNL     1      76.202  28.271  65.976  1.00  0.00     0.278 C 
ENDBRANCH   2  16
TORSDOF 2
ENDMDL
MODEL 5
REMARK VINA RESULT:    -3.396      2.689      5.619
REMARK INTER + INTRA:          -3.774
REMARK INTER:                  -3.604
REMARK INTRA:                  -0.170
REMARK UNBOUND:                 0.019
REMARK SMILES COc1cc2c(cc1C(C)=O)C=CC(C)(C)O2
REMARK SMILES IDX 8 1 3 2 4 3 5 4 6 5 7 6 12 7 13 8 14 9 17 10 15 11 16 12
REMARK SMILES IDX 9 13 10 14 11 15 2 16 1 17
REMARK H PARENT
REMARK Flexibility Score: inf
ROOT
ATOM      1  C   UNL     1      80.214  28.915  66.733  1.00  0.00     0.060 A 
ATOM      2  C   UNL     1      80.210  28.152  65.538  1.00  0.00     0.133 A 
ATOM      3  C   UNL     1      79.039  27.463  65.161  1.00  0.00     0.094 A 
ATOM      4  C   UNL     1      77.891  27.529  65.950  1.00  0.00     0.131 A 
ATOM      5  C   UNL     1      77.895  28.269  67.133  1.00  0.00     0.017 A 
ATOM      6  C   UNL     1      79.047  28.957  67.524  1.00  0.00     0.027 A 
ATOM      7  C   UNL     1      76.683  28.272  67.968  1.00  0.00     0.012 C 
ATOM      8  C   UNL     1      75.565  27.673  67.551  1.00  0.00     0.021 C 
ATOM      9  C   UNL     1      75.449  27.075  66.159  1.00  0.00     0.122 C 
ATOM     10  O   UNL     1      76.737  26.836  65.572  1.00  0.00    -0.483 OA
ATOM     11  C   UNL     1      74.702  25.739  66.241  1.00  0.00     0.061 C 
ATOM     12  C   UNL     1      74.676  28.051  65.262  1.00  0.00     0.061 C 
ENDROOT
BRANCH   1  13
ATOM     13  C   UNL     1      81.428  29.668  67.160  1.00  0.00     0.163 C 
ATOM     14  C   UNL     1      81.883  30.903  66.441  1.00  0.00     0.093 C 
ATOM     15  O   UNL     1      82.125  29.251  68.125  1.00  0.00    -0.294 OA
ENDBRANCH   1  13
BRANCH   2  16
ATOM     16  O   UNL     1      81.377  28.083  64.759  1.00  0.00    -0.496 OA
ATOM     17  C   UNL     1      82.001  26.875  64.335  1.00  0.00     0.278 C 
ENDBRANCH   2  16
TORSDOF 2
ENDMDL
MODEL 6
REMARK VINA RESULT:    -3.217      2.426      4.079
REMARK INTER + INTRA:          -3.574
REMARK INTER:                  -3.373
REMARK INTRA:                  -0.201
REMARK UNBOUND:                 0.019
REMARK SMILES COc1cc2c(cc1C(C)=O)C=CC(C)(C)O2
REMARK SMILES IDX 8 1 3 2 4 3 5 4 6 5 7 6 12 7 13 8 14 9 17 10 15 11 16 12
REMARK SMILES IDX 9 13 10 14 11 15 2 16 1 17
REMARK H PARENT
REMARK Flexibility Score: inf
ROOT
ATOM      1  C   UNL     1      76.418  26.163  66.267  1.00  0.00     0.060 A 
ATOM      2  C   UNL     1      76.246  27.543  65.989  1.00  0.00     0.133 A 
ATOM      3  C   UNL     1      77.372  28.332  65.675  1.00  0.00     0.094 A 
ATOM      4  C   UNL     1      78.646  27.766  65.635  1.00  0.00     0.131 A 
ATOM      5  C   UNL     1      78.821  26.411  65.920  1.00  0.00     0.017 A 
ATOM      6  C   UNL     1      77.716  25.614  66.235  1.00  0.00     0.027 A 
ATOM      7  C   UNL     1      80.185  25.860  65.921  1.00  0.00     0.012 C 
ATOM      8  C   UNL     1      81.225  26.611  65.548  1.00  0.00     0.021 C 
ATOM      9  C   UNL     1      81.042  28.012  64.990  1.00  0.00     0.122 C 
ATOM     10  O   UNL     1      79.758  28.558  65.330  1.00  0.00    -0.483 OA
ATOM     11  C   UNL     1      82.124  28.934  65.566  1.00  0.00     0.061 C 
ATOM     12  C   UNL     1      81.161  27.958  63.461  1.00  0.00     0.061 C 
ENDROOT
BRANCH   1  13
ATOM     13  C   UNL     1      75.251  25.293  66.591  1.00  0.00     0.163 C 
ATOM     14  C   UNL     1      74.253  24.893  65.546  1.00  0.00     0.093 C 
ATOM     15  O   UNL     1      75.061  24.904  67.775  1.00  0.00    -0.294 OA
ENDBRANCH   1  13
BRANCH   2  16
ATOM     16  O   UNL     1      74.959  28.104  66.046  1.00  0.00    -0.496 OA
ATOM     17  C   UNL     1      74.232  28.588  64.921  1.00  0.00     0.278 C 
ENDBRANCH   2  16
TORSDOF 2
ENDMDL
MODEL 7
REMARK VINA RESULT:    -3.129      4.096      4.671
REMARK INTER + INTRA:          -3.475
REMARK INTER:                  -3.640
REMARK INTRA:                   0.164
REMARK UNBOUND:                 0.019
REMARK SMILES COc1cc2c(cc1C(C)=O)C=CC(C)(C)O2
REMARK SMILES IDX 8 1 3 2 4 3 5 4 6 5 7 6 12 7 13 8 14 9 17 10 15 11 16 12
REMARK SMILES IDX 9 13 10 14 11 15 2 16 1 17
REMARK H PARENT
REMARK Flexibility Score: inf
ROOT
ATOM      1  C   UNL     1      76.396  25.667  66.186  1.00  0.00     0.060 A 
ATOM      2  C   UNL     1      77.076  26.241  67.290  1.00  0.00     0.133 A 
ATOM      3  C   UNL     1      78.414  25.874  67.546  1.00  0.00     0.094 A 
ATOM      4  C   UNL     1      79.068  24.957  66.724  1.00  0.00     0.131 A 
ATOM      5  C   UNL     1      78.398  24.381  65.644  1.00  0.00     0.017 A 
ATOM      6  C   UNL     1      77.071  24.731  65.376  1.00  0.00     0.027 A 
ATOM      7  C   UNL     1      79.102  23.377  64.831  1.00  0.00     0.012 C 
ATOM      8  C   UNL     1      80.391  23.103  65.049  1.00  0.00     0.021 C 
ATOM      9  C   UNL     1      81.218  23.892  66.050  1.00  0.00     0.122 C 
ATOM     10  O   UNL     1      80.392  24.593  66.991  1.00  0.00    -0.483 OA
ATOM     11  C   UNL     1      82.125  22.931  66.829  1.00  0.00     0.061 C 
ATOM     12  C   UNL     1      82.072  24.916  65.291  1.00  0.00     0.061 C 
ENDROOT
BRANCH   1  13
ATOM     13  C   UNL     1      74.986  26.039  65.874  1.00  0.00     0.163 C 
ATOM     14  C   UNL     1      73.954  25.004  65.542  1.00  0.00     0.093 C 
ATOM     15  O   UNL     1      74.642  27.252  65.849  1.00  0.00    -0.294 OA
ENDBRANCH   1  13
BRANCH   2  16
ATOM     16  O   UNL     1      76.401  27.153  68.118  1.00  0.00    -0.496 OA
ATOM     17  C   UNL     1      76.543  28.569  68.055  1.00  0.00     0.278 C 
ENDBRANCH   2  16
TORSDOF 2
ENDMDL
MODEL 8
REMARK VINA RESULT:    -2.964     14.150     16.785
REMARK INTER + INTRA:          -3.292
REMARK INTER:                  -3.402
REMARK INTRA:                   0.110
REMARK UNBOUND:                 0.019
REMARK SMILES COc1cc2c(cc1C(C)=O)C=CC(C)(C)O2
REMARK SMILES IDX 8 1 3 2 4 3 5 4 6 5 7 6 12 7 13 8 14 9 17 10 15 11 16 12
REMARK SMILES IDX 9 13 10 14 11 15 2 16 1 17
REMARK H PARENT
REMARK Flexibility Score: inf
ROOT
ATOM      1  C   UNL     1      74.714  35.308  49.946  1.00  0.00     0.060 A 
ATOM      2  C   UNL     1      75.380  34.655  51.014  1.00  0.00     0.133 A 
ATOM      3  C   UNL     1      76.790  34.623  51.034  1.00  0.00     0.094 A 
ATOM      4  C   UNL     1      77.528  35.228  50.017  1.00  0.00     0.131 A 
ATOM      5  C   UNL     1      76.876  35.861  48.958  1.00  0.00     0.017 A 
ATOM      6  C   UNL     1      75.479  35.901  48.921  1.00  0.00     0.027 A 
ATOM      7  C   UNL     1      77.685  36.441  47.875  1.00  0.00     0.012 C 
ATOM      8  C   UNL     1      79.018  36.463  47.956  1.00  0.00     0.021 C 
ATOM      9  C   UNL     1      79.752  36.011  49.207  1.00  0.00     0.122 C 
ATOM     10  O   UNL     1      78.926  35.184  50.041  1.00  0.00    -0.483 OA
ATOM     11  C   UNL     1      80.991  35.202  48.805  1.00  0.00     0.061 C 
ATOM     12  C   UNL     1      80.174  37.248  50.010  1.00  0.00     0.061 C 
ENDROOT
BRANCH   1  13
ATOM     13  C   UNL     1      73.225  35.375  49.896  1.00  0.00     0.163 C 
ATOM     14  C   UNL     1      72.461  34.998  48.662  1.00  0.00     0.093 C 
ATOM     15  O   UNL     1      72.576  35.790  50.894  1.00  0.00    -0.294 OA
ENDBRANCH   1  13
BRANCH   2  16
ATOM     16  O   UNL     1      74.625  34.038  52.025  1.00  0.00    -0.496 OA
ATOM     17  C   UNL     1      74.353  34.610  53.301  1.00  0.00     0.278 C 
ENDBRANCH   2  16
TORSDOF 2
ENDMDL
MODEL 9
REMARK VINA RESULT:    -2.763      3.315      4.845
REMARK INTER + INTRA:          -3.066
REMARK INTER:                  -2.845
REMARK INTRA:                  -0.221
REMARK UNBOUND:                 0.019
REMARK SMILES COc1cc2c(cc1C(C)=O)C=CC(C)(C)O2
REMARK SMILES IDX 8 1 3 2 4 3 5 4 6 5 7 6 12 7 13 8 14 9 17 10 15 11 16 12
REMARK SMILES IDX 9 13 10 14 11 15 2 16 1 17
REMARK H PARENT
REMARK Flexibility Score: inf
ROOT
ATOM      1  C   UNL     1      79.733  24.511  65.772  1.00  0.00     0.060 A 
ATOM      2  C   UNL     1      78.504  25.217  65.809  1.00  0.00     0.133 A 
ATOM      3  C   UNL     1      78.499  26.579  66.177  1.00  0.00     0.094 A 
ATOM      4  C   UNL     1      79.687  27.231  66.502  1.00  0.00     0.131 A 
ATOM      5  C   UNL     1      80.897  26.536  66.479  1.00  0.00     0.017 A 
ATOM      6  C   UNL     1      80.922  25.185  66.119  1.00  0.00     0.027 A 
ATOM      7  C   UNL     1      82.125  27.241  66.880  1.00  0.00     0.012 C 
ATOM      8  C   UNL     1      82.103  28.549  67.152  1.00  0.00     0.021 C 
ATOM      9  C   UNL     1      80.855  29.389  66.943  1.00  0.00     0.122 C 
ATOM     10  O   UNL     1      79.671  28.579  66.874  1.00  0.00    -0.483 OA
ATOM     11  C   UNL     1      80.699  30.368  68.113  1.00  0.00     0.061 C 
ATOM     12  C   UNL     1      80.993  30.166  65.627  1.00  0.00     0.061 C 
ENDROOT
BRANCH   1  13
ATOM     13  C   UNL     1      79.782  23.075  65.376  1.00  0.00     0.163 C 
ATOM     14  C   UNL     1      80.154  22.653  63.985  1.00  0.00     0.093 C 
ATOM     15  O   UNL     1      79.472  22.178  66.206  1.00  0.00    -0.294 OA
ENDBRANCH   1  13
BRANCH   2  16
ATOM     16  O   UNL     1      77.312  24.545  65.492  1.00  0.00    -0.496 OA
ATOM     17  C   UNL     1      76.007  25.104  65.611  1.00  0.00     0.278 C 
ENDBRANCH   2  16
TORSDOF 2
ENDMDL
