MODEL 1
REMARK VINA RESULT:    -4.978      0.000      0.000
REMARK INTER + INTRA:          -6.058
REMARK INTER:                  -5.996
REMARK INTRA:                  -0.062
REMARK UNBOUND:                -0.062
REMARK SMILES CC[C@H](C)[C@@H]([NH3+])C(=O)[O-]
REMARK SMILES IDX 3 1 4 2 5 3 6 4 7 8 8 9 9 10 2 11 1 12
REMARK H PARENT 6 5 6 6 6 7
REMARK Flexibility Score: inf
ROOT
ATOM      1  C   UNL     1     -19.039  12.810 -13.693  1.00  0.00     0.050 C 
ATOM      2  C   UNL     1     -19.424  12.298 -12.292  1.00  0.00     0.014 C 
ENDROOT
BRANCH   1   3
ATOM      3  C   UNL     1     -17.653  13.533 -13.715  1.00  0.00     0.230 C 
BRANCH   3   4
ATOM      4  N   UNL     1     -17.291  14.125 -12.418  1.00  0.00    -0.350 N 
ATOM      5  H   UNL     1     -17.718  15.070 -12.296  1.00  0.00     0.345 HD
ATOM      6  H   UNL     1     -16.253  14.196 -12.327  1.00  0.00     0.345 HD
ATOM      7  H   UNL     1     -17.629  13.505 -11.645  1.00  0.00     0.345 HD
ENDBRANCH   3   4
BRANCH   3   8
ATOM      8  C   UNL     1     -16.565  12.604 -14.201  1.00  0.00     0.099 C 
ATOM      9  O   UNL     1     -16.628  12.118 -15.361  1.00  0.00    -0.544 OA
ATOM     10  O   UNL     1     -15.515  12.242 -13.366  1.00  0.00    -0.544 OA
ENDBRANCH   3   8
ENDBRANCH   1   3
BRANCH   1  11
ATOM     11  C   UNL     1     -20.198  13.665 -14.262  1.00  0.00     0.006 C 
ATOM     12  C   UNL     1     -21.580  13.208 -13.794  1.00  0.00     0.004 C 
ENDBRANCH   1  11
TORSDOF 4
ENDMDL
MODEL 2
REMARK VINA RESULT:    -4.624     18.928     19.766
REMARK INTER + INTRA:          -5.632
REMARK INTER:                  -5.552
REMARK INTRA:                  -0.080
REMARK UNBOUND:                -0.062
REMARK SMILES CC[C@H](C)[C@@H]([NH3+])C(=O)[O-]
REMARK SMILES IDX 3 1 4 2 5 3 6 4 7 8 8 9 9 10 2 11 1 12
REMARK H PARENT 6 5 6 6 6 7
REMARK Flexibility Score: inf
ROOT
ATOM      1  C   UNL     1     -13.224  -4.486 -22.643  1.00  0.00     0.050 C 
ATOM      2  C   UNL     1     -14.737  -4.562 -22.923  1.00  0.00     0.014 C 
ENDROOT
BRANCH   1   3
ATOM      3  C   UNL     1     -12.869  -3.498 -21.485  1.00  0.00     0.230 C 
BRANCH   3   4
ATOM      4  N   UNL     1     -13.965  -3.328 -20.518  1.00  0.00    -0.350 N 
ATOM      5  H   UNL     1     -14.813  -3.869 -20.801  1.00  0.00     0.345 HD
ATOM      6  H   UNL     1     -14.211  -2.318 -20.420  1.00  0.00     0.345 HD
ATOM      7  H   UNL     1     -13.655  -3.665 -19.577  1.00  0.00     0.345 HD
ENDBRANCH   3   4
BRANCH   3   8
ATOM      8  C   UNL     1     -11.599  -3.919 -20.785  1.00  0.00     0.099 C 
ATOM      9  O   UNL     1     -11.327  -5.142 -20.660  1.00  0.00    -0.544 OA
ATOM     10  O   UNL     1     -10.744  -2.971 -20.234  1.00  0.00    -0.544 OA
ENDBRANCH   3   8
ENDBRANCH   1   3
BRANCH   1  11
ATOM     11  C   UNL     1     -12.472  -4.194 -23.965  1.00  0.00     0.006 C 
ATOM     12  C   UNL     1     -13.157  -3.140 -24.837  1.00  0.00     0.004 C 
ENDBRANCH   1  11
TORSDOF 4
ENDMDL
MODEL 3
REMARK VINA RESULT:    -4.454      2.694      3.880
REMARK INTER + INTRA:          -5.428
REMARK INTER:                  -5.354
REMARK INTRA:                  -0.074
REMARK UNBOUND:                -0.062
REMARK SMILES CC[C@H](C)[C@@H]([NH3+])C(=O)[O-]
REMARK SMILES IDX 3 1 4 2 5 3 6 4 7 8 8 9 9 10 2 11 1 12
REMARK H PARENT 6 5 6 6 6 7
REMARK Flexibility Score: inf
ROOT
ATOM      1  C   UNL     1     -17.991  13.345 -13.640  1.00  0.00     0.050 C 
ATOM      2  C   UNL     1     -16.666  13.921 -13.105  1.00  0.00     0.014 C 
ENDROOT
BRANCH   1   3
ATOM      3  C   UNL     1     -18.959  12.886 -12.501  1.00  0.00     0.230 C 
BRANCH   3   4
ATOM      4  N   UNL     1     -18.843  13.705 -11.284  1.00  0.00    -0.350 N 
ATOM      5  H   UNL     1     -17.857  14.006 -11.117  1.00  0.00     0.345 HD
ATOM      6  H   UNL     1     -19.192  13.174 -10.454  1.00  0.00     0.345 HD
ATOM      7  H   UNL     1     -19.440  14.559 -11.380  1.00  0.00     0.345 HD
ENDBRANCH   3   4
BRANCH   3   8
ATOM      8  C   UNL     1     -20.389  12.850 -12.987  1.00  0.00     0.099 C 
ATOM      9  O   UNL     1     -21.166  11.947 -12.581  1.00  0.00    -0.544 OA
ATOM     10  O   UNL     1     -20.847  13.778 -13.915  1.00  0.00    -0.544 OA
ENDBRANCH   3   8
ENDBRANCH   1   3
BRANCH   1  11
ATOM     11  C   UNL     1     -17.686  12.240 -14.682  1.00  0.00     0.006 C 
ATOM     12  C   UNL     1     -16.204  12.134 -15.043  1.00  0.00     0.004 C 
ENDBRANCH   1  11
TORSDOF 4
ENDMDL
MODEL 4
REMARK VINA RESULT:    -4.374      2.994      3.976
REMARK INTER + INTRA:          -5.331
REMARK INTER:                  -5.309
REMARK INTRA:                  -0.022
REMARK UNBOUND:                -0.062
REMARK SMILES CC[C@H](C)[C@@H]([NH3+])C(=O)[O-]
REMARK SMILES IDX 3 1 4 2 5 3 6 4 7 8 8 9 9 10 2 11 1 12
REMARK H PARENT 6 5 6 6 6 7
REMARK Flexibility Score: inf
ROOT
ATOM      1  C   UNL     1     -18.387  13.805 -12.912  1.00  0.00     0.050 C 
ATOM      2  C   UNL     1     -18.390  13.228 -11.484  1.00  0.00     0.014 C 
ENDROOT
BRANCH   1   3
ATOM      3  C   UNL     1     -19.195  12.929 -13.924  1.00  0.00     0.230 C 
BRANCH   3   4
ATOM      4  N   UNL     1     -18.827  11.506 -13.874  1.00  0.00    -0.350 N 
ATOM      5  H   UNL     1     -18.433  11.244 -12.942  1.00  0.00     0.345 HD
ATOM      6  H   UNL     1     -18.131  11.282 -14.622  1.00  0.00     0.345 HD
ATOM      7  H   UNL     1     -19.675  10.919 -14.053  1.00  0.00     0.345 HD
ENDBRANCH   3   4
BRANCH   3   8
ATOM      8  C   UNL     1     -20.682  13.104 -13.725  1.00  0.00     0.099 C 
ATOM      9  O   UNL     1     -21.268  14.102 -14.221  1.00  0.00    -0.544 OA
ATOM     10  O   UNL     1     -21.407  12.198 -12.960  1.00  0.00    -0.544 OA
ENDBRANCH   3   8
ENDBRANCH   1   3
BRANCH   1  11
ATOM     11  C   UNL     1     -16.927  14.080 -13.351  1.00  0.00     0.006 C 
ATOM     12  C   UNL     1     -15.934  13.028 -12.858  1.00  0.00     0.004 C 
ENDBRANCH   1  11
TORSDOF 4
ENDMDL
MODEL 5
REMARK VINA RESULT:    -4.355     19.614     20.150
REMARK INTER + INTRA:          -5.308
REMARK INTER:                  -5.160
REMARK INTRA:                  -0.149
REMARK UNBOUND:                -0.062
REMARK SMILES CC[C@H](C)[C@@H]([NH3+])C(=O)[O-]
REMARK SMILES IDX 3 1 4 2 5 3 6 4 7 8 8 9 9 10 2 11 1 12
REMARK H PARENT 6 5 6 6 6 7
REMARK Flexibility Score: inf
ROOT
ATOM      1  C   UNL     1     -14.204  -3.696 -23.588  1.00  0.00     0.050 C 
ATOM      2  C   UNL     1     -13.581  -3.144 -24.884  1.00  0.00     0.014 C 
ENDROOT
BRANCH   1   3
ATOM      3  C   UNL     1     -13.235  -4.636 -22.800  1.00  0.00     0.230 C 
BRANCH   3   4
ATOM      4  N   UNL     1     -12.077  -5.067 -23.598  1.00  0.00    -0.350 N 
ATOM      5  H   UNL     1     -11.276  -5.350 -22.989  1.00  0.00     0.345 HD
ATOM      6  H   UNL     1     -11.772  -4.303 -24.242  1.00  0.00     0.345 HD
ATOM      7  H   UNL     1     -12.347  -5.886 -24.191  1.00  0.00     0.345 HD
ENDBRANCH   3   4
BRANCH   3   8
ATOM      8  C   UNL     1     -12.785  -3.990 -21.511  1.00  0.00     0.099 C 
ATOM      9  O   UNL     1     -13.601  -3.317 -20.828  1.00  0.00    -0.544 OA
ATOM     10  O   UNL     1     -11.464  -4.091 -21.089  1.00  0.00    -0.544 OA
ENDBRANCH   3   8
ENDBRANCH   1   3
BRANCH   1  11
ATOM     11  C   UNL     1     -15.573  -4.344 -23.914  1.00  0.00     0.006 C 
ATOM     12  C   UNL     1     -15.844  -5.626 -23.127  1.00  0.00     0.004 C 
ENDBRANCH   1  11
TORSDOF 4
ENDMDL
MODEL 6
REMARK VINA RESULT:    -4.243     18.827     19.650
REMARK INTER + INTRA:          -5.173
REMARK INTER:                  -5.099
REMARK INTRA:                  -0.073
REMARK UNBOUND:                -0.062
REMARK SMILES CC[C@H](C)[C@@H]([NH3+])C(=O)[O-]
REMARK SMILES IDX 3 1 4 2 5 3 6 4 7 8 8 9 9 10 2 11 1 12
REMARK H PARENT 6 5 6 6 6 7
REMARK Flexibility Score: inf
ROOT
ATOM      1  C   UNL     1     -13.079  -3.761 -22.451  1.00  0.00     0.050 C 
ATOM      2  C   UNL     1     -12.431  -4.306 -23.738  1.00  0.00     0.014 C 
ENDROOT
BRANCH   1   3
ATOM      3  C   UNL     1     -12.489  -4.404 -21.154  1.00  0.00     0.230 C 
BRANCH   3   4
ATOM      4  N   UNL     1     -11.344  -5.288 -21.420  1.00  0.00    -0.350 N 
ATOM      5  H   UNL     1     -11.426  -5.752 -22.353  1.00  0.00     0.345 HD
ATOM      6  H   UNL     1     -11.264  -6.016 -20.674  1.00  0.00     0.345 HD
ATOM      7  H   UNL     1     -10.459  -4.729 -21.405  1.00  0.00     0.345 HD
ENDBRANCH   3   4
BRANCH   3   8
ATOM      8  C   UNL     1     -12.121  -3.344 -20.143  1.00  0.00     0.099 C 
ATOM      9  O   UNL     1     -10.992  -2.789 -20.198  1.00  0.00    -0.544 OA
ATOM     10  O   UNL     1     -12.999  -3.003 -19.120  1.00  0.00    -0.544 OA
ENDBRANCH   3   8
ENDBRANCH   1   3
BRANCH   1  11
ATOM     11  C   UNL     1     -14.619  -3.882 -22.562  1.00  0.00     0.006 C 
ATOM     12  C   UNL     1     -15.085  -5.199 -23.183  1.00  0.00     0.004 C 
ENDBRANCH   1  11
TORSDOF 4
ENDMDL
MODEL 7
REMARK VINA RESULT:    -3.986      2.841      4.036
REMARK INTER + INTRA:          -4.863
REMARK INTER:                  -4.810
REMARK INTRA:                  -0.053
REMARK UNBOUND:                -0.062
REMARK SMILES CC[C@H](C)[C@@H]([NH3+])C(=O)[O-]
REMARK SMILES IDX 3 1 4 2 5 3 6 4 7 8 8 9 9 10 2 11 1 12
REMARK H PARENT 6 5 6 6 6 7
REMARK Flexibility Score: inf
ROOT
ATOM      1  C   UNL     1     -17.862  12.511 -13.502  1.00  0.00     0.050 C 
ATOM      2  C   UNL     1     -17.760  11.993 -14.949  1.00  0.00     0.014 C 
ENDROOT
BRANCH   1   3
ATOM      3  C   UNL     1     -19.220  13.224 -13.205  1.00  0.00     0.230 C 
BRANCH   3   4
ATOM      4  N   UNL     1     -19.921  13.657 -14.424  1.00  0.00    -0.350 N 
ATOM      5  H   UNL     1     -20.399  14.575 -14.285  1.00  0.00     0.345 HD
ATOM      6  H   UNL     1     -20.623  12.939 -14.715  1.00  0.00     0.345 HD
ATOM      7  H   UNL     1     -19.233  13.755 -15.206  1.00  0.00     0.345 HD
ENDBRANCH   3   4
BRANCH   3   8
ATOM      8  C   UNL     1     -20.115  12.354 -12.354  1.00  0.00     0.099 C 
ATOM      9  O   UNL     1     -21.260  12.034 -12.771  1.00  0.00    -0.544 OA
ATOM     10  O   UNL     1     -19.708  11.936 -11.092  1.00  0.00    -0.544 OA
ENDBRANCH   3   8
ENDBRANCH   1   3
BRANCH   1  11
ATOM     11  C   UNL     1     -16.618  13.376 -13.179  1.00  0.00     0.006 C 
ATOM     12  C   UNL     1     -15.317  12.576 -13.119  1.00  0.00     0.004 C 
ENDBRANCH   1  11
TORSDOF 4
ENDMDL
MODEL 8
REMARK VINA RESULT:    -3.951     18.940     19.896
REMARK INTER + INTRA:          -4.821
REMARK INTER:                  -4.823
REMARK INTRA:                   0.002
REMARK UNBOUND:                -0.062
REMARK SMILES CC[C@H](C)[C@@H]([NH3+])C(=O)[O-]
REMARK SMILES IDX 3 1 4 2 5 3 6 4 7 8 8 9 9 10 2 11 1 12
REMARK H PARENT 6 5 6 6 6 7
REMARK Flexibility Score: inf
ROOT
ATOM      1  C   UNL     1     -13.015  -4.204 -21.534  1.00  0.00     0.050 C 
ATOM      2  C   UNL     1     -11.553  -4.249 -21.051  1.00  0.00     0.014 C 
ENDROOT
BRANCH   1   3
ATOM      3  C   UNL     1     -13.140  -3.987 -23.077  1.00  0.00     0.230 C 
BRANCH   3   4
ATOM      4  N   UNL     1     -12.207  -4.819 -23.852  1.00  0.00    -0.350 N 
ATOM      5  H   UNL     1     -12.444  -5.834 -23.775  1.00  0.00     0.345 HD
ATOM      6  H   UNL     1     -11.225  -4.664 -23.529  1.00  0.00     0.345 HD
ATOM      7  H   UNL     1     -12.249  -4.544 -24.861  1.00  0.00     0.345 HD
ENDBRANCH   3   4
BRANCH   3   8
ATOM      8  C   UNL     1     -14.561  -4.204 -23.541  1.00  0.00     0.099 C 
ATOM      9  O   UNL     1     -15.277  -5.076 -22.982  1.00  0.00    -0.544 OA
ATOM     10  O   UNL     1     -15.077  -3.483 -24.611  1.00  0.00    -0.544 OA
ENDBRANCH   3   8
ENDBRANCH   1   3
BRANCH   1  11
ATOM     11  C   UNL     1     -13.801  -3.169 -20.692  1.00  0.00     0.006 C 
ATOM     12  C   UNL     1     -13.383  -3.133 -19.222  1.00  0.00     0.004 C 
ENDBRANCH   1  11
TORSDOF 4
ENDMDL
