MODEL 1
REMARK VINA RESULT:    -4.557      0.000      0.000
REMARK INTER + INTRA:         -17.397
REMARK INTER:                 -12.016
REMARK INTRA:                  -5.380
REMARK UNBOUND:                -5.380
REMARK SMILES CCCCCCCCCCCCCCCCCCCCCCCCCCCCCC(=O)[O-]
REMARK SMILES IDX 16 1 17 2 18 3 19 4 20 5 21 6 22 7 23 8 24 9 25 10 26 11
REMARK SMILES IDX 27 12 28 13 29 14 30 15 31 16 32 17 15 18 14 19 13 20 12 21
REMARK SMILES IDX 11 22 10 23 9 24 8 25 7 26 6 27 5 28 4 29 3 30 2 31 1 32
REMARK H PARENT
REMARK Flexibility Score: inf
ROOT
ATOM      1  C   UNL     1       7.746   5.540  19.327  1.00  0.00     0.000 C 
ENDROOT
BRANCH   1   2
ATOM      2  C   UNL     1       7.622   4.021  19.528  1.00  0.00     0.000 C 
BRANCH   2   3
ATOM      3  C   UNL     1       6.209   3.492  19.227  1.00  0.00     0.000 C 
BRANCH   3   4
ATOM      4  C   UNL     1       5.689   2.417  20.204  1.00  0.00     0.000 C 
BRANCH   4   5
ATOM      5  C   UNL     1       5.410   2.943  21.629  1.00  0.00     0.000 C 
BRANCH   5   6
ATOM      6  C   UNL     1       4.390   4.095  21.638  1.00  0.00     0.000 C 
BRANCH   6   7
ATOM      7  C   UNL     1       5.040   5.454  21.958  1.00  0.00     0.000 C 
BRANCH   7   8
ATOM      8  C   UNL     1       5.824   5.473  23.284  1.00  0.00     0.000 C 
BRANCH   8   9
ATOM      9  C   UNL     1       7.312   5.811  23.080  1.00  0.00     0.000 C 
BRANCH   9  10
ATOM     10  C   UNL     1       7.593   7.326  23.176  1.00  0.00     0.000 C 
BRANCH  10  11
ATOM     11  C   UNL     1       8.120   7.945  21.867  1.00  0.00     0.000 C 
BRANCH  11  12
ATOM     12  C   UNL     1       7.327   9.165  21.366  1.00  0.00     0.000 C 
BRANCH  12  13
ATOM     13  C   UNL     1       7.767  10.475  22.037  1.00  0.00     0.006 C 
BRANCH  13  14
ATOM     14  C   UNL     1       6.555  11.314  22.459  1.00  0.00     0.053 C 
BRANCH  14  15
ATOM     15  C   UNL     1       5.785  10.632  23.548  1.00  0.00     0.041 C 
ATOM     16  O   UNL     1       4.613  10.216  23.334  1.00  0.00    -0.550 OA
ATOM     17  O   UNL     1       6.372  10.421  24.789  1.00  0.00    -0.550 OA
ENDBRANCH  14  15
ENDBRANCH  13  14
ENDBRANCH  12  13
ENDBRANCH  11  12
ENDBRANCH  10  11
ENDBRANCH   9  10
ENDBRANCH   8   9
ENDBRANCH   7   8
ENDBRANCH   6   7
ENDBRANCH   5   6
ENDBRANCH   4   5
ENDBRANCH   3   4
ENDBRANCH   2   3
ENDBRANCH   1   2
BRANCH   1  18
ATOM     18  C   UNL     1       6.406   6.205  18.970  1.00  0.00     0.000 C 
BRANCH  18  19
ATOM     19  C   UNL     1       6.550   7.506  18.152  1.00  0.00     0.000 C 
BRANCH  19  20
ATOM     20  C   UNL     1       6.447   7.263  16.636  1.00  0.00     0.000 C 
BRANCH  20  21
ATOM     21  C   UNL     1       5.631   6.001  16.301  1.00  0.00     0.000 C 
BRANCH  21  22
ATOM     22  C   UNL     1       6.435   5.000  15.456  1.00  0.00     0.000 C 
BRANCH  22  23
ATOM     23  C   UNL     1       7.926   5.360  15.439  1.00  0.00     0.000 C 
BRANCH  23  24
ATOM     24  C   UNL     1       8.766   4.221  16.033  1.00  0.00    -0.000 C 
BRANCH  24  25
ATOM     25  C   UNL     1      10.219   4.634  16.330  1.00  0.00    -0.000 C 
BRANCH  25  26
ATOM     26  C   UNL     1      10.494   6.148  16.260  1.00  0.00    -0.000 C 
BRANCH  26  27
ATOM     27  C   UNL     1      11.765   6.491  15.467  1.00  0.00    -0.000 C 
BRANCH  27  28
ATOM     28  C   UNL     1      11.627   6.080  13.997  1.00  0.00    -0.000 C 
BRANCH  28  29
ATOM     29  C   UNL     1      10.469   6.830  13.324  1.00  0.00    -0.000 C 
BRANCH  29  30
ATOM     30  C   UNL     1       9.866   6.059  12.136  1.00  0.00    -0.000 C 
BRANCH  30  31
ATOM     31  C   UNL     1       9.784   4.535  12.331  1.00  0.00    -0.003 C 
ATOM     32  C   UNL     1       8.384   3.974  12.076  1.00  0.00     0.004 C 
ENDBRANCH  30  31
ENDBRANCH  29  30
ENDBRANCH  28  29
ENDBRANCH  27  28
ENDBRANCH  26  27
ENDBRANCH  25  26
ENDBRANCH  24  25
ENDBRANCH  23  24
ENDBRANCH  22  23
ENDBRANCH  21  22
ENDBRANCH  20  21
ENDBRANCH  19  20
ENDBRANCH  18  19
ENDBRANCH   1  18
TORSDOF 28
ENDMDL
MODEL 2
REMARK VINA RESULT:    -4.509      1.076      2.289
REMARK INTER + INTRA:         -17.270
REMARK INTER:                 -12.484
REMARK INTRA:                  -4.786
REMARK UNBOUND:                -5.380
REMARK SMILES CCCCCCCCCCCCCCCCCCCCCCCCCCCCCC(=O)[O-]
REMARK SMILES IDX 16 1 17 2 18 3 19 4 20 5 21 6 22 7 23 8 24 9 25 10 26 11
REMARK SMILES IDX 27 12 28 13 29 14 30 15 31 16 32 17 15 18 14 19 13 20 12 21
REMARK SMILES IDX 11 22 10 23 9 24 8 25 7 26 6 27 5 28 4 29 3 30 2 31 1 32
REMARK H PARENT
REMARK Flexibility Score: inf
ROOT
ATOM      1  C   UNL     1       6.565   6.985  18.463  1.00  0.00     0.000 C 
ENDROOT
BRANCH   1   2
ATOM      2  C   UNL     1       6.313   5.563  18.989  1.00  0.00     0.000 C 
BRANCH   2   3
ATOM      3  C   UNL     1       7.611   4.819  19.346  1.00  0.00     0.000 C 
BRANCH   3   4
ATOM      4  C   UNL     1       7.450   3.308  19.610  1.00  0.00     0.000 C 
BRANCH   4   5
ATOM      5  C   UNL     1       5.983   2.838  19.706  1.00  0.00     0.000 C 
BRANCH   5   6
ATOM      6  C   UNL     1       5.504   2.712  21.163  1.00  0.00     0.000 C 
BRANCH   6   7
ATOM      7  C   UNL     1       4.414   3.741  21.516  1.00  0.00     0.000 C 
BRANCH   7   8
ATOM      8  C   UNL     1       4.762   4.627  22.727  1.00  0.00     0.000 C 
BRANCH   8   9
ATOM      9  C   UNL     1       6.233   5.082  22.718  1.00  0.00     0.000 C 
BRANCH   9  10
ATOM     10  C   UNL     1       6.399   6.556  23.144  1.00  0.00     0.000 C 
BRANCH  10  11
ATOM     11  C   UNL     1       7.031   7.450  22.060  1.00  0.00     0.000 C 
BRANCH  11  12
ATOM     12  C   UNL     1       6.488   8.889  22.013  1.00  0.00     0.000 C 
BRANCH  12  13
ATOM     13  C   UNL     1       7.601   9.938  21.858  1.00  0.00     0.006 C 
BRANCH  13  14
ATOM     14  C   UNL     1       7.457  11.054  22.900  1.00  0.00     0.053 C 
BRANCH  14  15
ATOM     15  C   UNL     1       6.140  11.752  22.757  1.00  0.00     0.041 C 
ATOM     16  O   UNL     1       5.180  11.463  23.522  1.00  0.00    -0.550 OA
ATOM     17  O   UNL     1       5.979  12.749  21.803  1.00  0.00    -0.550 OA
ENDBRANCH  14  15
ENDBRANCH  13  14
ENDBRANCH  12  13
ENDBRANCH  11  12
ENDBRANCH  10  11
ENDBRANCH   9  10
ENDBRANCH   8   9
ENDBRANCH   7   8
ENDBRANCH   6   7
ENDBRANCH   5   6
ENDBRANCH   4   5
ENDBRANCH   3   4
ENDBRANCH   2   3
ENDBRANCH   1   2
BRANCH   1  18
ATOM     18  C   UNL     1       6.395   7.095  16.938  1.00  0.00     0.000 C 
BRANCH  18  19
ATOM     19  C   UNL     1       5.735   5.860  16.289  1.00  0.00     0.000 C 
BRANCH  19  20
ATOM     20  C   UNL     1       6.737   5.011  15.488  1.00  0.00     0.000 C 
BRANCH  20  21
ATOM     21  C   UNL     1       8.129   5.664  15.414  1.00  0.00     0.000 C 
BRANCH  21  22
ATOM     22  C   UNL     1       9.211   4.799  16.080  1.00  0.00     0.000 C 
BRANCH  22  23
ATOM     23  C   UNL     1      10.288   5.669  16.742  1.00  0.00     0.000 C 
BRANCH  23  24
ATOM     24  C   UNL     1      11.027   6.511  15.692  1.00  0.00    -0.000 C 
BRANCH  24  25
ATOM     25  C   UNL     1      11.981   5.679  14.815  1.00  0.00    -0.000 C 
BRANCH  25  26
ATOM     26  C   UNL     1      11.738   5.793  13.298  1.00  0.00    -0.000 C 
BRANCH  26  27
ATOM     27  C   UNL     1      10.616   6.782  12.943  1.00  0.00    -0.000 C 
BRANCH  27  28
ATOM     28  C   UNL     1       9.519   6.100  12.119  1.00  0.00    -0.000 C 
BRANCH  28  29
ATOM     29  C   UNL     1       9.765   4.588  12.021  1.00  0.00    -0.000 C 
BRANCH  29  30
ATOM     30  C   UNL     1       8.463   3.770  11.979  1.00  0.00    -0.000 C 
BRANCH  30  31
ATOM     31  C   UNL     1       8.326   2.718  13.093  1.00  0.00    -0.003 C 
ATOM     32  C   UNL     1       9.671   2.160  13.559  1.00  0.00     0.004 C 
ENDBRANCH  30  31
ENDBRANCH  29  30
ENDBRANCH  28  29
ENDBRANCH  27  28
ENDBRANCH  26  27
ENDBRANCH  25  26
ENDBRANCH  24  25
ENDBRANCH  23  24
ENDBRANCH  22  23
ENDBRANCH  21  22
ENDBRANCH  20  21
ENDBRANCH  19  20
ENDBRANCH  18  19
ENDBRANCH   1  18
TORSDOF 28
ENDMDL
MODEL 3
REMARK VINA RESULT:    -4.260      1.310      3.372
REMARK INTER + INTRA:         -16.613
REMARK INTER:                 -11.846
REMARK INTRA:                  -4.767
REMARK UNBOUND:                -5.380
REMARK SMILES CCCCCCCCCCCCCCCCCCCCCCCCCCCCCC(=O)[O-]
REMARK SMILES IDX 16 1 17 2 18 3 19 4 20 5 21 6 22 7 23 8 24 9 25 10 26 11
REMARK SMILES IDX 27 12 28 13 29 14 30 15 31 16 32 17 15 18 14 19 13 20 12 21
REMARK SMILES IDX 11 22 10 23 9 24 8 25 7 26 6 27 5 28 4 29 3 30 2 31 1 32
REMARK H PARENT
REMARK Flexibility Score: inf
ROOT
ATOM      1  C   UNL     1       6.078   3.661  19.252  1.00  0.00     0.000 C 
ENDROOT
BRANCH   1   2
ATOM      2  C   UNL     1       6.152   2.424  20.161  1.00  0.00     0.000 C 
BRANCH   2   3
ATOM      3  C   UNL     1       5.363   2.598  21.470  1.00  0.00     0.000 C 
BRANCH   3   4
ATOM      4  C   UNL     1       4.495   3.871  21.550  1.00  0.00     0.000 C 
BRANCH   4   5
ATOM      5  C   UNL     1       4.915   4.851  22.666  1.00  0.00     0.000 C 
BRANCH   5   6
ATOM      6  C   UNL     1       6.139   4.350  23.453  1.00  0.00     0.000 C 
BRANCH   6   7
ATOM      7  C   UNL     1       7.316   5.342  23.404  1.00  0.00     0.000 C 
BRANCH   7   8
ATOM      8  C   UNL     1       8.308   5.076  22.256  1.00  0.00     0.000 C 
BRANCH   8   9
ATOM      9  C   UNL     1       8.565   6.330  21.401  1.00  0.00     0.000 C 
BRANCH   9  10
ATOM     10  C   UNL     1       7.276   6.878  20.752  1.00  0.00     0.000 C 
BRANCH  10  11
ATOM     11  C   UNL     1       6.959   8.337  21.132  1.00  0.00     0.000 C 
BRANCH  11  12
ATOM     12  C   UNL     1       5.855   8.502  22.191  1.00  0.00     0.000 C 
BRANCH  12  13
ATOM     13  C   UNL     1       6.215   9.540  23.266  1.00  0.00     0.006 C 
BRANCH  13  14
ATOM     14  C   UNL     1       6.679  10.855  22.630  1.00  0.00     0.053 C 
BRANCH  14  15
ATOM     15  C   UNL     1       5.675  11.943  22.856  1.00  0.00     0.041 C 
ATOM     16  O   UNL     1       5.803  13.058  22.281  1.00  0.00    -0.550 OA
ATOM     17  O   UNL     1       4.575  11.716  23.674  1.00  0.00    -0.550 OA
ENDBRANCH  14  15
ENDBRANCH  13  14
ENDBRANCH  12  13
ENDBRANCH  11  12
ENDBRANCH  10  11
ENDBRANCH   9  10
ENDBRANCH   8   9
ENDBRANCH   7   8
ENDBRANCH   6   7
ENDBRANCH   5   6
ENDBRANCH   4   5
ENDBRANCH   3   4
ENDBRANCH   2   3
ENDBRANCH   1   2
BRANCH   1  18
ATOM     18  C   UNL     1       7.463   4.141  18.785  1.00  0.00     0.000 C 
BRANCH  18  19
ATOM     19  C   UNL     1       8.575   3.079  18.926  1.00  0.00     0.000 C 
BRANCH  19  20
ATOM     20  C   UNL     1       9.985   3.684  18.805  1.00  0.00     0.000 C 
BRANCH  20  21
ATOM     21  C   UNL     1       9.967   5.081  18.159  1.00  0.00     0.000 C 
BRANCH  21  22
ATOM     22  C   UNL     1      10.794   5.131  16.865  1.00  0.00     0.000 C 
BRANCH  22  23
ATOM     23  C   UNL     1      11.289   6.555  16.577  1.00  0.00     0.000 C 
BRANCH  23  24
ATOM     24  C   UNL     1      10.713   7.072  15.252  1.00  0.00    -0.000 C 
BRANCH  24  25
ATOM     25  C   UNL     1      10.955   6.113  14.073  1.00  0.00    -0.000 C 
BRANCH  25  26
ATOM     26  C   UNL     1      10.115   6.400  12.815  1.00  0.00    -0.000 C 
BRANCH  26  27
ATOM     27  C   UNL     1       9.186   5.236  12.436  1.00  0.00    -0.000 C 
BRANCH  27  28
ATOM     28  C   UNL     1       8.978   4.287  13.621  1.00  0.00    -0.000 C 
BRANCH  28  29
ATOM     29  C   UNL     1       7.566   4.439  14.205  1.00  0.00    -0.000 C 
BRANCH  29  30
ATOM     30  C   UNL     1       7.551   5.193  15.547  1.00  0.00    -0.000 C 
BRANCH  30  31
ATOM     31  C   UNL     1       6.195   5.816  15.921  1.00  0.00    -0.003 C 
ATOM     32  C   UNL     1       6.328   7.047  16.816  1.00  0.00     0.004 C 
ENDBRANCH  30  31
ENDBRANCH  29  30
ENDBRANCH  28  29
ENDBRANCH  27  28
ENDBRANCH  26  27
ENDBRANCH  25  26
ENDBRANCH  24  25
ENDBRANCH  23  24
ENDBRANCH  22  23
ENDBRANCH  21  22
ENDBRANCH  20  21
ENDBRANCH  19  20
ENDBRANCH  18  19
ENDBRANCH   1  18
TORSDOF 28
ENDMDL
MODEL 4
REMARK VINA RESULT:    -4.251      1.147      3.048
REMARK INTER + INTRA:         -16.589
REMARK INTER:                 -11.015
REMARK INTRA:                  -5.574
REMARK UNBOUND:                -5.380
REMARK SMILES CCCCCCCCCCCCCCCCCCCCCCCCCCCCCC(=O)[O-]
REMARK SMILES IDX 16 1 17 2 18 3 19 4 20 5 21 6 22 7 23 8 24 9 25 10 26 11
REMARK SMILES IDX 27 12 28 13 29 14 30 15 31 16 32 17 15 18 14 19 13 20 12 21
REMARK SMILES IDX 11 22 10 23 9 24 8 25 7 26 6 27 5 28 4 29 3 30 2 31 1 32
REMARK H PARENT
REMARK Flexibility Score: inf
ROOT
ATOM      1  C   UNL     1       6.710   7.448  18.115  1.00  0.00     0.000 C 
ENDROOT
BRANCH   1   2
ATOM      2  C   UNL     1       6.473   6.318  19.129  1.00  0.00     0.000 C 
BRANCH   2   3
ATOM      3  C   UNL     1       7.695   5.400  19.298  1.00  0.00     0.000 C 
BRANCH   3   4
ATOM      4  C   UNL     1       7.401   3.889  19.191  1.00  0.00     0.000 C 
BRANCH   4   5
ATOM      5  C   UNL     1       5.899   3.535  19.224  1.00  0.00     0.000 C 
BRANCH   5   6
ATOM      6  C   UNL     1       5.464   2.959  20.584  1.00  0.00     0.000 C 
BRANCH   6   7
ATOM      7  C   UNL     1       4.505   3.896  21.340  1.00  0.00     0.000 C 
BRANCH   7   8
ATOM      8  C   UNL     1       4.507   3.691  22.867  1.00  0.00     0.000 C 
BRANCH   8   9
ATOM      9  C   UNL     1       5.851   3.146  23.384  1.00  0.00     0.000 C 
BRANCH   9  10
ATOM     10  C   UNL     1       6.754   4.254  23.964  1.00  0.00     0.000 C 
BRANCH  10  11
ATOM     11  C   UNL     1       7.710   4.883  22.931  1.00  0.00     0.000 C 
BRANCH  11  12
ATOM     12  C   UNL     1       7.640   6.417  22.838  1.00  0.00     0.000 C 
BRANCH  12  13
ATOM     13  C   UNL     1       6.238   6.967  23.146  1.00  0.00     0.006 C 
BRANCH  13  14
ATOM     14  C   UNL     1       5.902   8.160  22.244  1.00  0.00     0.053 C 
BRANCH  14  15
ATOM     15  C   UNL     1       5.842   9.429  23.037  1.00  0.00     0.041 C 
ATOM     16  O   UNL     1       4.768  10.088  23.103  1.00  0.00    -0.550 OA
ATOM     17  O   UNL     1       6.960   9.870  23.734  1.00  0.00    -0.550 OA
ENDBRANCH  14  15
ENDBRANCH  13  14
ENDBRANCH  12  13
ENDBRANCH  11  12
ENDBRANCH  10  11
ENDBRANCH   9  10
ENDBRANCH   8   9
ENDBRANCH   7   8
ENDBRANCH   6   7
ENDBRANCH   5   6
ENDBRANCH   4   5
ENDBRANCH   3   4
ENDBRANCH   2   3
ENDBRANCH   1   2
BRANCH   1  18
ATOM     18  C   UNL     1       6.735   6.947  16.661  1.00  0.00     0.000 C 
BRANCH  18  19
ATOM     19  C   UNL     1       5.562   6.013  16.298  1.00  0.00     0.000 C 
BRANCH  19  20
ATOM     20  C   UNL     1       6.016   4.782  15.493  1.00  0.00     0.000 C 
BRANCH  20  21
ATOM     21  C   UNL     1       7.531   4.792  15.219  1.00  0.00     0.000 C 
BRANCH  21  22
ATOM     22  C   UNL     1       7.865   4.296  13.803  1.00  0.00     0.000 C 
BRANCH  22  23
ATOM     23  C   UNL     1       9.099   3.383  13.812  1.00  0.00     0.000 C 
BRANCH  23  24
ATOM     24  C   UNL     1      10.095   3.808  12.724  1.00  0.00    -0.000 C 
BRANCH  24  25
ATOM     25  C   UNL     1       9.830   5.224  12.182  1.00  0.00    -0.000 C 
BRANCH  25  26
ATOM     26  C   UNL     1      10.859   6.288  12.608  1.00  0.00    -0.000 C 
BRANCH  26  27
ATOM     27  C   UNL     1      10.500   6.969  13.939  1.00  0.00    -0.000 C 
BRANCH  27  28
ATOM     28  C   UNL     1      11.305   6.372  15.099  1.00  0.00    -0.000 C 
BRANCH  28  29
ATOM     29  C   UNL     1      10.415   6.163  16.333  1.00  0.00    -0.000 C 
BRANCH  29  30
ATOM     30  C   UNL     1      11.025   5.185  17.352  1.00  0.00    -0.000 C 
BRANCH  30  31
ATOM     31  C   UNL     1      10.549   3.729  17.212  1.00  0.00    -0.003 C 
ATOM     32  C   UNL     1      11.544   2.844  16.461  1.00  0.00     0.004 C 
ENDBRANCH  30  31
ENDBRANCH  29  30
ENDBRANCH  28  29
ENDBRANCH  27  28
ENDBRANCH  26  27
ENDBRANCH  25  26
ENDBRANCH  24  25
ENDBRANCH  23  24
ENDBRANCH  22  23
ENDBRANCH  21  22
ENDBRANCH  20  21
ENDBRANCH  19  20
ENDBRANCH  18  19
ENDBRANCH   1  18
TORSDOF 28
ENDMDL
MODEL 5
REMARK VINA RESULT:    -4.208      1.381      2.079
REMARK INTER + INTRA:         -16.477
REMARK INTER:                 -11.696
REMARK INTRA:                  -4.782
REMARK UNBOUND:                -5.380
REMARK SMILES CCCCCCCCCCCCCCCCCCCCCCCCCCCCCC(=O)[O-]
REMARK SMILES IDX 16 1 17 2 18 3 19 4 20 5 21 6 22 7 23 8 24 9 25 10 26 11
REMARK SMILES IDX 27 12 28 13 29 14 30 15 31 16 32 17 15 18 14 19 13 20 12 21
REMARK SMILES IDX 11 22 10 23 9 24 8 25 7 26 6 27 5 28 4 29 3 30 2 31 1 32
REMARK H PARENT
REMARK Flexibility Score: inf
ROOT
ATOM      1  C   UNL     1       7.835   5.515  18.784  1.00  0.00     0.000 C 
ENDROOT
BRANCH   1   2
ATOM      2  C   UNL     1       7.773   4.320  19.748  1.00  0.00     0.000 C 
BRANCH   2   3
ATOM      3  C   UNL     1       6.799   3.225  19.280  1.00  0.00     0.000 C 
BRANCH   3   4
ATOM      4  C   UNL     1       5.661   2.893  20.269  1.00  0.00     0.000 C 
BRANCH   4   5
ATOM      5  C   UNL     1       5.625   3.802  21.516  1.00  0.00     0.000 C 
BRANCH   5   6
ATOM      6  C   UNL     1       4.474   4.822  21.462  1.00  0.00     0.000 C 
BRANCH   6   7
ATOM      7  C   UNL     1       4.977   6.278  21.483  1.00  0.00     0.000 C 
BRANCH   7   8
ATOM      8  C   UNL     1       5.990   6.572  22.607  1.00  0.00     0.000 C 
BRANCH   8   9
ATOM      9  C   UNL     1       7.298   7.182  22.073  1.00  0.00     0.000 C 
BRANCH   9  10
ATOM     10  C   UNL     1       7.052   8.401  21.158  1.00  0.00     0.000 C 
BRANCH  10  11
ATOM     11  C   UNL     1       7.127   9.754  21.891  1.00  0.00     0.000 C 
BRANCH  11  12
ATOM     12  C   UNL     1       5.922  10.065  22.796  1.00  0.00     0.000 C 
BRANCH  12  13
ATOM     13  C   UNL     1       6.271  11.035  23.935  1.00  0.00     0.006 C 
BRANCH  13  14
ATOM     14  C   UNL     1       6.702  12.400  23.385  1.00  0.00     0.053 C 
BRANCH  14  15
ATOM     15  C   UNL     1       5.543  13.116  22.762  1.00  0.00     0.041 C 
ATOM     16  O   UNL     1       5.646  13.609  21.606  1.00  0.00    -0.550 OA
ATOM     17  O   UNL     1       4.334  13.208  23.441  1.00  0.00    -0.550 OA
ENDBRANCH  14  15
ENDBRANCH  13  14
ENDBRANCH  12  13
ENDBRANCH  11  12
ENDBRANCH  10  11
ENDBRANCH   9  10
ENDBRANCH   8   9
ENDBRANCH   7   8
ENDBRANCH   6   7
ENDBRANCH   5   6
ENDBRANCH   4   5
ENDBRANCH   3   4
ENDBRANCH   2   3
ENDBRANCH   1   2
BRANCH   1  18
ATOM     18  C   UNL     1       6.442   6.010  18.358  1.00  0.00     0.000 C 
BRANCH  18  19
ATOM     19  C   UNL     1       6.386   6.569  16.921  1.00  0.00     0.000 C 
BRANCH  19  20
ATOM     20  C   UNL     1       6.413   5.458  15.856  1.00  0.00     0.000 C 
BRANCH  20  21
ATOM     21  C   UNL     1       7.765   5.383  15.126  1.00  0.00     0.000 C 
BRANCH  21  22
ATOM     22  C   UNL     1       7.860   4.153  14.208  1.00  0.00     0.000 C 
BRANCH  22  23
ATOM     23  C   UNL     1       9.127   3.338  14.501  1.00  0.00     0.000 C 
BRANCH  23  24
ATOM     24  C   UNL     1       9.458   3.369  16.000  1.00  0.00    -0.000 C 
BRANCH  24  25
ATOM     25  C   UNL     1      10.951   3.140  16.293  1.00  0.00    -0.000 C 
BRANCH  25  26
ATOM     26  C   UNL     1      11.550   4.053  17.380  1.00  0.00    -0.000 C 
BRANCH  26  27
ATOM     27  C   UNL     1      12.062   5.391  16.825  1.00  0.00    -0.000 C 
BRANCH  27  28
ATOM     28  C   UNL     1      10.953   6.449  16.822  1.00  0.00    -0.000 C 
BRANCH  28  29
ATOM     29  C   UNL     1      10.959   7.247  15.511  1.00  0.00    -0.000 C 
BRANCH  29  30
ATOM     30  C   UNL     1      11.216   6.366  14.275  1.00  0.00    -0.000 C 
BRANCH  30  31
ATOM     31  C   UNL     1      10.463   6.801  13.006  1.00  0.00    -0.003 C 
ATOM     32  C   UNL     1      10.461   5.730  11.914  1.00  0.00     0.004 C 
ENDBRANCH  30  31
ENDBRANCH  29  30
ENDBRANCH  28  29
ENDBRANCH  27  28
ENDBRANCH  26  27
ENDBRANCH  25  26
ENDBRANCH  24  25
ENDBRANCH  23  24
ENDBRANCH  22  23
ENDBRANCH  21  22
ENDBRANCH  20  21
ENDBRANCH  19  20
ENDBRANCH  18  19
ENDBRANCH   1  18
TORSDOF 28
ENDMDL
MODEL 6
REMARK VINA RESULT:    -4.183      1.632      4.412
REMARK INTER + INTRA:         -16.410
REMARK INTER:                 -11.291
REMARK INTRA:                  -5.119
REMARK UNBOUND:                -5.380
REMARK SMILES CCCCCCCCCCCCCCCCCCCCCCCCCCCCCC(=O)[O-]
REMARK SMILES IDX 16 1 17 2 18 3 19 4 20 5 21 6 22 7 23 8 24 9 25 10 26 11
REMARK SMILES IDX 27 12 28 13 29 14 30 15 31 16 32 17 15 18 14 19 13 20 12 21
REMARK SMILES IDX 11 22 10 23 9 24 8 25 7 26 6 27 5 28 4 29 3 30 2 31 1 32
REMARK H PARENT
REMARK Flexibility Score: inf
ROOT
ATOM      1  C   UNL     1       7.440   6.140  15.920  1.00  0.00     0.000 C 
ENDROOT
BRANCH   1   2
ATOM      2  C   UNL     1       6.260   6.396  16.871  1.00  0.00     0.000 C 
BRANCH   2   3
ATOM      3  C   UNL     1       6.031   5.242  17.862  1.00  0.00     0.000 C 
BRANCH   3   4
ATOM      4  C   UNL     1       7.268   4.831  18.688  1.00  0.00     0.000 C 
BRANCH   4   5
ATOM      5  C   UNL     1       7.181   3.412  19.290  1.00  0.00     0.000 C 
BRANCH   5   6
ATOM      6  C   UNL     1       5.739   3.026  19.668  1.00  0.00     0.000 C 
BRANCH   6   7
ATOM      7  C   UNL     1       5.552   2.868  21.188  1.00  0.00     0.000 C 
BRANCH   7   8
ATOM      8  C   UNL     1       4.579   3.891  21.806  1.00  0.00     0.000 C 
BRANCH   8   9
ATOM      9  C   UNL     1       5.258   5.238  22.108  1.00  0.00     0.000 C 
BRANCH   9  10
ATOM     10  C   UNL     1       4.848   6.345  21.114  1.00  0.00     0.000 C 
BRANCH  10  11
ATOM     11  C   UNL     1       5.874   7.487  20.995  1.00  0.00     0.000 C 
BRANCH  11  12
ATOM     12  C   UNL     1       7.317   7.099  21.365  1.00  0.00     0.000 C 
BRANCH  12  13
ATOM     13  C   UNL     1       8.155   8.302  21.826  1.00  0.00     0.006 C 
BRANCH  13  14
ATOM     14  C   UNL     1       7.495   9.624  21.417  1.00  0.00     0.053 C 
BRANCH  14  15
ATOM     15  C   UNL     1       7.231  10.483  22.616  1.00  0.00     0.041 C 
ATOM     16  O   UNL     1       6.047  10.728  22.975  1.00  0.00    -0.550 OA
ATOM     17  O   UNL     1       8.291  10.986  23.360  1.00  0.00    -0.550 OA
ENDBRANCH  14  15
ENDBRANCH  13  14
ENDBRANCH  12  13
ENDBRANCH  11  12
ENDBRANCH  10  11
ENDBRANCH   9  10
ENDBRANCH   8   9
ENDBRANCH   7   8
ENDBRANCH   6   7
ENDBRANCH   5   6
ENDBRANCH   4   5
ENDBRANCH   3   4
ENDBRANCH   2   3
ENDBRANCH   1   2
BRANCH   1  18
ATOM     18  C   UNL     1       7.254   4.874  15.066  1.00  0.00     0.000 C 
BRANCH  18  19
ATOM     19  C   UNL     1       8.560   4.095  14.806  1.00  0.00     0.000 C 
BRANCH  19  20
ATOM     20  C   UNL     1       8.713   3.677  13.332  1.00  0.00     0.000 C 
BRANCH  20  21
ATOM     21  C   UNL     1       8.675   4.884  12.377  1.00  0.00     0.000 C 
BRANCH  21  22
ATOM     22  C   UNL     1      10.074   5.466  12.124  1.00  0.00     0.000 C 
BRANCH  22  23
ATOM     23  C   UNL     1      10.300   6.744  12.944  1.00  0.00     0.000 C 
BRANCH  23  24
ATOM     24  C   UNL     1      11.334   6.502  14.053  1.00  0.00    -0.000 C 
BRANCH  24  25
ATOM     25  C   UNL     1      10.881   7.029  15.426  1.00  0.00    -0.000 C 
BRANCH  25  26
ATOM     26  C   UNL     1      11.592   6.393  16.635  1.00  0.00    -0.000 C 
BRANCH  26  27
ATOM     27  C   UNL     1      10.666   5.495  17.470  1.00  0.00    -0.000 C 
BRANCH  27  28
ATOM     28  C   UNL     1      11.352   5.047  18.766  1.00  0.00    -0.000 C 
BRANCH  28  29
ATOM     29  C   UNL     1      11.360   6.179  19.802  1.00  0.00    -0.000 C 
BRANCH  29  30
ATOM     30  C   UNL     1      10.800   5.745  21.168  1.00  0.00    -0.000 C 
BRANCH  30  31
ATOM     31  C   UNL     1      10.258   4.306  21.215  1.00  0.00    -0.003 C 
ATOM     32  C   UNL     1       9.172   4.110  22.273  1.00  0.00     0.004 C 
ENDBRANCH  30  31
ENDBRANCH  29  30
ENDBRANCH  28  29
ENDBRANCH  27  28
ENDBRANCH  26  27
ENDBRANCH  25  26
ENDBRANCH  24  25
ENDBRANCH  23  24
ENDBRANCH  22  23
ENDBRANCH  21  22
ENDBRANCH  20  21
ENDBRANCH  19  20
ENDBRANCH  18  19
ENDBRANCH   1  18
TORSDOF 28
ENDMDL
MODEL 7
REMARK VINA RESULT:    -4.169      1.269      3.057
REMARK INTER + INTRA:         -16.373
REMARK INTER:                 -11.768
REMARK INTRA:                  -4.605
REMARK UNBOUND:                -5.380
REMARK SMILES CCCCCCCCCCCCCCCCCCCCCCCCCCCCCC(=O)[O-]
REMARK SMILES IDX 16 1 17 2 18 3 19 4 20 5 21 6 22 7 23 8 24 9 25 10 26 11
REMARK SMILES IDX 27 12 28 13 29 14 30 15 31 16 32 17 15 18 14 19 13 20 12 21
REMARK SMILES IDX 11 22 10 23 9 24 8 25 7 26 6 27 5 28 4 29 3 30 2 31 1 32
REMARK H PARENT
REMARK Flexibility Score: inf
ROOT
ATOM      1  C   UNL     1       6.356   6.403  18.269  1.00  0.00     0.000 C 
ENDROOT
BRANCH   1   2
ATOM      2  C   UNL     1       6.329   4.883  18.490  1.00  0.00     0.000 C 
BRANCH   2   3
ATOM      3  C   UNL     1       7.565   4.367  19.247  1.00  0.00     0.000 C 
BRANCH   3   4
ATOM      4  C   UNL     1       7.536   2.866  19.604  1.00  0.00     0.000 C 
BRANCH   4   5
ATOM      5  C   UNL     1       6.167   2.366  20.115  1.00  0.00     0.000 C 
BRANCH   5   6
ATOM      6  C   UNL     1       5.778   3.002  21.462  1.00  0.00     0.000 C 
BRANCH   6   7
ATOM      7  C   UNL     1       4.473   3.814  21.374  1.00  0.00     0.000 C 
BRANCH   7   8
ATOM      8  C   UNL     1       4.606   5.265  21.873  1.00  0.00     0.000 C 
BRANCH   8   9
ATOM      9  C   UNL     1       6.054   5.623  22.254  1.00  0.00     0.000 C 
BRANCH   9  10
ATOM     10  C   UNL     1       6.321   7.142  22.201  1.00  0.00     0.000 C 
BRANCH  10  11
ATOM     11  C   UNL     1       7.525   7.532  21.322  1.00  0.00     0.000 C 
BRANCH  11  12
ATOM     12  C   UNL     1       8.518   8.505  21.982  1.00  0.00     0.000 C 
BRANCH  12  13
ATOM     13  C   UNL     1       7.825   9.535  22.888  1.00  0.00     0.006 C 
BRANCH  13  14
ATOM     14  C   UNL     1       7.537  10.834  22.127  1.00  0.00     0.053 C 
BRANCH  14  15
ATOM     15  C   UNL     1       6.236  11.433  22.566  1.00  0.00     0.041 C 
ATOM     16  O   UNL     1       6.055  12.680  22.502  1.00  0.00    -0.550 OA
ATOM     17  O   UNL     1       5.207  10.614  23.014  1.00  0.00    -0.550 OA
ENDBRANCH  14  15
ENDBRANCH  13  14
ENDBRANCH  12  13
ENDBRANCH  11  12
ENDBRANCH  10  11
ENDBRANCH   9  10
ENDBRANCH   8   9
ENDBRANCH   7   8
ENDBRANCH   6   7
ENDBRANCH   5   6
ENDBRANCH   4   5
ENDBRANCH   3   4
ENDBRANCH   2   3
ENDBRANCH   1   2
BRANCH   1  18
ATOM     18  C   UNL     1       6.396   6.788  16.780  1.00  0.00     0.000 C 
BRANCH  18  19
ATOM     19  C   UNL     1       6.618   5.593  15.829  1.00  0.00     0.000 C 
BRANCH  19  20
ATOM     20  C   UNL     1       8.008   5.617  15.168  1.00  0.00     0.000 C 
BRANCH  20  21
ATOM     21  C   UNL     1       9.052   6.348  16.031  1.00  0.00     0.000 C 
BRANCH  21  22
ATOM     22  C   UNL     1      10.130   7.035  15.179  1.00  0.00     0.000 C 
BRANCH  22  23
ATOM     23  C   UNL     1      11.313   6.094  14.915  1.00  0.00     0.000 C 
BRANCH  23  24
ATOM     24  C   UNL     1      11.604   5.997  13.411  1.00  0.00    -0.000 C 
BRANCH  24  25
ATOM     25  C   UNL     1      10.498   6.620  12.540  1.00  0.00    -0.000 C 
BRANCH  25  26
ATOM     26  C   UNL     1       9.463   5.621  11.987  1.00  0.00    -0.000 C 
BRANCH  26  27
ATOM     27  C   UNL     1       9.991   4.179  11.935  1.00  0.00    -0.000 C 
BRANCH  27  28
ATOM     28  C   UNL     1       9.096   3.234  12.746  1.00  0.00    -0.000 C 
BRANCH  28  29
ATOM     29  C   UNL     1       9.917   2.088  13.353  1.00  0.00    -0.000 C 
BRANCH  29  30
ATOM     30  C   UNL     1      10.675   2.503  14.627  1.00  0.00    -0.000 C 
BRANCH  30  31
ATOM     31  C   UNL     1       9.792   2.668  15.876  1.00  0.00    -0.003 C 
ATOM     32  C   UNL     1      10.576   3.126  17.106  1.00  0.00     0.004 C 
ENDBRANCH  30  31
ENDBRANCH  29  30
ENDBRANCH  28  29
ENDBRANCH  27  28
ENDBRANCH  26  27
ENDBRANCH  25  26
ENDBRANCH  24  25
ENDBRANCH  23  24
ENDBRANCH  22  23
ENDBRANCH  21  22
ENDBRANCH  20  21
ENDBRANCH  19  20
ENDBRANCH  18  19
ENDBRANCH   1  18
TORSDOF 28
ENDMDL
MODEL 8
REMARK VINA RESULT:    -4.149      1.619      3.860
REMARK INTER + INTRA:         -16.321
REMARK INTER:                 -10.850
REMARK INTRA:                  -5.471
REMARK UNBOUND:                -5.380
REMARK SMILES CCCCCCCCCCCCCCCCCCCCCCCCCCCCCC(=O)[O-]
REMARK SMILES IDX 16 1 17 2 18 3 19 4 20 5 21 6 22 7 23 8 24 9 25 10 26 11
REMARK SMILES IDX 27 12 28 13 29 14 30 15 31 16 32 17 15 18 14 19 13 20 12 21
REMARK SMILES IDX 11 22 10 23 9 24 8 25 7 26 6 27 5 28 4 29 3 30 2 31 1 32
REMARK H PARENT
REMARK Flexibility Score: inf
ROOT
ATOM      1  C   UNL     1       6.373   6.432  16.781  1.00  0.00     0.000 C 
ENDROOT
BRANCH   1   2
ATOM      2  C   UNL     1       5.996   5.105  17.460  1.00  0.00     0.000 C 
BRANCH   2   3
ATOM      3  C   UNL     1       6.491   5.018  18.914  1.00  0.00     0.000 C 
BRANCH   3   4
ATOM      4  C   UNL     1       6.925   3.611  19.376  1.00  0.00     0.000 C 
BRANCH   4   5
ATOM      5  C   UNL     1       5.878   2.881  20.244  1.00  0.00     0.000 C 
BRANCH   5   6
ATOM      6  C   UNL     1       4.799   3.836  20.784  1.00  0.00     0.000 C 
BRANCH   6   7
ATOM      7  C   UNL     1       4.532   3.633  22.287  1.00  0.00     0.000 C 
BRANCH   7   8
ATOM      8  C   UNL     1       5.360   2.498  22.919  1.00  0.00     0.000 C 
BRANCH   8   9
ATOM      9  C   UNL     1       6.451   3.026  23.867  1.00  0.00     0.000 C 
BRANCH   9  10
ATOM     10  C   UNL     1       6.375   4.556  24.062  1.00  0.00     0.000 C 
BRANCH  10  11
ATOM     11  C   UNL     1       7.666   5.298  23.666  1.00  0.00     0.000 C 
BRANCH  11  12
ATOM     12  C   UNL     1       7.636   5.946  22.271  1.00  0.00     0.000 C 
BRANCH  12  13
ATOM     13  C   UNL     1       6.442   6.896  22.085  1.00  0.00     0.006 C 
BRANCH  13  14
ATOM     14  C   UNL     1       6.779   8.019  21.096  1.00  0.00     0.053 C 
BRANCH  14  15
ATOM     15  C   UNL     1       7.397   9.186  21.802  1.00  0.00     0.041 C 
ATOM     16  O   UNL     1       8.649   9.341  21.800  1.00  0.00    -0.550 OA
ATOM     17  O   UNL     1       6.591  10.125  22.434  1.00  0.00    -0.550 OA
ENDBRANCH  14  15
ENDBRANCH  13  14
ENDBRANCH  12  13
ENDBRANCH  11  12
ENDBRANCH  10  11
ENDBRANCH   9  10
ENDBRANCH   8   9
ENDBRANCH   7   8
ENDBRANCH   6   7
ENDBRANCH   5   6
ENDBRANCH   4   5
ENDBRANCH   3   4
ENDBRANCH   2   3
ENDBRANCH   1   2
BRANCH   1  18
ATOM     18  C   UNL     1       7.615   6.309  15.882  1.00  0.00     0.000 C 
BRANCH  18  19
ATOM     19  C   UNL     1       8.016   4.854  15.561  1.00  0.00     0.000 C 
BRANCH  19  20
ATOM     20  C   UNL     1       7.670   4.453  14.116  1.00  0.00     0.000 C 
BRANCH  20  21
ATOM     21  C   UNL     1       8.712   3.495  13.511  1.00  0.00     0.000 C 
BRANCH  21  22
ATOM     22  C   UNL     1       9.938   4.243  12.964  1.00  0.00     0.000 C 
BRANCH  22  23
ATOM     23  C   UNL     1       9.524   5.529  12.236  1.00  0.00     0.000 C 
BRANCH  23  24
ATOM     24  C   UNL     1      10.175   6.756  12.888  1.00  0.00    -0.000 C 
BRANCH  24  25
ATOM     25  C   UNL     1      11.157   6.391  14.016  1.00  0.00    -0.000 C 
BRANCH  25  26
ATOM     26  C   UNL     1      11.042   7.256  15.286  1.00  0.00    -0.000 C 
BRANCH  26  27
ATOM     27  C   UNL     1      11.620   6.570  16.533  1.00  0.00    -0.000 C 
BRANCH  27  28
ATOM     28  C   UNL     1      11.624   5.045  16.373  1.00  0.00    -0.000 C 
BRANCH  28  29
ATOM     29  C   UNL     1      10.948   4.366  17.572  1.00  0.00    -0.000 C 
BRANCH  29  30
ATOM     30  C   UNL     1      10.179   5.355  18.465  1.00  0.00    -0.000 C 
BRANCH  30  31
ATOM     31  C   UNL     1      10.331   5.110  19.977  1.00  0.00    -0.003 C 
ATOM     32  C   UNL     1      11.314   3.987  20.306  1.00  0.00     0.004 C 
ENDBRANCH  30  31
ENDBRANCH  29  30
ENDBRANCH  28  29
ENDBRANCH  27  28
ENDBRANCH  26  27
ENDBRANCH  25  26
ENDBRANCH  24  25
ENDBRANCH  23  24
ENDBRANCH  22  23
ENDBRANCH  21  22
ENDBRANCH  20  21
ENDBRANCH  19  20
ENDBRANCH  18  19
ENDBRANCH   1  18
TORSDOF 28
ENDMDL
MODEL 9
REMARK VINA RESULT:    -4.140      2.854      7.690
REMARK INTER + INTRA:         -16.298
REMARK INTER:                 -10.565
REMARK INTRA:                  -5.733
REMARK UNBOUND:                -5.380
REMARK SMILES CCCCCCCCCCCCCCCCCCCCCCCCCCCCCC(=O)[O-]
REMARK SMILES IDX 16 1 17 2 18 3 19 4 20 5 21 6 22 7 23 8 24 9 25 10 26 11
REMARK SMILES IDX 27 12 28 13 29 14 30 15 31 16 32 17 15 18 14 19 13 20 12 21
REMARK SMILES IDX 11 22 10 23 9 24 8 25 7 26 6 27 5 28 4 29 3 30 2 31 1 32
REMARK H PARENT
REMARK Flexibility Score: inf
ROOT
ATOM      1  C   UNL     1       6.372   6.024  18.294  1.00  0.00     0.000 C 
ENDROOT
BRANCH   1   2
ATOM      2  C   UNL     1       6.305   6.458  16.821  1.00  0.00     0.000 C 
BRANCH   2   3
ATOM      3  C   UNL     1       6.370   5.270  15.845  1.00  0.00     0.000 C 
BRANCH   3   4
ATOM      4  C   UNL     1       7.766   4.980  15.256  1.00  0.00     0.000 C 
BRANCH   4   5
ATOM      5  C   UNL     1       8.804   6.092  15.519  1.00  0.00     0.000 C 
BRANCH   5   6
ATOM      6  C   UNL     1       9.920   5.636  16.475  1.00  0.00     0.000 C 
BRANCH   6   7
ATOM      7  C   UNL     1       9.763   4.165  16.902  1.00  0.00     0.000 C 
BRANCH   7   8
ATOM      8  C   UNL     1       9.864   3.943  18.423  1.00  0.00     0.000 C 
BRANCH   8   9
ATOM      9  C   UNL     1       9.994   5.265  19.202  1.00  0.00     0.000 C 
BRANCH   9  10
ATOM     10  C   UNL     1       9.321   5.203  20.589  1.00  0.00     0.000 C 
BRANCH  10  11
ATOM     11  C   UNL     1       9.971   4.190  21.551  1.00  0.00     0.000 C 
BRANCH  11  12
ATOM     12  C   UNL     1       9.006   3.140  22.130  1.00  0.00     0.000 C 
BRANCH  12  13
ATOM     13  C   UNL     1       9.737   1.998  22.854  1.00  0.00     0.006 C 
BRANCH  13  14
ATOM     14  C   UNL     1       9.374   1.966  24.343  1.00  0.00     0.053 C 
BRANCH  14  15
ATOM     15  C   UNL     1      10.165   2.981  25.109  1.00  0.00     0.041 C 
ATOM     16  O   UNL     1       9.634   3.615  26.062  1.00  0.00    -0.550 OA
ATOM     17  O   UNL     1      11.500   3.204  24.797  1.00  0.00    -0.550 OA
ENDBRANCH  14  15
ENDBRANCH  13  14
ENDBRANCH  12  13
ENDBRANCH  11  12
ENDBRANCH  10  11
ENDBRANCH   9  10
ENDBRANCH   8   9
ENDBRANCH   7   8
ENDBRANCH   6   7
ENDBRANCH   5   6
ENDBRANCH   4   5
ENDBRANCH   3   4
ENDBRANCH   2   3
ENDBRANCH   1   2
BRANCH   1  18
ATOM     18  C   UNL     1       6.378   4.496  18.465  1.00  0.00     0.000 C 
BRANCH  18  19
ATOM     19  C   UNL     1       5.556   3.997  19.672  1.00  0.00     0.000 C 
BRANCH  19  20
ATOM     20  C   UNL     1       5.949   2.573  20.104  1.00  0.00     0.000 C 
BRANCH  20  21
ATOM     21  C   UNL     1       5.505   2.257  21.544  1.00  0.00     0.000 C 
BRANCH  21  22
ATOM     22  C   UNL     1       4.389   3.197  22.025  1.00  0.00     0.000 C 
BRANCH  22  23
ATOM     23  C   UNL     1       4.403   3.338  23.553  1.00  0.00     0.000 C 
BRANCH  23  24
ATOM     24  C   UNL     1       5.814   3.095  24.108  1.00  0.00    -0.000 C 
BRANCH  24  25
ATOM     25  C   UNL     1       6.460   4.364  24.691  1.00  0.00    -0.000 C 
BRANCH  25  26
ATOM     26  C   UNL     1       5.943   5.690  24.100  1.00  0.00    -0.000 C 
BRANCH  26  27
ATOM     27  C   UNL     1       6.637   6.070  22.783  1.00  0.00    -0.000 C 
BRANCH  27  28
ATOM     28  C   UNL     1       5.671   6.794  21.838  1.00  0.00    -0.000 C 
BRANCH  28  29
ATOM     29  C   UNL     1       6.347   8.009  21.188  1.00  0.00    -0.000 C 
BRANCH  29  30
ATOM     30  C   UNL     1       7.726   8.322  21.793  1.00  0.00    -0.000 C 
BRANCH  30  31
ATOM     31  C   UNL     1       8.022   9.819  21.983  1.00  0.00    -0.003 C 
ATOM     32  C   UNL     1       6.830  10.599  22.537  1.00  0.00     0.004 C 
ENDBRANCH  30  31
ENDBRANCH  29  30
ENDBRANCH  28  29
ENDBRANCH  27  28
ENDBRANCH  26  27
ENDBRANCH  25  26
ENDBRANCH  24  25
ENDBRANCH  23  24
ENDBRANCH  22  23
ENDBRANCH  21  22
ENDBRANCH  20  21
ENDBRANCH  19  20
ENDBRANCH  18  19
ENDBRANCH   1  18
TORSDOF 28
ENDMDL
