MODEL 1
REMARK VINA RESULT:    -6.454      0.000      0.000
REMARK INTER + INTRA:          -8.081
REMARK INTER:                  -7.775
REMARK INTRA:                  -0.306
REMARK UNBOUND:                -0.306
REMARK SMILES O=c1c(O)c(-c2ccc(O)c(O)c2)oc2cc(O)cc(O)c12
REMARK SMILES IDX 5 1 3 2 2 3 1 4 22 5 20 6 19 7 17 8 16 9 15 10 14 11 6 12
REMARK SMILES IDX 7 13 8 14 9 15 13 16 11 17 10 18 12 20 4 22 21 24 18 26
REMARK H PARENT 10 19 12 21 4 23 21 25 18 27
REMARK Flexibility Score: inf
ROOT
ATOM      1  C   UNL     1     -17.738  13.647  -8.128  1.00  0.00     0.180 A 
ATOM      2  C   UNL     1     -18.061  14.318  -6.936  1.00  0.00     0.208 A 
ATOM      3  C   UNL     1     -17.187  15.304  -6.450  1.00  0.00     0.238 A 
ATOM      4  O   UNL     1     -17.509  15.938  -5.413  1.00  0.00    -0.285 OA
ATOM      5  C   UNL     1     -15.993  15.594  -7.153  1.00  0.00     0.111 A 
ATOM      6  C   UNL     1     -15.016  16.544  -6.732  1.00  0.00     0.134 A 
ATOM      7  C   UNL     1     -13.937  16.845  -7.572  1.00  0.00     0.093 A 
ATOM      8  C   UNL     1     -13.763  16.183  -8.787  1.00  0.00     0.123 A 
ATOM      9  C   UNL     1     -14.681  15.209  -9.181  1.00  0.00     0.094 A 
ATOM     10  C   UNL     1     -15.788  14.913  -8.381  1.00  0.00     0.146 A 
ATOM     11  O   UNL     1     -16.643  13.988  -8.799  1.00  0.00    -0.452 OA
ENDROOT
BRANCH   1  12
ATOM     12  C   UNL     1     -18.596  12.579  -8.689  1.00  0.00     0.025 A 
ATOM     13  C   UNL     1     -19.546  12.853  -9.688  1.00  0.00     0.016 A 
ATOM     14  C   UNL     1     -20.362  11.834 -10.187  1.00  0.00     0.051 A 
ATOM     15  C   UNL     1     -20.250  10.530  -9.687  1.00  0.00     0.157 A 
ATOM     16  C   UNL     1     -18.502  11.274  -8.177  1.00  0.00     0.062 A 
ATOM     17  C   UNL     1     -19.317  10.250  -8.675  1.00  0.00     0.158 A 
BRANCH  15  18
ATOM     18  O   UNL     1     -21.064   9.515 -10.187  1.00  0.00    -0.504 OA
ATOM     19  H   UNL     1     -20.675   8.643 -10.529  1.00  0.00     0.293 HD
ENDBRANCH  15  18
BRANCH  17  20
ATOM     20  O   UNL     1     -19.185   8.965  -8.151  1.00  0.00    -0.504 OA
ATOM     21  H   UNL     1     -18.578   8.272  -8.571  1.00  0.00     0.293 HD
ENDBRANCH  17  20
ENDBRANCH   1  12
BRANCH   2  22
ATOM     22  O   UNL     1     -19.256  14.031  -6.270  1.00  0.00    -0.502 OA
ATOM     23  H   UNL     1     -20.156  14.042  -6.736  1.00  0.00     0.293 HD
ENDBRANCH   2  22
BRANCH   6  24
ATOM     24  O   UNL     1     -15.043  17.196  -5.494  1.00  0.00    -0.507 OA
ATOM     25  H   UNL     1     -14.365  17.062  -4.759  1.00  0.00     0.293 HD
ENDBRANCH   6  24
BRANCH   8  26
ATOM     26  O   UNL     1     -12.669  16.495  -9.590  1.00  0.00    -0.508 OA
ATOM     27  H   UNL     1     -11.802  16.838  -9.194  1.00  0.00     0.293 HD
ENDBRANCH   8  26
TORSDOF 6
ENDMDL
MODEL 2
REMARK VINA RESULT:    -6.412      1.976      7.173
REMARK INTER + INTRA:          -8.030
REMARK INTER:                  -7.711
REMARK INTRA:                  -0.319
REMARK UNBOUND:                -0.306
REMARK SMILES O=c1c(O)c(-c2ccc(O)c(O)c2)oc2cc(O)cc(O)c12
REMARK SMILES IDX 5 1 3 2 2 3 1 4 22 5 20 6 19 7 17 8 16 9 15 10 14 11 6 12
REMARK SMILES IDX 7 13 8 14 9 15 13 16 11 17 10 18 12 20 4 22 21 24 18 26
REMARK H PARENT 10 19 12 21 4 23 21 25 18 27
REMARK Flexibility Score: inf
ROOT
ATOM      1  C   UNL     1     -16.387  14.766  -7.442  1.00  0.00     0.180 A 
ATOM      2  C   UNL     1     -15.508  14.461  -8.495  1.00  0.00     0.208 A 
ATOM      3  C   UNL     1     -15.877  13.479  -9.428  1.00  0.00     0.238 A 
ATOM      4  O   UNL     1     -15.110  13.248 -10.398  1.00  0.00    -0.285 OA
ATOM      5  C   UNL     1     -17.113  12.802  -9.287  1.00  0.00     0.111 A 
ATOM      6  C   UNL     1     -17.570  11.762 -10.150  1.00  0.00     0.134 A 
ATOM      7  C   UNL     1     -18.866  11.254  -9.993  1.00  0.00     0.093 A 
ATOM      8  C   UNL     1     -19.696  11.702  -8.966  1.00  0.00     0.123 A 
ATOM      9  C   UNL     1     -19.237  12.676  -8.080  1.00  0.00     0.094 A 
ATOM     10  C   UNL     1     -17.962  13.228  -8.232  1.00  0.00     0.146 A 
ATOM     11  O   UNL     1     -17.568  14.161  -7.374  1.00  0.00    -0.452 OA
ENDROOT
BRANCH   1  12
ATOM     12  C   UNL     1     -16.058  15.772  -6.406  1.00  0.00     0.025 A 
ATOM     13  C   UNL     1     -15.489  15.396  -5.177  1.00  0.00     0.016 A 
ATOM     14  C   UNL     1     -15.208  16.360  -4.204  1.00  0.00     0.051 A 
ATOM     15  C   UNL     1     -15.503  17.708  -4.440  1.00  0.00     0.157 A 
ATOM     16  C   UNL     1     -16.371  17.123  -6.629  1.00  0.00     0.062 A 
ATOM     17  C   UNL     1     -16.090  18.091  -5.657  1.00  0.00     0.158 A 
BRANCH  15  18
ATOM     18  O   UNL     1     -15.221  18.668  -3.468  1.00  0.00    -0.504 OA
ATOM     19  H   UNL     1     -14.425  19.290  -3.553  1.00  0.00     0.293 HD
ENDBRANCH  15  18
BRANCH  17  20
ATOM     20  O   UNL     1     -16.403  19.424  -5.919  1.00  0.00    -0.504 OA
ATOM     21  H   UNL     1     -16.659  20.071  -5.184  1.00  0.00     0.293 HD
ENDBRANCH  17  20
ENDBRANCH   1  12
BRANCH   2  22
ATOM     22  O   UNL     1     -14.303  15.156  -8.629  1.00  0.00    -0.502 OA
ATOM     23  H   UNL     1     -13.579  14.872  -9.278  1.00  0.00     0.293 HD
ENDBRANCH   2  22
BRANCH   6  24
ATOM     24  O   UNL     1     -16.788  11.177 -11.151  1.00  0.00    -0.507 OA
ATOM     25  H   UNL     1     -17.144  10.587 -11.887  1.00  0.00     0.293 HD
ENDBRANCH   6  24
BRANCH   8  26
ATOM     26  O   UNL     1     -20.973  11.163  -8.830  1.00  0.00    -0.508 OA
ATOM     27  H   UNL     1     -21.372  10.561  -9.541  1.00  0.00     0.293 HD
ENDBRANCH   8  26
TORSDOF 6
ENDMDL
MODEL 3
REMARK VINA RESULT:    -6.385      2.270      6.561
REMARK INTER + INTRA:          -7.998
REMARK INTER:                  -7.687
REMARK INTRA:                  -0.311
REMARK UNBOUND:                -0.306
REMARK SMILES O=c1c(O)c(-c2ccc(O)c(O)c2)oc2cc(O)cc(O)c12
REMARK SMILES IDX 5 1 3 2 2 3 1 4 22 5 20 6 19 7 17 8 16 9 15 10 14 11 6 12
REMARK SMILES IDX 7 13 8 14 9 15 13 16 11 17 10 18 12 20 4 22 21 24 18 26
REMARK H PARENT 10 19 12 21 4 23 21 25 18 27
REMARK Flexibility Score: inf
ROOT
ATOM      1  C   UNL     1     -16.833  14.802  -7.080  1.00  0.00     0.180 A 
ATOM      2  C   UNL     1     -18.145  14.307  -6.982  1.00  0.00     0.208 A 
ATOM      3  C   UNL     1     -18.607  13.406  -7.955  1.00  0.00     0.238 A 
ATOM      4  O   UNL     1     -19.763  12.925  -7.832  1.00  0.00    -0.285 OA
ATOM      5  C   UNL     1     -17.759  13.025  -9.023  1.00  0.00     0.111 A 
ATOM      6  C   UNL     1     -18.136  12.151 -10.085  1.00  0.00     0.134 A 
ATOM      7  C   UNL     1     -17.174  11.740 -11.016  1.00  0.00     0.093 A 
ATOM      8  C   UNL     1     -15.866  12.222 -10.962  1.00  0.00     0.123 A 
ATOM      9  C   UNL     1     -15.502  13.124  -9.962  1.00  0.00     0.094 A 
ATOM     10  C   UNL     1     -16.430  13.524  -8.997  1.00  0.00     0.146 A 
ATOM     11  O   UNL     1     -16.039  14.375  -8.056  1.00  0.00    -0.452 OA
ENDROOT
BRANCH   1  12
ATOM     12  C   UNL     1     -16.283  15.773  -6.107  1.00  0.00     0.025 A 
ATOM     13  C   UNL     1     -15.529  15.350  -4.998  1.00  0.00     0.016 A 
ATOM     14  C   UNL     1     -15.039  16.283  -4.079  1.00  0.00     0.051 A 
ATOM     15  C   UNL     1     -15.305  17.647  -4.248  1.00  0.00     0.157 A 
ATOM     16  C   UNL     1     -16.564  17.141  -6.259  1.00  0.00     0.062 A 
ATOM     17  C   UNL     1     -16.073  18.077  -5.342  1.00  0.00     0.158 A 
BRANCH  15  18
ATOM     18  O   UNL     1     -14.814  18.576  -3.331  1.00  0.00    -0.504 OA
ATOM     19  H   UNL     1     -14.601  18.315  -2.375  1.00  0.00     0.293 HD
ENDBRANCH  15  18
BRANCH  17  20
ATOM     20  O   UNL     1     -16.362  19.428  -5.535  1.00  0.00    -0.504 OA
ATOM     21  H   UNL     1     -15.769  20.030  -6.092  1.00  0.00     0.293 HD
ENDBRANCH  17  20
ENDBRANCH   1  12
BRANCH   2  22
ATOM     22  O   UNL     1     -18.959  14.678  -5.909  1.00  0.00    -0.502 OA
ATOM     23  H   UNL     1     -18.583  14.941  -5.005  1.00  0.00     0.293 HD
ENDBRANCH   2  22
BRANCH   6  24
ATOM     24  O   UNL     1     -19.439  11.684 -10.287  1.00  0.00    -0.507 OA
ATOM     25  H   UNL     1     -20.166  11.690  -9.589  1.00  0.00     0.293 HD
ENDBRANCH   6  24
BRANCH   8  26
ATOM     26  O   UNL     1     -14.939  11.805 -11.914  1.00  0.00    -0.508 OA
ATOM     27  H   UNL     1     -15.171  11.774 -12.900  1.00  0.00     0.293 HD
ENDBRANCH   8  26
TORSDOF 6
ENDMDL
MODEL 4
REMARK VINA RESULT:    -6.382      1.219      2.870
REMARK INTER + INTRA:          -7.993
REMARK INTER:                  -7.676
REMARK INTRA:                  -0.317
REMARK UNBOUND:                -0.306
REMARK SMILES O=c1c(O)c(-c2ccc(O)c(O)c2)oc2cc(O)cc(O)c12
REMARK SMILES IDX 5 1 3 2 2 3 1 4 22 5 20 6 19 7 17 8 16 9 15 10 14 11 6 12
REMARK SMILES IDX 7 13 8 14 9 15 13 16 11 17 10 18 12 20 4 22 21 24 18 26
REMARK H PARENT 10 19 12 21 4 23 21 25 18 27
REMARK Flexibility Score: inf
ROOT
ATOM      1  C   UNL     1     -17.202  13.572  -8.467  1.00  0.00     0.180 A 
ATOM      2  C   UNL     1     -16.094  13.915  -9.260  1.00  0.00     0.208 A 
ATOM      3  C   UNL     1     -15.220  14.919  -8.811  1.00  0.00     0.238 A 
ATOM      4  O   UNL     1     -14.200  15.183  -9.498  1.00  0.00    -0.285 OA
ATOM      5  C   UNL     1     -15.475  15.578  -7.584  1.00  0.00     0.111 A 
ATOM      6  C   UNL     1     -14.679  16.636  -7.053  1.00  0.00     0.134 A 
ATOM      7  C   UNL     1     -14.949  17.126  -5.769  1.00  0.00     0.093 A 
ATOM      8  C   UNL     1     -16.025  16.642  -5.025  1.00  0.00     0.123 A 
ATOM      9  C   UNL     1     -16.845  15.649  -5.560  1.00  0.00     0.094 A 
ATOM     10  C   UNL     1     -16.580  15.115  -6.823  1.00  0.00     0.146 A 
ATOM     11  O   UNL     1     -17.378  14.163  -7.290  1.00  0.00    -0.452 OA
ENDROOT
BRANCH   1  12
ATOM     12  C   UNL     1     -18.182  12.543  -8.884  1.00  0.00     0.025 A 
ATOM     13  C   UNL     1     -19.215  12.840  -9.789  1.00  0.00     0.016 A 
ATOM     14  C   UNL     1     -20.143  11.859 -10.151  1.00  0.00     0.051 A 
ATOM     15  C   UNL     1     -20.058  10.572  -9.605  1.00  0.00     0.157 A 
ATOM     16  C   UNL     1     -18.115  11.256  -8.324  1.00  0.00     0.062 A 
ATOM     17  C   UNL     1     -19.041  10.271  -8.684  1.00  0.00     0.158 A 
BRANCH  15  18
ATOM     18  O   UNL     1     -20.984   9.594  -9.968  1.00  0.00    -0.504 OA
ATOM     19  H   UNL     1     -21.050   8.716  -9.467  1.00  0.00     0.293 HD
ENDBRANCH  15  18
BRANCH  17  20
ATOM     20  O   UNL     1     -18.934   9.002  -8.117  1.00  0.00    -0.504 OA
ATOM     21  H   UNL     1     -18.787   8.867  -7.124  1.00  0.00     0.293 HD
ENDBRANCH  17  20
ENDBRANCH   1  12
BRANCH   2  22
ATOM     22  O   UNL     1     -15.848  13.237 -10.456  1.00  0.00    -0.502 OA
ATOM     23  H   UNL     1     -16.591  12.842 -11.022  1.00  0.00     0.293 HD
ENDBRANCH   2  22
BRANCH   6  24
ATOM     24  O   UNL     1     -13.637  17.257  -7.750  1.00  0.00    -0.507 OA
ATOM     25  H   UNL     1     -12.749  16.827  -7.958  1.00  0.00     0.293 HD
ENDBRANCH   6  24
BRANCH   8  26
ATOM     26  O   UNL     1     -16.274  17.164  -3.757  1.00  0.00    -0.508 OA
ATOM     27  H   UNL     1     -15.759  17.960  -3.402  1.00  0.00     0.293 HD
ENDBRANCH   8  26
TORSDOF 6
ENDMDL
MODEL 5
REMARK VINA RESULT:    -6.096      1.888      2.170
REMARK INTER + INTRA:          -7.649
REMARK INTER:                  -7.336
REMARK INTRA:                  -0.313
REMARK UNBOUND:                -0.306
REMARK SMILES O=c1c(O)c(-c2ccc(O)c(O)c2)oc2cc(O)cc(O)c12
REMARK SMILES IDX 5 1 3 2 2 3 1 4 22 5 20 6 19 7 17 8 16 9 15 10 14 11 6 12
REMARK SMILES IDX 7 13 8 14 9 15 13 16 11 17 10 18 12 20 4 22 21 24 18 26
REMARK H PARENT 10 19 12 21 4 23 21 25 18 27
REMARK Flexibility Score: inf
ROOT
ATOM      1  C   UNL     1     -17.445  14.226  -8.101  1.00  0.00     0.180 A 
ATOM      2  C   UNL     1     -18.241  15.147  -7.398  1.00  0.00     0.208 A 
ATOM      3  C   UNL     1     -17.671  15.870  -6.338  1.00  0.00     0.238 A 
ATOM      4  O   UNL     1     -18.372  16.731  -5.748  1.00  0.00    -0.285 OA
ATOM      5  C   UNL     1     -16.317  15.651  -5.984  1.00  0.00     0.111 A 
ATOM      6  C   UNL     1     -15.649  16.298  -4.902  1.00  0.00     0.134 A 
ATOM      7  C   UNL     1     -14.273  16.103  -4.724  1.00  0.00     0.093 A 
ATOM      8  C   UNL     1     -13.556  15.235  -5.547  1.00  0.00     0.123 A 
ATOM      9  C   UNL     1     -14.213  14.551  -6.571  1.00  0.00     0.094 A 
ATOM     10  C   UNL     1     -15.577  14.753  -6.796  1.00  0.00     0.146 A 
ATOM     11  O   UNL     1     -16.161  14.091  -7.788  1.00  0.00    -0.452 OA
ENDROOT
BRANCH   1  12
ATOM     12  C   UNL     1     -17.981  13.409  -9.214  1.00  0.00     0.025 A 
ATOM     13  C   UNL     1     -18.049  13.913 -10.525  1.00  0.00     0.016 A 
ATOM     14  C   UNL     1     -18.581  13.132 -11.555  1.00  0.00     0.051 A 
ATOM     15  C   UNL     1     -19.062  11.844 -11.290  1.00  0.00     0.157 A 
ATOM     16  C   UNL     1     -18.484  12.125  -8.950  1.00  0.00     0.062 A 
ATOM     17  C   UNL     1     -19.016  11.340  -9.979  1.00  0.00     0.158 A 
BRANCH  15  18
ATOM     18  O   UNL     1     -19.591  11.067 -12.319  1.00  0.00    -0.504 OA
ATOM     19  H   UNL     1     -19.012  10.427 -12.852  1.00  0.00     0.293 HD
ENDBRANCH  15  18
BRANCH  17  20
ATOM     20  O   UNL     1     -19.494  10.064  -9.680  1.00  0.00    -0.504 OA
ATOM     21  H   UNL     1     -18.906   9.355  -9.259  1.00  0.00     0.293 HD
ENDBRANCH  17  20
ENDBRANCH   1  12
BRANCH   2  22
ATOM     22  O   UNL     1     -19.567  15.363  -7.779  1.00  0.00    -0.502 OA
ATOM     23  H   UNL     1     -19.819  15.921  -8.586  1.00  0.00     0.293 HD
ENDBRANCH   2  22
BRANCH   6  24
ATOM     24  O   UNL     1     -16.289  17.114  -3.964  1.00  0.00    -0.507 OA
ATOM     25  H   UNL     1     -16.516  16.836  -3.021  1.00  0.00     0.293 HD
ENDBRANCH   6  24
BRANCH   8  26
ATOM     26  O   UNL     1     -12.192  15.052  -5.331  1.00  0.00    -0.508 OA
ATOM     27  H   UNL     1     -11.618  14.533  -5.985  1.00  0.00     0.293 HD
ENDBRANCH   8  26
TORSDOF 6
ENDMDL
MODEL 6
REMARK VINA RESULT:    -6.072      2.097      6.726
REMARK INTER + INTRA:          -7.620
REMARK INTER:                  -7.296
REMARK INTRA:                  -0.324
REMARK UNBOUND:                -0.306
REMARK SMILES O=c1c(O)c(-c2ccc(O)c(O)c2)oc2cc(O)cc(O)c12
REMARK SMILES IDX 5 1 3 2 2 3 1 4 22 5 20 6 19 7 17 8 16 9 15 10 14 11 6 12
REMARK SMILES IDX 7 13 8 14 9 15 13 16 11 17 10 18 12 20 4 22 21 24 18 26
REMARK H PARENT 10 19 12 21 4 23 21 25 18 27
REMARK Flexibility Score: inf
ROOT
ATOM      1  C   UNL     1     -16.698  14.143  -7.174  1.00  0.00     0.180 A 
ATOM      2  C   UNL     1     -17.499  13.272  -6.415  1.00  0.00     0.208 A 
ATOM      3  C   UNL     1     -18.540  12.576  -7.051  1.00  0.00     0.238 A 
ATOM      4  O   UNL     1     -19.219  11.758  -6.379  1.00  0.00    -0.285 OA
ATOM      5  C   UNL     1     -18.778  12.773  -8.433  1.00  0.00     0.111 A 
ATOM      6  C   UNL     1     -19.829  12.151  -9.171  1.00  0.00     0.134 A 
ATOM      7  C   UNL     1     -19.889  12.316 -10.560  1.00  0.00     0.093 A 
ATOM      8  C   UNL     1     -18.977  13.132 -11.229  1.00  0.00     0.123 A 
ATOM      9  C   UNL     1     -17.982  13.792 -10.509  1.00  0.00     0.094 A 
ATOM     10  C   UNL     1     -17.873  13.618  -9.127  1.00  0.00     0.146 A 
ATOM     11  O   UNL     1     -16.904  14.256  -8.481  1.00  0.00    -0.452 OA
ENDROOT
BRANCH   1  12
ATOM     12  C   UNL     1     -15.598  14.929  -6.570  1.00  0.00     0.025 A 
ATOM     13  C   UNL     1     -14.295  14.412  -6.477  1.00  0.00     0.016 A 
ATOM     14  C   UNL     1     -13.277  15.164  -5.882  1.00  0.00     0.051 A 
ATOM     15  C   UNL     1     -13.549  16.434  -5.361  1.00  0.00     0.157 A 
ATOM     16  C   UNL     1     -15.871  16.196  -6.027  1.00  0.00     0.062 A 
ATOM     17  C   UNL     1     -14.854  16.952  -5.432  1.00  0.00     0.158 A 
BRANCH  15  18
ATOM     18  O   UNL     1     -12.533  17.182  -4.769  1.00  0.00    -0.504 OA
ATOM     19  H   UNL     1     -11.684  16.746  -4.427  1.00  0.00     0.293 HD
ENDBRANCH  15  18
BRANCH  17  20
ATOM     20  O   UNL     1     -15.159  18.210  -4.916  1.00  0.00    -0.504 OA
ATOM     21  H   UNL     1     -14.456  18.804  -4.494  1.00  0.00     0.293 HD
ENDBRANCH  17  20
ENDBRANCH   1  12
BRANCH   2  22
ATOM     22  O   UNL     1     -17.234  13.076  -5.058  1.00  0.00    -0.502 OA
ATOM     23  H   UNL     1     -17.223  12.157  -4.632  1.00  0.00     0.293 HD
ENDBRANCH   2  22
BRANCH   6  24
ATOM     24  O   UNL     1     -20.848  11.390  -8.588  1.00  0.00    -0.507 OA
ATOM     25  H   UNL     1     -21.294  11.604  -7.709  1.00  0.00     0.293 HD
ENDBRANCH   6  24
BRANCH   8  26
ATOM     26  O   UNL     1     -19.078  13.287 -12.610  1.00  0.00    -0.508 OA
ATOM     27  H   UNL     1     -18.299  13.626 -13.162  1.00  0.00     0.293 HD
ENDBRANCH   8  26
TORSDOF 6
ENDMDL
MODEL 7
REMARK VINA RESULT:    -5.953      1.911      3.703
REMARK INTER + INTRA:          -7.477
REMARK INTER:                  -7.291
REMARK INTRA:                  -0.186
REMARK UNBOUND:                -0.306
REMARK SMILES O=c1c(O)c(-c2ccc(O)c(O)c2)oc2cc(O)cc(O)c12
REMARK SMILES IDX 5 1 3 2 2 3 1 4 22 5 20 6 19 7 17 8 16 9 15 10 14 11 6 12
REMARK SMILES IDX 7 13 8 14 9 15 13 16 11 17 10 18 12 20 4 22 21 24 18 26
REMARK H PARENT 10 19 12 21 4 23 21 25 18 27
REMARK Flexibility Score: inf
ROOT
ATOM      1  C   UNL     1     -16.744  14.215  -8.251  1.00  0.00     0.180 A 
ATOM      2  C   UNL     1     -15.438  14.580  -8.618  1.00  0.00     0.208 A 
ATOM      3  C   UNL     1     -14.699  15.415  -7.764  1.00  0.00     0.238 A 
ATOM      4  O   UNL     1     -13.511  15.694  -8.071  1.00  0.00    -0.285 OA
ATOM      5  C   UNL     1     -15.282  15.889  -6.564  1.00  0.00     0.111 A 
ATOM      6  C   UNL     1     -14.641  16.772  -5.645  1.00  0.00     0.134 A 
ATOM      7  C   UNL     1     -15.262  17.071  -4.426  1.00  0.00     0.093 A 
ATOM      8  C   UNL     1     -16.528  16.572  -4.121  1.00  0.00     0.123 A 
ATOM      9  C   UNL     1     -17.190  15.756  -5.039  1.00  0.00     0.094 A 
ATOM     10  C   UNL     1     -16.581  15.410  -6.248  1.00  0.00     0.146 A 
ATOM     11  O   UNL     1     -17.240  14.622  -7.088  1.00  0.00    -0.452 OA
ENDROOT
BRANCH   1  12
ATOM     12  C   UNL     1     -17.594  13.358  -9.110  1.00  0.00     0.025 A 
ATOM     13  C   UNL     1     -17.939  12.050  -8.725  1.00  0.00     0.016 A 
ATOM     14  C   UNL     1     -18.722  11.251  -9.563  1.00  0.00     0.051 A 
ATOM     15  C   UNL     1     -19.162  11.741 -10.799  1.00  0.00     0.157 A 
ATOM     16  C   UNL     1     -18.020  13.836 -10.360  1.00  0.00     0.062 A 
ATOM     17  C   UNL     1     -18.806  13.039 -11.200  1.00  0.00     0.158 A 
BRANCH  15  18
ATOM     18  O   UNL     1     -19.944  10.942 -11.632  1.00  0.00    -0.504 OA
ATOM     19  H   UNL     1     -19.857   9.932 -11.633  1.00  0.00     0.293 HD
ENDBRANCH  15  18
BRANCH  17  20
ATOM     20  O   UNL     1     -19.221  13.554 -12.428  1.00  0.00    -0.504 OA
ATOM     21  H   UNL     1     -19.568  12.960 -13.170  1.00  0.00     0.293 HD
ENDBRANCH  17  20
ENDBRANCH   1  12
BRANCH   2  22
ATOM     22  O   UNL     1     -14.873  14.083  -9.795  1.00  0.00    -0.502 OA
ATOM     23  H   UNL     1     -14.026  14.467 -10.198  1.00  0.00     0.293 HD
ENDBRANCH   2  22
BRANCH   6  24
ATOM     24  O   UNL     1     -13.415  17.400  -5.891  1.00  0.00    -0.507 OA
ATOM     25  H   UNL     1     -12.800  17.178  -6.659  1.00  0.00     0.293 HD
ENDBRANCH   6  24
BRANCH   8  26
ATOM     26  O   UNL     1     -17.123  16.904  -2.906  1.00  0.00    -0.508 OA
ATOM     27  H   UNL     1     -17.011  16.321  -2.085  1.00  0.00     0.293 HD
ENDBRANCH   8  26
TORSDOF 6
ENDMDL
MODEL 8
REMARK VINA RESULT:    -5.723      2.364      3.598
REMARK INTER + INTRA:          -7.200
REMARK INTER:                  -7.244
REMARK INTRA:                   0.043
REMARK UNBOUND:                -0.306
REMARK SMILES O=c1c(O)c(-c2ccc(O)c(O)c2)oc2cc(O)cc(O)c12
REMARK SMILES IDX 5 1 3 2 2 3 1 4 22 5 20 6 19 7 17 8 16 9 15 10 14 11 6 12
REMARK SMILES IDX 7 13 8 14 9 15 13 16 11 17 10 18 12 20 4 22 21 24 18 26
REMARK H PARENT 10 19 12 21 4 23 21 25 18 27
REMARK Flexibility Score: inf
ROOT
ATOM      1  C   UNL     1     -16.760  14.835  -7.415  1.00  0.00     0.180 A 
ATOM      2  C   UNL     1     -18.026  15.409  -7.208  1.00  0.00     0.208 A 
ATOM      3  C   UNL     1     -18.181  16.369  -6.195  1.00  0.00     0.238 A 
ATOM      4  O   UNL     1     -19.304  16.919  -6.051  1.00  0.00    -0.285 OA
ATOM      5  C   UNL     1     -17.073  16.730  -5.390  1.00  0.00     0.111 A 
ATOM      6  C   UNL     1     -17.126  17.661  -4.311  1.00  0.00     0.134 A 
ATOM      7  C   UNL     1     -15.941  18.040  -3.668  1.00  0.00     0.093 A 
ATOM      8  C   UNL     1     -14.717  17.474  -4.021  1.00  0.00     0.123 A 
ATOM      9  C   UNL     1     -14.663  16.518  -5.035  1.00  0.00     0.094 A 
ATOM     10  C   UNL     1     -15.822  16.146  -5.721  1.00  0.00     0.146 A 
ATOM     11  O   UNL     1     -15.725  15.242  -6.687  1.00  0.00    -0.452 OA
ENDROOT
BRANCH   1  12
ATOM     12  C   UNL     1     -16.522  13.799  -8.446  1.00  0.00     0.025 A 
ATOM     13  C   UNL     1     -15.475  13.918  -9.375  1.00  0.00     0.016 A 
ATOM     14  C   UNL     1     -15.284  12.940 -10.355  1.00  0.00     0.051 A 
ATOM     15  C   UNL     1     -16.143  11.836 -10.428  1.00  0.00     0.157 A 
ATOM     16  C   UNL     1     -17.393  12.700  -8.537  1.00  0.00     0.062 A 
ATOM     17  C   UNL     1     -17.204  11.718  -9.516  1.00  0.00     0.158 A 
BRANCH  15  18
ATOM     18  O   UNL     1     -15.950  10.861 -11.405  1.00  0.00    -0.504 OA
ATOM     19  H   UNL     1     -16.519  10.830 -12.243  1.00  0.00     0.293 HD
ENDBRANCH  15  18
BRANCH  17  20
ATOM     20  O   UNL     1     -18.082  10.636  -9.566  1.00  0.00    -0.504 OA
ATOM     21  H   UNL     1     -17.859   9.786 -10.071  1.00  0.00     0.293 HD
ENDBRANCH  17  20
ENDBRANCH   1  12
BRANCH   2  22
ATOM     22  O   UNL     1     -19.100  15.055  -8.028  1.00  0.00    -0.502 OA
ATOM     23  H   UNL     1     -20.033  15.428  -7.895  1.00  0.00     0.293 HD
ENDBRANCH   2  22
BRANCH   6  24
ATOM     24  O   UNL     1     -18.310  18.217  -3.816  1.00  0.00    -0.507 OA
ATOM     25  H   UNL     1     -19.117  17.686  -3.525  1.00  0.00     0.293 HD
ENDBRANCH   6  24
BRANCH   8  26
ATOM     26  O   UNL     1     -13.560  17.863  -3.348  1.00  0.00    -0.508 OA
ATOM     27  H   UNL     1     -13.045  17.215  -2.763  1.00  0.00     0.293 HD
ENDBRANCH   8  26
TORSDOF 6
ENDMDL
MODEL 9
REMARK VINA RESULT:    -5.639      2.535      4.042
REMARK INTER + INTRA:          -7.099
REMARK INTER:                  -6.887
REMARK INTRA:                  -0.213
REMARK UNBOUND:                -0.306
REMARK SMILES O=c1c(O)c(-c2ccc(O)c(O)c2)oc2cc(O)cc(O)c12
REMARK SMILES IDX 5 1 3 2 2 3 1 4 22 5 20 6 19 7 17 8 16 9 15 10 14 11 6 12
REMARK SMILES IDX 7 13 8 14 9 15 13 16 11 17 10 18 12 20 4 22 21 24 18 26
REMARK H PARENT 10 19 12 21 4 23 21 25 18 27
REMARK Flexibility Score: inf
ROOT
ATOM      1  C   UNL     1     -16.164  14.958  -7.039  1.00  0.00     0.180 A 
ATOM      2  C   UNL     1     -15.076  14.824  -6.160  1.00  0.00     0.208 A 
ATOM      3  C   UNL     1     -14.877  15.798  -5.169  1.00  0.00     0.238 A 
ATOM      4  O   UNL     1     -13.934  15.644  -4.351  1.00  0.00    -0.285 OA
ATOM      5  C   UNL     1     -15.757  16.904  -5.081  1.00  0.00     0.111 A 
ATOM      6  C   UNL     1     -15.626  17.971  -4.143  1.00  0.00     0.134 A 
ATOM      7  C   UNL     1     -16.628  18.945  -4.060  1.00  0.00     0.093 A 
ATOM      8  C   UNL     1     -17.723  18.928  -4.925  1.00  0.00     0.123 A 
ATOM      9  C   UNL     1     -17.830  17.923  -5.886  1.00  0.00     0.094 A 
ATOM     10  C   UNL     1     -16.864  16.916  -5.969  1.00  0.00     0.146 A 
ATOM     11  O   UNL     1     -17.010  15.972  -6.890  1.00  0.00    -0.452 OA
ENDROOT
BRANCH   1  12
ATOM     12  C   UNL     1     -16.426  13.986  -8.125  1.00  0.00     0.025 A 
ATOM     13  C   UNL     1     -15.545  13.848  -9.211  1.00  0.00     0.016 A 
ATOM     14  C   UNL     1     -15.824  12.939 -10.237  1.00  0.00     0.051 A 
ATOM     15  C   UNL     1     -16.991  12.166 -10.197  1.00  0.00     0.157 A 
ATOM     16  C   UNL     1     -17.605  13.223  -8.101  1.00  0.00     0.062 A 
ATOM     17  C   UNL     1     -17.887  12.312  -9.125  1.00  0.00     0.158 A 
BRANCH  15  18
ATOM     18  O   UNL     1     -17.267  11.260 -11.221  1.00  0.00    -0.504 OA
ATOM     19  H   UNL     1     -18.184  10.842 -11.325  1.00  0.00     0.293 HD
ENDBRANCH  15  18
BRANCH  17  20
ATOM     20  O   UNL     1     -19.061  11.563  -9.061  1.00  0.00    -0.504 OA
ATOM     21  H   UNL     1     -19.106  10.673  -8.578  1.00  0.00     0.293 HD
ENDBRANCH  17  20
ENDBRANCH   1  12
BRANCH   2  22
ATOM     22  O   UNL     1     -14.233  13.714  -6.250  1.00  0.00    -0.502 OA
ATOM     23  H   UNL     1     -14.518  12.787  -5.954  1.00  0.00     0.293 HD
ENDBRANCH   2  22
BRANCH   6  24
ATOM     24  O   UNL     1     -14.525  18.135  -3.295  1.00  0.00    -0.507 OA
ATOM     25  H   UNL     1     -14.107  17.399  -2.747  1.00  0.00     0.293 HD
ENDBRANCH   6  24
BRANCH   8  26
ATOM     26  O   UNL     1     -18.693  19.923  -4.825  1.00  0.00    -0.508 OA
ATOM     27  H   UNL     1     -18.453  20.905  -4.889  1.00  0.00     0.293 HD
ENDBRANCH   8  26
TORSDOF 6
ENDMDL
