MODEL 1
REMARK VINA RESULT:    -5.535      0.000      0.000
REMARK INTER + INTRA:          -6.596
REMARK INTER:                  -6.344
REMARK INTRA:                  -0.252
REMARK UNBOUND:                -0.252
REMARK SMILES COc1ccc(C=O)c(O)c1
REMARK SMILES IDX 3 1 11 2 9 3 6 4 5 5 4 6 2 7 1 8 10 9 7 11 8 12
REMARK H PARENT 10 10
REMARK Flexibility Score: inf
ROOT
ATOM      1  C   UNL     1     -14.402  -0.034 -10.307  1.00  0.00     0.122 A 
ATOM      2  C   UNL     1     -13.059  -0.096  -9.926  1.00  0.00     0.093 A 
ATOM      3  C   UNL     1     -12.413   1.013  -9.365  1.00  0.00     0.129 A 
ATOM      4  C   UNL     1     -13.118   2.236  -9.223  1.00  0.00     0.056 A 
ATOM      5  C   UNL     1     -14.474   2.284  -9.586  1.00  0.00     0.019 A 
ATOM      6  C   UNL     1     -15.111   1.165 -10.124  1.00  0.00     0.047 A 
ENDROOT
BRANCH   1   7
ATOM      7  O   UNL     1     -14.993  -1.182 -10.854  1.00  0.00    -0.497 OA
ATOM      8  C   UNL     1     -14.761  -2.507 -10.387  1.00  0.00     0.278 C 
ENDBRANCH   1   7
BRANCH   3   9
ATOM      9  O   UNL     1     -11.094   0.844  -8.935  1.00  0.00    -0.507 OA
ATOM     10  H   UNL     1     -10.293   0.918  -9.544  1.00  0.00     0.293 HD
ENDBRANCH   3   9
BRANCH   4  11
ATOM     11  C   UNL     1     -12.494   3.486  -8.738  1.00  0.00     0.263 C 
ATOM     12  O   UNL     1     -11.411   3.482  -8.098  1.00  0.00    -0.298 OA
ENDBRANCH   4  11
TORSDOF 3
ENDMDL
MODEL 2
REMARK VINA RESULT:    -4.971      1.306      2.092
REMARK INTER + INTRA:          -5.950
REMARK INTER:                  -5.709
REMARK INTRA:                  -0.240
REMARK UNBOUND:                -0.252
REMARK SMILES COc1ccc(C=O)c(O)c1
REMARK SMILES IDX 3 1 11 2 9 3 6 4 5 5 4 6 2 7 1 8 10 9 7 11 8 12
REMARK H PARENT 10 10
REMARK Flexibility Score: inf
ROOT
ATOM      1  C   UNL     1     -14.161  -0.268 -10.381  1.00  0.00     0.122 A 
ATOM      2  C   UNL     1     -14.914   0.857 -10.038  1.00  0.00     0.093 A 
ATOM      3  C   UNL     1     -14.307   2.000  -9.500  1.00  0.00     0.129 A 
ATOM      4  C   UNL     1     -12.910   2.000  -9.257  1.00  0.00     0.056 A 
ATOM      5  C   UNL     1     -12.156   0.874  -9.626  1.00  0.00     0.019 A 
ATOM      6  C   UNL     1     -12.771  -0.249 -10.180  1.00  0.00     0.047 A 
ENDROOT
BRANCH   1   7
ATOM      7  O   UNL     1     -14.829  -1.377 -10.923  1.00  0.00    -0.497 OA
ATOM      8  C   UNL     1     -14.801  -2.685 -10.361  1.00  0.00     0.278 C 
ENDBRANCH   1   7
BRANCH   3   9
ATOM      9  O   UNL     1     -15.118   3.111  -9.261  1.00  0.00    -0.507 OA
ATOM     10  H   UNL     1     -14.796   4.065  -9.328  1.00  0.00     0.293 HD
ENDBRANCH   3   9
BRANCH   4  11
ATOM     11  C   UNL     1     -12.195   3.116  -8.600  1.00  0.00     0.263 C 
ATOM     12  O   UNL     1     -12.800   4.139  -8.189  1.00  0.00    -0.298 OA
ENDBRANCH   4  11
TORSDOF 3
ENDMDL
MODEL 3
REMARK VINA RESULT:    -4.891      2.008      2.723
REMARK INTER + INTRA:          -5.858
REMARK INTER:                  -5.612
REMARK INTRA:                  -0.246
REMARK UNBOUND:                -0.252
REMARK SMILES COc1ccc(C=O)c(O)c1
REMARK SMILES IDX 3 1 11 2 9 3 6 4 5 5 4 6 2 7 1 8 10 9 7 11 8 12
REMARK H PARENT 10 10
REMARK Flexibility Score: inf
ROOT
ATOM      1  C   UNL     1     -11.831  -1.076 -10.020  1.00  0.00     0.122 A 
ATOM      2  C   UNL     1     -11.379   0.132  -9.481  1.00  0.00     0.093 A 
ATOM      3  C   UNL     1     -12.256   1.203  -9.268  1.00  0.00     0.129 A 
ATOM      4  C   UNL     1     -13.617   1.080  -9.648  1.00  0.00     0.056 A 
ATOM      5  C   UNL     1     -14.069  -0.144 -10.168  1.00  0.00     0.019 A 
ATOM      6  C   UNL     1     -13.188  -1.211 -10.354  1.00  0.00     0.047 A 
ENDROOT
BRANCH   1   7
ATOM      7  O   UNL     1     -10.904  -2.113 -10.200  1.00  0.00    -0.497 OA
ATOM      8  C   UNL     1     -10.944  -3.357  -9.507  1.00  0.00     0.278 C 
ENDBRANCH   1   7
BRANCH   3   9
ATOM      9  O   UNL     1     -11.742   2.345  -8.649  1.00  0.00    -0.507 OA
ATOM     10  H   UNL     1     -12.188   2.810  -7.872  1.00  0.00     0.293 HD
ENDBRANCH   3   9
BRANCH   4  11
ATOM     11  C   UNL     1     -14.594   2.187  -9.558  1.00  0.00     0.263 C 
ATOM     12  O   UNL     1     -14.380   3.203  -8.848  1.00  0.00    -0.298 OA
ENDBRANCH   4  11
TORSDOF 3
ENDMDL
MODEL 4
REMARK VINA RESULT:    -4.685      5.634      6.803
REMARK INTER + INTRA:          -5.622
REMARK INTER:                  -5.358
REMARK INTRA:                  -0.265
REMARK UNBOUND:                -0.252
REMARK SMILES COc1ccc(C=O)c(O)c1
REMARK SMILES IDX 3 1 11 2 9 3 6 4 5 5 4 6 2 7 1 8 10 9 7 11 8 12
REMARK H PARENT 10 10
REMARK Flexibility Score: inf
ROOT
ATOM      1  C   UNL     1     -10.526  -5.992  -7.661  1.00  0.00     0.122 A 
ATOM      2  C   UNL     1     -10.338  -5.622  -8.996  1.00  0.00     0.093 A 
ATOM      3  C   UNL     1     -10.291  -4.275  -9.375  1.00  0.00     0.129 A 
ATOM      4  C   UNL     1     -10.485  -3.266  -8.398  1.00  0.00     0.056 A 
ATOM      5  C   UNL     1     -10.651  -3.643  -7.055  1.00  0.00     0.019 A 
ATOM      6  C   UNL     1     -10.673  -4.990  -6.689  1.00  0.00     0.047 A 
ENDROOT
BRANCH   1   7
ATOM      7  O   UNL     1     -10.554  -7.358  -7.346  1.00  0.00    -0.497 OA
ATOM      8  C   UNL     1     -11.168  -7.902  -6.181  1.00  0.00     0.278 C 
ENDBRANCH   1   7
BRANCH   3   9
ATOM      9  O   UNL     1     -10.017  -3.990 -10.716  1.00  0.00    -0.507 OA
ATOM     10  H   UNL     1      -9.835  -3.061 -11.065  1.00  0.00     0.293 HD
ENDBRANCH   3   9
BRANCH   4  11
ATOM     11  C   UNL     1     -10.555  -1.823  -8.716  1.00  0.00     0.263 C 
ATOM     12  O   UNL     1     -10.889  -1.411  -9.857  1.00  0.00    -0.298 OA
ENDBRANCH   4  11
TORSDOF 3
ENDMDL
MODEL 5
REMARK VINA RESULT:    -4.676      5.524      7.450
REMARK INTER + INTRA:          -5.612
REMARK INTER:                  -5.359
REMARK INTRA:                  -0.253
REMARK UNBOUND:                -0.252
REMARK SMILES COc1ccc(C=O)c(O)c1
REMARK SMILES IDX 3 1 11 2 9 3 6 4 5 5 4 6 2 7 1 8 10 9 7 11 8 12
REMARK H PARENT 10 10
REMARK Flexibility Score: inf
ROOT
ATOM      1  C   UNL     1     -10.475  -3.068  -9.001  1.00  0.00     0.122 A 
ATOM      2  C   UNL     1     -10.636  -4.295  -9.651  1.00  0.00     0.093 A 
ATOM      3  C   UNL     1     -10.784  -5.485  -8.928  1.00  0.00     0.129 A 
ATOM      4  C   UNL     1     -10.723  -5.454  -7.511  1.00  0.00     0.056 A 
ATOM      5  C   UNL     1     -10.584  -4.215  -6.864  1.00  0.00     0.019 A 
ATOM      6  C   UNL     1     -10.460  -3.035  -7.597  1.00  0.00     0.047 A 
ENDROOT
BRANCH   1   7
ATOM      7  O   UNL     1     -10.340  -1.912  -9.783  1.00  0.00    -0.497 OA
ATOM      8  C   UNL     1     -11.058  -0.702  -9.560  1.00  0.00     0.278 C 
ENDBRANCH   1   7
BRANCH   3   9
ATOM      9  O   UNL     1     -11.023  -6.656  -9.651  1.00  0.00    -0.507 OA
ATOM     10  H   UNL     1     -10.592  -7.543  -9.439  1.00  0.00     0.293 HD
ENDBRANCH   3   9
BRANCH   4  11
ATOM     11  C   UNL     1     -10.767  -6.667  -6.665  1.00  0.00     0.263 C 
ATOM     12  O   UNL     1     -10.556  -7.813  -7.139  1.00  0.00    -0.298 OA
ENDBRANCH   4  11
TORSDOF 3
ENDMDL
MODEL 6
REMARK VINA RESULT:    -4.637      6.457      7.758
REMARK INTER + INTRA:          -5.567
REMARK INTER:                  -5.302
REMARK INTRA:                  -0.265
REMARK UNBOUND:                -0.252
REMARK SMILES COc1ccc(C=O)c(O)c1
REMARK SMILES IDX 3 1 11 2 9 3 6 4 5 5 4 6 2 7 1 8 10 9 7 11 8 12
REMARK H PARENT 10 10
REMARK Flexibility Score: inf
ROOT
ATOM      1  C   UNL     1     -11.195  -6.786  -6.517  1.00  0.00     0.122 A 
ATOM      2  C   UNL     1     -10.591  -6.808  -7.777  1.00  0.00     0.093 A 
ATOM      3  C   UNL     1     -10.174  -5.625  -8.402  1.00  0.00     0.129 A 
ATOM      4  C   UNL     1     -10.411  -4.379  -7.768  1.00  0.00     0.056 A 
ATOM      5  C   UNL     1     -10.998  -4.366  -6.492  1.00  0.00     0.019 A 
ATOM      6  C   UNL     1     -11.388  -5.554  -5.872  1.00  0.00     0.047 A 
ENDROOT
BRANCH   1   7
ATOM      7  O   UNL     1     -11.582  -8.006  -5.943  1.00  0.00    -0.497 OA
ATOM      8  C   UNL     1     -12.380  -8.125  -4.769  1.00  0.00     0.278 C 
ENDBRANCH   1   7
BRANCH   3   9
ATOM      9  O   UNL     1      -9.505  -5.740  -9.622  1.00  0.00    -0.507 OA
ATOM     10  H   UNL     1      -8.679  -5.211  -9.861  1.00  0.00     0.293 HD
ENDBRANCH   3   9
BRANCH   4  11
ATOM     11  C   UNL     1     -10.100  -3.074  -8.391  1.00  0.00     0.263 C 
ATOM     12  O   UNL     1     -10.328  -2.850  -9.608  1.00  0.00    -0.298 OA
ENDBRANCH   4  11
TORSDOF 3
ENDMDL
MODEL 7
REMARK VINA RESULT:    -4.623      6.409      8.014
REMARK INTER + INTRA:          -5.551
REMARK INTER:                  -5.295
REMARK INTRA:                  -0.256
REMARK UNBOUND:                -0.252
REMARK SMILES COc1ccc(C=O)c(O)c1
REMARK SMILES IDX 3 1 11 2 9 3 6 4 5 5 4 6 2 7 1 8 10 9 7 11 8 12
REMARK H PARENT 10 10
REMARK Flexibility Score: inf
ROOT
ATOM      1  C   UNL     1     -10.945  -7.139  -6.730  1.00  0.00     0.122 A 
ATOM      2  C   UNL     1     -10.803  -5.807  -6.333  1.00  0.00     0.093 A 
ATOM      3  C   UNL     1     -10.624  -4.785  -7.274  1.00  0.00     0.129 A 
ATOM      4  C   UNL     1     -10.538  -5.110  -8.652  1.00  0.00     0.056 A 
ATOM      5  C   UNL     1     -10.706  -6.448  -9.046  1.00  0.00     0.019 A 
ATOM      6  C   UNL     1     -10.905  -7.453  -8.099  1.00  0.00     0.047 A 
ENDROOT
BRANCH   1   7
ATOM      7  O   UNL     1     -11.131  -8.115  -5.739  1.00  0.00    -0.497 OA
ATOM      8  C   UNL     1     -12.140  -8.061  -4.736  1.00  0.00     0.278 C 
ENDBRANCH   1   7
BRANCH   3   9
ATOM      9  O   UNL     1     -10.572  -3.472  -6.800  1.00  0.00    -0.507 OA
ATOM     10  H   UNL     1     -11.108  -3.140  -6.011  1.00  0.00     0.293 HD
ENDBRANCH   3   9
BRANCH   4  11
ATOM     11  C   UNL     1     -10.250  -4.117  -9.709  1.00  0.00     0.263 C 
ATOM     12  O   UNL     1     -10.889  -3.037  -9.796  1.00  0.00    -0.298 OA
ENDBRANCH   4  11
TORSDOF 3
ENDMDL
MODEL 8
REMARK VINA RESULT:    -4.593      5.174      6.348
REMARK INTER + INTRA:          -5.517
REMARK INTER:                  -5.447
REMARK INTRA:                  -0.069
REMARK UNBOUND:                -0.252
REMARK SMILES COc1ccc(C=O)c(O)c1
REMARK SMILES IDX 3 1 11 2 9 3 6 4 5 5 4 6 2 7 1 8 10 9 7 11 8 12
REMARK H PARENT 10 10
REMARK Flexibility Score: inf
ROOT
ATOM      1  C   UNL     1     -10.748  -5.640  -7.878  1.00  0.00     0.122 A 
ATOM      2  C   UNL     1      -9.574  -4.889  -7.785  1.00  0.00     0.093 A 
ATOM      3  C   UNL     1      -9.482  -3.614  -8.360  1.00  0.00     0.129 A 
ATOM      4  C   UNL     1     -10.582  -3.094  -9.088  1.00  0.00     0.056 A 
ATOM      5  C   UNL     1     -11.767  -3.845  -9.157  1.00  0.00     0.019 A 
ATOM      6  C   UNL     1     -11.852  -5.104  -8.562  1.00  0.00     0.047 A 
ENDROOT
BRANCH   1   7
ATOM      7  O   UNL     1     -10.779  -6.906  -7.274  1.00  0.00    -0.497 OA
ATOM      8  C   UNL     1     -11.014  -8.125  -7.972  1.00  0.00     0.278 C 
ENDBRANCH   1   7
BRANCH   3   9
ATOM      9  O   UNL     1      -8.302  -2.895  -8.151  1.00  0.00    -0.507 OA
ATOM     10  H   UNL     1      -7.390  -3.323  -8.081  1.00  0.00     0.293 HD
ENDBRANCH   3   9
BRANCH   4  11
ATOM     11  C   UNL     1     -10.545  -1.806  -9.814  1.00  0.00     0.263 C 
ATOM     12  O   UNL     1     -10.972  -0.741  -9.297  1.00  0.00    -0.298 OA
ENDBRANCH   4  11
TORSDOF 3
ENDMDL
MODEL 9
REMARK VINA RESULT:    -4.182      6.316      8.430
REMARK INTER + INTRA:          -5.045
REMARK INTER:                  -4.787
REMARK INTRA:                  -0.258
REMARK UNBOUND:                -0.252
REMARK SMILES COc1ccc(C=O)c(O)c1
REMARK SMILES IDX 3 1 11 2 9 3 6 4 5 5 4 6 2 7 1 8 10 9 7 11 8 12
REMARK H PARENT 10 10
REMARK Flexibility Score: inf
ROOT
ATOM      1  C   UNL     1     -11.344  -4.655  -8.220  1.00  0.00     0.122 A 
ATOM      2  C   UNL     1     -12.133  -5.776  -8.494  1.00  0.00     0.093 A 
ATOM      3  C   UNL     1     -12.391  -6.739  -7.511  1.00  0.00     0.129 A 
ATOM      4  C   UNL     1     -11.806  -6.601  -6.226  1.00  0.00     0.056 A 
ATOM      5  C   UNL     1     -11.034  -5.461  -5.950  1.00  0.00     0.019 A 
ATOM      6  C   UNL     1     -10.802  -4.498  -6.934  1.00  0.00     0.047 A 
ENDROOT
BRANCH   1   7
ATOM      7  O   UNL     1     -11.131  -3.723  -9.246  1.00  0.00    -0.497 OA
ATOM      8  C   UNL     1      -9.924  -3.612  -9.994  1.00  0.00     0.278 C 
ENDBRANCH   1   7
BRANCH   3   9
ATOM      9  O   UNL     1     -13.256  -7.785  -7.842  1.00  0.00    -0.507 OA
ATOM     10  H   UNL     1     -14.159  -7.651  -8.271  1.00  0.00     0.293 HD
ENDBRANCH   3   9
BRANCH   4  11
ATOM     11  C   UNL     1     -11.936  -7.614  -5.157  1.00  0.00     0.263 C 
ATOM     12  O   UNL     1     -13.047  -8.125  -4.859  1.00  0.00    -0.298 OA
ENDBRANCH   4  11
TORSDOF 3
ENDMDL
