MODEL 1
REMARK VINA RESULT:    -3.051      0.000      0.000
REMARK INTER + INTRA:          -3.297
REMARK INTER:                  -3.765
REMARK INTRA:                   0.468
REMARK UNBOUND:                 0.468
REMARK SMILES COc1cc(-c2oc3cc(O)cc(O)c3c(=O)c2O)ccc1O
REMARK SMILES IDX 6 1 18 2 16 3 17 4 15 5 13 6 12 7 10 8 9 9 8 10 7 11 5 12
REMARK SMILES IDX 3 13 22 14 4 15 21 16 20 17 2 18 1 19 23 20 19 22 14 24
REMARK SMILES IDX 11 26
REMARK H PARENT 23 21 19 23 14 25 11 27
REMARK Flexibility Score: inf
ROOT
ATOM      1  C   UNL     1      -7.752  -2.075 -10.016  1.00  0.00     0.180 A 
ATOM      2  C   UNL     1      -8.746  -1.088  -9.886  1.00  0.00     0.208 A 
ATOM      3  C   UNL     1      -8.365   0.263  -9.877  1.00  0.00     0.238 A 
ATOM      4  O   UNL     1      -9.254   1.139  -9.706  1.00  0.00    -0.285 OA
ATOM      5  C   UNL     1      -7.000   0.612 -10.014  1.00  0.00     0.111 A 
ATOM      6  C   UNL     1      -6.507   1.950 -10.059  1.00  0.00     0.134 A 
ATOM      7  C   UNL     1      -5.125   2.177 -10.065  1.00  0.00     0.093 A 
ATOM      8  C   UNL     1      -4.221   1.113 -10.095  1.00  0.00     0.123 A 
ATOM      9  C   UNL     1      -4.695  -0.197 -10.112  1.00  0.00     0.094 A 
ATOM     10  C   UNL     1      -6.067  -0.455 -10.070  1.00  0.00     0.146 A 
ATOM     11  O   UNL     1      -6.475  -1.718 -10.076  1.00  0.00    -0.452 OA
ENDROOT
BRANCH   1  12
ATOM     12  C   UNL     1      -8.079  -3.519 -10.059  1.00  0.00     0.025 A 
ATOM     13  C   UNL     1      -7.402  -5.870 -10.021  1.00  0.00     0.161 A 
ATOM     14  C   UNL     1      -8.755  -6.250 -10.089  1.00  0.00     0.157 A 
ATOM     15  C   UNL     1      -7.073  -4.499 -10.000  1.00  0.00     0.062 A 
ATOM     16  C   UNL     1      -9.755  -5.275 -10.125  1.00  0.00     0.051 A 
ATOM     17  C   UNL     1      -9.422  -3.919 -10.103  1.00  0.00     0.016 A 
BRANCH  13  18
ATOM     18  O   UNL     1      -6.419  -6.871  -9.974  1.00  0.00    -0.493 OA
ATOM     19  C   UNL     1      -5.682  -7.226  -8.808  1.00  0.00     0.278 C 
ENDBRANCH  13  18
BRANCH  14  20
ATOM     20  O   UNL     1      -9.124  -7.595 -10.116  1.00  0.00    -0.504 OA
ATOM     21  H   UNL     1     -10.020  -7.902 -10.475  1.00  0.00     0.293 HD
ENDBRANCH  14  20
ENDBRANCH   1  12
BRANCH   2  22
ATOM     22  O   UNL     1     -10.085  -1.455  -9.730  1.00  0.00    -0.502 OA
ATOM     23  H   UNL     1     -10.697  -1.630 -10.518  1.00  0.00     0.293 HD
ENDBRANCH   2  22
BRANCH   6  24
ATOM     24  O   UNL     1      -7.325   3.082 -10.125  1.00  0.00    -0.507 OA
ATOM     25  H   UNL     1      -7.422   3.675 -10.936  1.00  0.00     0.293 HD
ENDBRANCH   6  24
BRANCH   8  26
ATOM     26  O   UNL     1      -2.848   1.346 -10.117  1.00  0.00    -0.508 OA
ATOM     27  H   UNL     1      -2.356   1.692  -9.301  1.00  0.00     0.293 HD
ENDBRANCH   8  26
TORSDOF 6
ENDMDL
MODEL 2
REMARK VINA RESULT:    -1.936      1.829      2.431
REMARK INTER + INTRA:          -1.920
REMARK INTER:                  -2.311
REMARK INTRA:                   0.391
REMARK UNBOUND:                 0.468
REMARK SMILES COc1cc(-c2oc3cc(O)cc(O)c3c(=O)c2O)ccc1O
REMARK SMILES IDX 6 1 18 2 16 3 17 4 15 5 13 6 12 7 10 8 9 9 8 10 7 11 5 12
REMARK SMILES IDX 3 13 22 14 4 15 21 16 20 17 2 18 1 19 23 20 19 22 14 24
REMARK SMILES IDX 11 26
REMARK H PARENT 23 21 19 23 14 25 11 27
REMARK Flexibility Score: inf
ROOT
ATOM      1  C   UNL     1      -6.466  -4.070  -9.737  1.00  0.00     0.180 A 
ATOM      2  C   UNL     1      -7.461  -3.092  -9.908  1.00  0.00     0.208 A 
ATOM      3  C   UNL     1      -7.090  -1.738  -9.912  1.00  0.00     0.238 A 
ATOM      4  O   UNL     1      -7.993  -0.866 -10.011  1.00  0.00    -0.285 OA
ATOM      5  C   UNL     1      -5.729  -1.380  -9.762  1.00  0.00     0.111 A 
ATOM      6  C   UNL     1      -5.237  -0.040  -9.793  1.00  0.00     0.134 A 
ATOM      7  C   UNL     1      -3.889   0.206  -9.503  1.00  0.00     0.093 A 
ATOM      8  C   UNL     1      -3.003  -0.844  -9.249  1.00  0.00     0.123 A 
ATOM      9  C   UNL     1      -3.463  -2.158  -9.277  1.00  0.00     0.094 A 
ATOM     10  C   UNL     1      -4.809  -2.434  -9.527  1.00  0.00     0.146 A 
ATOM     11  O   UNL     1      -5.208  -3.700  -9.533  1.00  0.00    -0.452 OA
ENDROOT
BRANCH   1  12
ATOM     12  C   UNL     1      -6.776  -5.519  -9.747  1.00  0.00     0.025 A 
ATOM     13  C   UNL     1      -6.079  -7.857  -9.924  1.00  0.00     0.161 A 
ATOM     14  C   UNL     1      -7.408  -8.260  -9.702  1.00  0.00     0.157 A 
ATOM     15  C   UNL     1      -5.770  -6.481  -9.938  1.00  0.00     0.062 A 
ATOM     16  C   UNL     1      -8.403  -7.302  -9.490  1.00  0.00     0.051 A 
ATOM     17  C   UNL     1      -8.091  -5.942  -9.504  1.00  0.00     0.016 A 
BRANCH  13  18
ATOM     18  O   UNL     1      -5.098  -8.842 -10.123  1.00  0.00    -0.493 OA
ATOM     19  C   UNL     1      -3.715  -8.677  -9.822  1.00  0.00     0.278 C 
ENDBRANCH  13  18
BRANCH  14  20
ATOM     20  O   UNL     1      -7.759  -9.610  -9.684  1.00  0.00    -0.504 OA
ATOM     21  H   UNL     1      -8.571  -9.964 -10.174  1.00  0.00     0.293 HD
ENDBRANCH  14  20
ENDBRANCH   1  12
BRANCH   2  22
ATOM     22  O   UNL     1      -8.802  -3.468 -10.032  1.00  0.00    -0.502 OA
ATOM     23  H   UNL     1      -9.542  -3.025  -9.501  1.00  0.00     0.293 HD
ENDBRANCH   2  22
BRANCH   6  24
ATOM     24  O   UNL     1      -6.017   1.071 -10.125  1.00  0.00    -0.507 OA
ATOM     25  H   UNL     1      -6.027   1.516 -11.030  1.00  0.00     0.293 HD
ENDBRANCH   6  24
BRANCH   8  26
ATOM     26  O   UNL     1      -1.660  -0.592  -8.978  1.00  0.00    -0.508 OA
ATOM     27  H   UNL     1      -1.164   0.172  -9.423  1.00  0.00     0.293 HD
ENDBRANCH   8  26
TORSDOF 6
ENDMDL
