MODEL 1
REMARK VINA RESULT:    -4.787      0.000      0.000
REMARK INTER + INTRA:         -10.357
REMARK INTER:                  -9.264
REMARK INTRA:                  -1.093
REMARK UNBOUND:                -1.093
REMARK SMILES CCCCCCCCCCCCCCCCCC(=O)[O-]
REMARK SMILES IDX 10 1 11 2 12 3 13 4 14 5 15 6 16 7 17 8 18 9 19 10 20 11
REMARK SMILES IDX 9 12 8 13 7 14 6 15 5 16 4 17 3 18 2 19 1 20
REMARK H PARENT
REMARK Flexibility Score: inf
ROOT
ATOM      1  C   UNL     1     -29.817  20.505  25.356  1.00  0.00     0.000 C 
ENDROOT
BRANCH   1   2
ATOM      2  C   UNL     1     -29.100  21.845  25.581  1.00  0.00     0.000 C 
BRANCH   2   3
ATOM      3  C   UNL     1     -29.395  22.458  26.962  1.00  0.00     0.000 C 
BRANCH   3   4
ATOM      4  C   UNL     1     -30.559  21.801  27.729  1.00  0.00     0.000 C 
BRANCH   4   5
ATOM      5  C   UNL     1     -30.561  22.053  29.249  1.00  0.00     0.000 C 
BRANCH   5   6
ATOM      6  C   UNL     1     -31.803  22.822  29.749  1.00  0.00     0.000 C 
BRANCH   6   7
ATOM      7  C   UNL     1     -31.680  24.340  29.535  1.00  0.00     0.006 C 
BRANCH   7   8
ATOM      8  C   UNL     1     -32.053  25.136  30.792  1.00  0.00     0.053 C 
BRANCH   8   9
ATOM      9  C   UNL     1     -33.538  25.231  30.973  1.00  0.00     0.041 C 
ATOM     10  O   UNL     1     -34.050  25.065  32.112  1.00  0.00    -0.550 OA
ATOM     11  O   UNL     1     -34.353  25.535  29.890  1.00  0.00    -0.550 OA
ENDBRANCH   8   9
ENDBRANCH   7   8
ENDBRANCH   6   7
ENDBRANCH   5   6
ENDBRANCH   4   5
ENDBRANCH   3   4
ENDBRANCH   2   3
ENDBRANCH   1   2
BRANCH   1  12
ATOM     12  C   UNL     1     -30.171  20.316  23.874  1.00  0.00     0.000 C 
BRANCH  12  13
ATOM     13  C   UNL     1     -31.564  19.695  23.665  1.00  0.00    -0.000 C 
BRANCH  13  14
ATOM     14  C   UNL     1     -32.581  19.985  24.786  1.00  0.00    -0.000 C 
BRANCH  14  15
ATOM     15  C   UNL     1     -33.682  18.921  24.960  1.00  0.00    -0.000 C 
BRANCH  15  16
ATOM     16  C   UNL     1     -33.341  17.533  24.383  1.00  0.00    -0.000 C 
BRANCH  16  17
ATOM     17  C   UNL     1     -33.441  16.368  25.388  1.00  0.00    -0.000 C 
BRANCH  17  18
ATOM     18  C   UNL     1     -34.541  16.521  26.458  1.00  0.00    -0.000 C 
BRANCH  18  19
ATOM     19  C   UNL     1     -34.425  15.550  27.647  1.00  0.00    -0.003 C 
ATOM     20  C   UNL     1     -33.463  14.394  27.379  1.00  0.00     0.004 C 
ENDBRANCH  18  19
ENDBRANCH  17  18
ENDBRANCH  16  17
ENDBRANCH  15  16
ENDBRANCH  14  15
ENDBRANCH  13  14
ENDBRANCH  12  13
ENDBRANCH   1  12
TORSDOF 16
ENDMDL
MODEL 2
REMARK VINA RESULT:    -4.661      2.578      4.469
REMARK INTER + INTRA:         -10.115
REMARK INTER:                  -7.961
REMARK INTRA:                  -2.153
REMARK UNBOUND:                -1.093
REMARK SMILES CCCCCCCCCCCCCCCCCC(=O)[O-]
REMARK SMILES IDX 10 1 11 2 12 3 13 4 14 5 15 6 16 7 17 8 18 9 19 10 20 11
REMARK SMILES IDX 9 12 8 13 7 14 6 15 5 16 4 17 3 18 2 19 1 20
REMARK H PARENT
REMARK Flexibility Score: inf
ROOT
ATOM      1  C   UNL     1     -30.130  19.369  26.247  1.00  0.00     0.000 C 
ENDROOT
BRANCH   1   2
ATOM      2  C   UNL     1     -29.304  20.315  27.132  1.00  0.00     0.000 C 
BRANCH   2   3
ATOM      3  C   UNL     1     -29.495  21.798  26.766  1.00  0.00     0.000 C 
BRANCH   3   4
ATOM      4  C   UNL     1     -29.855  22.717  27.949  1.00  0.00     0.000 C 
BRANCH   4   5
ATOM      5  C   UNL     1     -30.619  22.032  29.097  1.00  0.00     0.000 C 
BRANCH   5   6
ATOM      6  C   UNL     1     -31.896  22.784  29.530  1.00  0.00     0.000 C 
BRANCH   6   7
ATOM      7  C   UNL     1     -31.664  24.297  29.680  1.00  0.00     0.006 C 
BRANCH   7   8
ATOM      8  C   UNL     1     -32.841  24.999  30.372  1.00  0.00     0.053 C 
BRANCH   8   9
ATOM      9  C   UNL     1     -32.918  24.655  31.828  1.00  0.00     0.041 C 
ATOM     10  O   UNL     1     -34.017  24.319  32.342  1.00  0.00    -0.550 OA
ATOM     11  O   UNL     1     -31.770  24.674  32.610  1.00  0.00    -0.550 OA
ENDBRANCH   8   9
ENDBRANCH   7   8
ENDBRANCH   6   7
ENDBRANCH   5   6
ENDBRANCH   4   5
ENDBRANCH   3   4
ENDBRANCH   2   3
ENDBRANCH   1   2
BRANCH   1  12
ATOM     12  C   UNL     1     -31.550  19.914  26.038  1.00  0.00     0.000 C 
BRANCH  12  13
ATOM     13  C   UNL     1     -31.959  19.967  24.555  1.00  0.00    -0.000 C 
BRANCH  13  14
ATOM     14  C   UNL     1     -30.990  19.262  23.586  1.00  0.00    -0.000 C 
BRANCH  14  15
ATOM     15  C   UNL     1     -30.340  20.177  22.530  1.00  0.00    -0.000 C 
BRANCH  15  16
ATOM     16  C   UNL     1     -29.538  21.362  23.104  1.00  0.00    -0.000 C 
BRANCH  16  17
ATOM     17  C   UNL     1     -28.006  21.227  22.990  1.00  0.00    -0.000 C 
BRANCH  17  18
ATOM     18  C   UNL     1     -27.349  20.312  24.044  1.00  0.00    -0.000 C 
BRANCH  18  19
ATOM     19  C   UNL     1     -26.934  18.924  23.527  1.00  0.00    -0.003 C 
ATOM     20  C   UNL     1     -26.626  18.914  22.030  1.00  0.00     0.004 C 
ENDBRANCH  18  19
ENDBRANCH  17  18
ENDBRANCH  16  17
ENDBRANCH  15  16
ENDBRANCH  14  15
ENDBRANCH  13  14
ENDBRANCH  12  13
ENDBRANCH   1  12
TORSDOF 16
ENDMDL
MODEL 3
REMARK VINA RESULT:    -4.633      2.301      3.982
REMARK INTER + INTRA:         -10.061
REMARK INTER:                  -8.085
REMARK INTRA:                  -1.976
REMARK UNBOUND:                -1.093
REMARK SMILES CCCCCCCCCCCCCCCCCC(=O)[O-]
REMARK SMILES IDX 10 1 11 2 12 3 13 4 14 5 15 6 16 7 17 8 18 9 19 10 20 11
REMARK SMILES IDX 9 12 8 13 7 14 6 15 5 16 4 17 3 18 2 19 1 20
REMARK H PARENT
REMARK Flexibility Score: inf
ROOT
ATOM      1  C   UNL     1     -27.213  19.387  26.450  1.00  0.00     0.000 C 
ENDROOT
BRANCH   1   2
ATOM      2  C   UNL     1     -28.417  20.221  26.913  1.00  0.00     0.000 C 
BRANCH   2   3
ATOM      3  C   UNL     1     -28.184  21.737  26.779  1.00  0.00     0.000 C 
BRANCH   3   4
ATOM      4  C   UNL     1     -29.446  22.605  26.949  1.00  0.00     0.000 C 
BRANCH   4   5
ATOM      5  C   UNL     1     -30.529  22.008  27.867  1.00  0.00     0.000 C 
BRANCH   5   6
ATOM      6  C   UNL     1     -30.505  22.570  29.304  1.00  0.00     0.000 C 
BRANCH   6   7
ATOM      7  C   UNL     1     -31.869  23.132  29.738  1.00  0.00     0.006 C 
BRANCH   7   8
ATOM      8  C   UNL     1     -31.830  24.652  29.950  1.00  0.00     0.053 C 
BRANCH   8   9
ATOM      9  C   UNL     1     -32.902  25.111  30.891  1.00  0.00     0.041 C 
ATOM     10  O   UNL     1     -32.808  24.872  32.124  1.00  0.00    -0.550 OA
ATOM     11  O   UNL     1     -33.988  25.832  30.411  1.00  0.00    -0.550 OA
ENDBRANCH   8   9
ENDBRANCH   7   8
ENDBRANCH   6   7
ENDBRANCH   5   6
ENDBRANCH   4   5
ENDBRANCH   3   4
ENDBRANCH   2   3
ENDBRANCH   1   2
BRANCH   1  12
ATOM     12  C   UNL     1     -27.597  18.477  25.274  1.00  0.00     0.000 C 
BRANCH  12  13
ATOM     13  C   UNL     1     -26.749  18.736  24.015  1.00  0.00    -0.000 C 
BRANCH  13  14
ATOM     14  C   UNL     1     -27.438  19.588  22.931  1.00  0.00    -0.000 C 
BRANCH  14  15
ATOM     15  C   UNL     1     -27.529  21.094  23.244  1.00  0.00    -0.000 C 
BRANCH  15  16
ATOM     16  C   UNL     1     -28.913  21.726  22.993  1.00  0.00    -0.000 C 
BRANCH  16  17
ATOM     17  C   UNL     1     -30.079  20.722  22.902  1.00  0.00    -0.000 C 
BRANCH  17  18
ATOM     18  C   UNL     1     -30.749  20.373  24.247  1.00  0.00    -0.000 C 
BRANCH  18  19
ATOM     19  C   UNL     1     -31.740  19.197  24.189  1.00  0.00    -0.003 C 
ATOM     20  C   UNL     1     -33.179  19.616  24.487  1.00  0.00     0.004 C 
ENDBRANCH  18  19
ENDBRANCH  17  18
ENDBRANCH  16  17
ENDBRANCH  15  16
ENDBRANCH  14  15
ENDBRANCH  13  14
ENDBRANCH  12  13
ENDBRANCH   1  12
TORSDOF 16
ENDMDL
MODEL 4
REMARK VINA RESULT:    -4.575      3.352      7.656
REMARK INTER + INTRA:          -9.948
REMARK INTER:                  -8.636
REMARK INTRA:                  -1.312
REMARK UNBOUND:                -1.093
REMARK SMILES CCCCCCCCCCCCCCCCCC(=O)[O-]
REMARK SMILES IDX 10 1 11 2 12 3 13 4 14 5 15 6 16 7 17 8 18 9 19 10 20 11
REMARK SMILES IDX 9 12 8 13 7 14 6 15 5 16 4 17 3 18 2 19 1 20
REMARK H PARENT
REMARK Flexibility Score: inf
ROOT
ATOM      1  C   UNL     1     -28.465  21.415  25.718  1.00  0.00     0.000 C 
ENDROOT
BRANCH   1   2
ATOM      2  C   UNL     1     -28.337  22.000  24.304  1.00  0.00     0.000 C 
BRANCH   2   3
ATOM      3  C   UNL     1     -29.330  21.379  23.304  1.00  0.00     0.000 C 
BRANCH   3   4
ATOM      4  C   UNL     1     -29.228  19.849  23.155  1.00  0.00     0.000 C 
BRANCH   4   5
ATOM      5  C   UNL     1     -30.502  19.071  23.536  1.00  0.00     0.000 C 
BRANCH   5   6
ATOM      6  C   UNL     1     -31.677  19.976  23.966  1.00  0.00     0.000 C 
BRANCH   6   7
ATOM      7  C   UNL     1     -32.344  19.494  25.265  1.00  0.00     0.006 C 
BRANCH   7   8
ATOM      8  C   UNL     1     -33.591  18.641  24.996  1.00  0.00     0.053 C 
BRANCH   8   9
ATOM      9  C   UNL     1     -33.513  17.308  25.678  1.00  0.00     0.041 C 
ATOM     10  O   UNL     1     -32.417  16.691  25.739  1.00  0.00    -0.550 OA
ATOM     11  O   UNL     1     -34.643  16.764  26.274  1.00  0.00    -0.550 OA
ENDBRANCH   8   9
ENDBRANCH   7   8
ENDBRANCH   6   7
ENDBRANCH   5   6
ENDBRANCH   4   5
ENDBRANCH   3   4
ENDBRANCH   2   3
ENDBRANCH   1   2
BRANCH   1  12
ATOM     12  C   UNL     1     -29.288  22.343  26.622  1.00  0.00     0.000 C 
BRANCH  12  13
ATOM     13  C   UNL     1     -30.394  21.601  27.395  1.00  0.00    -0.000 C 
BRANCH  13  14
ATOM     14  C   UNL     1     -30.486  21.947  28.894  1.00  0.00    -0.000 C 
BRANCH  14  15
ATOM     15  C   UNL     1     -31.648  22.884  29.277  1.00  0.00    -0.000 C 
BRANCH  15  16
ATOM     16  C   UNL     1     -31.238  24.343  29.561  1.00  0.00    -0.000 C 
BRANCH  16  17
ATOM     17  C   UNL     1     -32.094  25.064  30.622  1.00  0.00    -0.000 C 
BRANCH  17  18
ATOM     18  C   UNL     1     -33.604  25.125  30.313  1.00  0.00    -0.000 C 
BRANCH  18  19
ATOM     19  C   UNL     1     -34.470  25.714  31.440  1.00  0.00    -0.003 C 
ATOM     20  C   UNL     1     -34.212  25.058  32.795  1.00  0.00     0.004 C 
ENDBRANCH  18  19
ENDBRANCH  17  18
ENDBRANCH  16  17
ENDBRANCH  15  16
ENDBRANCH  14  15
ENDBRANCH  13  14
ENDBRANCH  12  13
ENDBRANCH   1  12
TORSDOF 16
ENDMDL
MODEL 5
REMARK VINA RESULT:    -4.533      3.415      7.179
REMARK INTER + INTRA:          -9.867
REMARK INTER:                  -8.112
REMARK INTRA:                  -1.755
REMARK UNBOUND:                -1.093
REMARK SMILES CCCCCCCCCCCCCCCCCC(=O)[O-]
REMARK SMILES IDX 10 1 11 2 12 3 13 4 14 5 15 6 16 7 17 8 18 9 19 10 20 11
REMARK SMILES IDX 9 12 8 13 7 14 6 15 5 16 4 17 3 18 2 19 1 20
REMARK H PARENT
REMARK Flexibility Score: inf
ROOT
ATOM      1  C   UNL     1     -27.401  20.798  23.257  1.00  0.00     0.000 C 
ENDROOT
BRANCH   1   2
ATOM      2  C   UNL     1     -27.372  19.674  24.304  1.00  0.00     0.000 C 
BRANCH   2   3
ATOM      3  C   UNL     1     -28.093  18.397  23.833  1.00  0.00     0.000 C 
BRANCH   3   4
ATOM      4  C   UNL     1     -29.044  18.592  22.637  1.00  0.00     0.000 C 
BRANCH   4   5
ATOM      5  C   UNL     1     -30.537  18.379  22.951  1.00  0.00     0.000 C 
BRANCH   5   6
ATOM      6  C   UNL     1     -31.285  19.677  23.325  1.00  0.00     0.000 C 
BRANCH   6   7
ATOM      7  C   UNL     1     -31.947  19.594  24.710  1.00  0.00     0.006 C 
BRANCH   7   8
ATOM      8  C   UNL     1     -33.460  19.358  24.618  1.00  0.00     0.053 C 
BRANCH   8   9
ATOM      9  C   UNL     1     -33.823  17.936  24.925  1.00  0.00     0.041 C 
ATOM     10  O   UNL     1     -33.851  17.076  24.006  1.00  0.00    -0.550 OA
ATOM     11  O   UNL     1     -34.096  17.555  26.233  1.00  0.00    -0.550 OA
ENDBRANCH   8   9
ENDBRANCH   7   8
ENDBRANCH   6   7
ENDBRANCH   5   6
ENDBRANCH   4   5
ENDBRANCH   3   4
ENDBRANCH   2   3
ENDBRANCH   1   2
BRANCH   1  12
ATOM     12  C   UNL     1     -28.072  22.057  23.824  1.00  0.00     0.000 C 
BRANCH  12  13
ATOM     13  C   UNL     1     -28.898  21.776  25.093  1.00  0.00    -0.000 C 
BRANCH  13  14
ATOM     14  C   UNL     1     -28.653  22.753  26.259  1.00  0.00    -0.000 C 
BRANCH  14  15
ATOM     15  C   UNL     1     -27.821  22.183  27.425  1.00  0.00    -0.000 C 
BRANCH  15  16
ATOM     16  C   UNL     1     -28.573  22.073  28.766  1.00  0.00    -0.000 C 
BRANCH  16  17
ATOM     17  C   UNL     1     -29.889  21.272  28.710  1.00  0.00    -0.000 C 
BRANCH  17  18
ATOM     18  C   UNL     1     -31.152  22.109  28.420  1.00  0.00    -0.000 C 
BRANCH  18  19
ATOM     19  C   UNL     1     -31.785  22.772  29.655  1.00  0.00    -0.003 C 
ATOM     20  C   UNL     1     -31.584  24.287  29.688  1.00  0.00     0.004 C 
ENDBRANCH  18  19
ENDBRANCH  17  18
ENDBRANCH  16  17
ENDBRANCH  15  16
ENDBRANCH  14  15
ENDBRANCH  13  14
ENDBRANCH  12  13
ENDBRANCH   1  12
TORSDOF 16
ENDMDL
MODEL 6
REMARK VINA RESULT:    -4.474      4.919      6.627
REMARK INTER + INTRA:          -9.753
REMARK INTER:                  -6.793
REMARK INTRA:                  -2.960
REMARK UNBOUND:                -1.093
REMARK SMILES CCCCCCCCCCCCCCCCCC(=O)[O-]
REMARK SMILES IDX 10 1 11 2 12 3 13 4 14 5 15 6 16 7 17 8 18 9 19 10 20 11
REMARK SMILES IDX 9 12 8 13 7 14 6 15 5 16 4 17 3 18 2 19 1 20
REMARK H PARENT
REMARK Flexibility Score: inf
ROOT
ATOM      1  C   UNL     1     -31.565  15.066  27.217  1.00  0.00     0.000 C 
ENDROOT
BRANCH   1   2
ATOM      2  C   UNL     1     -30.382  15.985  26.879  1.00  0.00     0.000 C 
BRANCH   2   3
ATOM      3  C   UNL     1     -30.731  17.480  26.997  1.00  0.00     0.000 C 
BRANCH   3   4
ATOM      4  C   UNL     1     -30.274  18.349  25.809  1.00  0.00     0.000 C 
BRANCH   4   5
ATOM      5  C   UNL     1     -31.067  19.655  25.615  1.00  0.00     0.000 C 
BRANCH   5   6
ATOM      6  C   UNL     1     -31.235  20.067  24.137  1.00  0.00     0.000 C 
BRANCH   6   7
ATOM      7  C   UNL     1     -29.903  20.055  23.368  1.00  0.00     0.006 C 
BRANCH   7   8
ATOM      8  C   UNL     1     -29.349  21.468  23.143  1.00  0.00     0.053 C 
BRANCH   8   9
ATOM      9  C   UNL     1     -27.851  21.485  23.133  1.00  0.00     0.041 C 
ATOM     10  O   UNL     1     -27.229  22.578  23.216  1.00  0.00    -0.550 OA
ATOM     11  O   UNL     1     -27.141  20.293  23.068  1.00  0.00    -0.550 OA
ENDBRANCH   8   9
ENDBRANCH   7   8
ENDBRANCH   6   7
ENDBRANCH   5   6
ENDBRANCH   4   5
ENDBRANCH   3   4
ENDBRANCH   2   3
ENDBRANCH   1   2
BRANCH   1  12
ATOM     12  C   UNL     1     -32.653  15.833  27.982  1.00  0.00     0.000 C 
BRANCH  12  13
ATOM     13  C   UNL     1     -34.070  15.294  27.708  1.00  0.00    -0.000 C 
BRANCH  13  14
ATOM     14  C   UNL     1     -34.832  16.010  26.576  1.00  0.00    -0.000 C 
BRANCH  14  15
ATOM     15  C   UNL     1     -34.260  17.383  26.171  1.00  0.00    -0.000 C 
BRANCH  15  16
ATOM     16  C   UNL     1     -33.938  17.535  24.671  1.00  0.00    -0.000 C 
BRANCH  16  17
ATOM     17  C   UNL     1     -33.329  16.284  24.007  1.00  0.00    -0.000 C 
BRANCH  17  18
ATOM     18  C   UNL     1     -32.024  16.529  23.222  1.00  0.00    -0.000 C 
BRANCH  18  19
ATOM     19  C   UNL     1     -30.982  15.403  23.333  1.00  0.00    -0.003 C 
ATOM     20  C   UNL     1     -29.555  15.884  23.078  1.00  0.00     0.004 C 
ENDBRANCH  18  19
ENDBRANCH  17  18
ENDBRANCH  16  17
ENDBRANCH  15  16
ENDBRANCH  14  15
ENDBRANCH  13  14
ENDBRANCH  12  13
ENDBRANCH   1  12
TORSDOF 16
ENDMDL
MODEL 7
REMARK VINA RESULT:    -4.454      1.629      3.941
REMARK INTER + INTRA:          -9.714
REMARK INTER:                  -7.295
REMARK INTRA:                  -2.420
REMARK UNBOUND:                -1.093
REMARK SMILES CCCCCCCCCCCCCCCCCC(=O)[O-]
REMARK SMILES IDX 10 1 11 2 12 3 13 4 14 5 15 6 16 7 17 8 18 9 19 10 20 11
REMARK SMILES IDX 9 12 8 13 7 14 6 15 5 16 4 17 3 18 2 19 1 20
REMARK H PARENT
REMARK Flexibility Score: inf
ROOT
ATOM      1  C   UNL     1     -30.392  16.879  26.597  1.00  0.00     0.000 C 
ENDROOT
BRANCH   1   2
ATOM      2  C   UNL     1     -30.796  18.140  27.375  1.00  0.00     0.000 C 
BRANCH   2   3
ATOM      3  C   UNL     1     -29.934  19.366  27.022  1.00  0.00     0.000 C 
BRANCH   3   4
ATOM      4  C   UNL     1     -30.696  20.704  26.975  1.00  0.00     0.000 C 
BRANCH   4   5
ATOM      5  C   UNL     1     -29.814  21.960  27.098  1.00  0.00     0.000 C 
BRANCH   5   6
ATOM      6  C   UNL     1     -29.835  22.599  28.503  1.00  0.00     0.000 C 
BRANCH   6   7
ATOM      7  C   UNL     1     -31.255  22.687  29.088  1.00  0.00     0.006 C 
BRANCH   7   8
ATOM      8  C   UNL     1     -31.249  23.082  30.570  1.00  0.00     0.053 C 
BRANCH   8   9
ATOM      9  C   UNL     1     -32.076  24.306  30.825  1.00  0.00     0.041 C 
ATOM     10  O   UNL     1     -31.595  25.451  30.610  1.00  0.00    -0.550 OA
ATOM     11  O   UNL     1     -33.387  24.182  31.267  1.00  0.00    -0.550 OA
ENDBRANCH   8   9
ENDBRANCH   7   8
ENDBRANCH   6   7
ENDBRANCH   5   6
ENDBRANCH   4   5
ENDBRANCH   3   4
ENDBRANCH   2   3
ENDBRANCH   1   2
BRANCH   1  12
ATOM     12  C   UNL     1     -31.631  16.100  26.134  1.00  0.00     0.000 C 
BRANCH  12  13
ATOM     13  C   UNL     1     -32.931  16.592  26.798  1.00  0.00    -0.000 C 
BRANCH  13  14
ATOM     14  C   UNL     1     -34.109  16.823  25.832  1.00  0.00    -0.000 C 
BRANCH  14  15
ATOM     15  C   UNL     1     -33.778  17.670  24.589  1.00  0.00    -0.000 C 
BRANCH  15  16
ATOM     16  C   UNL     1     -33.446  19.147  24.880  1.00  0.00    -0.000 C 
BRANCH  16  17
ATOM     17  C   UNL     1     -32.330  19.748  24.002  1.00  0.00    -0.000 C 
BRANCH  17  18
ATOM     18  C   UNL     1     -31.275  18.739  23.503  1.00  0.00    -0.000 C 
BRANCH  18  19
ATOM     19  C   UNL     1     -29.921  19.358  23.115  1.00  0.00    -0.003 C 
ATOM     20  C   UNL     1     -29.853  20.860  23.388  1.00  0.00     0.004 C 
ENDBRANCH  18  19
ENDBRANCH  17  18
ENDBRANCH  16  17
ENDBRANCH  15  16
ENDBRANCH  14  15
ENDBRANCH  13  14
ENDBRANCH  12  13
ENDBRANCH   1  12
TORSDOF 16
ENDMDL
MODEL 8
REMARK VINA RESULT:    -4.440      2.099      3.488
REMARK INTER + INTRA:          -9.687
REMARK INTER:                  -7.727
REMARK INTRA:                  -1.960
REMARK UNBOUND:                -1.093
REMARK SMILES CCCCCCCCCCCCCCCCCC(=O)[O-]
REMARK SMILES IDX 10 1 11 2 12 3 13 4 14 5 15 6 16 7 17 8 18 9 19 10 20 11
REMARK SMILES IDX 9 12 8 13 7 14 6 15 5 16 4 17 3 18 2 19 1 20
REMARK H PARENT
REMARK Flexibility Score: inf
ROOT
ATOM      1  C   UNL     1     -27.307  19.160  22.493  1.00  0.00     0.000 C 
ENDROOT
BRANCH   1   2
ATOM      2  C   UNL     1     -27.230  20.265  23.558  1.00  0.00     0.000 C 
BRANCH   2   3
ATOM      3  C   UNL     1     -28.072  21.503  23.200  1.00  0.00     0.000 C 
BRANCH   3   4
ATOM      4  C   UNL     1     -29.384  21.647  23.995  1.00  0.00     0.000 C 
BRANCH   4   5
ATOM      5  C   UNL     1     -29.268  21.351  25.502  1.00  0.00     0.000 C 
BRANCH   5   6
ATOM      6  C   UNL     1     -29.028  22.608  26.366  1.00  0.00     0.000 C 
BRANCH   6   7
ATOM      7  C   UNL     1     -29.329  22.363  27.855  1.00  0.00     0.006 C 
BRANCH   7   8
ATOM      8  C   UNL     1     -30.796  21.984  28.097  1.00  0.00     0.053 C 
BRANCH   8   9
ATOM      9  C   UNL     1     -31.386  22.742  29.248  1.00  0.00     0.041 C 
ATOM     10  O   UNL     1     -31.337  24.000  29.270  1.00  0.00    -0.550 OA
ATOM     11  O   UNL     1     -32.019  22.059  30.279  1.00  0.00    -0.550 OA
ENDBRANCH   8   9
ENDBRANCH   7   8
ENDBRANCH   6   7
ENDBRANCH   5   6
ENDBRANCH   4   5
ENDBRANCH   3   4
ENDBRANCH   2   3
ENDBRANCH   1   2
BRANCH   1  12
ATOM     12  C   UNL     1     -28.515  18.245  22.740  1.00  0.00     0.000 C 
BRANCH  12  13
ATOM     13  C   UNL     1     -28.585  17.723  24.187  1.00  0.00    -0.000 C 
BRANCH  13  14
ATOM     14  C   UNL     1     -29.985  17.771  24.830  1.00  0.00    -0.000 C 
BRANCH  14  15
ATOM     15  C   UNL     1     -31.097  18.346  23.931  1.00  0.00    -0.000 C 
BRANCH  15  16
ATOM     16  C   UNL     1     -32.120  19.242  24.656  1.00  0.00    -0.000 C 
BRANCH  16  17
ATOM     17  C   UNL     1     -33.572  18.725  24.629  1.00  0.00    -0.000 C 
BRANCH  17  18
ATOM     18  C   UNL     1     -33.725  17.219  24.330  1.00  0.00    -0.000 C 
BRANCH  18  19
ATOM     19  C   UNL     1     -33.667  16.306  25.566  1.00  0.00    -0.003 C 
ATOM     20  C   UNL     1     -34.561  16.789  26.707  1.00  0.00     0.004 C 
ENDBRANCH  18  19
ENDBRANCH  17  18
ENDBRANCH  16  17
ENDBRANCH  15  16
ENDBRANCH  14  15
ENDBRANCH  13  14
ENDBRANCH  12  13
ENDBRANCH   1  12
TORSDOF 16
ENDMDL
MODEL 9
REMARK VINA RESULT:    -4.395      2.568      3.834
REMARK INTER + INTRA:          -9.600
REMARK INTER:                  -8.090
REMARK INTRA:                  -1.509
REMARK UNBOUND:                -1.093
REMARK SMILES CCCCCCCCCCCCCCCCCC(=O)[O-]
REMARK SMILES IDX 10 1 11 2 12 3 13 4 14 5 15 6 16 7 17 8 18 9 19 10 20 11
REMARK SMILES IDX 9 12 8 13 7 14 6 15 5 16 4 17 3 18 2 19 1 20
REMARK H PARENT
REMARK Flexibility Score: inf
ROOT
ATOM      1  C   UNL     1     -29.724  20.042  27.732  1.00  0.00     0.000 C 
ENDROOT
BRANCH   1   2
ATOM      2  C   UNL     1     -30.419  21.394  27.509  1.00  0.00     0.000 C 
BRANCH   2   3
ATOM      3  C   UNL     1     -30.147  22.402  28.641  1.00  0.00     0.000 C 
BRANCH   3   4
ATOM      4  C   UNL     1     -31.380  22.778  29.486  1.00  0.00     0.000 C 
BRANCH   4   5
ATOM      5  C   UNL     1     -31.663  24.288  29.588  1.00  0.00     0.000 C 
BRANCH   5   6
ATOM      6  C   UNL     1     -32.147  24.737  30.984  1.00  0.00     0.000 C 
BRANCH   6   7
ATOM      7  C   UNL     1     -33.366  25.671  30.910  1.00  0.00     0.006 C 
BRANCH   7   8
ATOM      8  C   UNL     1     -34.666  24.964  31.317  1.00  0.00     0.053 C 
BRANCH   8   9
ATOM      9  C   UNL     1     -34.670  24.597  32.770  1.00  0.00     0.041 C 
ATOM     10  O   UNL     1     -34.331  25.444  33.639  1.00  0.00    -0.550 OA
ATOM     11  O   UNL     1     -35.080  23.330  33.167  1.00  0.00    -0.550 OA
ENDBRANCH   8   9
ENDBRANCH   7   8
ENDBRANCH   6   7
ENDBRANCH   5   6
ENDBRANCH   4   5
ENDBRANCH   3   4
ENDBRANCH   2   3
ENDBRANCH   1   2
BRANCH   1  12
ATOM     12  C   UNL     1     -28.838  19.678  26.532  1.00  0.00     0.000 C 
BRANCH  12  13
ATOM     13  C   UNL     1     -28.405  20.907  25.712  1.00  0.00    -0.000 C 
BRANCH  13  14
ATOM     14  C   UNL     1     -27.888  20.595  24.294  1.00  0.00    -0.000 C 
BRANCH  14  15
ATOM     15  C   UNL     1     -28.641  21.308  23.153  1.00  0.00    -0.000 C 
BRANCH  15  16
ATOM     16  C   UNL     1     -30.114  20.887  22.985  1.00  0.00    -0.000 C 
BRANCH  16  17
ATOM     17  C   UNL     1     -30.343  19.370  22.826  1.00  0.00    -0.000 C 
BRANCH  17  18
ATOM     18  C   UNL     1     -31.455  18.779  23.716  1.00  0.00    -0.000 C 
BRANCH  18  19
ATOM     19  C   UNL     1     -32.074  19.768  24.718  1.00  0.00    -0.003 C 
ATOM     20  C   UNL     1     -33.549  20.054  24.440  1.00  0.00     0.004 C 
ENDBRANCH  18  19
ENDBRANCH  17  18
ENDBRANCH  16  17
ENDBRANCH  15  16
ENDBRANCH  14  15
ENDBRANCH  13  14
ENDBRANCH  12  13
ENDBRANCH   1  12
TORSDOF 16
ENDMDL
