MODEL 1
REMARK VINA RESULT:    -3.762      0.000      0.000
REMARK INTER + INTRA:          -9.008
REMARK INTER:                  -6.840
REMARK INTRA:                  -2.168
REMARK UNBOUND:                -2.168
REMARK SMILES CCCCCCCCCCCCCCCC(=O)[O-]
REMARK SMILES IDX 9 1 10 2 11 3 12 4 13 5 14 6 15 7 16 8 17 9 18 10 8 11 7 12
REMARK SMILES IDX 6 13 5 14 4 15 3 16 2 17 1 18
REMARK H PARENT
REMARK Flexibility Score: inf
ROOT
ATOM      1  C   UNL     1     160.425 163.653 188.844  1.00  0.00     0.000 C 
ENDROOT
BRANCH   1   2
ATOM      2  C   UNL     1     160.306 164.825 187.847  1.00  0.00     0.000 C 
BRANCH   2   3
ATOM      3  C   UNL     1     161.661 165.435 187.449  1.00  0.00     0.000 C 
BRANCH   3   4
ATOM      4  C   UNL     1     162.234 164.823 186.161  1.00  0.00     0.000 C 
BRANCH   4   5
ATOM      5  C   UNL     1     161.139 164.381 185.177  1.00  0.00     0.000 C 
BRANCH   5   6
ATOM      6  C   UNL     1     161.284 162.914 184.745  1.00  0.00     0.006 C 
BRANCH   6   7
ATOM      7  C   UNL     1     162.742 162.457 184.842  1.00  0.00     0.053 C 
BRANCH   7   8
ATOM      8  C   UNL     1     162.827 160.964 184.826  1.00  0.00     0.041 C 
ATOM      9  O   UNL     1     161.777 160.270 184.789  1.00  0.00    -0.550 OA
ATOM     10  O   UNL     1     164.068 160.337 184.809  1.00  0.00    -0.550 OA
ENDBRANCH   7   8
ENDBRANCH   6   7
ENDBRANCH   5   6
ENDBRANCH   4   5
ENDBRANCH   3   4
ENDBRANCH   2   3
ENDBRANCH   1   2
BRANCH   1  11
ATOM     11  C   UNL     1     159.927 162.327 188.240  1.00  0.00     0.000 C 
BRANCH  11  12
ATOM     12  C   UNL     1     161.045 161.280 188.104  1.00  0.00    -0.000 C 
BRANCH  12  13
ATOM     13  C   UNL     1     162.411 161.812 188.561  1.00  0.00    -0.000 C 
BRANCH  13  14
ATOM     14  C   UNL     1     163.512 160.771 188.326  1.00  0.00    -0.000 C 
BRANCH  14  15
ATOM     15  C   UNL     1     164.885 161.441 188.193  1.00  0.00    -0.000 C 
BRANCH  15  16
ATOM     16  C   UNL     1     166.005 160.500 188.662  1.00  0.00    -0.000 C 
BRANCH  16  17
ATOM     17  C   UNL     1     166.431 160.765 190.114  1.00  0.00    -0.003 C 
ATOM     18  C   UNL     1     166.639 162.251 190.408  1.00  0.00     0.004 C 
ENDBRANCH  16  17
ENDBRANCH  15  16
ENDBRANCH  14  15
ENDBRANCH  13  14
ENDBRANCH  12  13
ENDBRANCH  11  12
ENDBRANCH   1  11
TORSDOF 14
ENDMDL
MODEL 2
REMARK VINA RESULT:    -3.561      2.858      5.848
REMARK INTER + INTRA:          -8.644
REMARK INTER:                  -6.665
REMARK INTRA:                  -1.979
REMARK UNBOUND:                -2.168
REMARK SMILES CCCCCCCCCCCCCCCC(=O)[O-]
REMARK SMILES IDX 9 1 10 2 11 3 12 4 13 5 14 6 15 7 16 8 17 9 18 10 8 11 7 12
REMARK SMILES IDX 6 13 5 14 4 15 3 16 2 17 1 18
REMARK H PARENT
REMARK Flexibility Score: inf
ROOT
ATOM      1  C   UNL     1     163.418 162.925 188.039  1.00  0.00     0.000 C 
ENDROOT
BRANCH   1   2
ATOM      2  C   UNL     1     163.581 161.439 188.424  1.00  0.00     0.000 C 
BRANCH   2   3
ATOM      3  C   UNL     1     164.237 160.587 187.324  1.00  0.00     0.000 C 
BRANCH   3   4
ATOM      4  C   UNL     1     165.705 160.248 187.630  1.00  0.00     0.000 C 
BRANCH   4   5
ATOM      5  C   UNL     1     166.646 161.444 187.414  1.00  0.00     0.000 C 
BRANCH   5   6
ATOM      6  C   UNL     1     167.584 161.686 188.607  1.00  0.00     0.006 C 
BRANCH   6   7
ATOM      7  C   UNL     1     166.786 161.861 189.902  1.00  0.00     0.053 C 
BRANCH   7   8
ATOM      8  C   UNL     1     166.666 163.310 190.254  1.00  0.00     0.041 C 
ATOM      9  O   UNL     1     165.578 163.769 190.691  1.00  0.00    -0.550 OA
ATOM     10  O   UNL     1     167.771 164.147 190.140  1.00  0.00    -0.550 OA
ENDBRANCH   7   8
ENDBRANCH   6   7
ENDBRANCH   5   6
ENDBRANCH   4   5
ENDBRANCH   3   4
ENDBRANCH   2   3
ENDBRANCH   1   2
BRANCH   1  11
ATOM     11  C   UNL     1     162.386 163.644 188.927  1.00  0.00     0.000 C 
BRANCH  11  12
ATOM     12  C   UNL     1     160.966 163.599 188.341  1.00  0.00    -0.000 C 
BRANCH  12  13
ATOM     13  C   UNL     1     160.127 162.445 188.909  1.00  0.00    -0.000 C 
BRANCH  13  14
ATOM     14  C   UNL     1     159.875 161.372 187.843  1.00  0.00    -0.000 C 
BRANCH  14  15
ATOM     15  C   UNL     1     160.145 161.920 186.436  1.00  0.00    -0.000 C 
BRANCH  15  16
ATOM     16  C   UNL     1     161.086 160.990 185.655  1.00  0.00    -0.000 C 
BRANCH  16  17
ATOM     17  C   UNL     1     161.700 161.670 184.423  1.00  0.00    -0.003 C 
ATOM     18  C   UNL     1     162.870 160.881 183.833  1.00  0.00     0.004 C 
ENDBRANCH  16  17
ENDBRANCH  15  16
ENDBRANCH  14  15
ENDBRANCH  13  14
ENDBRANCH  12  13
ENDBRANCH  11  12
ENDBRANCH   1  11
TORSDOF 14
ENDMDL
MODEL 3
REMARK VINA RESULT:    -3.514      1.919      3.997
REMARK INTER + INTRA:          -8.557
REMARK INTER:                  -6.136
REMARK INTRA:                  -2.421
REMARK UNBOUND:                -2.168
REMARK SMILES CCCCCCCCCCCCCCCC(=O)[O-]
REMARK SMILES IDX 9 1 10 2 11 3 12 4 13 5 14 6 15 7 16 8 17 9 18 10 8 11 7 12
REMARK SMILES IDX 6 13 5 14 4 15 3 16 2 17 1 18
REMARK H PARENT
REMARK Flexibility Score: inf
ROOT
ATOM      1  C   UNL     1     165.195 164.007 188.053  1.00  0.00     0.000 C 
ENDROOT
BRANCH   1   2
ATOM      2  C   UNL     1     163.924 163.719 188.881  1.00  0.00     0.000 C 
BRANCH   2   3
ATOM      3  C   UNL     1     162.718 163.288 188.028  1.00  0.00     0.000 C 
BRANCH   3   4
ATOM      4  C   UNL     1     161.583 162.679 188.866  1.00  0.00     0.000 C 
BRANCH   4   5
ATOM      5  C   UNL     1     160.364 162.287 188.015  1.00  0.00     0.000 C 
BRANCH   5   6
ATOM      6  C   UNL     1     160.743 161.456 186.779  1.00  0.00     0.006 C 
BRANCH   6   7
ATOM      7  C   UNL     1     159.930 161.892 185.556  1.00  0.00     0.053 C 
BRANCH   7   8
ATOM      8  C   UNL     1     160.483 163.159 184.984  1.00  0.00     0.041 C 
ATOM      9  O   UNL     1     159.875 164.249 185.153  1.00  0.00    -0.550 OA
ATOM     10  O   UNL     1     161.694 163.144 184.301  1.00  0.00    -0.550 OA
ENDBRANCH   7   8
ENDBRANCH   6   7
ENDBRANCH   5   6
ENDBRANCH   4   5
ENDBRANCH   3   4
ENDBRANCH   2   3
ENDBRANCH   1   2
BRANCH   1  11
ATOM     11  C   UNL     1     166.434 163.298 188.630  1.00  0.00     0.000 C 
BRANCH  11  12
ATOM     12  C   UNL     1     166.268 162.927 190.112  1.00  0.00    -0.000 C 
BRANCH  12  13
ATOM     13  C   UNL     1     166.598 161.454 190.394  1.00  0.00    -0.000 C 
BRANCH  13  14
ATOM     14  C   UNL     1     166.260 160.575 189.183  1.00  0.00    -0.000 C 
BRANCH  14  15
ATOM     15  C   UNL     1     164.833 160.022 189.286  1.00  0.00    -0.000 C 
BRANCH  15  16
ATOM     16  C   UNL     1     164.104 160.127 187.938  1.00  0.00    -0.000 C 
BRANCH  16  17
ATOM     17  C   UNL     1     165.066 160.348 186.761  1.00  0.00    -0.003 C 
ATOM     18  C   UNL     1     164.372 160.938 185.533  1.00  0.00     0.004 C 
ENDBRANCH  16  17
ENDBRANCH  15  16
ENDBRANCH  14  15
ENDBRANCH  13  14
ENDBRANCH  12  13
ENDBRANCH  11  12
ENDBRANCH   1  11
TORSDOF 14
ENDMDL
MODEL 4
REMARK VINA RESULT:    -3.503     16.272     18.070
REMARK INTER + INTRA:          -8.537
REMARK INTER:                  -7.582
REMARK INTRA:                  -0.955
REMARK UNBOUND:                -2.168
REMARK SMILES CCCCCCCCCCCCCCCC(=O)[O-]
REMARK SMILES IDX 9 1 10 2 11 3 12 4 13 5 14 6 15 7 16 8 17 9 18 10 8 11 7 12
REMARK SMILES IDX 6 13 5 14 4 15 3 16 2 17 1 18
REMARK H PARENT
REMARK Flexibility Score: inf
ROOT
ATOM      1  C   UNL     1     171.714 178.958 188.622  1.00  0.00     0.000 C 
ENDROOT
BRANCH   1   2
ATOM      2  C   UNL     1     170.663 180.064 188.391  1.00  0.00     0.000 C 
BRANCH   2   3
ATOM      3  C   UNL     1     169.212 179.555 188.442  1.00  0.00     0.000 C 
BRANCH   3   4
ATOM      4  C   UNL     1     169.121 178.031 188.616  1.00  0.00     0.000 C 
BRANCH   4   5
ATOM      5  C   UNL     1     168.050 177.615 189.639  1.00  0.00     0.000 C 
BRANCH   5   6
ATOM      6  C   UNL     1     166.661 178.184 189.310  1.00  0.00     0.006 C 
BRANCH   6   7
ATOM      7  C   UNL     1     165.954 177.326 188.257  1.00  0.00     0.053 C 
BRANCH   7   8
ATOM      8  C   UNL     1     165.361 178.190 187.189  1.00  0.00     0.041 C 
ATOM      9  O   UNL     1     164.114 178.221 187.019  1.00  0.00    -0.550 OA
ATOM     10  O   UNL     1     166.184 178.994 186.408  1.00  0.00    -0.550 OA
ENDBRANCH   7   8
ENDBRANCH   6   7
ENDBRANCH   5   6
ENDBRANCH   4   5
ENDBRANCH   3   4
ENDBRANCH   2   3
ENDBRANCH   1   2
BRANCH   1  11
ATOM     11  C   UNL     1     173.144 179.524 188.692  1.00  0.00     0.000 C 
BRANCH  11  12
ATOM     12  C   UNL     1     174.142 178.720 187.842  1.00  0.00    -0.000 C 
BRANCH  12  13
ATOM     13  C   UNL     1     173.507 177.477 187.202  1.00  0.00    -0.000 C 
BRANCH  13  14
ATOM     14  C   UNL     1     174.464 176.280 187.258  1.00  0.00    -0.000 C 
BRANCH  14  15
ATOM     15  C   UNL     1     175.862 176.715 187.716  1.00  0.00    -0.000 C 
BRANCH  15  16
ATOM     16  C   UNL     1     176.745 175.496 188.021  1.00  0.00    -0.000 C 
BRANCH  16  17
ATOM     17  C   UNL     1     176.931 175.262 189.527  1.00  0.00    -0.003 C 
ATOM     18  C   UNL     1     176.445 173.884 189.977  1.00  0.00     0.004 C 
ENDBRANCH  16  17
ENDBRANCH  15  16
ENDBRANCH  14  15
ENDBRANCH  13  14
ENDBRANCH  12  13
ENDBRANCH  11  12
ENDBRANCH   1  11
TORSDOF 14
ENDMDL
MODEL 5
REMARK VINA RESULT:    -3.449      2.550      6.242
REMARK INTER + INTRA:          -8.440
REMARK INTER:                  -7.008
REMARK INTRA:                  -1.432
REMARK UNBOUND:                -2.168
REMARK SMILES CCCCCCCCCCCCCCCC(=O)[O-]
REMARK SMILES IDX 9 1 10 2 11 3 12 4 13 5 14 6 15 7 16 8 17 9 18 10 8 11 7 12
REMARK SMILES IDX 6 13 5 14 4 15 3 16 2 17 1 18
REMARK H PARENT
REMARK Flexibility Score: inf
ROOT
ATOM      1  C   UNL     1     162.039 163.040 188.551  1.00  0.00     0.000 C 
ENDROOT
BRANCH   1   2
ATOM      2  C   UNL     1     162.621 161.614 188.647  1.00  0.00     0.000 C 
BRANCH   2   3
ATOM      3  C   UNL     1     163.358 161.163 187.374  1.00  0.00     0.000 C 
BRANCH   3   4
ATOM      4  C   UNL     1     164.479 160.152 187.661  1.00  0.00     0.000 C 
BRANCH   4   5
ATOM      5  C   UNL     1     164.902 160.141 189.139  1.00  0.00     0.000 C 
BRANCH   5   6
ATOM      6  C   UNL     1     166.376 160.525 189.339  1.00  0.00     0.006 C 
BRANCH   6   7
ATOM      7  C   UNL     1     166.501 161.780 190.207  1.00  0.00     0.053 C 
BRANCH   7   8
ATOM      8  C   UNL     1     166.055 162.990 189.449  1.00  0.00     0.041 C 
ATOM      9  O   UNL     1     166.493 163.208 188.289  1.00  0.00    -0.550 OA
ATOM     10  O   UNL     1     165.120 163.855 190.006  1.00  0.00    -0.550 OA
ENDBRANCH   7   8
ENDBRANCH   6   7
ENDBRANCH   5   6
ENDBRANCH   4   5
ENDBRANCH   3   4
ENDBRANCH   2   3
ENDBRANCH   1   2
BRANCH   1  11
ATOM     11  C   UNL     1     160.504 163.049 188.676  1.00  0.00     0.000 C 
BRANCH  11  12
ATOM     12  C   UNL     1     159.878 164.373 188.208  1.00  0.00    -0.000 C 
BRANCH  12  13
ATOM     13  C   UNL     1     159.953 164.556 186.685  1.00  0.00    -0.000 C 
BRANCH  13  14
ATOM     14  C   UNL     1     160.353 165.991 186.324  1.00  0.00    -0.000 C 
BRANCH  14  15
ATOM     15  C   UNL     1     161.682 166.376 186.986  1.00  0.00    -0.000 C 
BRANCH  15  16
ATOM     16  C   UNL     1     161.588 167.761 187.644  1.00  0.00    -0.000 C 
BRANCH  16  17
ATOM     17  C   UNL     1     160.169 168.091 188.128  1.00  0.00    -0.003 C 
ATOM     18  C   UNL     1     160.146 169.192 189.188  1.00  0.00     0.004 C 
ENDBRANCH  16  17
ENDBRANCH  15  16
ENDBRANCH  14  15
ENDBRANCH  13  14
ENDBRANCH  12  13
ENDBRANCH  11  12
ENDBRANCH   1  11
TORSDOF 14
ENDMDL
MODEL 6
REMARK VINA RESULT:    -3.445      2.153      5.170
REMARK INTER + INTRA:          -8.432
REMARK INTER:                  -6.338
REMARK INTRA:                  -2.094
REMARK UNBOUND:                -2.168
REMARK SMILES CCCCCCCCCCCCCCCC(=O)[O-]
REMARK SMILES IDX 9 1 10 2 11 3 12 4 13 5 14 6 15 7 16 8 17 9 18 10 8 11 7 12
REMARK SMILES IDX 6 13 5 14 4 15 3 16 2 17 1 18
REMARK H PARENT
REMARK Flexibility Score: inf
ROOT
ATOM      1  C   UNL     1     160.234 164.531 187.998  1.00  0.00     0.000 C 
ENDROOT
BRANCH   1   2
ATOM      2  C   UNL     1     160.757 163.461 188.980  1.00  0.00     0.000 C 
BRANCH   2   3
ATOM      3  C   UNL     1     160.353 162.026 188.600  1.00  0.00     0.000 C 
BRANCH   3   4
ATOM      4  C   UNL     1     161.462 161.274 187.848  1.00  0.00     0.000 C 
BRANCH   4   5
ATOM      5  C   UNL     1     162.852 161.896 188.065  1.00  0.00     0.000 C 
BRANCH   5   6
ATOM      6  C   UNL     1     163.901 160.867 188.511  1.00  0.00     0.006 C 
BRANCH   6   7
ATOM      7  C   UNL     1     165.311 161.320 188.120  1.00  0.00     0.053 C 
BRANCH   7   8
ATOM      8  C   UNL     1     166.338 160.608 188.943  1.00  0.00     0.041 C 
ATOM      9  O   UNL     1     167.438 160.269 188.431  1.00  0.00    -0.550 OA
ATOM     10  O   UNL     1     166.098 160.356 190.290  1.00  0.00    -0.550 OA
ENDBRANCH   7   8
ENDBRANCH   6   7
ENDBRANCH   5   6
ENDBRANCH   4   5
ENDBRANCH   3   4
ENDBRANCH   2   3
ENDBRANCH   1   2
BRANCH   1  11
ATOM     11  C   UNL     1     161.373 165.191 187.201  1.00  0.00     0.000 C 
BRANCH  11  12
ATOM     12  C   UNL     1     161.510 164.621 185.779  1.00  0.00    -0.000 C 
BRANCH  12  13
ATOM     13  C   UNL     1     160.153 164.275 185.148  1.00  0.00    -0.000 C 
BRANCH  13  14
ATOM     14  C   UNL     1     160.096 162.797 184.744  1.00  0.00    -0.000 C 
BRANCH  14  15
ATOM     15  C   UNL     1     160.345 162.628 183.240  1.00  0.00    -0.000 C 
BRANCH  15  16
ATOM     16  C   UNL     1     161.806 162.239 182.964  1.00  0.00    -0.000 C 
BRANCH  16  17
ATOM     17  C   UNL     1     162.392 161.332 184.056  1.00  0.00    -0.003 C 
ATOM     18  C   UNL     1     163.760 161.805 184.547  1.00  0.00     0.004 C 
ENDBRANCH  16  17
ENDBRANCH  15  16
ENDBRANCH  14  15
ENDBRANCH  13  14
ENDBRANCH  12  13
ENDBRANCH  11  12
ENDBRANCH   1  11
TORSDOF 14
ENDMDL
MODEL 7
REMARK VINA RESULT:    -3.442      3.117      6.594
REMARK INTER + INTRA:          -8.427
REMARK INTER:                  -7.354
REMARK INTRA:                  -1.073
REMARK UNBOUND:                -2.168
REMARK SMILES CCCCCCCCCCCCCCCC(=O)[O-]
REMARK SMILES IDX 9 1 10 2 11 3 12 4 13 5 14 6 15 7 16 8 17 9 18 10 8 11 7 12
REMARK SMILES IDX 6 13 5 14 4 15 3 16 2 17 1 18
REMARK H PARENT
REMARK Flexibility Score: inf
ROOT
ATOM      1  C   UNL     1     163.388 161.030 187.197  1.00  0.00     0.000 C 
ENDROOT
BRANCH   1   2
ATOM      2  C   UNL     1     164.572 160.188 187.720  1.00  0.00     0.000 C 
BRANCH   2   3
ATOM      3  C   UNL     1     165.942 160.856 187.510  1.00  0.00     0.000 C 
BRANCH   3   4
ATOM      4  C   UNL     1     166.912 160.606 188.676  1.00  0.00     0.000 C 
BRANCH   4   5
ATOM      5  C   UNL     1     166.371 161.126 190.018  1.00  0.00     0.000 C 
BRANCH   5   6
ATOM      6  C   UNL     1     165.930 162.596 189.952  1.00  0.00     0.006 C 
BRANCH   6   7
ATOM      7  C   UNL     1     166.862 163.485 190.781  1.00  0.00     0.053 C 
BRANCH   7   8
ATOM      8  C   UNL     1     167.516 164.512 189.913  1.00  0.00     0.041 C 
ATOM      9  O   UNL     1     168.500 164.200 189.192  1.00  0.00    -0.550 OA
ATOM     10  O   UNL     1     167.012 165.808 189.867  1.00  0.00    -0.550 OA
ENDBRANCH   7   8
ENDBRANCH   6   7
ENDBRANCH   5   6
ENDBRANCH   4   5
ENDBRANCH   3   4
ENDBRANCH   2   3
ENDBRANCH   1   2
BRANCH   1  11
ATOM     11  C   UNL     1     162.426 161.440 188.328  1.00  0.00     0.000 C 
BRANCH  11  12
ATOM     12  C   UNL     1     160.950 161.361 187.907  1.00  0.00    -0.000 C 
BRANCH  12  13
ATOM     13  C   UNL     1     160.009 162.027 188.922  1.00  0.00    -0.000 C 
BRANCH  13  14
ATOM     14  C   UNL     1     160.320 163.522 189.059  1.00  0.00    -0.000 C 
BRANCH  14  15
ATOM     15  C   UNL     1     159.875 164.293 187.810  1.00  0.00    -0.000 C 
BRANCH  15  16
ATOM     16  C   UNL     1     160.995 165.216 187.306  1.00  0.00    -0.000 C 
BRANCH  16  17
ATOM     17  C   UNL     1     160.460 166.541 186.741  1.00  0.00    -0.003 C 
ATOM     18  C   UNL     1     160.172 167.575 187.830  1.00  0.00     0.004 C 
ENDBRANCH  16  17
ENDBRANCH  15  16
ENDBRANCH  14  15
ENDBRANCH  13  14
ENDBRANCH  12  13
ENDBRANCH  11  12
ENDBRANCH   1  11
TORSDOF 14
ENDMDL
MODEL 8
REMARK VINA RESULT:    -3.373      2.618      6.037
REMARK INTER + INTRA:          -8.301
REMARK INTER:                  -6.534
REMARK INTRA:                  -1.767
REMARK UNBOUND:                -2.168
REMARK SMILES CCCCCCCCCCCCCCCC(=O)[O-]
REMARK SMILES IDX 9 1 10 2 11 3 12 4 13 5 14 6 15 7 16 8 17 9 18 10 8 11 7 12
REMARK SMILES IDX 6 13 5 14 4 15 3 16 2 17 1 18
REMARK H PARENT
REMARK Flexibility Score: inf
ROOT
ATOM      1  C   UNL     1     161.884 162.838 188.787  1.00  0.00     0.000 C 
ENDROOT
BRANCH   1   2
ATOM      2  C   UNL     1     162.173 161.352 188.485  1.00  0.00     0.000 C 
BRANCH   2   3
ATOM      3  C   UNL     1     163.490 161.123 187.723  1.00  0.00     0.000 C 
BRANCH   3   4
ATOM      4  C   UNL     1     164.294 159.932 188.268  1.00  0.00     0.000 C 
BRANCH   4   5
ATOM      5  C   UNL     1     165.215 160.323 189.435  1.00  0.00     0.000 C 
BRANCH   5   6
ATOM      6  C   UNL     1     166.108 161.529 189.110  1.00  0.00     0.006 C 
BRANCH   6   7
ATOM      7  C   UNL     1     166.606 162.203 190.392  1.00  0.00     0.053 C 
BRANCH   7   8
ATOM      8  C   UNL     1     166.656 163.688 190.220  1.00  0.00     0.041 C 
ATOM      9  O   UNL     1     165.754 164.281 189.571  1.00  0.00    -0.550 OA
ATOM     10  O   UNL     1     167.675 164.424 190.814  1.00  0.00    -0.550 OA
ENDBRANCH   7   8
ENDBRANCH   6   7
ENDBRANCH   5   6
ENDBRANCH   4   5
ENDBRANCH   3   4
ENDBRANCH   2   3
ENDBRANCH   1   2
BRANCH   1  11
ATOM     11  C   UNL     1     160.378 163.114 188.948  1.00  0.00     0.000 C 
BRANCH  11  12
ATOM     12  C   UNL     1     159.875 164.222 188.008  1.00  0.00    -0.000 C 
BRANCH  12  13
ATOM     13  C   UNL     1     161.020 164.965 187.304  1.00  0.00    -0.000 C 
BRANCH  13  14
ATOM     14  C   UNL     1     160.591 165.442 185.911  1.00  0.00    -0.000 C 
BRANCH  14  15
ATOM     15  C   UNL     1     161.663 165.117 184.863  1.00  0.00    -0.000 C 
BRANCH  15  16
ATOM     16  C   UNL     1     161.987 163.616 184.854  1.00  0.00    -0.000 C 
BRANCH  16  17
ATOM     17  C   UNL     1     160.818 162.762 184.339  1.00  0.00    -0.003 C 
ATOM     18  C   UNL     1     160.560 161.528 185.204  1.00  0.00     0.004 C 
ENDBRANCH  16  17
ENDBRANCH  15  16
ENDBRANCH  14  15
ENDBRANCH  13  14
ENDBRANCH  12  13
ENDBRANCH  11  12
ENDBRANCH   1  11
TORSDOF 14
ENDMDL
MODEL 9
REMARK VINA RESULT:    -3.356      2.359      5.240
REMARK INTER + INTRA:          -8.270
REMARK INTER:                  -5.986
REMARK INTRA:                  -2.283
REMARK UNBOUND:                -2.168
REMARK SMILES CCCCCCCCCCCCCCCC(=O)[O-]
REMARK SMILES IDX 9 1 10 2 11 3 12 4 13 5 14 6 15 7 16 8 17 9 18 10 8 11 7 12
REMARK SMILES IDX 6 13 5 14 4 15 3 16 2 17 1 18
REMARK H PARENT
REMARK Flexibility Score: inf
ROOT
ATOM      1  C   UNL     1     163.319 162.761 184.119  1.00  0.00     0.000 C 
ENDROOT
BRANCH   1   2
ATOM      2  C   UNL     1     164.020 161.467 183.654  1.00  0.00     0.000 C 
BRANCH   2   3
ATOM      3  C   UNL     1     165.461 161.325 184.176  1.00  0.00     0.000 C 
BRANCH   3   4
ATOM      4  C   UNL     1     165.561 161.495 185.700  1.00  0.00     0.000 C 
BRANCH   4   5
ATOM      5  C   UNL     1     165.040 160.270 186.469  1.00  0.00     0.000 C 
BRANCH   5   6
ATOM      6  C   UNL     1     163.940 160.626 187.481  1.00  0.00     0.006 C 
BRANCH   6   7
ATOM      7  C   UNL     1     164.359 160.240 188.902  1.00  0.00     0.053 C 
BRANCH   7   8
ATOM      8  C   UNL     1     165.603 160.971 189.300  1.00  0.00     0.041 C 
ATOM      9  O   UNL     1     165.596 162.226 189.399  1.00  0.00    -0.550 OA
ATOM     10  O   UNL     1     166.759 160.262 189.604  1.00  0.00    -0.550 OA
ENDBRANCH   7   8
ENDBRANCH   6   7
ENDBRANCH   5   6
ENDBRANCH   4   5
ENDBRANCH   3   4
ENDBRANCH   2   3
ENDBRANCH   1   2
BRANCH   1  11
ATOM     11  C   UNL     1     161.826 162.536 184.417  1.00  0.00     0.000 C 
BRANCH  11  12
ATOM     12  C   UNL     1     161.527 161.107 184.899  1.00  0.00    -0.000 C 
BRANCH  12  13
ATOM     13  C   UNL     1     160.119 160.967 185.498  1.00  0.00    -0.000 C 
BRANCH  13  14
ATOM     14  C   UNL     1     159.875 162.026 186.580  1.00  0.00    -0.000 C 
BRANCH  14  15
ATOM     15  C   UNL     1     160.191 161.471 187.974  1.00  0.00    -0.000 C 
BRANCH  15  16
ATOM     16  C   UNL     1     160.799 162.558 188.874  1.00  0.00    -0.000 C 
BRANCH  16  17
ATOM     17  C   UNL     1     161.197 163.818 188.092  1.00  0.00    -0.003 C 
ATOM     18  C   UNL     1     162.710 164.033 188.046  1.00  0.00     0.004 C 
ENDBRANCH  16  17
ENDBRANCH  15  16
ENDBRANCH  14  15
ENDBRANCH  13  14
ENDBRANCH  12  13
ENDBRANCH  11  12
ENDBRANCH   1  11
TORSDOF 14
ENDMDL
