MODEL 1
REMARK VINA RESULT:    -7.392      0.000      0.000
REMARK INTER + INTRA:          -9.223
REMARK INTER:                  -8.904
REMARK INTRA:                  -0.319
REMARK UNBOUND:                -0.319
REMARK SMILES Oc1cc(O)c2cc(O)c(-c3ccc(O)c(O)c3)[o+]c2c1
REMARK SMILES IDX 10 1 19 2 20 3 21 4 2 5 3 6 4 7 6 8 7 9 8 10 11 11 12 12
REMARK SMILES IDX 13 13 14 14 18 15 16 16 15 17 17 19 9 21 1 23 5 25
REMARK H PARENT 15 18 17 20 9 22 1 24 5 26
REMARK Flexibility Score: inf
ROOT
ATOM      1  C   UNL     1       5.001 -35.985  43.834  1.00  0.00     0.402 A 
ATOM      2  O   UNL     1       5.114 -34.717  44.222  1.00  0.00    -0.202 OA
ATOM      3  C   UNL     1       6.214 -34.219  44.777  1.00  0.00     0.368 A 
ATOM      4  C   UNL     1       6.238 -32.872  45.150  1.00  0.00     0.162 A 
ATOM      5  C   UNL     1       7.384 -32.322  45.732  1.00  0.00     0.128 A 
ATOM      6  C   UNL     1       8.509 -33.122  45.944  1.00  0.00     0.093 A 
ATOM      7  C   UNL     1       8.510 -34.474  45.581  1.00  0.00     0.136 A 
ATOM      8  C   UNL     1       7.350 -35.038  44.991  1.00  0.00     0.125 A 
ATOM      9  C   UNL     1       7.255 -36.386  44.607  1.00  0.00     0.078 A 
ATOM     10  C   UNL     1       6.075 -36.871  44.035  1.00  0.00     0.223 A 
ENDROOT
BRANCH   1  11
ATOM     11  C   UNL     1       3.725 -36.417  43.218  1.00  0.00     0.087 A 
ATOM     12  C   UNL     1       3.610 -36.606  41.830  1.00  0.00     0.022 A 
ATOM     13  C   UNL     1       2.390 -36.991  41.268  1.00  0.00     0.051 A 
ATOM     14  C   UNL     1       1.266 -37.180  42.083  1.00  0.00     0.157 A 
ATOM     15  C   UNL     1       2.591 -36.588  44.027  1.00  0.00     0.068 A 
ATOM     16  C   UNL     1       1.365 -36.976  43.465  1.00  0.00     0.158 A 
BRANCH  14  17
ATOM     17  O   UNL     1       0.048 -37.567  41.527  1.00  0.00    -0.504 OA
ATOM     18  H   UNL     1      -0.000 -38.247  40.777  1.00  0.00     0.293 HD
ENDBRANCH  14  17
BRANCH  16  19
ATOM     19  O   UNL     1       0.244 -37.158  44.272  1.00  0.00    -0.504 OA
ATOM     20  H   UNL     1       0.240 -36.875  45.245  1.00  0.00     0.293 HD
ENDBRANCH  16  19
ENDBRANCH   1  11
BRANCH  10  21
ATOM     21  O   UNL     1       5.964 -38.221  43.700  1.00  0.00    -0.500 OA
ATOM     22  H   UNL     1       6.733 -38.731  43.281  1.00  0.00     0.294 HD
ENDBRANCH  10  21
BRANCH   5  23
ATOM     23  O   UNL     1       7.415 -30.980  46.106  1.00  0.00    -0.507 OA
ATOM     24  H   UNL     1       6.743 -30.596  46.761  1.00  0.00     0.293 HD
ENDBRANCH   5  23
BRANCH   7  25
ATOM     25  O   UNL     1       9.677 -35.205  45.823  1.00  0.00    -0.507 OA
ATOM     26  H   UNL     1       9.718 -36.212  45.879  1.00  0.00     0.293 HD
ENDBRANCH   7  25
TORSDOF 6
ENDMDL
MODEL 2
REMARK VINA RESULT:    -7.125      1.798      7.476
REMARK INTER + INTRA:          -8.902
REMARK INTER:                  -8.548
REMARK INTRA:                  -0.353
REMARK UNBOUND:                -0.319
REMARK SMILES Oc1cc(O)c2cc(O)c(-c3ccc(O)c(O)c3)[o+]c2c1
REMARK SMILES IDX 10 1 19 2 20 3 21 4 2 5 3 6 4 7 6 8 7 9 8 10 11 11 12 12
REMARK SMILES IDX 13 13 14 14 18 15 16 16 15 17 17 19 9 21 1 23 5 25
REMARK H PARENT 15 18 17 20 9 22 1 24 5 26
REMARK Flexibility Score: inf
ROOT
ATOM      1  C   UNL     1       3.238 -36.542  43.186  1.00  0.00     0.402 A 
ATOM      2  O   UNL     1       3.168 -36.563  41.857  1.00  0.00    -0.202 OA
ATOM      3  C   UNL     1       2.082 -36.935  41.189  1.00  0.00     0.368 A 
ATOM      4  C   UNL     1       2.104 -36.921  39.792  1.00  0.00     0.162 A 
ATOM      5  C   UNL     1       0.973 -37.304  39.065  1.00  0.00     0.128 A 
ATOM      6  C   UNL     1      -0.185 -37.703  39.738  1.00  0.00     0.093 A 
ATOM      7  C   UNL     1      -0.232 -37.726  41.136  1.00  0.00     0.136 A 
ATOM      8  C   UNL     1       0.913 -37.340  41.880  1.00  0.00     0.125 A 
ATOM      9  C   UNL     1       0.961 -37.345  43.283  1.00  0.00     0.078 A 
ATOM     10  C   UNL     1       2.129 -36.955  43.947  1.00  0.00     0.223 A 
ENDROOT
BRANCH   1  11
ATOM     11  C   UNL     1       4.504 -36.098  43.813  1.00  0.00     0.087 A 
ATOM     12  C   UNL     1       4.722 -34.750  44.148  1.00  0.00     0.022 A 
ATOM     13  C   UNL     1       5.933 -34.349  44.718  1.00  0.00     0.051 A 
ATOM     14  C   UNL     1       6.948 -35.287  44.949  1.00  0.00     0.157 A 
ATOM     15  C   UNL     1       5.533 -37.029  44.028  1.00  0.00     0.068 A 
ATOM     16  C   UNL     1       6.749 -36.629  44.601  1.00  0.00     0.158 A 
BRANCH  14  17
ATOM     17  O   UNL     1       8.157 -34.892  45.518  1.00  0.00    -0.504 OA
ATOM     18  H   UNL     1       8.729 -34.168  45.100  1.00  0.00     0.293 HD
ENDBRANCH  14  17
BRANCH  16  19
ATOM     19  O   UNL     1       7.763 -37.558  44.825  1.00  0.00    -0.504 OA
ATOM     20  H   UNL     1       8.716 -37.267  45.012  1.00  0.00     0.293 HD
ENDBRANCH  16  19
ENDBRANCH   1  11
BRANCH  10  21
ATOM     21  O   UNL     1       2.193 -37.007  45.339  1.00  0.00    -0.500 OA
ATOM     22  H   UNL     1       2.796 -36.389  45.869  1.00  0.00     0.294 HD
ENDBRANCH  10  21
BRANCH   5  23
ATOM     23  O   UNL     1       0.988 -37.293  37.672  1.00  0.00    -0.507 OA
ATOM     24  H   UNL     1       1.360 -38.071  37.139  1.00  0.00     0.293 HD
ENDBRANCH   5  23
BRANCH   7  25
ATOM     25  O   UNL     1      -1.429 -38.134  41.733  1.00  0.00    -0.507 OA
ATOM     26  H   UNL     1      -2.064 -38.809  41.334  1.00  0.00     0.293 HD
ENDBRANCH   7  25
TORSDOF 6
ENDMDL
MODEL 3
REMARK VINA RESULT:    -7.099      1.969      6.862
REMARK INTER + INTRA:          -8.871
REMARK INTER:                  -8.712
REMARK INTRA:                  -0.159
REMARK UNBOUND:                -0.319
REMARK SMILES Oc1cc(O)c2cc(O)c(-c3ccc(O)c(O)c3)[o+]c2c1
REMARK SMILES IDX 10 1 19 2 20 3 21 4 2 5 3 6 4 7 6 8 7 9 8 10 11 11 12 12
REMARK SMILES IDX 13 13 14 14 18 15 16 16 15 17 17 19 9 21 1 23 5 25
REMARK H PARENT 15 18 17 20 9 22 1 24 5 26
REMARK Flexibility Score: inf
ROOT
ATOM      1  C   UNL     1       7.289 -33.931  44.808  1.00  0.00     0.402 A 
ATOM      2  O   UNL     1       5.966 -34.076  44.772  1.00  0.00    -0.202 OA
ATOM      3  C   UNL     1       5.359 -35.257  44.818  1.00  0.00     0.368 A 
ATOM      4  C   UNL     1       3.963 -35.306  44.777  1.00  0.00     0.162 A 
ATOM      5  C   UNL     1       3.300 -36.536  44.828  1.00  0.00     0.128 A 
ATOM      6  C   UNL     1       4.034 -37.720  44.920  1.00  0.00     0.093 A 
ATOM      7  C   UNL     1       5.433 -37.697  44.961  1.00  0.00     0.136 A 
ATOM      8  C   UNL     1       6.113 -36.453  44.909  1.00  0.00     0.125 A 
ATOM      9  C   UNL     1       7.512 -36.334  44.931  1.00  0.00     0.078 A 
ATOM     10  C   UNL     1       8.110 -35.072  44.871  1.00  0.00     0.223 A 
ENDROOT
BRANCH   1  11
ATOM     11  C   UNL     1       7.845 -32.560  44.759  1.00  0.00     0.087 A 
ATOM     12  C   UNL     1       8.680 -32.145  43.707  1.00  0.00     0.022 A 
ATOM     13  C   UNL     1       9.213 -30.854  43.693  1.00  0.00     0.051 A 
ATOM     14  C   UNL     1       8.929 -29.963  44.737  1.00  0.00     0.157 A 
ATOM     15  C   UNL     1       7.581 -31.669  45.812  1.00  0.00     0.068 A 
ATOM     16  C   UNL     1       8.113 -30.372  45.800  1.00  0.00     0.158 A 
BRANCH  14  17
ATOM     17  O   UNL     1       9.456 -28.672  44.727  1.00  0.00    -0.504 OA
ATOM     18  H   UNL     1      10.240 -28.416  45.315  1.00  0.00     0.293 HD
ENDBRANCH  14  17
BRANCH  16  19
ATOM     19  O   UNL     1       7.839 -29.486  46.839  1.00  0.00    -0.504 OA
ATOM     20  H   UNL     1       8.541 -29.243  47.529  1.00  0.00     0.293 HD
ENDBRANCH  16  19
ENDBRANCH   1  11
BRANCH  10  21
ATOM     21  O   UNL     1       9.500 -34.957  44.843  1.00  0.00    -0.500 OA
ATOM     22  H   UNL     1      10.056 -35.385  44.112  1.00  0.00     0.294 HD
ENDBRANCH  10  21
BRANCH   5  23
ATOM     23  O   UNL     1       1.908 -36.592  44.788  1.00  0.00    -0.507 OA
ATOM     24  H   UNL     1       1.420 -37.408  44.435  1.00  0.00     0.293 HD
ENDBRANCH   5  23
BRANCH   7  25
ATOM     25  O   UNL     1       6.094 -38.925  45.057  1.00  0.00    -0.507 OA
ATOM     26  H   UNL     1       6.094 -39.511  45.879  1.00  0.00     0.293 HD
ENDBRANCH   7  25
TORSDOF 6
ENDMDL
MODEL 4
REMARK VINA RESULT:    -6.591      1.684      6.701
REMARK INTER + INTRA:          -8.260
REMARK INTER:                  -7.958
REMARK INTRA:                  -0.302
REMARK UNBOUND:                -0.319
REMARK SMILES Oc1cc(O)c2cc(O)c(-c3ccc(O)c(O)c3)[o+]c2c1
REMARK SMILES IDX 10 1 19 2 20 3 21 4 2 5 3 6 4 7 6 8 7 9 8 10 11 11 12 12
REMARK SMILES IDX 13 13 14 14 18 15 16 16 15 17 17 19 9 21 1 23 5 25
REMARK H PARENT 15 18 17 20 9 22 1 24 5 26
REMARK Flexibility Score: inf
ROOT
ATOM      1  C   UNL     1       7.192 -34.919  44.467  1.00  0.00     0.402 A 
ATOM      2  O   UNL     1       5.976 -35.135  43.970  1.00  0.00    -0.202 OA
ATOM      3  C   UNL     1       5.399 -36.331  43.946  1.00  0.00     0.368 A 
ATOM      4  C   UNL     1       4.117 -36.458  43.405  1.00  0.00     0.162 A 
ATOM      5  C   UNL     1       3.486 -37.705  43.371  1.00  0.00     0.128 A 
ATOM      6  C   UNL     1       4.140 -38.830  43.879  1.00  0.00     0.093 A 
ATOM      7  C   UNL     1       5.425 -38.730  44.425  1.00  0.00     0.136 A 
ATOM      8  C   UNL     1       6.071 -37.467  44.461  1.00  0.00     0.125 A 
ATOM      9  C   UNL     1       7.363 -37.274  44.978  1.00  0.00     0.078 A 
ATOM     10  C   UNL     1       7.937 -35.999  44.975  1.00  0.00     0.223 A 
ENDROOT
BRANCH   1  11
ATOM     11  C   UNL     1       7.721 -33.536  44.445  1.00  0.00     0.087 A 
ATOM     12  C   UNL     1       8.676 -33.132  43.494  1.00  0.00     0.022 A 
ATOM     13  C   UNL     1       9.179 -31.829  43.507  1.00  0.00     0.051 A 
ATOM     14  C   UNL     1       8.746 -30.915  44.476  1.00  0.00     0.157 A 
ATOM     15  C   UNL     1       7.308 -32.622  45.426  1.00  0.00     0.068 A 
ATOM     16  C   UNL     1       7.811 -31.313  45.440  1.00  0.00     0.158 A 
BRANCH  14  17
ATOM     17  O   UNL     1       9.244 -29.613  44.492  1.00  0.00    -0.504 OA
ATOM     18  H   UNL     1       9.261 -29.043  43.654  1.00  0.00     0.293 HD
ENDBRANCH  14  17
BRANCH  16  19
ATOM     19  O   UNL     1       7.387 -30.403  46.407  1.00  0.00    -0.504 OA
ATOM     20  H   UNL     1       7.872 -29.526  46.558  1.00  0.00     0.293 HD
ENDBRANCH  16  19
ENDBRANCH   1  11
BRANCH  10  21
ATOM     21  O   UNL     1       9.238 -35.817  45.442  1.00  0.00    -0.500 OA
ATOM     22  H   UNL     1       9.994 -35.547  44.823  1.00  0.00     0.294 HD
ENDBRANCH  10  21
BRANCH   5  23
ATOM     23  O   UNL     1       2.208 -37.838  42.833  1.00  0.00    -0.507 OA
ATOM     24  H   UNL     1       1.399 -37.421  43.279  1.00  0.00     0.293 HD
ENDBRANCH   5  23
BRANCH   7  25
ATOM     25  O   UNL     1       6.009 -39.901  44.916  1.00  0.00    -0.507 OA
ATOM     26  H   UNL     1       6.148 -40.102  45.896  1.00  0.00     0.293 HD
ENDBRANCH   7  25
TORSDOF 6
ENDMDL
MODEL 5
REMARK VINA RESULT:    -6.584      1.747      2.513
REMARK INTER + INTRA:          -8.251
REMARK INTER:                  -7.902
REMARK INTRA:                  -0.349
REMARK UNBOUND:                -0.319
REMARK SMILES Oc1cc(O)c2cc(O)c(-c3ccc(O)c(O)c3)[o+]c2c1
REMARK SMILES IDX 10 1 19 2 20 3 21 4 2 5 3 6 4 7 6 8 7 9 8 10 11 11 12 12
REMARK SMILES IDX 13 13 14 14 18 15 16 16 15 17 17 19 9 21 1 23 5 25
REMARK H PARENT 15 18 17 20 9 22 1 24 5 26
REMARK Flexibility Score: inf
ROOT
ATOM      1  C   UNL     1       3.907 -37.419  43.450  1.00  0.00     0.402 A 
ATOM      2  O   UNL     1       4.430 -36.208  43.618  1.00  0.00    -0.202 OA
ATOM      3  C   UNL     1       5.653 -36.000  44.096  1.00  0.00     0.368 A 
ATOM      4  C   UNL     1       6.116 -34.689  44.234  1.00  0.00     0.162 A 
ATOM      5  C   UNL     1       7.399 -34.443  44.731  1.00  0.00     0.128 A 
ATOM      6  C   UNL     1       8.223 -35.512  45.090  1.00  0.00     0.093 A 
ATOM      7  C   UNL     1       7.783 -36.835  44.962  1.00  0.00     0.136 A 
ATOM      8  C   UNL     1       6.480 -37.090  44.460  1.00  0.00     0.125 A 
ATOM      9  C   UNL     1       5.950 -38.382  44.310  1.00  0.00     0.078 A 
ATOM     10  C   UNL     1       4.654 -38.555  43.812  1.00  0.00     0.223 A 
ENDROOT
BRANCH   1  11
ATOM     11  C   UNL     1       2.536 -37.519  42.899  1.00  0.00     0.087 A 
ATOM     12  C   UNL     1       1.410 -37.552  43.741  1.00  0.00     0.022 A 
ATOM     13  C   UNL     1       0.127 -37.670  43.200  1.00  0.00     0.051 A 
ATOM     14  C   UNL     1      -0.048 -37.771  41.814  1.00  0.00     0.157 A 
ATOM     15  C   UNL     1       2.355 -37.642  41.513  1.00  0.00     0.068 A 
ATOM     16  C   UNL     1       1.068 -37.760  40.968  1.00  0.00     0.158 A 
BRANCH  14  17
ATOM     17  O   UNL     1      -1.326 -37.887  41.270  1.00  0.00    -0.504 OA
ATOM     18  H   UNL     1      -1.551 -37.504  40.359  1.00  0.00     0.293 HD
ENDBRANCH  14  17
BRANCH  16  19
ATOM     19  O   UNL     1       0.891 -37.867  39.590  1.00  0.00    -0.504 OA
ATOM     20  H   UNL     1       0.969 -38.758  39.114  1.00  0.00     0.293 HD
ENDBRANCH  16  19
ENDBRANCH   1  11
BRANCH  10  21
ATOM     21  O   UNL     1       4.110 -39.835  43.710  1.00  0.00    -0.500 OA
ATOM     22  H   UNL     1       3.441 -40.074  42.987  1.00  0.00     0.294 HD
ENDBRANCH  10  21
BRANCH   5  23
ATOM     23  O   UNL     1       7.867 -33.138  44.871  1.00  0.00    -0.507 OA
ATOM     24  H   UNL     1       7.265 -32.338  44.711  1.00  0.00     0.293 HD
ENDBRANCH   5  23
BRANCH   7  25
ATOM     25  O   UNL     1       8.668 -37.848  45.340  1.00  0.00    -0.507 OA
ATOM     26  H   UNL     1       9.329 -37.774  46.100  1.00  0.00     0.293 HD
ENDBRANCH   7  25
TORSDOF 6
ENDMDL
MODEL 6
REMARK VINA RESULT:    -6.557      2.053      6.938
REMARK INTER + INTRA:          -8.218
REMARK INTER:                  -7.925
REMARK INTRA:                  -0.294
REMARK UNBOUND:                -0.319
REMARK SMILES Oc1cc(O)c2cc(O)c(-c3ccc(O)c(O)c3)[o+]c2c1
REMARK SMILES IDX 10 1 19 2 20 3 21 4 2 5 3 6 4 7 6 8 7 9 8 10 11 11 12 12
REMARK SMILES IDX 13 13 14 14 18 15 16 16 15 17 17 19 9 21 1 23 5 25
REMARK H PARENT 15 18 17 20 9 22 1 24 5 26
REMARK Flexibility Score: inf
ROOT
ATOM      1  C   UNL     1       7.250 -34.056  44.789  1.00  0.00     0.402 A 
ATOM      2  O   UNL     1       5.923 -34.156  44.751  1.00  0.00    -0.202 OA
ATOM      3  C   UNL     1       5.277 -35.315  44.812  1.00  0.00     0.368 A 
ATOM      4  C   UNL     1       3.880 -35.319  44.767  1.00  0.00     0.162 A 
ATOM      5  C   UNL     1       3.176 -36.525  44.832  1.00  0.00     0.128 A 
ATOM      6  C   UNL     1       3.870 -37.731  44.943  1.00  0.00     0.093 A 
ATOM      7  C   UNL     1       5.269 -37.755  44.988  1.00  0.00     0.136 A 
ATOM      8  C   UNL     1       5.989 -36.535  44.921  1.00  0.00     0.125 A 
ATOM      9  C   UNL     1       7.392 -36.463  44.946  1.00  0.00     0.078 A 
ATOM     10  C   UNL     1       8.033 -35.222  44.870  1.00  0.00     0.223 A 
ENDROOT
BRANCH   1  11
ATOM     11  C   UNL     1       7.851 -32.704  44.723  1.00  0.00     0.087 A 
ATOM     12  C   UNL     1       7.829 -31.838  45.831  1.00  0.00     0.022 A 
ATOM     13  C   UNL     1       8.382 -30.559  45.740  1.00  0.00     0.051 A 
ATOM     14  C   UNL     1       8.953 -30.121  44.537  1.00  0.00     0.157 A 
ATOM     15  C   UNL     1       8.406 -32.253  43.516  1.00  0.00     0.068 A 
ATOM     16  C   UNL     1       8.963 -30.969  43.422  1.00  0.00     0.158 A 
BRANCH  14  17
ATOM     17  O   UNL     1       9.508 -28.846  44.442  1.00  0.00    -0.504 OA
ATOM     18  H   UNL     1      10.342 -28.672  43.893  1.00  0.00     0.293 HD
ENDBRANCH  14  17
BRANCH  16  19
ATOM     19  O   UNL     1       9.526 -30.528  42.226  1.00  0.00    -0.504 OA
ATOM     20  H   UNL     1       8.987 -30.002  41.549  1.00  0.00     0.293 HD
ENDBRANCH  16  19
ENDBRANCH   1  11
BRANCH  10  21
ATOM     21  O   UNL     1       9.425 -35.155  44.846  1.00  0.00    -0.500 OA
ATOM     22  H   UNL     1       9.970 -35.053  45.695  1.00  0.00     0.294 HD
ENDBRANCH  10  21
BRANCH   5  23
ATOM     23  O   UNL     1       1.783 -36.535  44.789  1.00  0.00    -0.507 OA
ATOM     24  H   UNL     1       1.227 -35.996  45.443  1.00  0.00     0.293 HD
ENDBRANCH   5  23
BRANCH   7  25
ATOM     25  O   UNL     1       5.888 -39.003  45.103  1.00  0.00    -0.507 OA
ATOM     26  H   UNL     1       6.788 -39.156  45.533  1.00  0.00     0.293 HD
ENDBRANCH   7  25
TORSDOF 6
ENDMDL
MODEL 7
REMARK VINA RESULT:    -6.457      1.508      7.083
REMARK INTER + INTRA:          -8.098
REMARK INTER:                  -7.745
REMARK INTRA:                  -0.352
REMARK UNBOUND:                -0.319
REMARK SMILES Oc1cc(O)c2cc(O)c(-c3ccc(O)c(O)c3)[o+]c2c1
REMARK SMILES IDX 10 1 19 2 20 3 21 4 2 5 3 6 4 7 6 8 7 9 8 10 11 11 12 12
REMARK SMILES IDX 13 13 14 14 18 15 16 16 15 17 17 19 9 21 1 23 5 25
REMARK H PARENT 15 18 17 20 9 22 1 24 5 26
REMARK Flexibility Score: inf
ROOT
ATOM      1  C   UNL     1       4.793 -35.526  43.004  1.00  0.00     0.402 A 
ATOM      2  O   UNL     1       3.767 -36.175  43.548  1.00  0.00    -0.202 OA
ATOM      3  C   UNL     1       2.774 -36.697  42.836  1.00  0.00     0.368 A 
ATOM      4  C   UNL     1       1.739 -37.364  43.498  1.00  0.00     0.162 A 
ATOM      5  C   UNL     1       0.684 -37.926  42.773  1.00  0.00     0.128 A 
ATOM      6  C   UNL     1       0.664 -37.821  41.381  1.00  0.00     0.093 A 
ATOM      7  C   UNL     1       1.687 -37.157  40.694  1.00  0.00     0.136 A 
ATOM      8  C   UNL     1       2.759 -36.583  41.424  1.00  0.00     0.125 A 
ATOM      9  C   UNL     1       3.821 -35.889  40.822  1.00  0.00     0.078 A 
ATOM     10  C   UNL     1       4.841 -35.346  41.609  1.00  0.00     0.223 A 
ENDROOT
BRANCH   1  11
ATOM     11  C   UNL     1       5.843 -34.997  43.904  1.00  0.00     0.087 A 
ATOM     12  C   UNL     1       7.022 -35.721  44.158  1.00  0.00     0.022 A 
ATOM     13  C   UNL     1       7.989 -35.214  45.030  1.00  0.00     0.051 A 
ATOM     14  C   UNL     1       7.787 -33.984  45.670  1.00  0.00     0.157 A 
ATOM     15  C   UNL     1       5.637 -33.776  44.564  1.00  0.00     0.068 A 
ATOM     16  C   UNL     1       6.608 -33.264  45.439  1.00  0.00     0.158 A 
BRANCH  14  17
ATOM     17  O   UNL     1       8.750 -33.473  46.538  1.00  0.00    -0.504 OA
ATOM     18  H   UNL     1       8.750 -32.498  46.814  1.00  0.00     0.293 HD
ENDBRANCH  14  17
BRANCH  16  19
ATOM     19  O   UNL     1       6.407 -32.045  46.082  1.00  0.00    -0.504 OA
ATOM     20  H   UNL     1       6.782 -31.864  47.005  1.00  0.00     0.293 HD
ENDBRANCH  16  19
ENDBRANCH   1  11
BRANCH  10  21
ATOM     21  O   UNL     1       5.869 -34.614  41.015  1.00  0.00    -0.500 OA
ATOM     22  H   UNL     1       5.904 -34.461  40.014  1.00  0.00     0.294 HD
ENDBRANCH  10  21
BRANCH   5  23
ATOM     23  O   UNL     1      -0.350 -38.592  43.427  1.00  0.00    -0.507 OA
ATOM     24  H   UNL     1      -1.142 -38.092  43.815  1.00  0.00     0.293 HD
ENDBRANCH   5  23
BRANCH   7  25
ATOM     25  O   UNL     1       1.594 -37.099  39.300  1.00  0.00    -0.507 OA
ATOM     26  H   UNL     1       0.905 -36.560  38.796  1.00  0.00     0.293 HD
ENDBRANCH   7  25
TORSDOF 6
ENDMDL
MODEL 8
REMARK VINA RESULT:    -6.413      1.978      7.432
REMARK INTER + INTRA:          -8.044
REMARK INTER:                  -7.718
REMARK INTRA:                  -0.326
REMARK UNBOUND:                -0.319
REMARK SMILES Oc1cc(O)c2cc(O)c(-c3ccc(O)c(O)c3)[o+]c2c1
REMARK SMILES IDX 10 1 19 2 20 3 21 4 2 5 3 6 4 7 6 8 7 9 8 10 11 11 12 12
REMARK SMILES IDX 13 13 14 14 18 15 16 16 15 17 17 19 9 21 1 23 5 25
REMARK H PARENT 15 18 17 20 9 22 1 24 5 26
REMARK Flexibility Score: inf
ROOT
ATOM      1  C   UNL     1       3.987 -36.352  42.153  1.00  0.00     0.402 A 
ATOM      2  O   UNL     1       2.829 -36.772  42.656  1.00  0.00    -0.202 OA
ATOM      3  C   UNL     1       1.790 -37.119  41.904  1.00  0.00     0.368 A 
ATOM      4  C   UNL     1       0.614 -37.550  42.525  1.00  0.00     0.162 A 
ATOM      5  C   UNL     1      -0.492 -37.924  41.757  1.00  0.00     0.128 A 
ATOM      6  C   UNL     1      -0.423 -37.867  40.364  1.00  0.00     0.093 A 
ATOM      7  C   UNL     1       0.742 -37.438  39.717  1.00  0.00     0.136 A 
ATOM      8  C   UNL     1       1.868 -37.055  40.492  1.00  0.00     0.125 A 
ATOM      9  C   UNL     1       3.072 -36.600  39.931  1.00  0.00     0.078 A 
ATOM     10  C   UNL     1       4.138 -36.236  40.760  1.00  0.00     0.223 A 
ENDROOT
BRANCH   1  11
ATOM     11  C   UNL     1       5.074 -36.004  43.097  1.00  0.00     0.087 A 
ATOM     12  C   UNL     1       5.323 -34.670  43.466  1.00  0.00     0.022 A 
ATOM     13  C   UNL     1       6.369 -34.362  44.340  1.00  0.00     0.051 A 
ATOM     14  C   UNL     1       7.189 -35.379  44.846  1.00  0.00     0.157 A 
ATOM     15  C   UNL     1       5.912 -37.016  43.591  1.00  0.00     0.068 A 
ATOM     16  C   UNL     1       6.962 -36.709  44.469  1.00  0.00     0.158 A 
BRANCH  14  17
ATOM     17  O   UNL     1       8.232 -35.077  45.719  1.00  0.00    -0.504 OA
ATOM     18  H   UNL     1       9.137 -34.774  45.378  1.00  0.00     0.293 HD
ENDBRANCH  14  17
BRANCH  16  19
ATOM     19  O   UNL     1       7.783 -37.718  44.969  1.00  0.00    -0.504 OA
ATOM     20  H   UNL     1       8.098 -37.716  45.932  1.00  0.00     0.293 HD
ENDBRANCH  16  19
ENDBRANCH   1  11
BRANCH  10  21
ATOM     21  O   UNL     1       5.316 -35.737  40.204  1.00  0.00    -0.500 OA
ATOM     22  H   UNL     1       5.604 -34.775  40.340  1.00  0.00     0.294 HD
ENDBRANCH  10  21
BRANCH   5  23
ATOM     23  O   UNL     1      -1.667 -38.355  42.370  1.00  0.00    -0.507 OA
ATOM     24  H   UNL     1      -1.655 -39.027  43.129  1.00  0.00     0.293 HD
ENDBRANCH   5  23
BRANCH   7  25
ATOM     25  O   UNL     1       0.731 -37.413  38.320  1.00  0.00    -0.507 OA
ATOM     26  H   UNL     1       1.060 -38.165  37.733  1.00  0.00     0.293 HD
ENDBRANCH   7  25
TORSDOF 6
ENDMDL
MODEL 9
REMARK VINA RESULT:    -6.390      2.278      3.613
REMARK INTER + INTRA:          -8.017
REMARK INTER:                  -7.681
REMARK INTRA:                  -0.337
REMARK UNBOUND:                -0.319
REMARK SMILES Oc1cc(O)c2cc(O)c(-c3ccc(O)c(O)c3)[o+]c2c1
REMARK SMILES IDX 10 1 19 2 20 3 21 4 2 5 3 6 4 7 6 8 7 9 8 10 11 11 12 12
REMARK SMILES IDX 13 13 14 14 18 15 16 16 15 17 17 19 9 21 1 23 5 25
REMARK H PARENT 15 18 17 20 9 22 1 24 5 26
REMARK Flexibility Score: inf
ROOT
ATOM      1  C   UNL     1       6.987 -34.591  43.698  1.00  0.00     0.402 A 
ATOM      2  O   UNL     1       6.824 -33.670  44.645  1.00  0.00    -0.202 OA
ATOM      3  C   UNL     1       7.512 -32.534  44.684  1.00  0.00     0.368 A 
ATOM      4  C   UNL     1       7.268 -31.626  45.718  1.00  0.00     0.162 A 
ATOM      5  C   UNL     1       7.976 -30.422  45.780  1.00  0.00     0.128 A 
ATOM      6  C   UNL     1       8.930 -30.125  44.805  1.00  0.00     0.093 A 
ATOM      7  C   UNL     1       9.193 -31.017  43.759  1.00  0.00     0.136 A 
ATOM      8  C   UNL     1       8.480 -32.242  43.692  1.00  0.00     0.125 A 
ATOM      9  C   UNL     1       8.686 -33.202  42.688  1.00  0.00     0.078 A 
ATOM     10  C   UNL     1       7.947 -34.390  42.690  1.00  0.00     0.223 A 
ENDROOT
BRANCH   1  11
ATOM     11  C   UNL     1       6.152 -35.813  43.760  1.00  0.00     0.087 A 
ATOM     12  C   UNL     1       4.846 -35.834  43.237  1.00  0.00     0.022 A 
ATOM     13  C   UNL     1       4.068 -36.991  43.327  1.00  0.00     0.051 A 
ATOM     14  C   UNL     1       4.577 -38.138  43.951  1.00  0.00     0.157 A 
ATOM     15  C   UNL     1       6.648 -36.958  44.403  1.00  0.00     0.068 A 
ATOM     16  C   UNL     1       5.869 -38.120  44.493  1.00  0.00     0.158 A 
BRANCH  14  17
ATOM     17  O   UNL     1       3.805 -39.294  44.041  1.00  0.00    -0.504 OA
ATOM     18  H   UNL     1       4.217 -40.189  44.277  1.00  0.00     0.293 HD
ENDBRANCH  14  17
BRANCH  16  19
ATOM     19  O   UNL     1       6.369 -39.260  45.119  1.00  0.00    -0.504 OA
ATOM     20  H   UNL     1       7.339 -39.536  45.021  1.00  0.00     0.293 HD
ENDBRANCH  16  19
ENDBRANCH   1  11
BRANCH  10  21
ATOM     21  O   UNL     1       8.188 -35.365  41.723  1.00  0.00    -0.500 OA
ATOM     22  H   UNL     1       9.123 -35.702  41.526  1.00  0.00     0.294 HD
ENDBRANCH  10  21
BRANCH   5  23
ATOM     23  O   UNL     1       7.738 -29.512  46.808  1.00  0.00    -0.507 OA
ATOM     24  H   UNL     1       8.379 -28.752  47.003  1.00  0.00     0.293 HD
ENDBRANCH   5  23
BRANCH   7  25
ATOM     25  O   UNL     1      10.161 -30.644  42.822  1.00  0.00    -0.507 OA
ATOM     26  H   UNL     1       9.958 -30.366  41.873  1.00  0.00     0.293 HD
ENDBRANCH   7  25
TORSDOF 6
ENDMDL
