MODEL 1
REMARK VINA RESULT:    -2.949      0.000      0.000
REMARK INTER + INTRA:          -3.328
REMARK INTER:                  -3.294
REMARK INTRA:                  -0.034
REMARK UNBOUND:                -0.034
REMARK SMILES CCCC(=O)[O-]
REMARK SMILES IDX 3 1 4 2 5 3 6 4 2 5 1 6
REMARK H PARENT
REMARK Flexibility Score: inf
ROOT
ATOM      1  C   UNL     1      21.710  10.718  35.865  1.00  0.00     0.052 C 
ENDROOT
BRANCH   1   2
ATOM      2  C   UNL     1      20.755  11.868  35.913  1.00  0.00     0.041 C 
ATOM      3  O   UNL     1      19.572  11.695  36.306  1.00  0.00    -0.550 OA
ATOM      4  O   UNL     1      21.186  13.144  35.570  1.00  0.00    -0.550 OA
ENDBRANCH   1   2
BRANCH   1   5
ATOM      5  C   UNL     1      22.919  11.062  34.992  1.00  0.00     0.003 C 
ATOM      6  C   UNL     1      24.224  10.889  35.765  1.00  0.00     0.004 C 
ENDBRANCH   1   5
TORSDOF 2
ENDMDL
MODEL 2
REMARK VINA RESULT:    -2.930     16.771     17.126
REMARK INTER + INTRA:          -3.306
REMARK INTER:                  -3.272
REMARK INTRA:                  -0.034
REMARK UNBOUND:                -0.034
REMARK SMILES CCCC(=O)[O-]
REMARK SMILES IDX 3 1 4 2 5 3 6 4 2 5 1 6
REMARK H PARENT
REMARK Flexibility Score: inf
ROOT
ATOM      1  C   UNL     1      31.195   6.321  47.510  1.00  0.00     0.052 C 
ENDROOT
BRANCH   1   2
ATOM      2  C   UNL     1      32.409   6.096  48.355  1.00  0.00     0.041 C 
ATOM      3  O   UNL     1      32.526   6.679  49.465  1.00  0.00    -0.550 OA
ATOM      4  O   UNL     1      33.390   5.205  47.940  1.00  0.00    -0.550 OA
ENDBRANCH   1   2
BRANCH   1   5
ATOM      5  C   UNL     1      30.028   6.811  48.370  1.00  0.00     0.003 C 
ATOM      6  C   UNL     1      28.972   5.721  48.537  1.00  0.00     0.004 C 
ENDBRANCH   1   5
TORSDOF 2
ENDMDL
MODEL 3
REMARK VINA RESULT:    -2.896     15.590     16.215
REMARK INTER + INTRA:          -3.269
REMARK INTER:                  -3.263
REMARK INTRA:                  -0.006
REMARK UNBOUND:                -0.034
REMARK SMILES CCCC(=O)[O-]
REMARK SMILES IDX 3 1 4 2 5 3 6 4 2 5 1 6
REMARK H PARENT
REMARK Flexibility Score: inf
ROOT
ATOM      1  C   UNL     1      30.384   6.698  47.927  1.00  0.00     0.052 C 
ENDROOT
BRANCH   1   2
ATOM      2  C   UNL     1      29.304   5.976  48.668  1.00  0.00     0.041 C 
ATOM      3  O   UNL     1      29.357   5.867  49.921  1.00  0.00    -0.550 OA
ATOM      4  O   UNL     1      28.210   5.465  47.980  1.00  0.00    -0.550 OA
ENDBRANCH   1   2
BRANCH   1   5
ATOM      5  C   UNL     1      31.669   5.866  47.911  1.00  0.00     0.003 C 
ATOM      6  C   UNL     1      32.793   6.603  47.188  1.00  0.00     0.004 C 
ENDBRANCH   1   5
TORSDOF 2
ENDMDL
MODEL 4
REMARK VINA RESULT:    -2.807      2.071      2.194
REMARK INTER + INTRA:          -3.169
REMARK INTER:                  -3.143
REMARK INTRA:                  -0.026
REMARK UNBOUND:                -0.034
REMARK SMILES CCCC(=O)[O-]
REMARK SMILES IDX 3 1 4 2 5 3 6 4 2 5 1 6
REMARK H PARENT
REMARK Flexibility Score: inf
ROOT
ATOM      1  C   UNL     1      21.644  10.958  35.844  1.00  0.00     0.052 C 
ENDROOT
BRANCH   1   2
ATOM      2  C   UNL     1      20.877   9.728  35.474  1.00  0.00     0.041 C 
ATOM      3  O   UNL     1      20.178   9.133  36.335  1.00  0.00    -0.550 OA
ATOM      4  O   UNL     1      20.896   9.266  34.164  1.00  0.00    -0.550 OA
ENDBRANCH   1   2
BRANCH   1   5
ATOM      5  C   UNL     1      22.883  11.104  34.957  1.00  0.00     0.003 C 
ATOM      6  C   UNL     1      24.163  10.877  35.757  1.00  0.00     0.004 C 
ENDBRANCH   1   5
TORSDOF 2
ENDMDL
MODEL 5
REMARK VINA RESULT:    -2.786     15.525     16.193
REMARK INTER + INTRA:          -3.145
REMARK INTER:                  -3.112
REMARK INTRA:                  -0.033
REMARK UNBOUND:                -0.034
REMARK SMILES CCCC(=O)[O-]
REMARK SMILES IDX 3 1 4 2 5 3 6 4 2 5 1 6
REMARK H PARENT
REMARK Flexibility Score: inf
ROOT
ATOM      1  C   UNL     1      30.662   6.317  47.897  1.00  0.00     0.052 C 
ENDROOT
BRANCH   1   2
ATOM      2  C   UNL     1      31.142   7.667  48.330  1.00  0.00     0.041 C 
ATOM      3  O   UNL     1      32.292   8.064  48.008  1.00  0.00    -0.550 OA
ATOM      4  O   UNL     1      30.301   8.506  49.048  1.00  0.00    -0.550 OA
ENDBRANCH   1   2
BRANCH   1   5
ATOM      5  C   UNL     1      29.472   5.874  48.751  1.00  0.00     0.003 C 
ATOM      6  C   UNL     1      28.274   5.509  47.878  1.00  0.00     0.004 C 
ENDBRANCH   1   5
TORSDOF 2
ENDMDL
MODEL 6
REMARK VINA RESULT:    -2.718     15.705     16.101
REMARK INTER + INTRA:          -3.070
REMARK INTER:                  -3.047
REMARK INTRA:                  -0.023
REMARK UNBOUND:                -0.034
REMARK SMILES CCCC(=O)[O-]
REMARK SMILES IDX 3 1 4 2 5 3 6 4 2 5 1 6
REMARK H PARENT
REMARK Flexibility Score: inf
ROOT
ATOM      1  C   UNL     1      30.261   8.014  48.946  1.00  0.00     0.052 C 
ENDROOT
BRANCH   1   2
ATOM      2  C   UNL     1      30.103   6.759  48.147  1.00  0.00     0.041 C 
ATOM      3  O   UNL     1      29.022   6.114  48.186  1.00  0.00    -0.550 OA
ATOM      4  O   UNL     1      31.131   6.326  47.320  1.00  0.00    -0.550 OA
ENDBRANCH   1   2
BRANCH   1   5
ATOM      5  C   UNL     1      31.692   8.545  48.828  1.00  0.00     0.003 C 
ATOM      6  C   UNL     1      31.702  10.053  48.588  1.00  0.00     0.004 C 
ENDBRANCH   1   5
TORSDOF 2
ENDMDL
MODEL 7
REMARK VINA RESULT:    -2.717      2.172      3.337
REMARK INTER + INTRA:          -3.069
REMARK INTER:                  -3.055
REMARK INTRA:                  -0.014
REMARK UNBOUND:                -0.034
REMARK SMILES CCCC(=O)[O-]
REMARK SMILES IDX 3 1 4 2 5 3 6 4 2 5 1 6
REMARK H PARENT
REMARK Flexibility Score: inf
ROOT
ATOM      1  C   UNL     1      21.470  11.320  35.862  1.00  0.00     0.052 C 
ENDROOT
BRANCH   1   2
ATOM      2  C   UNL     1      22.547  11.154  34.837  1.00  0.00     0.041 C 
ATOM      3  O   UNL     1      22.286  11.297  33.614  1.00  0.00    -0.550 OA
ATOM      4  O   UNL     1      23.851  10.889  35.235  1.00  0.00    -0.550 OA
ENDBRANCH   1   2
BRANCH   1   5
ATOM      5  C   UNL     1      20.845  12.714  35.761  1.00  0.00     0.003 C 
ATOM      6  C   UNL     1      19.399  12.706  36.249  1.00  0.00     0.004 C 
ENDBRANCH   1   5
TORSDOF 2
ENDMDL
MODEL 8
REMARK VINA RESULT:    -2.699     16.092     16.945
REMARK INTER + INTRA:          -3.048
REMARK INTER:                  -3.024
REMARK INTRA:                  -0.025
REMARK UNBOUND:                -0.034
REMARK SMILES CCCC(=O)[O-]
REMARK SMILES IDX 3 1 4 2 5 3 6 4 2 5 1 6
REMARK H PARENT
REMARK Flexibility Score: inf
ROOT
ATOM      1  C   UNL     1      33.130   7.205  47.230  1.00  0.00     0.052 C 
ENDROOT
BRANCH   1   2
ATOM      2  C   UNL     1      33.906   6.470  46.182  1.00  0.00     0.041 C 
ATOM      3  O   UNL     1      34.594   5.464  46.492  1.00  0.00    -0.550 OA
ATOM      4  O   UNL     1      33.829   6.867  44.854  1.00  0.00    -0.550 OA
ENDBRANCH   1   2
BRANCH   1   5
ATOM      5  C   UNL     1      32.300   6.228  48.065  1.00  0.00     0.003 C 
ATOM      6  C   UNL     1      30.814   6.349  47.738  1.00  0.00     0.004 C 
ENDBRANCH   1   5
TORSDOF 2
ENDMDL
MODEL 9
REMARK VINA RESULT:    -2.617      2.209      2.643
REMARK INTER + INTRA:          -2.957
REMARK INTER:                  -2.886
REMARK INTRA:                  -0.071
REMARK UNBOUND:                -0.034
REMARK SMILES CCCC(=O)[O-]
REMARK SMILES IDX 3 1 4 2 5 3 6 4 2 5 1 6
REMARK H PARENT
REMARK Flexibility Score: inf
ROOT
ATOM      1  C   UNL     1      22.173  10.278  35.898  1.00  0.00     0.052 C 
ENDROOT
BRANCH   1   2
ATOM      2  C   UNL     1      20.969   9.572  35.360  1.00  0.00     0.041 C 
ATOM      3  O   UNL     1      20.022   9.257  36.128  1.00  0.00    -0.550 OA
ATOM      4  O   UNL     1      20.869   9.305  34.001  1.00  0.00    -0.550 OA
ENDBRANCH   1   2
BRANCH   1   5
ATOM      5  C   UNL     1      22.362  11.625  35.195  1.00  0.00     0.003 C 
ATOM      6  C   UNL     1      21.271  12.613  35.596  1.00  0.00     0.004 C 
ENDBRANCH   1   5
TORSDOF 2
ENDMDL
