MODEL 1
REMARK VINA RESULT:    -3.786      0.000      0.000
REMARK INTER + INTRA:          -4.146
REMARK INTER:                  -4.118
REMARK INTRA:                  -0.028
REMARK UNBOUND:                -0.028
REMARK SMILES O=C([O-])c1ccc(O)cc1
REMARK SMILES IDX 4 1 5 2 10 3 6 4 9 5 7 6 2 7 1 8 3 9 8 10
REMARK H PARENT 8 11
REMARK Flexibility Score: inf
ROOT
ATOM      1  C   UNL     1      31.234 171.611 154.482  1.00  0.00    -0.003 A 
ATOM      2  C   UNL     1      29.922 171.242 154.827  1.00  0.00     0.014 A 
ATOM      3  C   UNL     1      31.475 172.912 154.003  1.00  0.00     0.014 A 
ATOM      4  C   UNL     1      28.873 172.157 154.696  1.00  0.00     0.047 A 
ATOM      5  C   UNL     1      30.423 173.824 153.875  1.00  0.00     0.047 A 
ATOM      6  C   UNL     1      29.118 173.448 154.221  1.00  0.00     0.115 A 
ENDROOT
BRANCH   1   7
ATOM      7  C   UNL     1      32.343 170.642 154.620  1.00  0.00     0.071 C 
ATOM      8  O   UNL     1      32.369 169.592 153.924  1.00  0.00    -0.545 OA
ATOM      9  O   UNL     1      33.376 170.877 155.523  1.00  0.00    -0.545 OA
ENDBRANCH   1   7
BRANCH   6  10
ATOM     10  O   UNL     1      28.063 174.348 154.096  1.00  0.00    -0.508 OA
ATOM     11  H   UNL     1      27.607 174.510 153.205  1.00  0.00     0.293 HD
ENDBRANCH   6  10
TORSDOF 2
ENDMDL
MODEL 2
REMARK VINA RESULT:    -3.785     22.989     23.777
REMARK INTER + INTRA:          -4.146
REMARK INTER:                  -4.118
REMARK INTRA:                  -0.027
REMARK UNBOUND:                -0.028
REMARK SMILES O=C([O-])c1ccc(O)cc1
REMARK SMILES IDX 4 1 5 2 10 3 6 4 9 5 7 6 2 7 1 8 3 9 8 10
REMARK H PARENT 8 11
REMARK Flexibility Score: inf
ROOT
ATOM      1  C   UNL     1      39.197 184.950 171.374  1.00  0.00    -0.003 A 
ATOM      2  C   UNL     1      39.278 185.956 172.353  1.00  0.00     0.014 A 
ATOM      3  C   UNL     1      40.326 184.148 171.123  1.00  0.00     0.014 A 
ATOM      4  C   UNL     1      40.464 186.155 173.066  1.00  0.00     0.047 A 
ATOM      5  C   UNL     1      41.509 184.350 171.840  1.00  0.00     0.047 A 
ATOM      6  C   UNL     1      41.581 185.354 172.813  1.00  0.00     0.115 A 
ENDROOT
BRANCH   1   7
ATOM      7  C   UNL     1      37.942 184.741 170.619  1.00  0.00     0.071 C 
ATOM      8  O   UNL     1      37.822 185.172 169.441  1.00  0.00    -0.545 OA
ATOM      9  O   UNL     1      36.875 184.064 171.200  1.00  0.00    -0.545 OA
ENDBRANCH   1   7
BRANCH   6  10
ATOM     10  O   UNL     1      42.756 185.565 173.533  1.00  0.00    -0.508 OA
ATOM     11  H   UNL     1      43.427 186.272 173.255  1.00  0.00     0.293 HD
ENDBRANCH   6  10
TORSDOF 2
ENDMDL
MODEL 3
REMARK VINA RESULT:    -3.781     23.005     23.793
REMARK INTER + INTRA:          -4.141
REMARK INTER:                  -4.114
REMARK INTRA:                  -0.027
REMARK UNBOUND:                -0.028
REMARK SMILES O=C([O-])c1ccc(O)cc1
REMARK SMILES IDX 4 1 5 2 10 3 6 4 9 5 7 6 2 7 1 8 3 9 8 10
REMARK H PARENT 8 11
REMARK Flexibility Score: inf
ROOT
ATOM      1  C   UNL     1      39.210 184.939 171.408  1.00  0.00    -0.003 A 
ATOM      2  C   UNL     1      40.348 184.160 171.130  1.00  0.00     0.014 A 
ATOM      3  C   UNL     1      39.281 185.916 172.418  1.00  0.00     0.014 A 
ATOM      4  C   UNL     1      41.532 184.358 171.847  1.00  0.00     0.047 A 
ATOM      5  C   UNL     1      40.468 186.111 173.131  1.00  0.00     0.047 A 
ATOM      6  C   UNL     1      41.596 185.331 172.848  1.00  0.00     0.115 A 
ENDROOT
BRANCH   1   7
ATOM      7  C   UNL     1      37.958 184.728 170.649  1.00  0.00     0.071 C 
ATOM      8  O   UNL     1      36.987 184.116 171.170  1.00  0.00    -0.545 OA
ATOM      9  O   UNL     1      37.834 185.206 169.349  1.00  0.00    -0.545 OA
ENDBRANCH   1   7
BRANCH   6  10
ATOM     10  O   UNL     1      42.783 185.516 173.553  1.00  0.00    -0.508 OA
ATOM     11  H   UNL     1      43.422 184.748 173.724  1.00  0.00     0.293 HD
ENDBRANCH   6  10
TORSDOF 2
ENDMDL
MODEL 4
REMARK VINA RESULT:    -3.706     23.549     24.417
REMARK INTER + INTRA:          -4.060
REMARK INTER:                  -4.028
REMARK INTRA:                  -0.032
REMARK UNBOUND:                -0.028
REMARK SMILES O=C([O-])c1ccc(O)cc1
REMARK SMILES IDX 4 1 5 2 10 3 6 4 9 5 7 6 2 7 1 8 3 9 8 10
REMARK H PARENT 8 11
REMARK Flexibility Score: inf
ROOT
ATOM      1  C   UNL     1      40.657 184.348 172.055  1.00  0.00    -0.003 A 
ATOM      2  C   UNL     1      41.251 183.096 171.815  1.00  0.00     0.014 A 
ATOM      3  C   UNL     1      41.241 185.210 173.002  1.00  0.00     0.014 A 
ATOM      4  C   UNL     1      42.406 182.717 172.506  1.00  0.00     0.047 A 
ATOM      5  C   UNL     1      42.396 184.827 173.690  1.00  0.00     0.047 A 
ATOM      6  C   UNL     1      42.981 183.578 173.444  1.00  0.00     0.115 A 
ENDROOT
BRANCH   1   7
ATOM      7  C   UNL     1      39.436 184.749 171.323  1.00  0.00     0.071 C 
ATOM      8  O   UNL     1      38.526 185.401 171.901  1.00  0.00    -0.545 OA
ATOM      9  O   UNL     1      39.275 184.411 169.983  1.00  0.00    -0.545 OA
ENDBRANCH   1   7
BRANCH   6  10
ATOM     10  O   UNL     1      44.131 183.186 174.125  1.00  0.00    -0.508 OA
ATOM     11  H   UNL     1      45.045 183.230 173.690  1.00  0.00     0.293 HD
ENDBRANCH   6  10
TORSDOF 2
ENDMDL
MODEL 5
REMARK VINA RESULT:    -3.640     24.029     24.943
REMARK INTER + INTRA:          -3.987
REMARK INTER:                  -3.952
REMARK INTRA:                  -0.035
REMARK UNBOUND:                -0.028
REMARK SMILES O=C([O-])c1ccc(O)cc1
REMARK SMILES IDX 4 1 5 2 10 3 6 4 9 5 7 6 2 7 1 8 3 9 8 10
REMARK H PARENT 8 11
REMARK Flexibility Score: inf
ROOT
ATOM      1  C   UNL     1      41.147 184.841 172.733  1.00  0.00    -0.003 A 
ATOM      2  C   UNL     1      42.270 184.823 173.580  1.00  0.00     0.014 A 
ATOM      3  C   UNL     1      40.839 183.690 171.985  1.00  0.00     0.014 A 
ATOM      4  C   UNL     1      43.064 183.677 173.678  1.00  0.00     0.047 A 
ATOM      5  C   UNL     1      41.636 182.546 172.086  1.00  0.00     0.047 A 
ATOM      6  C   UNL     1      42.751 182.537 172.933  1.00  0.00     0.115 A 
ENDROOT
BRANCH   1   7
ATOM      7  C   UNL     1      40.308 186.055 172.630  1.00  0.00     0.071 C 
ATOM      8  O   UNL     1      40.743 187.171 173.018  1.00  0.00    -0.545 OA
ATOM      9  O   UNL     1      39.023 185.980 172.102  1.00  0.00    -0.545 OA
ENDBRANCH   1   7
BRANCH   6  10
ATOM     10  O   UNL     1      43.553 181.403 173.041  1.00  0.00    -0.508 OA
ATOM     11  H   UNL     1      43.164 180.470 172.960  1.00  0.00     0.293 HD
ENDBRANCH   6  10
TORSDOF 2
ENDMDL
MODEL 6
REMARK VINA RESULT:    -3.606     23.877     24.486
REMARK INTER + INTRA:          -3.951
REMARK INTER:                  -3.923
REMARK INTRA:                  -0.028
REMARK UNBOUND:                -0.028
REMARK SMILES O=C([O-])c1ccc(O)cc1
REMARK SMILES IDX 4 1 5 2 10 3 6 4 9 5 7 6 2 7 1 8 3 9 8 10
REMARK H PARENT 8 11
REMARK Flexibility Score: inf
ROOT
ATOM      1  C   UNL     1      42.359 183.739 172.664  1.00  0.00    -0.003 A 
ATOM      2  C   UNL     1      41.271 183.342 171.866  1.00  0.00     0.014 A 
ATOM      3  C   UNL     1      42.350 185.022 173.241  1.00  0.00     0.014 A 
ATOM      4  C   UNL     1      40.197 184.211 171.653  1.00  0.00     0.047 A 
ATOM      5  C   UNL     1      41.273 185.887 173.025  1.00  0.00     0.047 A 
ATOM      6  C   UNL     1      40.194 185.484 172.230  1.00  0.00     0.115 A 
ENDROOT
BRANCH   1   7
ATOM      7  C   UNL     1      43.496 182.819 172.889  1.00  0.00     0.071 C 
ATOM      8  O   UNL     1      44.321 182.582 171.967  1.00  0.00    -0.545 OA
ATOM      9  O   UNL     1      43.669 182.203 174.124  1.00  0.00    -0.545 OA
ENDBRANCH   1   7
BRANCH   6  10
ATOM     10  O   UNL     1      39.116 186.338 172.007  1.00  0.00    -0.508 OA
ATOM     11  H   UNL     1      39.240 187.243 171.568  1.00  0.00     0.293 HD
ENDBRANCH   6  10
TORSDOF 2
ENDMDL
MODEL 7
REMARK VINA RESULT:    -3.604     23.891     24.526
REMARK INTER + INTRA:          -3.949
REMARK INTER:                  -3.921
REMARK INTRA:                  -0.028
REMARK UNBOUND:                -0.028
REMARK SMILES O=C([O-])c1ccc(O)cc1
REMARK SMILES IDX 4 1 5 2 10 3 6 4 9 5 7 6 2 7 1 8 3 9 8 10
REMARK H PARENT 8 11
REMARK Flexibility Score: inf
ROOT
ATOM      1  C   UNL     1      42.386 183.721 172.679  1.00  0.00    -0.003 A 
ATOM      2  C   UNL     1      42.331 184.994 173.273  1.00  0.00     0.014 A 
ATOM      3  C   UNL     1      41.295 183.281 171.906  1.00  0.00     0.014 A 
ATOM      4  C   UNL     1      41.211 185.811 173.096  1.00  0.00     0.047 A 
ATOM      5  C   UNL     1      40.176 184.101 171.730  1.00  0.00     0.047 A 
ATOM      6  C   UNL     1      40.131 185.368 172.326  1.00  0.00     0.115 A 
ENDROOT
BRANCH   1   7
ATOM      7  C   UNL     1      43.572 182.858 172.867  1.00  0.00     0.071 C 
ATOM      8  O   UNL     1      44.319 182.572 171.894  1.00  0.00    -0.545 OA
ATOM      9  O   UNL     1      43.881 182.350 174.125  1.00  0.00    -0.545 OA
ENDBRANCH   1   7
BRANCH   6  10
ATOM     10  O   UNL     1      39.021 186.193 172.159  1.00  0.00    -0.508 OA
ATOM     11  H   UNL     1      38.131 185.977 172.593  1.00  0.00     0.293 HD
ENDBRANCH   6  10
TORSDOF 2
ENDMDL
MODEL 8
REMARK VINA RESULT:    -3.553      2.493      5.230
REMARK INTER + INTRA:          -3.893
REMARK INTER:                  -3.864
REMARK INTRA:                  -0.028
REMARK UNBOUND:                -0.028
REMARK SMILES O=C([O-])c1ccc(O)cc1
REMARK SMILES IDX 4 1 5 2 10 3 6 4 9 5 7 6 2 7 1 8 3 9 8 10
REMARK H PARENT 8 11
REMARK Flexibility Score: inf
ROOT
ATOM      1  C   UNL     1      32.421 170.625 155.375  1.00  0.00    -0.003 A 
ATOM      2  C   UNL     1      33.780 170.624 155.012  1.00  0.00     0.014 A 
ATOM      3  C   UNL     1      32.043 170.058 156.606  1.00  0.00     0.014 A 
ATOM      4  C   UNL     1      34.739 170.069 155.864  1.00  0.00     0.047 A 
ATOM      5  C   UNL     1      33.006 169.505 157.455  1.00  0.00     0.047 A 
ATOM      6  C   UNL     1      34.357 169.508 157.086  1.00  0.00     0.115 A 
ENDROOT
BRANCH   1   7
ATOM      7  C   UNL     1      31.407 171.212 154.472  1.00  0.00     0.071 C 
ATOM      8  O   UNL     1      30.509 170.492 153.961  1.00  0.00    -0.545 OA
ATOM      9  O   UNL     1      31.431 172.571 154.175  1.00  0.00    -0.545 OA
ENDBRANCH   1   7
BRANCH   6  10
ATOM     10  O   UNL     1      35.324 168.959 157.924  1.00  0.00    -0.508 OA
ATOM     11  H   UNL     1      36.174 169.462 158.153  1.00  0.00     0.293 HD
ENDBRANCH   6  10
TORSDOF 2
ENDMDL
MODEL 9
REMARK VINA RESULT:    -3.320     22.877     23.475
REMARK INTER + INTRA:          -3.639
REMARK INTER:                  -3.611
REMARK INTRA:                  -0.028
REMARK UNBOUND:                -0.028
REMARK SMILES O=C([O-])c1ccc(O)cc1
REMARK SMILES IDX 4 1 5 2 10 3 6 4 9 5 7 6 2 7 1 8 3 9 8 10
REMARK H PARENT 8 11
REMARK Flexibility Score: inf
ROOT
ATOM      1  C   UNL     1      40.861 183.869 172.407  1.00  0.00    -0.003 A 
ATOM      2  C   UNL     1      40.532 184.310 171.113  1.00  0.00     0.014 A 
ATOM      3  C   UNL     1      39.824 183.540 173.300  1.00  0.00     0.014 A 
ATOM      4  C   UNL     1      39.195 184.420 170.721  1.00  0.00     0.047 A 
ATOM      5  C   UNL     1      38.488 183.650 172.903  1.00  0.00     0.047 A 
ATOM      6  C   UNL     1      38.170 184.091 171.612  1.00  0.00     0.115 A 
ENDROOT
BRANCH   1   7
ATOM      7  C   UNL     1      42.276 183.754 172.821  1.00  0.00     0.071 C 
ATOM      8  O   UNL     1      43.033 182.898 172.288  1.00  0.00    -0.545 OA
ATOM      9  O   UNL     1      42.793 184.591 173.804  1.00  0.00    -0.545 OA
ENDBRANCH   1   7
BRANCH   6  10
ATOM     10  O   UNL     1      36.842 184.206 171.207  1.00  0.00    -0.508 OA
ATOM     11  H   UNL     1      36.581 184.159 170.229  1.00  0.00     0.293 HD
ENDBRANCH   6  10
TORSDOF 2
ENDMDL
