MODEL 1
REMARK VINA RESULT:    -2.526      0.000      0.000
REMARK INTER + INTRA:          -4.424
REMARK INTER:                  -3.855
REMARK INTRA:                  -0.569
REMARK UNBOUND:                -0.569
REMARK SMILES CC1=CCC[C@H](C)C(=O)C[C@H](C(C)C)C(=O)C1
REMARK SMILES IDX 8 1 9 2 6 3 7 4 5 5 4 6 3 7 2 8 1 9 10 11 11 12 15 13 16 14
REMARK SMILES IDX 17 15 12 17 13 18 14 19
REMARK H PARENT
REMARK Flexibility Score: 70.00
ROOT
ATOM      1  C   UNL     1      61.724  15.285  -1.197  1.00  0.00     0.136 C 
ATOM      2  O   UNL     1      61.212  16.393  -1.129  1.00  0.00    -0.299 OA
ENDROOT
BRANCH   1   3
ATOM      3  C   UNL     1      63.141  15.165  -1.731  1.00  0.00     0.053 C 
ATOM      4  C   UNL     1      63.164  15.388  -3.247  1.00  0.00     0.016 C 
BRANCH   3   5
ATOM      5  C   UNL     1      64.118  16.123  -1.019  1.00  0.00     0.015 C 
BRANCH   5   6
ATOM      6  C   UNL     1      64.714  15.490   0.251  1.00  0.00     0.028 C 
BRANCH   6   7
ATOM      7  C   UNL     1      63.924  15.797   1.497  1.00  0.00    -0.028 C 
ATOM      8  C   UNL     1      63.348  14.885   2.323  1.00  0.00    -0.070 CG0
ATOM      9  C   UNL     1      62.714  15.407   3.589  1.00  0.00     0.039 C 
ATOM     10  G   UNL     1      63.232  13.394   2.017  1.00  0.00     0.000 G0
ENDBRANCH   6   7
ENDBRANCH   5   6
ENDBRANCH   3   5
ENDBRANCH   1   3
BRANCH   1  11
ATOM     11  C   UNL     1      60.946  14.090  -0.691  1.00  0.00     0.087 C 
BRANCH  11  12
ATOM     12  C   UNL     1      61.860  12.945  -0.173  1.00  0.00     0.066 C 
BRANCH  12  13
ATOM     13  C   UNL     1      61.952  12.949   1.349  1.00  0.00     0.140 C 
ATOM     14  O   UNL     1      60.945  12.725   2.004  1.00  0.00    -0.299 OA
BRANCH  13  15
ATOM     15  C   UNL     1      63.216  13.383   2.058  1.00  0.00     0.106 CG0
ATOM     16  G   UNL     1      63.339  14.886   2.292  1.00  0.00     0.000 G0
ENDBRANCH  13  15
ENDBRANCH  12  13
BRANCH  12  17
ATOM     17  C   UNL     1      61.410  11.539  -0.690  1.00  0.00    -0.006 C 
ATOM     18  C   UNL     1      61.288  11.485  -2.224  1.00  0.00     0.008 C 
ATOM     19  C   UNL     1      62.387  10.438  -0.233  1.00  0.00     0.008 C 
ENDBRANCH  12  17
ENDBRANCH  11  12
ENDBRANCH   1  11
TORSDOF 1
ENDMDL
MODEL 2
REMARK VINA RESULT:    -2.426      2.648      4.610
REMARK INTER + INTRA:          -4.272
REMARK INTER:                  -4.162
REMARK INTRA:                  -0.110
REMARK UNBOUND:                -0.569
REMARK SMILES CC1=CCC[C@H](C)C(=O)C[C@H](C(C)C)C(=O)C1
REMARK SMILES IDX 8 1 9 2 6 3 7 4 5 5 4 6 3 7 2 8 1 9 10 11 11 12 15 13 16 14
REMARK SMILES IDX 17 15 12 17 13 18 14 19
REMARK H PARENT
REMARK Flexibility Score: 70.00
ROOT
ATOM      1  C   UNL     1      62.528  13.400  -1.119  1.00  0.00     0.136 C 
ATOM      2  O   UNL     1      63.445  13.010  -1.828  1.00  0.00    -0.299 OA
ENDROOT
BRANCH   1   3
ATOM      3  C   UNL     1      61.100  13.104  -1.542  1.00  0.00     0.053 C 
ATOM      4  C   UNL     1      61.017  11.737  -2.233  1.00  0.00     0.016 C 
BRANCH   3   5
ATOM      5  C   UNL     1      60.111  13.185  -0.362  1.00  0.00     0.015 C 
BRANCH   5   6
ATOM      6  C   UNL     1      58.962  14.169  -0.647  1.00  0.00     0.028 C 
BRANCH   6   7
ATOM      7  C   UNL     1      58.579  15.001   0.551  1.00  0.00    -0.028 C 
ATOM      8  C   UNL     1      59.158  16.169   0.929  1.00  0.00    -0.070 CG0
ATOM      9  C   UNL     1      58.531  16.905   2.088  1.00  0.00     0.039 C 
ATOM     10  G   UNL     1      60.435  16.740   0.317  1.00  0.00     0.000 G0
ENDBRANCH   6   7
ENDBRANCH   5   6
ENDBRANCH   3   5
ENDBRANCH   1   3
BRANCH   1  11
ATOM     11  C   UNL     1      62.858  14.107   0.177  1.00  0.00     0.087 C 
BRANCH  11  12
ATOM     12  C   UNL     1      62.830  15.655   0.049  1.00  0.00     0.066 C 
BRANCH  12  13
ATOM     13  C   UNL     1      61.743  16.269   0.924  1.00  0.00     0.140 C 
ATOM     14  O   UNL     1      61.866  16.226   2.140  1.00  0.00    -0.299 OA
BRANCH  13  15
ATOM     15  C   UNL     1      60.449  16.778   0.329  1.00  0.00     0.106 CG0
ATOM     16  G   UNL     1      59.183  16.162   0.919  1.00  0.00     0.000 G0
ENDBRANCH  13  15
ENDBRANCH  12  13
BRANCH  12  17
ATOM     17  C   UNL     1      64.217  16.307   0.362  1.00  0.00    -0.006 C 
ATOM     18  C   UNL     1      65.084  15.435   1.289  1.00  0.00     0.008 C 
ATOM     19  C   UNL     1      65.006  16.587  -0.932  1.00  0.00     0.008 C 
ENDBRANCH  12  17
ENDBRANCH  11  12
ENDBRANCH   1  11
TORSDOF 1
ENDMDL
MODEL 3
REMARK VINA RESULT:    -2.329      2.531      3.040
REMARK INTER + INTRA:          -4.124
REMARK INTER:                  -3.662
REMARK INTRA:                  -0.461
REMARK UNBOUND:                -0.569
REMARK SMILES CC1=CCC[C@H](C)C(=O)C[C@H](C(C)C)C(=O)C1
REMARK SMILES IDX 8 1 9 2 6 3 7 4 5 5 4 6 3 7 2 8 1 9 10 11 11 12 15 13 16 14
REMARK SMILES IDX 17 15 12 17 13 18 14 19
REMARK H PARENT
REMARK Flexibility Score: 70.00
ROOT
ATOM      1  C   UNL     1      62.819  13.093  -1.525  1.00  0.00     0.136 C 
ATOM      2  O   UNL     1      63.313  12.249  -0.792  1.00  0.00    -0.299 OA
ENDROOT
BRANCH   1   3
ATOM      3  C   UNL     1      63.578  14.386  -1.768  1.00  0.00     0.053 C 
ATOM      4  C   UNL     1      63.063  15.082  -3.033  1.00  0.00     0.016 C 
BRANCH   3   5
ATOM      5  C   UNL     1      63.520  15.336  -0.554  1.00  0.00     0.015 C 
BRANCH   5   6
ATOM      6  C   UNL     1      62.199  16.125  -0.511  1.00  0.00     0.028 C 
BRANCH   6   7
ATOM      7  C   UNL     1      61.311  15.739   0.644  1.00  0.00    -0.028 C 
ATOM      8  C   UNL     1      60.218  14.936   0.577  1.00  0.00    -0.070 CG0
ATOM      9  C   UNL     1      59.549  14.574   1.881  1.00  0.00     0.039 C 
ATOM     10  G   UNL     1      59.583  14.447  -0.722  1.00  0.00     0.000 G0
ENDBRANCH   6   7
ENDBRANCH   5   6
ENDBRANCH   3   5
ENDBRANCH   1   3
BRANCH   1  11
ATOM     11  C   UNL     1      61.502  12.789  -2.204  1.00  0.00     0.087 C 
BRANCH  11  12
ATOM     12  C   UNL     1      60.507  12.025  -1.287  1.00  0.00     0.066 C 
BRANCH  12  13
ATOM     13  C   UNL     1      59.373  12.930  -0.816  1.00  0.00     0.140 C 
ATOM     14  O   UNL     1      58.261  12.450  -0.651  1.00  0.00    -0.299 OA
BRANCH  13  15
ATOM     15  C   UNL     1      59.556  14.428  -0.710  1.00  0.00     0.106 CG0
ATOM     16  G   UNL     1      60.224  14.904   0.577  1.00  0.00     0.000 G0
ENDBRANCH  13  15
ENDBRANCH  12  13
BRANCH  12  17
ATOM     17  C   UNL     1      59.933  10.739  -1.966  1.00  0.00    -0.006 C 
ATOM     18  C   UNL     1      59.975  10.813  -3.503  1.00  0.00     0.008 C 
ATOM     19  C   UNL     1      60.699   9.481  -1.512  1.00  0.00     0.008 C 
ENDBRANCH  12  17
ENDBRANCH  11  12
ENDBRANCH   1  11
TORSDOF 1
ENDMDL
MODEL 4
REMARK VINA RESULT:    -2.313     12.503     14.908
REMARK INTER + INTRA:          -4.099
REMARK INTER:                  -3.810
REMARK INTRA:                  -0.289
REMARK UNBOUND:                -0.569
REMARK SMILES CC1=CCC[C@H](C)C(=O)C[C@H](C(C)C)C(=O)C1
REMARK SMILES IDX 8 1 9 2 6 3 7 4 5 5 4 6 3 7 2 8 1 9 10 11 11 12 15 13 16 14
REMARK SMILES IDX 17 15 12 17 13 18 14 19
REMARK H PARENT
REMARK Flexibility Score: 70.00
ROOT
ATOM      1  C   UNL     1      53.475   5.380   3.768  1.00  0.00     0.136 C 
ATOM      2  O   UNL     1      53.473   5.403   4.990  1.00  0.00    -0.299 OA
ENDROOT
BRANCH   1   3
ATOM      3  C   UNL     1      52.805   6.515   3.014  1.00  0.00     0.053 C 
ATOM      4  C   UNL     1      53.703   7.005   1.872  1.00  0.00     0.016 C 
BRANCH   3   5
ATOM      5  C   UNL     1      51.409   6.124   2.487  1.00  0.00     0.015 C 
BRANCH   5   6
ATOM      6  C   UNL     1      51.472   5.593   1.044  1.00  0.00     0.028 C 
BRANCH   6   7
ATOM      7  C   UNL     1      50.665   4.337   0.834  1.00  0.00    -0.028 C 
ATOM      8  C   UNL     1      51.103   3.066   1.020  1.00  0.00    -0.070 CG0
ATOM      9  C   UNL     1      50.086   1.959   0.878  1.00  0.00     0.039 C 
ATOM     10  G   UNL     1      52.557   2.682   1.281  1.00  0.00     0.000 G0
ENDBRANCH   6   7
ENDBRANCH   5   6
ENDBRANCH   3   5
ENDBRANCH   1   3
BRANCH   1  11
ATOM     11  C   UNL     1      54.196   4.253   3.061  1.00  0.00     0.087 C 
BRANCH  11  12
ATOM     12  C   UNL     1      53.807   2.849   3.600  1.00  0.00     0.066 C 
BRANCH  12  13
ATOM     13  C   UNL     1      52.901   2.107   2.624  1.00  0.00     0.140 C 
ATOM     14  O   UNL     1      52.536   0.973   2.900  1.00  0.00    -0.299 OA
BRANCH  13  15
ATOM     15  C   UNL     1      52.582   2.677   1.260  1.00  0.00     0.106 CG0
ATOM     16  G   UNL     1      51.119   3.059   1.048  1.00  0.00     0.000 G0
ENDBRANCH  13  15
ENDBRANCH  12  13
BRANCH  12  17
ATOM     17  C   UNL     1      55.055   1.978   3.958  1.00  0.00    -0.006 C 
ATOM     18  C   UNL     1      56.011   1.796   2.764  1.00  0.00     0.008 C 
ATOM     19  C   UNL     1      55.844   2.589   5.132  1.00  0.00     0.008 C 
ENDBRANCH  12  17
ENDBRANCH  11  12
ENDBRANCH   1  11
TORSDOF 1
ENDMDL
MODEL 5
REMARK VINA RESULT:    -2.107     11.433     13.344
REMARK INTER + INTRA:          -3.785
REMARK INTER:                  -3.364
REMARK INTRA:                  -0.420
REMARK UNBOUND:                -0.569
REMARK SMILES CC1=CCC[C@H](C)C(=O)C[C@H](C(C)C)C(=O)C1
REMARK SMILES IDX 8 1 9 2 6 3 7 4 5 5 4 6 3 7 2 8 1 9 10 11 11 12 15 13 16 14
REMARK SMILES IDX 17 15 12 17 13 18 14 19
REMARK H PARENT
REMARK Flexibility Score: 70.00
ROOT
ATOM      1  C   UNL     1      54.568   4.969   4.813  1.00  0.00     0.136 C 
ATOM      2  O   UNL     1      53.689   5.623   5.356  1.00  0.00    -0.299 OA
ENDROOT
BRANCH   1   3
ATOM      3  C   UNL     1      55.806   5.689   4.305  1.00  0.00     0.053 C 
ATOM      4  C   UNL     1      55.412   6.855   3.390  1.00  0.00     0.016 C 
BRANCH   3   5
ATOM      5  C   UNL     1      56.713   6.173   5.454  1.00  0.00     0.015 C 
BRANCH   5   6
ATOM      6  C   UNL     1      57.272   4.997   6.275  1.00  0.00     0.028 C 
BRANCH   6   7
ATOM      7  C   UNL     1      58.377   4.251   5.572  1.00  0.00    -0.028 C 
ATOM      8  C   UNL     1      58.250   3.072   4.911  1.00  0.00    -0.070 CG0
ATOM      9  C   UNL     1      59.462   2.567   4.167  1.00  0.00     0.039 C 
ATOM     10  G   UNL     1      57.001   2.196   4.939  1.00  0.00     0.000 G0
ENDBRANCH   6   7
ENDBRANCH   5   6
ENDBRANCH   3   5
ENDBRANCH   1   3
BRANCH   1  11
ATOM     11  C   UNL     1      54.411   3.468   4.722  1.00  0.00     0.087 C 
BRANCH  11  12
ATOM     12  C   UNL     1      54.972   2.876   3.399  1.00  0.00     0.066 C 
BRANCH  12  13
ATOM     13  C   UNL     1      56.245   2.073   3.642  1.00  0.00     0.140 C 
ATOM     14  O   UNL     1      56.582   1.234   2.819  1.00  0.00    -0.299 OA
BRANCH  13  15
ATOM     15  C   UNL     1      57.003   2.177   4.947  1.00  0.00     0.106 CG0
ATOM     16  G   UNL     1      58.242   3.067   4.903  1.00  0.00     0.000 G0
ENDBRANCH  13  15
ENDBRANCH  12  13
BRANCH  12  17
ATOM     17  C   UNL     1      53.917   2.011   2.635  1.00  0.00    -0.006 C 
ATOM     18  C   UNL     1      53.229   0.978   3.545  1.00  0.00     0.008 C 
ATOM     19  C   UNL     1      52.835   2.896   1.987  1.00  0.00     0.008 C 
ENDBRANCH  12  17
ENDBRANCH  11  12
ENDBRANCH   1  11
TORSDOF 1
ENDMDL
MODEL 6
REMARK VINA RESULT:    -2.093     11.917     13.890
REMARK INTER + INTRA:          -3.763
REMARK INTER:                  -3.264
REMARK INTRA:                  -0.499
REMARK UNBOUND:                -0.569
REMARK SMILES CC1=CCC[C@H](C)C(=O)C[C@H](C(C)C)C(=O)C1
REMARK SMILES IDX 8 1 9 2 6 3 7 4 5 5 4 6 3 7 2 8 1 9 10 11 11 12 15 13 16 14
REMARK SMILES IDX 17 15 12 17 13 18 14 19
REMARK H PARENT
REMARK Flexibility Score: 70.00
ROOT
ATOM      1  C   UNL     1      54.263   6.398   2.087  1.00  0.00     0.136 C 
ATOM      2  O   UNL     1      54.771   7.364   1.536  1.00  0.00    -0.299 OA
ENDROOT
BRANCH   1   3
ATOM      3  C   UNL     1      52.750   6.260   2.074  1.00  0.00     0.053 C 
ATOM      4  C   UNL     1      52.090   7.554   2.565  1.00  0.00     0.016 C 
BRANCH   3   5
ATOM      5  C   UNL     1      52.211   5.861   0.685  1.00  0.00     0.015 C 
BRANCH   5   6
ATOM      6  C   UNL     1      52.771   4.503   0.225  1.00  0.00     0.028 C 
BRANCH   6   7
ATOM      7  C   UNL     1      52.094   3.326   0.879  1.00  0.00    -0.028 C 
ATOM      8  C   UNL     1      52.605   2.567   1.882  1.00  0.00    -0.070 CG0
ATOM      9  C   UNL     1      51.701   1.516   2.480  1.00  0.00     0.039 C 
ATOM     10  G   UNL     1      54.044   2.652   2.383  1.00  0.00     0.000 G0
ENDBRANCH   6   7
ENDBRANCH   5   6
ENDBRANCH   3   5
ENDBRANCH   1   3
BRANCH   1  11
ATOM     11  C   UNL     1      55.165   5.352   2.705  1.00  0.00     0.087 C 
BRANCH  11  12
ATOM     12  C   UNL     1      54.563   4.711   3.986  1.00  0.00     0.066 C 
BRANCH  12  13
ATOM     13  C   UNL     1      54.232   3.238   3.772  1.00  0.00     0.140 C 
ATOM     14  O   UNL     1      54.237   2.484   4.734  1.00  0.00    -0.299 OA
BRANCH  13  15
ATOM     15  C   UNL     1      54.061   2.665   2.383  1.00  0.00     0.106 CG0
ATOM     16  G   UNL     1      52.617   2.568   1.900  1.00  0.00     0.000 G0
ENDBRANCH  13  15
ENDBRANCH  12  13
BRANCH  12  17
ATOM     17  C   UNL     1      55.488   4.888   5.235  1.00  0.00    -0.006 C 
ATOM     18  C   UNL     1      56.980   4.949   4.861  1.00  0.00     0.008 C 
ATOM     19  C   UNL     1      55.124   6.162   6.022  1.00  0.00     0.008 C 
ENDBRANCH  12  17
ENDBRANCH  11  12
ENDBRANCH   1  11
TORSDOF 1
ENDMDL
MODEL 7
REMARK VINA RESULT:    -2.091     10.448     12.543
REMARK INTER + INTRA:          -3.760
REMARK INTER:                  -3.193
REMARK INTRA:                  -0.567
REMARK UNBOUND:                -0.569
REMARK SMILES CC1=CCC[C@H](C)C(=O)C[C@H](C(C)C)C(=O)C1
REMARK SMILES IDX 8 1 9 2 6 3 7 4 5 5 4 6 3 7 2 8 1 9 10 11 11 12 15 13 16 14
REMARK SMILES IDX 17 15 12 17 13 18 14 19
REMARK H PARENT
REMARK Flexibility Score: 70.00
ROOT
ATOM      1  C   UNL     1      56.374   7.458   3.728  1.00  0.00     0.136 C 
ATOM      2  O   UNL     1      56.929   8.211   2.941  1.00  0.00    -0.299 OA
ENDROOT
BRANCH   1   3
ATOM      3  C   UNL     1      55.064   7.896   4.360  1.00  0.00     0.053 C 
ATOM      4  C   UNL     1      55.174   9.334   4.882  1.00  0.00     0.016 C 
BRANCH   3   5
ATOM      5  C   UNL     1      53.871   7.752   3.393  1.00  0.00     0.015 C 
BRANCH   5   6
ATOM      6  C   UNL     1      53.030   6.502   3.707  1.00  0.00     0.028 C 
BRANCH   6   7
ATOM      7  C   UNL     1      53.278   5.362   2.753  1.00  0.00    -0.028 C 
ATOM      8  C   UNL     1      53.746   4.131   3.085  1.00  0.00    -0.070 CG0
ATOM      9  C   UNL     1      53.795   3.095   1.988  1.00  0.00     0.039 C 
ATOM     10  G   UNL     1      54.294   3.756   4.459  1.00  0.00     0.000 G0
ENDBRANCH   6   7
ENDBRANCH   5   6
ENDBRANCH   3   5
ENDBRANCH   1   3
BRANCH   1  11
ATOM     11  C   UNL     1      56.986   6.101   3.994  1.00  0.00     0.087 C 
BRANCH  11  12
ATOM     12  C   UNL     1      56.282   5.331   5.146  1.00  0.00     0.066 C 
BRANCH  12  13
ATOM     13  C   UNL     1      55.766   3.975   4.678  1.00  0.00     0.140 C 
ATOM     14  O   UNL     1      56.571   3.119   4.341  1.00  0.00    -0.299 OA
BRANCH  13  15
ATOM     15  C   UNL     1      54.289   3.726   4.468  1.00  0.00     0.106 CG0
ATOM     16  G   UNL     1      53.761   4.113   3.089  1.00  0.00     0.000 G0
ENDBRANCH  13  15
ENDBRANCH  12  13
BRANCH  12  17
ATOM     17  C   UNL     1      57.197   5.164   6.402  1.00  0.00    -0.006 C 
ATOM     18  C   UNL     1      58.695   5.262   6.059  1.00  0.00     0.008 C 
ATOM     19  C   UNL     1      56.868   6.219   7.476  1.00  0.00     0.008 C 
ENDBRANCH  12  17
ENDBRANCH  11  12
ENDBRANCH   1  11
TORSDOF 1
ENDMDL
MODEL 8
REMARK VINA RESULT:    -2.038      3.002      4.592
REMARK INTER + INTRA:          -3.679
REMARK INTER:                  -3.440
REMARK INTRA:                  -0.239
REMARK UNBOUND:                -0.569
REMARK SMILES CC1=CCC[C@H](C)C(=O)C[C@H](C(C)C)C(=O)C1
REMARK SMILES IDX 8 1 9 2 6 3 7 4 5 5 4 6 3 7 2 8 1 9 10 11 11 12 15 13 16 14
REMARK SMILES IDX 17 15 12 17 13 18 14 19
REMARK H PARENT
REMARK Flexibility Score: 70.00
ROOT
ATOM      1  C   UNL     1      60.827  17.911   0.227  1.00  0.00     0.136 C 
ATOM      2  O   UNL     1      60.697  19.045  -0.212  1.00  0.00    -0.299 OA
ENDROOT
BRANCH   1   3
ATOM      3  C   UNL     1      60.419  17.631   1.663  1.00  0.00     0.053 C 
ATOM      4  C   UNL     1      61.313  18.409   2.636  1.00  0.00     0.016 C 
BRANCH   3   5
ATOM      5  C   UNL     1      58.930  17.937   1.918  1.00  0.00     0.015 C 
BRANCH   5   6
ATOM      6  C   UNL     1      58.019  16.810   1.400  1.00  0.00     0.028 C 
BRANCH   6   7
ATOM      7  C   UNL     1      58.290  15.478   2.051  1.00  0.00    -0.028 C 
ATOM      8  C   UNL     1      59.104  14.505   1.567  1.00  0.00    -0.070 CG0
ATOM      9  C   UNL     1      59.334  13.300   2.447  1.00  0.00     0.039 C 
ATOM     10  G   UNL     1      59.730  14.514   0.175  1.00  0.00     0.000 G0
ENDBRANCH   6   7
ENDBRANCH   5   6
ENDBRANCH   3   5
ENDBRANCH   1   3
BRANCH   1  11
ATOM     11  C   UNL     1      61.332  16.825  -0.697  1.00  0.00     0.087 C 
BRANCH  11  12
ATOM     12  C   UNL     1      62.085  15.691   0.052  1.00  0.00     0.066 C 
BRANCH  12  13
ATOM     13  C   UNL     1      61.240  14.425   0.143  1.00  0.00     0.140 C 
ATOM     14  O   UNL     1      61.791  13.337   0.062  1.00  0.00    -0.299 OA
BRANCH  13  15
ATOM     15  C   UNL     1      59.728  14.489   0.166  1.00  0.00     0.106 CG0
ATOM     16  G   UNL     1      59.106  14.493   1.560  1.00  0.00     0.000 G0
ENDBRANCH  13  15
ENDBRANCH  12  13
BRANCH  12  17
ATOM     17  C   UNL     1      63.478  15.374  -0.584  1.00  0.00    -0.006 C 
ATOM     18  C   UNL     1      63.476  15.526  -2.116  1.00  0.00     0.008 C 
ATOM     19  C   UNL     1      64.577  16.282   0.000  1.00  0.00     0.008 C 
ENDBRANCH  12  17
ENDBRANCH  11  12
ENDBRANCH   1  11
TORSDOF 1
ENDMDL
MODEL 9
REMARK VINA RESULT:    -1.967     11.611     13.076
REMARK INTER + INTRA:          -3.572
REMARK INTER:                  -3.341
REMARK INTRA:                  -0.230
REMARK UNBOUND:                -0.569
REMARK SMILES CC1=CCC[C@H](C)C(=O)C[C@H](C(C)C)C(=O)C1
REMARK SMILES IDX 8 1 9 2 6 3 7 4 5 5 4 6 3 7 2 8 1 9 10 11 11 12 15 13 16 14
REMARK SMILES IDX 17 15 12 17 13 18 14 19
REMARK H PARENT
REMARK Flexibility Score: 70.00
ROOT
ATOM      1  C   UNL     1      57.844   4.326   5.966  1.00  0.00     0.136 C 
ATOM      2  O   UNL     1      58.922   4.005   6.446  1.00  0.00    -0.299 OA
ENDROOT
BRANCH   1   3
ATOM      3  C   UNL     1      56.899   5.178   6.796  1.00  0.00     0.053 C 
ATOM      4  C   UNL     1      57.463   5.387   8.206  1.00  0.00     0.016 C 
BRANCH   3   5
ATOM      5  C   UNL     1      56.585   6.529   6.123  1.00  0.00     0.015 C 
BRANCH   5   6
ATOM      6  C   UNL     1      55.075   6.712   5.888  1.00  0.00     0.028 C 
BRANCH   6   7
ATOM      7  C   UNL     1      54.738   7.134   4.480  1.00  0.00    -0.028 C 
ATOM      8  C   UNL     1      54.215   6.339   3.512  1.00  0.00    -0.070 CG0
ATOM      9  C   UNL     1      53.832   7.001   2.210  1.00  0.00     0.039 C 
ATOM     10  G   UNL     1      54.066   4.824   3.624  1.00  0.00     0.000 G0
ENDBRANCH   6   7
ENDBRANCH   5   6
ENDBRANCH   3   5
ENDBRANCH   1   3
BRANCH   1  11
ATOM     11  C   UNL     1      57.525   3.912   4.547  1.00  0.00     0.087 C 
BRANCH  11  12
ATOM     12  C   UNL     1      56.099   3.313   4.395  1.00  0.00     0.066 C 
BRANCH  12  13
ATOM     13  C   UNL     1      55.311   4.020   3.297  1.00  0.00     0.140 C 
ATOM     14  O   UNL     1      55.767   4.046   2.163  1.00  0.00    -0.299 OA
BRANCH  13  15
ATOM     15  C   UNL     1      54.068   4.822   3.613  1.00  0.00     0.106 CG0
ATOM     16  G   UNL     1      54.235   6.335   3.504  1.00  0.00     0.000 G0
ENDBRANCH  13  15
ENDBRANCH  12  13
BRANCH  12  17
ATOM     17  C   UNL     1      56.120   1.770   4.146  1.00  0.00    -0.006 C 
ATOM     18  C   UNL     1      56.643   0.983   5.361  1.00  0.00     0.008 C 
ATOM     19  C   UNL     1      54.717   1.244   3.785  1.00  0.00     0.008 C 
ENDBRANCH  12  17
ENDBRANCH  11  12
ENDBRANCH   1  11
TORSDOF 1
ENDMDL
