MODEL 1
REMARK VINA RESULT:    -6.143      0.000      0.000
REMARK INTER + INTRA:         -10.522
REMARK INTER:                  -8.837
REMARK INTRA:                  -1.685
REMARK UNBOUND:                -1.685
REMARK SMILES O=c1c(O[C@H]2O[C@H](CO)[C@@H](O)[C@H](O)[C@@H]2O)c(-c2ccc(O)cc2)oc2cc(O)cc(O)c12
REMARK SMILES IDX 4 1 3 2 16 3 24 4 2 5 25 6 1 7 32 8 26 9 30 10 27 11 29 12
REMARK SMILES IDX 17 13 18 14 19 15 20 16 23 17 22 18 21 19 31 21 28 23 5 25
REMARK SMILES IDX 14 26 6 27 12 28 7 29 10 30 15 31 13 33 8 35 9 36 11 38
REMARK H PARENT 21 20 31 22 28 24 15 32 13 34 9 37 11 39
REMARK Flexibility Score: inf
ROOT
ATOM      1  O   UNL     1      16.438  -3.684 -15.039  1.00  0.00    -0.454 OA
ENDROOT
BRANCH   1   2
ATOM      2  C   UNL     1      16.774  -2.417 -14.517  1.00  0.00     0.214 A 
ATOM      3  C   UNL     1      16.279  -2.073 -13.242  1.00  0.00     0.180 A 
ATOM      4  O   UNL     1      16.520  -0.871 -12.731  1.00  0.00    -0.452 OA
ATOM      5  C   UNL     1      17.551  -1.460 -15.212  1.00  0.00     0.239 A 
ATOM      6  C   UNL     1      17.243   0.053 -13.348  1.00  0.00     0.146 A 
ATOM      7  O   UNL     1      18.013  -1.720 -16.353  1.00  0.00    -0.285 OA
ATOM      8  C   UNL     1      17.800  -0.202 -14.621  1.00  0.00     0.111 A 
ATOM      9  C   UNL     1      17.447   1.285 -12.720  1.00  0.00     0.094 A 
ATOM     10  C   UNL     1      18.572   0.809 -15.248  1.00  0.00     0.134 A 
ATOM     11  C   UNL     1      18.208   2.279 -13.345  1.00  0.00     0.123 A 
ATOM     12  C   UNL     1      18.766   2.038 -14.602  1.00  0.00     0.093 A 
BRANCH   3  13
ATOM     13  C   UNL     1      15.460  -3.013 -12.444  1.00  0.00     0.021 A 
ATOM     14  C   UNL     1      14.071  -3.059 -12.641  1.00  0.00     0.016 A 
ATOM     15  C   UNL     1      13.279  -3.934 -11.890  1.00  0.00     0.047 A 
ATOM     16  C   UNL     1      13.863  -4.758 -10.923  1.00  0.00     0.115 A 
ATOM     17  C   UNL     1      16.039  -3.828 -11.455  1.00  0.00     0.016 A 
ATOM     18  C   UNL     1      15.246  -4.701 -10.705  1.00  0.00     0.047 A 
BRANCH  16  19
ATOM     19  O   UNL     1      13.063  -5.626 -10.184  1.00  0.00    -0.508 OA
ATOM     20  H   UNL     1      12.826  -5.435  -9.218  1.00  0.00     0.293 HD
ENDBRANCH  16  19
ENDBRANCH   3  13
BRANCH  10  21
ATOM     21  O   UNL     1      19.144   0.602 -16.503  1.00  0.00    -0.507 OA
ATOM     22  H   UNL     1      19.168  -0.315 -16.935  1.00  0.00     0.293 HD
ENDBRANCH  10  21
BRANCH  11  23
ATOM     23  O   UNL     1      18.415   3.509 -12.725  1.00  0.00    -0.508 OA
ATOM     24  H   UNL     1      18.875   3.578 -11.824  1.00  0.00     0.293 HD
ENDBRANCH  11  23
ENDBRANCH   1   2
BRANCH   1  25
ATOM     25  C   UNL     1      17.310  -4.800 -15.249  1.00  0.00     0.339 C 
ATOM     26  C   UNL     1      17.176  -5.304 -16.700  1.00  0.00     0.214 C 
ATOM     27  O   UNL     1      17.058  -5.844 -14.320  1.00  0.00    -0.332 OA
ATOM     28  C   UNL     1      15.805  -5.976 -16.922  1.00  0.00     0.180 C 
ATOM     29  C   UNL     1      15.731  -6.337 -14.422  1.00  0.00     0.179 C 
ATOM     30  C   UNL     1      15.496  -6.989 -15.809  1.00  0.00     0.177 C 
BRANCH  26  31
ATOM     31  O   UNL     1      18.234  -6.167 -17.040  1.00  0.00    -0.384 OA
ATOM     32  H   UNL     1      18.837  -6.243 -16.256  1.00  0.00     0.211 HD
ENDBRANCH  26  31
BRANCH  28  33
ATOM     33  O   UNL     1      15.774  -6.625 -18.167  1.00  0.00    -0.387 OA
ATOM     34  H   UNL     1      15.038  -7.290 -18.124  1.00  0.00     0.211 HD
ENDBRANCH  28  33
BRANCH  29  35
ATOM     35  C   UNL     1      15.520  -7.348 -13.283  1.00  0.00     0.191 C 
BRANCH  35  36
ATOM     36  O   UNL     1      14.156  -7.546 -13.022  1.00  0.00    -0.394 OA
ATOM     37  H   UNL     1      13.680  -6.755 -13.385  1.00  0.00     0.210 HD
ENDBRANCH  35  36
ENDBRANCH  29  35
BRANCH  30  38
ATOM     38  O   UNL     1      14.155  -7.394 -15.934  1.00  0.00    -0.387 OA
ATOM     39  H   UNL     1      14.035  -7.737 -16.858  1.00  0.00     0.211 HD
ENDBRANCH  30  38
ENDBRANCH   1  25
TORSDOF 11
ENDMDL
MODEL 2
REMARK VINA RESULT:    -6.098      2.271      5.233
REMARK INTER + INTRA:         -10.457
REMARK INTER:                  -8.985
REMARK INTRA:                  -1.472
REMARK UNBOUND:                -1.685
REMARK SMILES O=c1c(O[C@H]2O[C@H](CO)[C@@H](O)[C@H](O)[C@@H]2O)c(-c2ccc(O)cc2)oc2cc(O)cc(O)c12
REMARK SMILES IDX 4 1 3 2 16 3 24 4 2 5 25 6 1 7 32 8 26 9 30 10 27 11 29 12
REMARK SMILES IDX 17 13 18 14 19 15 20 16 23 17 22 18 21 19 31 21 28 23 5 25
REMARK SMILES IDX 14 26 6 27 12 28 7 29 10 30 15 31 13 33 8 35 9 36 11 38
REMARK H PARENT 21 20 31 22 28 24 15 32 13 34 9 37 11 39
REMARK Flexibility Score: inf
ROOT
ATOM      1  O   UNL     1      16.962  -3.025 -13.722  1.00  0.00    -0.454 OA
ENDROOT
BRANCH   1   2
ATOM      2  C   UNL     1      17.548  -2.828 -14.990  1.00  0.00     0.214 A 
ATOM      3  C   UNL     1      17.621  -3.932 -15.864  1.00  0.00     0.180 A 
ATOM      4  O   UNL     1      18.212  -3.812 -17.047  1.00  0.00    -0.452 OA
ATOM      5  C   UNL     1      18.095  -1.597 -15.422  1.00  0.00     0.239 A 
ATOM      6  C   UNL     1      18.737  -2.679 -17.489  1.00  0.00     0.146 A 
ATOM      7  O   UNL     1      18.056  -0.584 -14.676  1.00  0.00    -0.285 OA
ATOM      8  C   UNL     1      18.697  -1.510 -16.696  1.00  0.00     0.111 A 
ATOM      9  C   UNL     1      19.331  -2.654 -18.755  1.00  0.00     0.094 A 
ATOM     10  C   UNL     1      19.263  -0.314 -17.205  1.00  0.00     0.134 A 
ATOM     11  C   UNL     1      19.890  -1.472 -19.250  1.00  0.00     0.123 A 
ATOM     12  C   UNL     1      19.854  -0.310 -18.477  1.00  0.00     0.093 A 
BRANCH   3  13
ATOM     13  C   UNL     1      17.072  -5.256 -15.495  1.00  0.00     0.021 A 
ATOM     14  C   UNL     1      17.822  -6.111 -14.672  1.00  0.00     0.016 A 
ATOM     15  C   UNL     1      17.325  -7.370 -14.321  1.00  0.00     0.047 A 
ATOM     16  C   UNL     1      16.082  -7.796 -14.801  1.00  0.00     0.115 A 
ATOM     17  C   UNL     1      15.834  -5.698 -15.995  1.00  0.00     0.016 A 
ATOM     18  C   UNL     1      15.338  -6.957 -15.642  1.00  0.00     0.047 A 
BRANCH  16  19
ATOM     19  O   UNL     1      15.598  -9.051 -14.441  1.00  0.00    -0.508 OA
ATOM     20  H   UNL     1      14.614  -9.280 -14.513  1.00  0.00     0.293 HD
ENDBRANCH  16  19
ENDBRANCH   3  13
BRANCH  10  21
ATOM     21  O   UNL     1      19.245   0.865 -16.459  1.00  0.00    -0.507 OA
ATOM     22  H   UNL     1      20.025   1.137 -15.871  1.00  0.00     0.293 HD
ENDBRANCH  10  21
BRANCH  11  23
ATOM     23  O   UNL     1      20.483  -1.440 -20.511  1.00  0.00    -0.508 OA
ATOM     24  H   UNL     1      19.929  -1.482 -21.359  1.00  0.00     0.293 HD
ENDBRANCH  11  23
ENDBRANCH   1   2
BRANCH   1  25
ATOM     25  C   UNL     1      15.615  -2.738 -13.328  1.00  0.00     0.339 C 
ATOM     26  C   UNL     1      15.615  -1.808 -12.099  1.00  0.00     0.214 C 
ATOM     27  O   UNL     1      14.880  -3.925 -13.072  1.00  0.00    -0.332 OA
ATOM     28  C   UNL     1      16.117  -2.556 -10.846  1.00  0.00     0.180 C 
ATOM     29  C   UNL     1      15.456  -4.691 -12.025  1.00  0.00     0.179 C 
ATOM     30  C   UNL     1      15.409  -3.910 -10.687  1.00  0.00     0.177 C 
BRANCH  26  31
ATOM     31  O   UNL     1      14.344  -1.242 -11.887  1.00  0.00    -0.384 OA
ATOM     32  H   UNL     1      13.673  -1.803 -12.356  1.00  0.00     0.211 HD
ENDBRANCH  26  31
BRANCH  28  33
ATOM     33  O   UNL     1      15.906  -1.779  -9.695  1.00  0.00    -0.387 OA
ATOM     34  H   UNL     1      15.272  -2.284  -9.122  1.00  0.00     0.211 HD
ENDBRANCH  28  33
BRANCH  29  35
ATOM     35  C   UNL     1      14.678  -6.014 -11.932  1.00  0.00     0.191 C 
BRANCH  35  36
ATOM     36  O   UNL     1      13.298  -5.788 -11.828  1.00  0.00    -0.394 OA
ATOM     37  H   UNL     1      13.127  -4.892 -12.217  1.00  0.00     0.210 HD
ENDBRANCH  35  36
ENDBRANCH  29  35
BRANCH  30  38
ATOM     38  O   UNL     1      16.061  -4.638  -9.676  1.00  0.00    -0.387 OA
ATOM     39  H   UNL     1      15.914  -4.155  -8.821  1.00  0.00     0.211 HD
ENDBRANCH  30  38
ENDBRANCH   1  25
TORSDOF 11
ENDMDL
MODEL 3
REMARK VINA RESULT:    -5.862      2.457      5.303
REMARK INTER + INTRA:         -10.118
REMARK INTER:                  -8.760
REMARK INTRA:                  -1.358
REMARK UNBOUND:                -1.685
REMARK SMILES O=c1c(O[C@H]2O[C@H](CO)[C@@H](O)[C@H](O)[C@@H]2O)c(-c2ccc(O)cc2)oc2cc(O)cc(O)c12
REMARK SMILES IDX 4 1 3 2 16 3 24 4 2 5 25 6 1 7 32 8 26 9 30 10 27 11 29 12
REMARK SMILES IDX 17 13 18 14 19 15 20 16 23 17 22 18 21 19 31 21 28 23 5 25
REMARK SMILES IDX 14 26 6 27 12 28 7 29 10 30 15 31 13 33 8 35 9 36 11 38
REMARK H PARENT 21 20 31 22 28 24 15 32 13 34 9 37 11 39
REMARK Flexibility Score: inf
ROOT
ATOM      1  O   UNL     1      16.952  -3.329 -14.563  1.00  0.00    -0.454 OA
ENDROOT
BRANCH   1   2
ATOM      2  C   UNL     1      17.636  -3.028 -15.759  1.00  0.00     0.214 A 
ATOM      3  C   UNL     1      17.742  -4.041 -16.734  1.00  0.00     0.180 A 
ATOM      4  O   UNL     1      18.423  -3.825 -17.854  1.00  0.00    -0.452 OA
ATOM      5  C   UNL     1      18.248  -1.780 -16.023  1.00  0.00     0.239 A 
ATOM      6  C   UNL     1      19.011  -2.672 -18.140  1.00  0.00     0.146 A 
ATOM      7  O   UNL     1      18.182  -0.845 -15.183  1.00  0.00    -0.285 OA
ATOM      8  C   UNL     1      18.945  -1.587 -17.236  1.00  0.00     0.111 A 
ATOM      9  C   UNL     1      19.697  -2.543 -19.351  1.00  0.00     0.094 A 
ATOM     10  C   UNL     1      19.580  -0.367 -17.580  1.00  0.00     0.134 A 
ATOM     11  C   UNL     1      20.324  -1.337 -19.683  1.00  0.00     0.123 A 
ATOM     12  C   UNL     1      20.263  -0.257 -18.799  1.00  0.00     0.093 A 
BRANCH   3  13
ATOM     13  C   UNL     1      17.131  -5.375 -16.542  1.00  0.00     0.021 A 
ATOM     14  C   UNL     1      15.738  -5.519 -16.648  1.00  0.00     0.016 A 
ATOM     15  C   UNL     1      15.141  -6.770 -16.460  1.00  0.00     0.047 A 
ATOM     16  C   UNL     1      15.924  -7.885 -16.148  1.00  0.00     0.115 A 
ATOM     17  C   UNL     1      17.912  -6.495 -16.206  1.00  0.00     0.016 A 
ATOM     18  C   UNL     1      17.313  -7.744 -16.019  1.00  0.00     0.047 A 
BRANCH  16  19
ATOM     19  O   UNL     1      15.317  -9.125 -15.966  1.00  0.00    -0.508 OA
ATOM     20  H   UNL     1      15.844  -9.987 -16.027  1.00  0.00     0.293 HD
ENDBRANCH  16  19
ENDBRANCH   3  13
BRANCH  10  21
ATOM     21  O   UNL     1      19.540   0.731 -16.720  1.00  0.00    -0.507 OA
ATOM     22  H   UNL     1      19.391   0.624 -15.723  1.00  0.00     0.293 HD
ENDBRANCH  10  21
BRANCH  11  23
ATOM     23  O   UNL     1      21.009  -1.201 -20.888  1.00  0.00    -0.508 OA
ATOM     24  H   UNL     1      20.527  -1.236 -21.779  1.00  0.00     0.293 HD
ENDBRANCH  11  23
ENDBRANCH   1   2
BRANCH   1  25
ATOM     25  C   UNL     1      17.516  -3.756 -13.318  1.00  0.00     0.339 C 
ATOM     26  C   UNL     1      16.907  -5.110 -12.903  1.00  0.00     0.214 C 
ATOM     27  O   UNL     1      17.338  -2.782 -12.300  1.00  0.00    -0.332 OA
ATOM     28  C   UNL     1      15.428  -4.944 -12.495  1.00  0.00     0.180 C 
ATOM     29  C   UNL     1      15.965  -2.514 -12.056  1.00  0.00     0.179 C 
ATOM     30  C   UNL     1      15.251  -3.778 -11.511  1.00  0.00     0.177 C 
BRANCH  26  31
ATOM     31  O   UNL     1      17.659  -5.716 -11.880  1.00  0.00    -0.384 OA
ATOM     32  H   UNL     1      17.283  -5.429 -11.007  1.00  0.00     0.211 HD
ENDBRANCH  26  31
BRANCH  28  33
ATOM     33  O   UNL     1      14.946  -6.126 -11.912  1.00  0.00    -0.387 OA
ATOM     34  H   UNL     1      15.725  -6.732 -11.805  1.00  0.00     0.211 HD
ENDBRANCH  28  33
BRANCH  29  35
ATOM     35  C   UNL     1      15.888  -1.349 -11.055  1.00  0.00     0.191 C 
BRANCH  35  36
ATOM     36  O   UNL     1      15.714  -1.814  -9.744  1.00  0.00    -0.394 OA
ATOM     37  H   UNL     1      14.738  -1.925  -9.608  1.00  0.00     0.210 HD
ENDBRANCH  35  36
ENDBRANCH  29  35
BRANCH  30  38
ATOM     38  O   UNL     1      13.876  -3.529 -11.356  1.00  0.00    -0.387 OA
ATOM     39  H   UNL     1      13.732  -3.238 -10.418  1.00  0.00     0.211 HD
ENDBRANCH  30  38
ENDBRANCH   1  25
TORSDOF 11
ENDMDL
MODEL 4
REMARK VINA RESULT:    -5.848      4.268      7.085
REMARK INTER + INTRA:         -10.096
REMARK INTER:                  -8.970
REMARK INTRA:                  -1.127
REMARK UNBOUND:                -1.685
REMARK SMILES O=c1c(O[C@H]2O[C@H](CO)[C@@H](O)[C@H](O)[C@@H]2O)c(-c2ccc(O)cc2)oc2cc(O)cc(O)c12
REMARK SMILES IDX 4 1 3 2 16 3 24 4 2 5 25 6 1 7 32 8 26 9 30 10 27 11 29 12
REMARK SMILES IDX 17 13 18 14 19 15 20 16 23 17 22 18 21 19 31 21 28 23 5 25
REMARK SMILES IDX 14 26 6 27 12 28 7 29 10 30 15 31 13 33 8 35 9 36 11 38
REMARK H PARENT 21 20 31 22 28 24 15 32 13 34 9 37 11 39
REMARK Flexibility Score: inf
ROOT
ATOM      1  O   UNL     1      17.495  -1.173 -10.658  1.00  0.00    -0.454 OA
ENDROOT
BRANCH   1   2
ATOM      2  C   UNL     1      16.219  -0.581 -10.756  1.00  0.00     0.214 A 
ATOM      3  C   UNL     1      15.412  -0.924 -11.861  1.00  0.00     0.180 A 
ATOM      4  O   UNL     1      14.225  -0.352 -12.028  1.00  0.00    -0.452 OA
ATOM      5  C   UNL     1      15.713   0.359  -9.828  1.00  0.00     0.239 A 
ATOM      6  C   UNL     1      13.716   0.532 -11.183  1.00  0.00     0.146 A 
ATOM      7  O   UNL     1      16.396   0.698  -8.826  1.00  0.00    -0.285 OA
ATOM      8  C   UNL     1      14.437   0.927 -10.033  1.00  0.00     0.111 A 
ATOM      9  C   UNL     1      12.452   1.070 -11.444  1.00  0.00     0.094 A 
ATOM     10  C   UNL     1      13.857   1.871  -9.149  1.00  0.00     0.134 A 
ATOM     11  C   UNL     1      11.886   2.002 -10.568  1.00  0.00     0.123 A 
ATOM     12  C   UNL     1      12.588   2.398  -9.427  1.00  0.00     0.093 A 
BRANCH   3  13
ATOM     13  C   UNL     1      15.860  -1.900 -12.880  1.00  0.00     0.021 A 
ATOM     14  C   UNL     1      16.749  -1.491 -13.886  1.00  0.00     0.016 A 
ATOM     15  C   UNL     1      17.176  -2.396 -14.863  1.00  0.00     0.047 A 
ATOM     16  C   UNL     1      16.707  -3.713 -14.856  1.00  0.00     0.115 A 
ATOM     17  C   UNL     1      15.373  -3.219 -12.891  1.00  0.00     0.016 A 
ATOM     18  C   UNL     1      15.801  -4.123 -13.868  1.00  0.00     0.047 A 
BRANCH  16  19
ATOM     19  O   UNL     1      17.142  -4.605 -15.834  1.00  0.00    -0.508 OA
ATOM     20  H   UNL     1      16.691  -4.660 -16.739  1.00  0.00     0.293 HD
ENDBRANCH  16  19
ENDBRANCH   3  13
BRANCH  10  21
ATOM     21  O   UNL     1      14.530   2.288  -8.000  1.00  0.00    -0.507 OA
ATOM     22  H   UNL     1      14.469   1.774  -7.129  1.00  0.00     0.293 HD
ENDBRANCH  10  21
BRANCH  11  23
ATOM     23  O   UNL     1      10.627   2.542 -10.822  1.00  0.00    -0.508 OA
ATOM     24  H   UNL     1       9.781   2.092 -10.491  1.00  0.00     0.293 HD
ENDBRANCH  11  23
ENDBRANCH   1   2
BRANCH   1  25
ATOM     25  C   UNL     1      17.803  -2.550 -10.420  1.00  0.00     0.339 C 
ATOM     26  C   UNL     1      17.216  -2.992  -9.064  1.00  0.00     0.214 C 
ATOM     27  O   UNL     1      19.202  -2.792 -10.474  1.00  0.00    -0.332 OA
ATOM     28  C   UNL     1      17.977  -2.332  -7.896  1.00  0.00     0.180 C 
ATOM     29  C   UNL     1      19.909  -2.041  -9.499  1.00  0.00     0.179 C 
ATOM     30  C   UNL     1      19.496  -2.477  -8.069  1.00  0.00     0.177 C 
BRANCH  26  31
ATOM     31  O   UNL     1      17.206  -4.395  -8.946  1.00  0.00    -0.384 OA
ATOM     32  H   UNL     1      17.006  -4.625  -8.001  1.00  0.00     0.211 HD
ENDBRANCH  26  31
BRANCH  28  33
ATOM     33  O   UNL     1      17.588  -2.903  -6.674  1.00  0.00    -0.387 OA
ATOM     34  H   UNL     1      18.338  -3.483  -6.378  1.00  0.00     0.211 HD
ENDBRANCH  28  33
BRANCH  29  35
ATOM     35  C   UNL     1      21.412  -2.258  -9.742  1.00  0.00     0.191 C 
BRANCH  35  36
ATOM     36  O   UNL     1      21.933  -3.228  -8.874  1.00  0.00    -0.394 OA
ATOM     37  H   UNL     1      22.908  -3.274  -9.052  1.00  0.00     0.210 HD
ENDBRANCH  35  36
ENDBRANCH  29  35
BRANCH  30  38
ATOM     38  O   UNL     1      20.134  -1.668  -7.112  1.00  0.00    -0.387 OA
ATOM     39  H   UNL     1      20.230  -2.209  -6.285  1.00  0.00     0.211 HD
ENDBRANCH  30  38
ENDBRANCH   1  25
TORSDOF 11
ENDMDL
MODEL 5
REMARK VINA RESULT:    -5.758      3.893      6.904
REMARK INTER + INTRA:          -9.968
REMARK INTER:                  -8.730
REMARK INTRA:                  -1.238
REMARK UNBOUND:                -1.685
REMARK SMILES O=c1c(O[C@H]2O[C@H](CO)[C@@H](O)[C@H](O)[C@@H]2O)c(-c2ccc(O)cc2)oc2cc(O)cc(O)c12
REMARK SMILES IDX 4 1 3 2 16 3 24 4 2 5 25 6 1 7 32 8 26 9 30 10 27 11 29 12
REMARK SMILES IDX 17 13 18 14 19 15 20 16 23 17 22 18 21 19 31 21 28 23 5 25
REMARK SMILES IDX 14 26 6 27 12 28 7 29 10 30 15 31 13 33 8 35 9 36 11 38
REMARK H PARENT 21 20 31 22 28 24 15 32 13 34 9 37 11 39
REMARK Flexibility Score: inf
ROOT
ATOM      1  O   UNL     1      17.328  -1.529 -11.230  1.00  0.00    -0.454 OA
ENDROOT
BRANCH   1   2
ATOM      2  C   UNL     1      16.062  -1.011 -11.572  1.00  0.00     0.214 A 
ATOM      3  C   UNL     1      15.529  -1.342 -12.835  1.00  0.00     0.180 A 
ATOM      4  O   UNL     1      14.366  -0.835 -13.226  1.00  0.00    -0.452 OA
ATOM      5  C   UNL     1      15.310  -0.153 -10.735  1.00  0.00     0.239 A 
ATOM      6  C   UNL     1      13.631  -0.028 -12.474  1.00  0.00     0.146 A 
ATOM      7  O   UNL     1      15.745   0.174  -9.600  1.00  0.00    -0.285 OA
ATOM      8  C   UNL     1      14.068   0.348 -11.183  1.00  0.00     0.111 A 
ATOM      9  C   UNL     1      12.415   0.446 -12.975  1.00  0.00     0.094 A 
ATOM     10  C   UNL     1      13.253   1.207 -10.405  1.00  0.00     0.134 A 
ATOM     11  C   UNL     1      11.616   1.296 -12.202  1.00  0.00     0.123 A 
ATOM     12  C   UNL     1      12.036   1.672 -10.925  1.00  0.00     0.093 A 
BRANCH   3  13
ATOM     13  C   UNL     1      16.246  -2.235 -13.773  1.00  0.00     0.021 A 
ATOM     14  C   UNL     1      17.268  -1.712 -14.582  1.00  0.00     0.016 A 
ATOM     15  C   UNL     1      17.949  -2.537 -15.481  1.00  0.00     0.047 A 
ATOM     16  C   UNL     1      17.607  -3.888 -15.596  1.00  0.00     0.115 A 
ATOM     17  C   UNL     1      15.890  -3.588 -13.910  1.00  0.00     0.016 A 
ATOM     18  C   UNL     1      16.572  -4.412 -14.809  1.00  0.00     0.047 A 
BRANCH  16  19
ATOM     19  O   UNL     1      18.296  -4.699 -16.495  1.00  0.00    -0.508 OA
ATOM     20  H   UNL     1      18.809  -5.516 -16.186  1.00  0.00     0.293 HD
ENDBRANCH  16  19
ENDBRANCH   3  13
BRANCH  10  21
ATOM     21  O   UNL     1      13.641   1.603  -9.125  1.00  0.00    -0.507 OA
ATOM     22  H   UNL     1      13.053   2.191  -8.546  1.00  0.00     0.293 HD
ENDBRANCH  10  21
BRANCH  11  23
ATOM     23  O   UNL     1      10.403   1.771 -12.695  1.00  0.00    -0.508 OA
ATOM     24  H   UNL     1      10.125   2.739 -12.576  1.00  0.00     0.293 HD
ENDBRANCH  11  23
ENDBRANCH   1   2
BRANCH   1  25
ATOM     25  C   UNL     1      17.633  -2.844 -10.752  1.00  0.00     0.339 C 
ATOM     26  C   UNL     1      17.176  -2.988  -9.287  1.00  0.00     0.214 C 
ATOM     27  O   UNL     1      19.014  -3.144 -10.889  1.00  0.00    -0.332 OA
ATOM     28  C   UNL     1      18.062  -2.140  -8.350  1.00  0.00     0.180 C 
ATOM     29  C   UNL     1      19.829  -2.243 -10.154  1.00  0.00     0.179 C 
ATOM     30  C   UNL     1      19.553  -2.374  -8.634  1.00  0.00     0.177 C 
BRANCH  26  31
ATOM     31  O   UNL     1      17.153  -4.338  -8.890  1.00  0.00    -0.384 OA
ATOM     32  H   UNL     1      16.412  -4.458  -8.241  1.00  0.00     0.211 HD
ENDBRANCH  26  31
BRANCH  28  33
ATOM     33  O   UNL     1      17.787  -2.445  -7.007  1.00  0.00    -0.387 OA
ATOM     34  H   UNL     1      18.561  -2.968  -6.669  1.00  0.00     0.211 HD
ENDBRANCH  28  33
BRANCH  29  35
ATOM     35  C   UNL     1      21.296  -2.560 -10.489  1.00  0.00     0.191 C 
BRANCH  35  36
ATOM     36  O   UNL     1      21.813  -3.544  -9.635  1.00  0.00    -0.394 OA
ATOM     37  H   UNL     1      22.792  -3.574  -9.794  1.00  0.00     0.210 HD
ENDBRANCH  35  36
ENDBRANCH  29  35
BRANCH  30  38
ATOM     38  O   UNL     1      20.299  -1.417  -7.922  1.00  0.00    -0.387 OA
ATOM     39  H   UNL     1      19.746  -1.126  -7.150  1.00  0.00     0.211 HD
ENDBRANCH  30  38
ENDBRANCH   1  25
TORSDOF 11
ENDMDL
MODEL 6
REMARK VINA RESULT:    -5.625      5.632      8.420
REMARK INTER + INTRA:          -9.776
REMARK INTER:                  -8.749
REMARK INTRA:                  -1.027
REMARK UNBOUND:                -1.685
REMARK SMILES O=c1c(O[C@H]2O[C@H](CO)[C@@H](O)[C@H](O)[C@@H]2O)c(-c2ccc(O)cc2)oc2cc(O)cc(O)c12
REMARK SMILES IDX 4 1 3 2 16 3 24 4 2 5 25 6 1 7 32 8 26 9 30 10 27 11 29 12
REMARK SMILES IDX 17 13 18 14 19 15 20 16 23 17 22 18 21 19 31 21 28 23 5 25
REMARK SMILES IDX 14 26 6 27 12 28 7 29 10 30 15 31 13 33 8 35 9 36 11 38
REMARK H PARENT 21 20 31 22 28 24 15 32 13 34 9 37 11 39
REMARK Flexibility Score: inf
ROOT
ATOM      1  O   UNL     1      19.965  -1.219  -9.001  1.00  0.00    -0.454 OA
ENDROOT
BRANCH   1   2
ATOM      2  C   UNL     1      20.890  -2.230  -9.336  1.00  0.00     0.214 A 
ATOM      3  C   UNL     1      20.904  -2.702 -10.665  1.00  0.00     0.180 A 
ATOM      4  O   UNL     1      21.718  -3.690 -11.017  1.00  0.00    -0.452 OA
ATOM      5  C   UNL     1      21.783  -2.818  -8.410  1.00  0.00     0.239 A 
ATOM      6  C   UNL     1      22.569  -4.268 -10.181  1.00  0.00     0.146 A 
ATOM      7  O   UNL     1      21.807  -2.431  -7.212  1.00  0.00    -0.285 OA
ATOM      8  C   UNL     1      22.647  -3.852  -8.832  1.00  0.00     0.111 A 
ATOM      9  C   UNL     1      23.391  -5.295 -10.653  1.00  0.00     0.094 A 
ATOM     10  C   UNL     1      23.573  -4.489  -7.969  1.00  0.00     0.134 A 
ATOM     11  C   UNL     1      24.302  -5.921  -9.795  1.00  0.00     0.123 A 
ATOM     12  C   UNL     1      24.390  -5.517  -8.461  1.00  0.00     0.093 A 
BRANCH   3  13
ATOM     13  C   UNL     1      20.006  -2.143 -11.700  1.00  0.00     0.021 A 
ATOM     14  C   UNL     1      19.158  -3.001 -12.418  1.00  0.00     0.016 A 
ATOM     15  C   UNL     1      18.310  -2.493 -13.407  1.00  0.00     0.047 A 
ATOM     16  C   UNL     1      18.311  -1.126 -13.701  1.00  0.00     0.115 A 
ATOM     17  C   UNL     1      20.020  -0.773 -12.016  1.00  0.00     0.016 A 
ATOM     18  C   UNL     1      19.171  -0.266 -13.005  1.00  0.00     0.047 A 
BRANCH  16  19
ATOM     19  O   UNL     1      17.460  -0.633 -14.687  1.00  0.00    -0.508 OA
ATOM     20  H   UNL     1      17.774   0.050 -15.364  1.00  0.00     0.293 HD
ENDBRANCH  16  19
ENDBRANCH   3  13
BRANCH  10  21
ATOM     21  O   UNL     1      23.687  -4.111  -6.631  1.00  0.00    -0.507 OA
ATOM     22  H   UNL     1      23.439  -3.180  -6.317  1.00  0.00     0.293 HD
ENDBRANCH  10  21
BRANCH  11  23
ATOM     23  O   UNL     1      25.125  -6.945 -10.258  1.00  0.00    -0.508 OA
ATOM     24  H   UNL     1      24.794  -7.628 -10.931  1.00  0.00     0.293 HD
ENDBRANCH  11  23
ENDBRANCH   1   2
BRANCH   1  25
ATOM     25  C   UNL     1      18.940  -1.270  -8.003  1.00  0.00     0.339 C 
ATOM     26  C   UNL     1      18.370  -2.699  -7.907  1.00  0.00     0.214 C 
ATOM     27  O   UNL     1      17.912  -0.325  -8.259  1.00  0.00    -0.332 OA
ATOM     28  C   UNL     1      17.548  -3.046  -9.165  1.00  0.00     0.180 C 
ATOM     29  C   UNL     1      17.276  -0.556  -9.507  1.00  0.00     0.179 C 
ATOM     30  C   UNL     1      16.551  -1.927  -9.504  1.00  0.00     0.177 C 
BRANCH  26  31
ATOM     31  O   UNL     1      17.613  -2.869  -6.733  1.00  0.00    -0.384 OA
ATOM     32  H   UNL     1      16.676  -3.069  -6.995  1.00  0.00     0.211 HD
ENDBRANCH  26  31
BRANCH  28  33
ATOM     33  O   UNL     1      16.852  -4.251  -8.979  1.00  0.00    -0.387 OA
ATOM     34  H   UNL     1      16.467  -4.221  -8.064  1.00  0.00     0.211 HD
ENDBRANCH  28  33
BRANCH  29  35
ATOM     35  C   UNL     1      16.293   0.600  -9.752  1.00  0.00     0.191 C 
BRANCH  35  36
ATOM     36  O   UNL     1      15.016   0.123 -10.081  1.00  0.00    -0.394 OA
ATOM     37  H   UNL     1      14.701  -0.406  -9.303  1.00  0.00     0.210 HD
ENDBRANCH  35  36
ENDBRANCH  29  35
BRANCH  30  38
ATOM     38  O   UNL     1      16.001  -2.187 -10.771  1.00  0.00    -0.387 OA
ATOM     39  H   UNL     1      16.288  -3.100 -11.036  1.00  0.00     0.211 HD
ENDBRANCH  30  38
ENDBRANCH   1  25
TORSDOF 11
ENDMDL
MODEL 7
REMARK VINA RESULT:    -5.617      2.408      7.634
REMARK INTER + INTRA:          -9.764
REMARK INTER:                  -8.622
REMARK INTRA:                  -1.142
REMARK UNBOUND:                -1.685
REMARK SMILES O=c1c(O[C@H]2O[C@H](CO)[C@@H](O)[C@H](O)[C@@H]2O)c(-c2ccc(O)cc2)oc2cc(O)cc(O)c12
REMARK SMILES IDX 4 1 3 2 16 3 24 4 2 5 25 6 1 7 32 8 26 9 30 10 27 11 29 12
REMARK SMILES IDX 17 13 18 14 19 15 20 16 23 17 22 18 21 19 31 21 28 23 5 25
REMARK SMILES IDX 14 26 6 27 12 28 7 29 10 30 15 31 13 33 8 35 9 36 11 38
REMARK H PARENT 21 20 31 22 28 24 15 32 13 34 9 37 11 39
REMARK Flexibility Score: inf
ROOT
ATOM      1  O   UNL     1      17.062  -2.657 -11.844  1.00  0.00    -0.454 OA
ENDROOT
BRANCH   1   2
ATOM      2  C   UNL     1      16.867  -3.432 -13.006  1.00  0.00     0.214 A 
ATOM      3  C   UNL     1      17.045  -2.806 -14.258  1.00  0.00     0.180 A 
ATOM      4  O   UNL     1      16.820  -3.478 -15.381  1.00  0.00    -0.452 OA
ATOM      5  C   UNL     1      16.473  -4.790 -12.989  1.00  0.00     0.239 A 
ATOM      6  C   UNL     1      16.450  -4.750 -15.409  1.00  0.00     0.146 A 
ATOM      7  O   UNL     1      16.299  -5.392 -11.897  1.00  0.00    -0.285 OA
ATOM      8  C   UNL     1      16.264  -5.472 -14.208  1.00  0.00     0.111 A 
ATOM      9  C   UNL     1      16.247  -5.370 -16.646  1.00  0.00     0.094 A 
ATOM     10  C   UNL     1      15.874  -6.833 -14.278  1.00  0.00     0.134 A 
ATOM     11  C   UNL     1      15.860  -6.713 -16.707  1.00  0.00     0.123 A 
ATOM     12  C   UNL     1      15.676  -7.437 -15.528  1.00  0.00     0.093 A 
BRANCH   3  13
ATOM     13  C   UNL     1      17.459  -1.389 -14.369  1.00  0.00     0.021 A 
ATOM     14  C   UNL     1      18.769  -1.022 -14.023  1.00  0.00     0.016 A 
ATOM     15  C   UNL     1      19.175   0.313 -14.111  1.00  0.00     0.047 A 
ATOM     16  C   UNL     1      18.275   1.297 -14.530  1.00  0.00     0.115 A 
ATOM     17  C   UNL     1      16.550  -0.393 -14.767  1.00  0.00     0.016 A 
ATOM     18  C   UNL     1      16.959   0.941 -14.856  1.00  0.00     0.047 A 
BRANCH  16  19
ATOM     19  O   UNL     1      18.694   2.623 -14.617  1.00  0.00    -0.508 OA
ATOM     20  H   UNL     1      18.614   3.256 -13.830  1.00  0.00     0.293 HD
ENDBRANCH  16  19
ENDBRANCH   3  13
BRANCH  10  21
ATOM     21  O   UNL     1      15.682  -7.586 -13.120  1.00  0.00    -0.507 OA
ATOM     22  H   UNL     1      14.787  -7.615 -12.645  1.00  0.00     0.293 HD
ENDBRANCH  10  21
BRANCH  11  23
ATOM     23  O   UNL     1      15.656  -7.337 -17.936  1.00  0.00    -0.508 OA
ATOM     24  H   UNL     1      14.816  -7.175 -18.480  1.00  0.00     0.293 HD
ENDBRANCH  11  23
ENDBRANCH   1   2
BRANCH   1  25
ATOM     25  C   UNL     1      16.065  -2.184 -10.932  1.00  0.00     0.339 C 
ATOM     26  C   UNL     1      15.940  -0.651 -11.038  1.00  0.00     0.214 C 
ATOM     27  O   UNL     1      16.343  -2.583  -9.598  1.00  0.00    -0.332 OA
ATOM     28  C   UNL     1      17.192   0.041 -10.463  1.00  0.00     0.180 C 
ATOM     29  C   UNL     1      17.587  -2.076  -9.141  1.00  0.00     0.179 C 
ATOM     30  C   UNL     1      17.557  -0.527  -9.083  1.00  0.00     0.177 C 
BRANCH  26  31
ATOM     31  O   UNL     1      14.765  -0.190 -10.416  1.00  0.00    -0.384 OA
ATOM     32  H   UNL     1      14.273  -0.976 -10.061  1.00  0.00     0.211 HD
ENDBRANCH  26  31
BRANCH  28  33
ATOM     33  O   UNL     1      16.982   1.426 -10.358  1.00  0.00    -0.387 OA
ATOM     34  H   UNL     1      16.938   1.635  -9.388  1.00  0.00     0.211 HD
ENDBRANCH  28  33
BRANCH  29  35
ATOM     35  C   UNL     1      17.859  -2.686  -7.755  1.00  0.00     0.191 C 
BRANCH  35  36
ATOM     36  O   UNL     1      17.849  -4.087  -7.803  1.00  0.00    -0.394 OA
ATOM     37  H   UNL     1      17.666  -4.402  -6.880  1.00  0.00     0.210 HD
ENDBRANCH  35  36
ENDBRANCH  29  35
BRANCH  30  38
ATOM     38  O   UNL     1      18.820  -0.030  -8.714  1.00  0.00    -0.387 OA
ATOM     39  H   UNL     1      19.121   0.578  -9.439  1.00  0.00     0.211 HD
ENDBRANCH  30  38
ENDBRANCH   1  25
TORSDOF 11
ENDMDL
MODEL 8
REMARK VINA RESULT:    -5.391      4.474      7.636
REMARK INTER + INTRA:          -9.440
REMARK INTER:                  -8.531
REMARK INTRA:                  -0.909
REMARK UNBOUND:                -1.685
REMARK SMILES O=c1c(O[C@H]2O[C@H](CO)[C@@H](O)[C@H](O)[C@@H]2O)c(-c2ccc(O)cc2)oc2cc(O)cc(O)c12
REMARK SMILES IDX 4 1 3 2 16 3 24 4 2 5 25 6 1 7 32 8 26 9 30 10 27 11 29 12
REMARK SMILES IDX 17 13 18 14 19 15 20 16 23 17 22 18 21 19 31 21 28 23 5 25
REMARK SMILES IDX 14 26 6 27 12 28 7 29 10 30 15 31 13 33 8 35 9 36 11 38
REMARK H PARENT 21 20 31 22 28 24 15 32 13 34 9 37 11 39
REMARK Flexibility Score: inf
ROOT
ATOM      1  O   UNL     1      17.318  -1.233 -10.567  1.00  0.00    -0.454 OA
ENDROOT
BRANCH   1   2
ATOM      2  C   UNL     1      16.057  -0.799 -11.025  1.00  0.00     0.214 A 
ATOM      3  C   UNL     1      15.643   0.507 -10.688  1.00  0.00     0.180 A 
ATOM      4  O   UNL     1      14.441   0.943 -11.048  1.00  0.00    -0.452 OA
ATOM      5  C   UNL     1      15.171  -1.607 -11.776  1.00  0.00     0.239 A 
ATOM      6  C   UNL     1      13.582   0.219 -11.751  1.00  0.00     0.146 A 
ATOM      7  O   UNL     1      15.495  -2.780 -12.099  1.00  0.00    -0.285 OA
ATOM      8  C   UNL     1      13.911  -1.095 -12.155  1.00  0.00     0.111 A 
ATOM      9  C   UNL     1      12.344   0.774 -12.088  1.00  0.00     0.094 A 
ATOM     10  C   UNL     1      12.969  -1.837 -12.911  1.00  0.00     0.134 A 
ATOM     11  C   UNL     1      11.418   0.035 -12.833  1.00  0.00     0.123 A 
ATOM     12  C   UNL     1      11.733  -1.263 -13.240  1.00  0.00     0.093 A 
BRANCH   3  13
ATOM     13  C   UNL     1      16.506   1.421  -9.908  1.00  0.00     0.021 A 
ATOM     14  C   UNL     1      17.378   2.291 -10.581  1.00  0.00     0.016 A 
ATOM     15  C   UNL     1      18.209   3.156  -9.861  1.00  0.00     0.047 A 
ATOM     16  C   UNL     1      18.191   3.149  -8.463  1.00  0.00     0.115 A 
ATOM     17  C   UNL     1      16.508   1.402  -8.502  1.00  0.00     0.016 A 
ATOM     18  C   UNL     1      17.339   2.267  -7.784  1.00  0.00     0.047 A 
BRANCH  16  19
ATOM     19  O   UNL     1      19.022   4.017  -7.759  1.00  0.00    -0.508 OA
ATOM     20  H   UNL     1      18.685   4.543  -6.962  1.00  0.00     0.293 HD
ENDBRANCH  16  19
ENDBRANCH   3  13
BRANCH  10  21
ATOM     21  O   UNL     1      13.250  -3.136 -13.335  1.00  0.00    -0.507 OA
ATOM     22  H   UNL     1      13.391  -3.894 -12.676  1.00  0.00     0.293 HD
ENDBRANCH  10  21
BRANCH  11  23
ATOM     23  O   UNL     1      10.183   0.582 -13.172  1.00  0.00    -0.508 OA
ATOM     24  H   UNL     1       9.633   1.108 -12.502  1.00  0.00     0.293 HD
ENDBRANCH  11  23
ENDBRANCH   1   2
BRANCH   1  25
ATOM     25  C   UNL     1      17.740  -2.577 -10.314  1.00  0.00     0.339 C 
ATOM     26  C   UNL     1      17.207  -3.045  -8.945  1.00  0.00     0.214 C 
ATOM     27  O   UNL     1      19.153  -2.705 -10.383  1.00  0.00    -0.332 OA
ATOM     28  C   UNL     1      17.926  -2.308  -7.796  1.00  0.00     0.180 C 
ATOM     29  C   UNL     1      19.808  -1.885  -9.428  1.00  0.00     0.179 C 
ATOM     30  C   UNL     1      19.450  -2.332  -7.987  1.00  0.00     0.177 C 
BRANCH  26  31
ATOM     31  O   UNL     1      17.313  -4.442  -8.807  1.00  0.00    -0.384 OA
ATOM     32  H   UNL     1      16.919  -4.698  -7.932  1.00  0.00     0.211 HD
ENDBRANCH  26  31
BRANCH  28  33
ATOM     33  O   UNL     1      17.600  -2.891  -6.561  1.00  0.00    -0.387 OA
ATOM     34  H   UNL     1      17.145  -3.750  -6.761  1.00  0.00     0.211 HD
ENDBRANCH  28  33
BRANCH  29  35
ATOM     35  C   UNL     1      21.321  -1.983  -9.688  1.00  0.00     0.191 C 
BRANCH  35  36
ATOM     36  O   UNL     1      21.898  -3.027  -8.950  1.00  0.00    -0.394 OA
ATOM     37  H   UNL     1      21.166  -3.659  -8.731  1.00  0.00     0.210 HD
ENDBRANCH  35  36
ENDBRANCH  29  35
BRANCH  30  38
ATOM     38  O   UNL     1      20.031  -1.460  -7.050  1.00  0.00    -0.387 OA
ATOM     39  H   UNL     1      20.856  -1.897  -6.712  1.00  0.00     0.211 HD
ENDBRANCH  30  38
ENDBRANCH   1  25
TORSDOF 11
ENDMDL
MODEL 9
REMARK VINA RESULT:    -5.349      4.684      7.482
REMARK INTER + INTRA:          -9.379
REMARK INTER:                  -7.666
REMARK INTRA:                  -1.713
REMARK UNBOUND:                -1.685
REMARK SMILES O=c1c(O[C@H]2O[C@H](CO)[C@@H](O)[C@H](O)[C@@H]2O)c(-c2ccc(O)cc2)oc2cc(O)cc(O)c12
REMARK SMILES IDX 4 1 3 2 16 3 24 4 2 5 25 6 1 7 32 8 26 9 30 10 27 11 29 12
REMARK SMILES IDX 17 13 18 14 19 15 20 16 23 17 22 18 21 19 31 21 28 23 5 25
REMARK SMILES IDX 14 26 6 27 12 28 7 29 10 30 15 31 13 33 8 35 9 36 11 38
REMARK H PARENT 21 20 31 22 28 24 15 32 13 34 9 37 11 39
REMARK Flexibility Score: inf
ROOT
ATOM      1  O   UNL     1      17.815  -1.048 -10.454  1.00  0.00    -0.454 OA
ENDROOT
BRANCH   1   2
ATOM      2  C   UNL     1      17.350  -0.422 -11.630  1.00  0.00     0.214 A 
ATOM      3  C   UNL     1      18.254   0.385 -12.352  1.00  0.00     0.180 A 
ATOM      4  O   UNL     1      17.850   1.040 -13.435  1.00  0.00    -0.452 OA
ATOM      5  C   UNL     1      16.023  -0.531 -12.108  1.00  0.00     0.239 A 
ATOM      6  C   UNL     1      16.617   0.965 -13.916  1.00  0.00     0.146 A 
ATOM      7  O   UNL     1      15.180  -1.237 -11.497  1.00  0.00    -0.285 OA
ATOM      8  C   UNL     1      15.642   0.167 -13.276  1.00  0.00     0.111 A 
ATOM      9  C   UNL     1      16.294   1.688 -15.069  1.00  0.00     0.094 A 
ATOM     10  C   UNL     1      14.336   0.107 -13.823  1.00  0.00     0.134 A 
ATOM     11  C   UNL     1      15.003   1.625 -15.602  1.00  0.00     0.123 A 
ATOM     12  C   UNL     1      14.031   0.838 -14.980  1.00  0.00     0.093 A 
BRANCH   3  13
ATOM     13  C   UNL     1      19.661   0.554 -11.926  1.00  0.00     0.021 A 
ATOM     14  C   UNL     1      19.973   1.486 -10.923  1.00  0.00     0.016 A 
ATOM     15  C   UNL     1      21.298   1.667 -10.514  1.00  0.00     0.047 A 
ATOM     16  C   UNL     1      22.326   0.932 -11.111  1.00  0.00     0.115 A 
ATOM     17  C   UNL     1      20.701  -0.166 -12.540  1.00  0.00     0.016 A 
ATOM     18  C   UNL     1      22.025   0.016 -12.129  1.00  0.00     0.047 A 
BRANCH  16  19
ATOM     19  O   UNL     1      23.641   1.121 -10.692  1.00  0.00    -0.508 OA
ATOM     20  H   UNL     1      24.097   2.022 -10.767  1.00  0.00     0.293 HD
ENDBRANCH  16  19
ENDBRANCH   3  13
BRANCH  10  21
ATOM     21  O   UNL     1      13.342  -0.669 -13.227  1.00  0.00    -0.507 OA
ATOM     22  H   UNL     1      12.591  -0.253 -12.688  1.00  0.00     0.293 HD
ENDBRANCH  10  21
BRANCH  11  23
ATOM     23  O   UNL     1      14.674   2.342 -16.750  1.00  0.00    -0.508 OA
ATOM     24  H   UNL     1      13.832   2.141 -17.279  1.00  0.00     0.293 HD
ENDBRANCH  11  23
ENDBRANCH   1   2
BRANCH   1  25
ATOM     25  C   UNL     1      18.088  -2.439 -10.255  1.00  0.00     0.339 C 
ATOM     26  C   UNL     1      17.376  -2.936  -8.982  1.00  0.00     0.214 C 
ATOM     27  O   UNL     1      19.483  -2.695 -10.195  1.00  0.00    -0.332 OA
ATOM     28  C   UNL     1      18.033  -2.341  -7.719  1.00  0.00     0.180 C 
ATOM     29  C   UNL     1      20.105  -2.000  -9.125  1.00  0.00     0.179 C 
ATOM     30  C   UNL     1      19.560  -2.497  -7.761  1.00  0.00     0.177 C 
BRANCH  26  31
ATOM     31  O   UNL     1      17.344  -4.342  -8.932  1.00  0.00    -0.384 OA
ATOM     32  H   UNL     1      17.699  -4.692  -9.790  1.00  0.00     0.211 HD
ENDBRANCH  26  31
BRANCH  28  33
ATOM     33  O   UNL     1      17.530  -2.965  -6.565  1.00  0.00    -0.387 OA
ATOM     34  H   UNL     1      17.526  -3.941  -6.747  1.00  0.00     0.211 HD
ENDBRANCH  28  33
BRANCH  29  35
ATOM     35  C   UNL     1      21.622  -2.224  -9.240  1.00  0.00     0.191 C 
BRANCH  35  36
ATOM     36  O   UNL     1      22.334  -1.332  -8.426  1.00  0.00    -0.394 OA
ATOM     37  H   UNL     1      21.932  -0.436  -8.567  1.00  0.00     0.210 HD
ENDBRANCH  35  36
ENDBRANCH  29  35
BRANCH  30  38
ATOM     38  O   UNL     1      20.115  -1.743  -6.712  1.00  0.00    -0.387 OA
ATOM     39  H   UNL     1      19.849  -0.797  -6.856  1.00  0.00     0.211 HD
ENDBRANCH  30  38
ENDBRANCH   1  25
TORSDOF 11
ENDMDL
