MODEL 1
REMARK VINA RESULT:    -3.565      0.000      0.000
REMARK INTER + INTRA:          -6.361
REMARK INTER:                  -5.441
REMARK INTRA:                  -0.920
REMARK UNBOUND:                -0.920
REMARK SMILES CCCCCCCCCCC(=O)[O-]
REMARK SMILES IDX 7 1 8 2 9 3 10 4 11 5 12 6 13 7 6 8 5 9 4 10 3 11 2 12 1 13
REMARK H PARENT
REMARK Flexibility Score: inf
ROOT
ATOM      1  C   UNL     1      -3.502  25.519   2.952  1.00  0.00     0.000 C 
ENDROOT
BRANCH   1   2
ATOM      2  C   UNL     1      -4.512  26.657   3.178  1.00  0.00     0.000 C 
BRANCH   2   3
ATOM      3  C   UNL     1      -5.964  26.154   3.236  1.00  0.00     0.006 C 
BRANCH   3   4
ATOM      4  C   UNL     1      -6.663  26.206   1.871  1.00  0.00     0.053 C 
BRANCH   4   5
ATOM      5  C   UNL     1      -7.470  24.964   1.652  1.00  0.00     0.041 C 
ATOM      6  O   UNL     1      -8.703  25.044   1.415  1.00  0.00    -0.550 OA
ATOM      7  O   UNL     1      -6.849  23.721   1.661  1.00  0.00    -0.550 OA
ENDBRANCH   4   5
ENDBRANCH   3   4
ENDBRANCH   2   3
ENDBRANCH   1   2
BRANCH   1   8
ATOM      8  C   UNL     1      -2.818  25.602   1.577  1.00  0.00     0.000 C 
BRANCH   8   9
ATOM      9  C   UNL     1      -2.740  27.038   1.038  1.00  0.00    -0.000 C 
BRANCH   9  10
ATOM     10  C   UNL     1      -1.282  27.499   0.912  1.00  0.00    -0.000 C 
BRANCH  10  11
ATOM     11  C   UNL     1      -1.070  28.848   1.614  1.00  0.00    -0.000 C 
BRANCH  11  12
ATOM     12  C   UNL     1      -1.466  28.811   3.098  1.00  0.00    -0.003 C 
ATOM     13  C   UNL     1      -2.518  29.858   3.457  1.00  0.00     0.004 C 
ENDBRANCH  11  12
ENDBRANCH  10  11
ENDBRANCH   9  10
ENDBRANCH   8   9
ENDBRANCH   1   8
TORSDOF 9
ENDMDL
MODEL 2
REMARK VINA RESULT:    -3.501      3.361      5.496
REMARK INTER + INTRA:          -6.264
REMARK INTER:                  -5.232
REMARK INTRA:                  -1.032
REMARK UNBOUND:                -0.920
REMARK SMILES CCCCCCCCCCC(=O)[O-]
REMARK SMILES IDX 7 1 8 2 9 3 10 4 11 5 12 6 13 7 6 8 5 9 4 10 3 11 2 12 1 13
REMARK H PARENT
REMARK Flexibility Score: inf
ROOT
ATOM      1  C   UNL     1      -3.449  24.849   0.693  1.00  0.00     0.000 C 
ENDROOT
BRANCH   1   2
ATOM      2  C   UNL     1      -3.088  25.475   2.051  1.00  0.00     0.000 C 
BRANCH   2   3
ATOM      3  C   UNL     1      -3.241  27.005   2.054  1.00  0.00     0.006 C 
BRANCH   3   4
ATOM      4  C   UNL     1      -3.145  27.606   3.463  1.00  0.00     0.053 C 
BRANCH   4   5
ATOM      5  C   UNL     1      -2.285  28.831   3.448  1.00  0.00     0.041 C 
ATOM      6  O   UNL     1      -2.751  29.936   3.832  1.00  0.00    -0.550 OA
ATOM      7  O   UNL     1      -0.956  28.742   3.057  1.00  0.00    -0.550 OA
ENDBRANCH   4   5
ENDBRANCH   3   4
ENDBRANCH   2   3
ENDBRANCH   1   2
BRANCH   1   8
ATOM      8  C   UNL     1      -4.458  23.695   0.825  1.00  0.00     0.000 C 
BRANCH   8   9
ATOM      9  C   UNL     1      -5.532  23.964   1.890  1.00  0.00    -0.000 C 
BRANCH   9  10
ATOM     10  C   UNL     1      -6.717  24.734   1.294  1.00  0.00    -0.000 C 
BRANCH  10  11
ATOM     11  C   UNL     1      -6.880  26.103   1.971  1.00  0.00    -0.000 C 
BRANCH  11  12
ATOM     12  C   UNL     1      -6.599  26.051   3.481  1.00  0.00    -0.003 C 
ATOM     13  C   UNL     1      -7.845  25.729   4.305  1.00  0.00     0.004 C 
ENDBRANCH  11  12
ENDBRANCH  10  11
ENDBRANCH   9  10
ENDBRANCH   8   9
ENDBRANCH   1   8
TORSDOF 9
ENDMDL
MODEL 3
REMARK VINA RESULT:    -3.492      2.943      4.545
REMARK INTER + INTRA:          -6.250
REMARK INTER:                  -5.430
REMARK INTRA:                  -0.821
REMARK UNBOUND:                -0.920
REMARK SMILES CCCCCCCCCCC(=O)[O-]
REMARK SMILES IDX 7 1 8 2 9 3 10 4 11 5 12 6 13 7 6 8 5 9 4 10 3 11 2 12 1 13
REMARK H PARENT
REMARK Flexibility Score: inf
ROOT
ATOM      1  C   UNL     1      -3.431  24.803   1.111  1.00  0.00     0.000 C 
ENDROOT
BRANCH   1   2
ATOM      2  C   UNL     1      -4.472  23.698   0.865  1.00  0.00     0.000 C 
BRANCH   2   3
ATOM      3  C   UNL     1      -5.561  23.661   1.950  1.00  0.00     0.006 C 
BRANCH   3   4
ATOM      4  C   UNL     1      -6.596  24.782   1.788  1.00  0.00     0.053 C 
BRANCH   4   5
ATOM      5  C   UNL     1      -7.386  24.584   0.532  1.00  0.00     0.041 C 
ATOM      6  O   UNL     1      -8.320  23.741   0.497  1.00  0.00    -0.550 OA
ATOM      7  O   UNL     1      -7.121  25.366  -0.585  1.00  0.00    -0.550 OA
ENDBRANCH   4   5
ENDBRANCH   3   4
ENDBRANCH   2   3
ENDBRANCH   1   2
BRANCH   1   8
ATOM      8  C   UNL     1      -2.694  25.216  -0.173  1.00  0.00     0.000 C 
BRANCH   8   9
ATOM      9  C   UNL     1      -1.171  25.046  -0.065  1.00  0.00    -0.000 C 
BRANCH   9  10
ATOM     10  C   UNL     1      -0.807  23.616   0.354  1.00  0.00    -0.000 C 
BRANCH  10  11
ATOM     11  C   UNL     1      -0.310  22.799  -0.848  1.00  0.00    -0.000 C 
BRANCH  11  12
ATOM     12  C   UNL     1      -1.305  21.708  -1.273  1.00  0.00    -0.003 C 
ATOM     13  C   UNL     1      -2.070  21.112  -0.092  1.00  0.00     0.004 C 
ENDBRANCH  11  12
ENDBRANCH  10  11
ENDBRANCH   9  10
ENDBRANCH   8   9
ENDBRANCH   1   8
TORSDOF 9
ENDMDL
MODEL 4
REMARK VINA RESULT:    -3.460      3.062      4.206
REMARK INTER + INTRA:          -6.201
REMARK INTER:                  -5.130
REMARK INTRA:                  -1.072
REMARK UNBOUND:                -0.920
REMARK SMILES CCCCCCCCCCC(=O)[O-]
REMARK SMILES IDX 7 1 8 2 9 3 10 4 11 5 12 6 13 7 6 8 5 9 4 10 3 11 2 12 1 13
REMARK H PARENT
REMARK Flexibility Score: inf
ROOT
ATOM      1  C   UNL     1      -3.867  22.843  -1.049  1.00  0.00     0.000 C 
ENDROOT
BRANCH   1   2
ATOM      2  C   UNL     1      -4.611  23.983  -0.333  1.00  0.00     0.000 C 
BRANCH   2   3
ATOM      3  C   UNL     1      -4.918  23.655   1.137  1.00  0.00     0.006 C 
BRANCH   3   4
ATOM      4  C   UNL     1      -5.065  24.911   2.006  1.00  0.00     0.053 C 
BRANCH   4   5
ATOM      5  C   UNL     1      -6.512  25.226   2.225  1.00  0.00     0.041 C 
ATOM      6  O   UNL     1      -7.177  24.585   3.080  1.00  0.00    -0.550 OA
ATOM      7  O   UNL     1      -7.112  26.261   1.520  1.00  0.00    -0.550 OA
ENDBRANCH   4   5
ENDBRANCH   3   4
ENDBRANCH   2   3
ENDBRANCH   1   2
BRANCH   1   8
ATOM      8  C   UNL     1      -3.457  21.712  -0.091  1.00  0.00     0.000 C 
BRANCH   8   9
ATOM      9  C   UNL     1      -1.949  21.419  -0.128  1.00  0.00    -0.000 C 
BRANCH   9  10
ATOM     10  C   UNL     1      -1.181  22.574  -0.784  1.00  0.00    -0.000 C 
BRANCH  10  11
ATOM     11  C   UNL     1      -0.647  23.550   0.275  1.00  0.00    -0.000 C 
BRANCH  11  12
ATOM     12  C   UNL     1      -0.823  25.020  -0.136  1.00  0.00    -0.003 C 
ATOM     13  C   UNL     1      -1.641  25.823   0.875  1.00  0.00     0.004 C 
ENDBRANCH  11  12
ENDBRANCH  10  11
ENDBRANCH   9  10
ENDBRANCH   8   9
ENDBRANCH   1   8
TORSDOF 9
ENDMDL
MODEL 5
REMARK VINA RESULT:    -3.445      4.731      6.697
REMARK INTER + INTRA:          -6.177
REMARK INTER:                  -5.007
REMARK INTRA:                  -1.171
REMARK UNBOUND:                -0.920
REMARK SMILES CCCCCCCCCCC(=O)[O-]
REMARK SMILES IDX 7 1 8 2 9 3 10 4 11 5 12 6 13 7 6 8 5 9 4 10 3 11 2 12 1 13
REMARK H PARENT
REMARK Flexibility Score: inf
ROOT
ATOM      1  C   UNL     1      -1.915  21.367  -0.086  1.00  0.00     0.000 C 
ENDROOT
BRANCH   1   2
ATOM      2  C   UNL     1      -1.104  22.450  -0.818  1.00  0.00     0.000 C 
BRANCH   2   3
ATOM      3  C   UNL     1      -0.504  23.489   0.143  1.00  0.00     0.006 C 
BRANCH   3   4
ATOM      4  C   UNL     1      -0.458  24.898  -0.462  1.00  0.00     0.053 C 
BRANCH   4   5
ATOM      5  C   UNL     1       0.761  25.057  -1.317  1.00  0.00     0.041 C 
ATOM      6  O   UNL     1       1.791  24.373  -1.085  1.00  0.00    -0.550 OA
ATOM      7  O   UNL     1       0.740  25.927  -2.400  1.00  0.00    -0.550 OA
ENDBRANCH   4   5
ENDBRANCH   3   4
ENDBRANCH   2   3
ENDBRANCH   1   2
BRANCH   1   8
ATOM      8  C   UNL     1      -3.405  21.727   0.035  1.00  0.00     0.000 C 
BRANCH   8   9
ATOM      9  C   UNL     1      -3.907  22.585  -1.136  1.00  0.00    -0.000 C 
BRANCH   9  10
ATOM     10  C   UNL     1      -4.577  23.868  -0.628  1.00  0.00    -0.000 C 
BRANCH  10  11
ATOM     11  C   UNL     1      -4.335  24.057   0.877  1.00  0.00    -0.000 C 
BRANCH  11  12
ATOM     12  C   UNL     1      -3.824  25.465   1.220  1.00  0.00    -0.003 C 
ATOM     13  C   UNL     1      -3.157  25.535   2.593  1.00  0.00     0.004 C 
ENDBRANCH  11  12
ENDBRANCH  10  11
ENDBRANCH   9  10
ENDBRANCH   8   9
ENDBRANCH   1   8
TORSDOF 9
ENDMDL
MODEL 6
REMARK VINA RESULT:    -3.437      2.194      3.865
REMARK INTER + INTRA:          -6.165
REMARK INTER:                  -5.265
REMARK INTRA:                  -0.900
REMARK UNBOUND:                -0.920
REMARK SMILES CCCCCCCCCCC(=O)[O-]
REMARK SMILES IDX 7 1 8 2 9 3 10 4 11 5 12 6 13 7 6 8 5 9 4 10 3 11 2 12 1 13
REMARK H PARENT
REMARK Flexibility Score: inf
ROOT
ATOM      1  C   UNL     1      -3.002  25.714   2.585  1.00  0.00     0.000 C 
ENDROOT
BRANCH   1   2
ATOM      2  C   UNL     1      -4.525  25.504   2.539  1.00  0.00     0.000 C 
BRANCH   2   3
ATOM      3  C   UNL     1      -5.174  26.163   1.310  1.00  0.00     0.006 C 
BRANCH   3   4
ATOM      4  C   UNL     1      -5.920  25.157   0.424  1.00  0.00     0.053 C 
BRANCH   4   5
ATOM      5  C   UNL     1      -7.308  24.938   0.939  1.00  0.00     0.041 C 
ATOM      6  O   UNL     1      -7.929  25.875   1.504  1.00  0.00    -0.550 OA
ATOM      7  O   UNL     1      -7.933  23.712   0.750  1.00  0.00    -0.550 OA
ENDBRANCH   4   5
ENDBRANCH   3   4
ENDBRANCH   2   3
ENDBRANCH   1   2
BRANCH   1   8
ATOM      8  C   UNL     1      -2.484  26.539   1.395  1.00  0.00     0.000 C 
BRANCH   8   9
ATOM      9  C   UNL     1      -1.475  25.767   0.531  1.00  0.00    -0.000 C 
BRANCH   9  10
ATOM     10  C   UNL     1      -2.107  24.494  -0.046  1.00  0.00    -0.000 C 
BRANCH  10  11
ATOM     11  C   UNL     1      -1.161  23.294   0.103  1.00  0.00    -0.000 C 
BRANCH  11  12
ATOM     12  C   UNL     1      -1.859  21.953  -0.171  1.00  0.00    -0.003 C 
ATOM     13  C   UNL     1      -3.376  22.029   0.000  1.00  0.00     0.004 C 
ENDBRANCH  11  12
ENDBRANCH  10  11
ENDBRANCH   9  10
ENDBRANCH   8   9
ENDBRANCH   1   8
TORSDOF 9
ENDMDL
MODEL 7
REMARK VINA RESULT:    -3.434      1.452      2.270
REMARK INTER + INTRA:          -6.161
REMARK INTER:                  -5.184
REMARK INTRA:                  -0.978
REMARK UNBOUND:                -0.920
REMARK SMILES CCCCCCCCCCC(=O)[O-]
REMARK SMILES IDX 7 1 8 2 9 3 10 4 11 5 12 6 13 7 6 8 5 9 4 10 3 11 2 12 1 13
REMARK H PARENT
REMARK Flexibility Score: inf
ROOT
ATOM      1  C   UNL     1      -2.757  24.647   0.459  1.00  0.00     0.000 C 
ENDROOT
BRANCH   1   2
ATOM      2  C   UNL     1      -4.153  24.085   0.779  1.00  0.00     0.000 C 
BRANCH   2   3
ATOM      3  C   UNL     1      -5.253  24.705  -0.099  1.00  0.00     0.006 C 
BRANCH   3   4
ATOM      4  C   UNL     1      -6.342  25.405   0.723  1.00  0.00     0.053 C 
BRANCH   4   5
ATOM      5  C   UNL     1      -7.268  24.396   1.328  1.00  0.00     0.041 C 
ATOM      6  O   UNL     1      -8.187  23.885   0.635  1.00  0.00    -0.550 OA
ATOM      7  O   UNL     1      -7.085  23.984   2.642  1.00  0.00    -0.550 OA
ENDBRANCH   4   5
ENDBRANCH   3   4
ENDBRANCH   2   3
ENDBRANCH   1   2
BRANCH   1   8
ATOM      8  C   UNL     1      -2.363  25.810   1.385  1.00  0.00     0.000 C 
BRANCH   8   9
ATOM      9  C   UNL     1      -3.044  25.733   2.760  1.00  0.00    -0.000 C 
BRANCH   9  10
ATOM     10  C   UNL     1      -3.602  27.100   3.174  1.00  0.00    -0.000 C 
BRANCH  10  11
ATOM     11  C   UNL     1      -3.716  28.038   1.962  1.00  0.00    -0.000 C 
BRANCH  11  12
ATOM     12  C   UNL     1      -3.079  29.413   2.218  1.00  0.00    -0.003 C 
ATOM     13  C   UNL     1      -2.341  29.484   3.554  1.00  0.00     0.004 C 
ENDBRANCH  11  12
ENDBRANCH  10  11
ENDBRANCH   9  10
ENDBRANCH   8   9
ENDBRANCH   1   8
TORSDOF 9
ENDMDL
MODEL 8
REMARK VINA RESULT:    -3.424      2.988      4.859
REMARK INTER + INTRA:          -6.146
REMARK INTER:                  -5.054
REMARK INTRA:                  -1.092
REMARK UNBOUND:                -0.920
REMARK SMILES CCCCCCCCCCC(=O)[O-]
REMARK SMILES IDX 7 1 8 2 9 3 10 4 11 5 12 6 13 7 6 8 5 9 4 10 3 11 2 12 1 13
REMARK H PARENT
REMARK Flexibility Score: inf
ROOT
ATOM      1  C   UNL     1      -1.599  25.719  -0.023  1.00  0.00     0.000 C 
ENDROOT
BRANCH   1   2
ATOM      2  C   UNL     1      -2.429  25.237   1.179  1.00  0.00     0.000 C 
BRANCH   2   3
ATOM      3  C   UNL     1      -3.941  25.405   0.958  1.00  0.00     0.006 C 
BRANCH   3   4
ATOM      4  C   UNL     1      -4.779  24.660   2.005  1.00  0.00     0.053 C 
BRANCH   4   5
ATOM      5  C   UNL     1      -6.239  24.825   1.717  1.00  0.00     0.041 C 
ATOM      6  O   UNL     1      -6.783  25.954   1.833  1.00  0.00    -0.550 OA
ATOM      7  O   UNL     1      -6.986  23.742   1.273  1.00  0.00    -0.550 OA
ENDBRANCH   4   5
ENDBRANCH   3   4
ENDBRANCH   2   3
ENDBRANCH   1   2
BRANCH   1   8
ATOM      8  C   UNL     1      -0.415  24.789  -0.334  1.00  0.00     0.000 C 
BRANCH   8   9
ATOM      9  C   UNL     1      -0.565  23.401   0.306  1.00  0.00    -0.000 C 
BRANCH   9  10
ATOM     10  C   UNL     1      -0.989  22.358  -0.736  1.00  0.00    -0.000 C 
BRANCH  10  11
ATOM     11  C   UNL     1      -1.882  21.280  -0.104  1.00  0.00    -0.000 C 
BRANCH  11  12
ATOM     12  C   UNL     1      -3.373  21.650  -0.144  1.00  0.00    -0.003 C 
ATOM     13  C   UNL     1      -3.728  22.552  -1.325  1.00  0.00     0.004 C 
ENDBRANCH  11  12
ENDBRANCH  10  11
ENDBRANCH   9  10
ENDBRANCH   8   9
ENDBRANCH   1   8
TORSDOF 9
ENDMDL
MODEL 9
REMARK VINA RESULT:    -3.381      2.374      3.175
REMARK INTER + INTRA:          -6.079
REMARK INTER:                  -5.131
REMARK INTRA:                  -0.948
REMARK UNBOUND:                -0.920
REMARK SMILES CCCCCCCCCCC(=O)[O-]
REMARK SMILES IDX 7 1 8 2 9 3 10 4 11 5 12 6 13 7 6 8 5 9 4 10 3 11 2 12 1 13
REMARK H PARENT
REMARK Flexibility Score: inf
ROOT
ATOM      1  C   UNL     1      -2.949  22.995  -0.761  1.00  0.00     0.000 C 
ENDROOT
BRANCH   1   2
ATOM      2  C   UNL     1      -4.022  22.854   0.332  1.00  0.00     0.000 C 
BRANCH   2   3
ATOM      3  C   UNL     1      -5.078  23.970   0.270  1.00  0.00     0.006 C 
BRANCH   3   4
ATOM      4  C   UNL     1      -5.763  24.212   1.621  1.00  0.00     0.053 C 
BRANCH   4   5
ATOM      5  C   UNL     1      -7.200  24.580   1.418  1.00  0.00     0.041 C 
ATOM      6  O   UNL     1      -7.656  25.646   1.907  1.00  0.00    -0.550 OA
ATOM      7  O   UNL     1      -8.022  23.768   0.648  1.00  0.00    -0.550 OA
ENDBRANCH   4   5
ENDBRANCH   3   4
ENDBRANCH   2   3
ENDBRANCH   1   2
BRANCH   1   8
ATOM      8  C   UNL     1      -1.538  22.656  -0.251  1.00  0.00     0.000 C 
BRANCH   8   9
ATOM      9  C   UNL     1      -0.835  23.858   0.397  1.00  0.00    -0.000 C 
BRANCH   9  10
ATOM     10  C   UNL     1      -1.002  25.119  -0.460  1.00  0.00    -0.000 C 
BRANCH  10  11
ATOM     11  C   UNL     1      -1.471  26.307   0.394  1.00  0.00    -0.000 C 
BRANCH  11  12
ATOM     12  C   UNL     1      -2.342  25.871   1.582  1.00  0.00    -0.003 C 
ATOM     13  C   UNL     1      -2.643  27.017   2.547  1.00  0.00     0.004 C 
ENDBRANCH  11  12
ENDBRANCH  10  11
ENDBRANCH   9  10
ENDBRANCH   8   9
ENDBRANCH   1   8
TORSDOF 9
ENDMDL
