MODEL 1
REMARK VINA RESULT:    -3.749      0.000      0.000
REMARK INTER + INTRA:          -4.447
REMARK INTER:                  -4.406
REMARK INTRA:                  -0.041
REMARK UNBOUND:                -0.041
REMARK SMILES O=C([O-])CCC(=O)[O-]
REMARK SMILES IDX 4 1 2 2 1 3 3 4 5 5 6 6 7 7 8 8
REMARK H PARENT
REMARK Flexibility Score: inf
ROOT
ATOM      1  C   UNL     1     117.714 162.977 120.611  1.00  0.00     0.059 C 
ENDROOT
BRANCH   1   2
ATOM      2  C   UNL     1     118.853 162.409 121.396  1.00  0.00     0.042 C 
ATOM      3  O   UNL     1     119.254 161.236 121.173  1.00  0.00    -0.550 OA
ATOM      4  O   UNL     1     119.505 163.191 122.343  1.00  0.00    -0.550 OA
ENDBRANCH   1   2
BRANCH   1   5
ATOM      5  C   UNL     1     117.654 164.496 120.779  1.00  0.00     0.059 C 
BRANCH   5   6
ATOM      6  C   UNL     1     117.003 165.130 119.590  1.00  0.00     0.042 C 
ATOM      7  O   UNL     1     117.502 164.985 118.443  1.00  0.00    -0.550 OA
ATOM      8  O   UNL     1     115.818 165.838 119.741  1.00  0.00    -0.550 OA
ENDBRANCH   5   6
ENDBRANCH   1   5
TORSDOF 3
ENDMDL
MODEL 2
REMARK VINA RESULT:    -3.724      0.142      4.211
REMARK INTER + INTRA:          -4.419
REMARK INTER:                  -4.364
REMARK INTRA:                  -0.054
REMARK UNBOUND:                -0.041
REMARK SMILES O=C([O-])CCC(=O)[O-]
REMARK SMILES IDX 4 1 2 2 1 3 3 4 5 5 6 6 7 7 8 8
REMARK H PARENT
REMARK Flexibility Score: inf
ROOT
ATOM      1  C   UNL     1     117.497 164.380 120.911  1.00  0.00     0.059 C 
ENDROOT
BRANCH   1   2
ATOM      2  C   UNL     1     116.979 165.053 119.680  1.00  0.00     0.042 C 
ATOM      3  O   UNL     1     117.543 164.865 118.570  1.00  0.00    -0.550 OA
ATOM      4  O   UNL     1     115.843 165.851 119.749  1.00  0.00    -0.550 OA
ENDBRANCH   1   2
BRANCH   1   5
ATOM      5  C   UNL     1     117.734 162.891 120.647  1.00  0.00     0.059 C 
BRANCH   5   6
ATOM      6  C   UNL     1     118.921 162.405 121.416  1.00  0.00     0.042 C 
ATOM      7  O   UNL     1     119.471 163.150 122.270  1.00  0.00    -0.550 OA
ATOM      8  O   UNL     1     119.391 161.112 121.227  1.00  0.00    -0.550 OA
ENDBRANCH   5   6
ENDBRANCH   1   5
TORSDOF 3
ENDMDL
MODEL 3
REMARK VINA RESULT:    -3.711      2.184      3.244
REMARK INTER + INTRA:          -4.402
REMARK INTER:                  -4.365
REMARK INTRA:                  -0.038
REMARK UNBOUND:                -0.041
REMARK SMILES O=C([O-])CCC(=O)[O-]
REMARK SMILES IDX 4 1 2 2 1 3 3 4 5 5 6 6 7 7 8 8
REMARK H PARENT
REMARK Flexibility Score: inf
ROOT
ATOM      1  C   UNL     1     116.942 165.186 119.223  1.00  0.00     0.059 C 
ENDROOT
BRANCH   1   2
ATOM      2  C   UNL     1     117.381 164.497 120.476  1.00  0.00     0.042 C 
ATOM      3  O   UNL     1     117.446 165.134 121.560  1.00  0.00    -0.550 OA
ATOM      4  O   UNL     1     117.673 163.138 120.457  1.00  0.00    -0.550 OA
ENDBRANCH   1   2
BRANCH   1   5
ATOM      5  C   UNL     1     117.698 164.631 118.014  1.00  0.00     0.059 C 
BRANCH   5   6
ATOM      6  C   UNL     1     117.672 165.611 116.884  1.00  0.00     0.042 C 
ATOM      7  O   UNL     1     117.042 166.695 117.000  1.00  0.00    -0.550 OA
ATOM      8  O   UNL     1     118.384 165.350 115.721  1.00  0.00    -0.550 OA
ENDBRANCH   5   6
ENDBRANCH   1   5
TORSDOF 3
ENDMDL
MODEL 4
REMARK VINA RESULT:    -3.709      2.185      4.607
REMARK INTER + INTRA:          -4.400
REMARK INTER:                  -4.362
REMARK INTRA:                  -0.038
REMARK UNBOUND:                -0.041
REMARK SMILES O=C([O-])CCC(=O)[O-]
REMARK SMILES IDX 4 1 2 2 1 3 3 4 5 5 6 6 7 7 8 8
REMARK H PARENT
REMARK Flexibility Score: inf
ROOT
ATOM      1  C   UNL     1     117.716 164.616 117.993  1.00  0.00     0.059 C 
ENDROOT
BRANCH   1   2
ATOM      2  C   UNL     1     117.697 165.595 116.862  1.00  0.00     0.042 C 
ATOM      3  O   UNL     1     117.091 166.692 116.984  1.00  0.00    -0.550 OA
ATOM      4  O   UNL     1     118.388 165.316 115.689  1.00  0.00    -0.550 OA
ENDBRANCH   1   2
BRANCH   1   5
ATOM      5  C   UNL     1     117.002 165.196 119.215  1.00  0.00     0.059 C 
BRANCH   5   6
ATOM      6  C   UNL     1     117.410 164.468 120.456  1.00  0.00     0.042 C 
ATOM      7  O   UNL     1     117.360 165.045 121.574  1.00  0.00    -0.550 OA
ATOM      8  O   UNL     1     117.799 163.137 120.386  1.00  0.00    -0.550 OA
ENDBRANCH   5   6
ENDBRANCH   1   5
TORSDOF 3
ENDMDL
MODEL 5
REMARK VINA RESULT:    -3.620      5.097      6.048
REMARK INTER + INTRA:          -4.295
REMARK INTER:                  -4.216
REMARK INTRA:                  -0.080
REMARK UNBOUND:                -0.041
REMARK SMILES O=C([O-])CCC(=O)[O-]
REMARK SMILES IDX 4 1 2 2 1 3 3 4 5 5 6 6 7 7 8 8
REMARK H PARENT
REMARK Flexibility Score: inf
ROOT
ATOM      1  C   UNL     1     115.872 165.868 125.316  1.00  0.00     0.059 C 
ENDROOT
BRANCH   1   2
ATOM      2  C   UNL     1     115.639 166.987 126.281  1.00  0.00     0.042 C 
ATOM      3  O   UNL     1     116.607 167.671 126.705  1.00  0.00    -0.550 OA
ATOM      4  O   UNL     1     114.345 167.305 126.678  1.00  0.00    -0.550 OA
ENDBRANCH   1   2
BRANCH   1   5
ATOM      5  C   UNL     1     116.794 166.324 124.183  1.00  0.00     0.059 C 
BRANCH   5   6
ATOM      6  C   UNL     1     116.063 166.318 122.878  1.00  0.00     0.042 C 
ATOM      7  O   UNL     1     115.039 167.033 122.722  1.00  0.00    -0.550 OA
ATOM      8  O   UNL     1     116.541 165.560 121.816  1.00  0.00    -0.550 OA
ENDBRANCH   5   6
ENDBRANCH   1   5
TORSDOF 3
ENDMDL
MODEL 6
REMARK VINA RESULT:    -3.603      5.080      6.325
REMARK INTER + INTRA:          -4.276
REMARK INTER:                  -4.193
REMARK INTRA:                  -0.083
REMARK UNBOUND:                -0.041
REMARK SMILES O=C([O-])CCC(=O)[O-]
REMARK SMILES IDX 4 1 2 2 1 3 3 4 5 5 6 6 7 7 8 8
REMARK H PARENT
REMARK Flexibility Score: inf
ROOT
ATOM      1  C   UNL     1     116.844 166.283 124.210  1.00  0.00     0.059 C 
ENDROOT
BRANCH   1   2
ATOM      2  C   UNL     1     116.163 166.298 122.878  1.00  0.00     0.042 C 
ATOM      3  O   UNL     1     116.567 165.546 121.952  1.00  0.00    -0.550 OA
ATOM      4  O   UNL     1     115.052 167.107 122.673  1.00  0.00    -0.550 OA
ENDBRANCH   1   2
BRANCH   1   5
ATOM      5  C   UNL     1     115.868 165.848 125.305  1.00  0.00     0.059 C 
BRANCH   5   6
ATOM      6  C   UNL     1     115.569 166.990 126.224  1.00  0.00     0.042 C 
ATOM      7  O   UNL     1     114.379 167.254 126.539  1.00  0.00    -0.550 OA
ATOM      8  O   UNL     1     116.607 167.730 126.774  1.00  0.00    -0.550 OA
ENDBRANCH   5   6
ENDBRANCH   1   5
TORSDOF 3
ENDMDL
MODEL 7
REMARK VINA RESULT:    -3.591      4.482      5.765
REMARK INTER + INTRA:          -4.262
REMARK INTER:                  -4.152
REMARK INTRA:                  -0.110
REMARK UNBOUND:                -0.041
REMARK SMILES O=C([O-])CCC(=O)[O-]
REMARK SMILES IDX 4 1 2 2 1 3 3 4 5 5 6 6 7 7 8 8
REMARK H PARENT
REMARK Flexibility Score: inf
ROOT
ATOM      1  C   UNL     1     115.080 167.114 122.850  1.00  0.00     0.059 C 
ENDROOT
BRANCH   1   2
ATOM      2  C   UNL     1     115.861 166.282 121.884  1.00  0.00     0.042 C 
ATOM      3  O   UNL     1     116.843 165.601 122.282  1.00  0.00    -0.550 OA
ATOM      4  O   UNL     1     115.476 166.220 120.549  1.00  0.00    -0.550 OA
ENDBRANCH   1   2
BRANCH   1   5
ATOM      5  C   UNL     1     115.931 167.447 124.078  1.00  0.00     0.059 C 
BRANCH   5   6
ATOM      6  C   UNL     1     115.432 166.704 125.277  1.00  0.00     0.042 C 
ATOM      7  O   UNL     1     115.814 165.524 125.495  1.00  0.00    -0.550 OA
ATOM      8  O   UNL     1     114.586 167.331 126.182  1.00  0.00    -0.550 OA
ENDBRANCH   5   6
ENDBRANCH   1   5
TORSDOF 3
ENDMDL
MODEL 8
REMARK VINA RESULT:    -3.557      2.381      3.924
REMARK INTER + INTRA:          -4.222
REMARK INTER:                  -4.187
REMARK INTRA:                  -0.035
REMARK UNBOUND:                -0.041
REMARK SMILES O=C([O-])CCC(=O)[O-]
REMARK SMILES IDX 4 1 2 2 1 3 3 4 5 5 6 6 7 7 8 8
REMARK H PARENT
REMARK Flexibility Score: inf
ROOT
ATOM      1  C   UNL     1     116.852 165.439 121.865  1.00  0.00     0.059 C 
ENDROOT
BRANCH   1   2
ATOM      2  C   UNL     1     115.925 166.196 122.762  1.00  0.00     0.042 C 
ATOM      3  O   UNL     1     115.855 165.912 123.987  1.00  0.00    -0.550 OA
ATOM      4  O   UNL     1     115.172 167.249 122.256  1.00  0.00    -0.550 OA
ENDBRANCH   1   2
BRANCH   1   5
ATOM      5  C   UNL     1     116.365 165.504 120.416  1.00  0.00     0.059 C 
BRANCH   5   6
ATOM      6  C   UNL     1     117.204 164.628 119.541  1.00  0.00     0.042 C 
ATOM      7  O   UNL     1     117.526 163.472 119.924  1.00  0.00    -0.550 OA
ATOM      8  O   UNL     1     117.590 165.067 118.282  1.00  0.00    -0.550 OA
ENDBRANCH   5   6
ENDBRANCH   1   5
TORSDOF 3
ENDMDL
MODEL 9
REMARK VINA RESULT:    -3.548      1.597      4.036
REMARK INTER + INTRA:          -4.212
REMARK INTER:                  -4.173
REMARK INTRA:                  -0.039
REMARK UNBOUND:                -0.041
REMARK SMILES O=C([O-])CCC(=O)[O-]
REMARK SMILES IDX 4 1 2 2 1 3 3 4 5 5 6 6 7 7 8 8
REMARK H PARENT
REMARK Flexibility Score: inf
ROOT
ATOM      1  C   UNL     1     117.667 164.389 120.441  1.00  0.00     0.059 C 
ENDROOT
BRANCH   1   2
ATOM      2  C   UNL     1     116.974 165.161 119.363  1.00  0.00     0.042 C 
ATOM      3  O   UNL     1     117.410 165.132 118.182  1.00  0.00    -0.550 OA
ATOM      4  O   UNL     1     115.817 165.874 119.653  1.00  0.00    -0.550 OA
ENDBRANCH   1   2
BRANCH   1   5
ATOM      5  C   UNL     1     117.527 165.104 121.786  1.00  0.00     0.059 C 
BRANCH   5   6
ATOM      6  C   UNL     1     118.856 165.206 122.466  1.00  0.00     0.042 C 
ATOM      7  O   UNL     1     119.646 164.226 122.463  1.00  0.00    -0.550 OA
ATOM      8  O   UNL     1     119.243 166.400 123.060  1.00  0.00    -0.550 OA
ENDBRANCH   5   6
ENDBRANCH   1   5
TORSDOF 3
ENDMDL
