MODEL 1
REMARK VINA RESULT:    -4.951      0.000      0.000
REMARK INTER + INTRA:          -5.257
REMARK INTER:                  -5.240
REMARK INTRA:                  -0.016
REMARK UNBOUND:                -0.016
REMARK SMILES O=C([O-])c1cccnc1
REMARK SMILES IDX 4 1 5 2 9 3 6 4 8 5 7 6 2 7 1 8 3 9
REMARK H PARENT
REMARK Flexibility Score: inf
ROOT
ATOM      1  C   UNL     1      16.806  20.281  70.823  1.00  0.00     0.016 A 
ATOM      2  C   UNL     1      18.005  20.974  70.590  1.00  0.00     0.013 A 
ATOM      3  C   UNL     1      15.810  20.908  71.594  1.00  0.00     0.120 A 
ATOM      4  C   UNL     1      18.188  22.254  71.116  1.00  0.00     0.021 A 
ATOM      5  N   UNL     1      16.015  22.156  72.095  1.00  0.00    -0.264 NA
ATOM      6  C   UNL     1      17.172  22.835  71.874  1.00  0.00     0.111 A 
ENDROOT
BRANCH   1   7
ATOM      7  C   UNL     1      16.599  18.925  70.272  1.00  0.00     0.073 C 
ATOM      8  O   UNL     1      16.128  18.770  69.114  1.00  0.00    -0.545 OA
ATOM      9  O   UNL     1      16.922  17.802  71.024  1.00  0.00    -0.545 OA
ENDBRANCH   1   7
TORSDOF 1
ENDMDL
MODEL 2
REMARK VINA RESULT:    -4.687     11.228     12.269
REMARK INTER + INTRA:          -4.977
REMARK INTER:                  -4.956
REMARK INTRA:                  -0.020
REMARK UNBOUND:                -0.016
REMARK SMILES O=C([O-])c1cccnc1
REMARK SMILES IDX 4 1 5 2 9 3 6 4 8 5 7 6 2 7 1 8 3 9
REMARK H PARENT
REMARK Flexibility Score: inf
ROOT
ATOM      1  C   UNL     1      17.546  15.940  59.498  1.00  0.00     0.016 A 
ATOM      2  C   UNL     1      18.430  17.031  59.471  1.00  0.00     0.013 A 
ATOM      3  C   UNL     1      17.470  15.171  60.673  1.00  0.00     0.120 A 
ATOM      4  C   UNL     1      19.207  17.332  60.591  1.00  0.00     0.021 A 
ATOM      5  N   UNL     1      18.238  15.485  61.751  1.00  0.00    -0.264 NA
ATOM      6  C   UNL     1      19.097  16.539  61.734  1.00  0.00     0.111 A 
ENDROOT
BRANCH   1   7
ATOM      7  C   UNL     1      16.718  15.612  58.318  1.00  0.00     0.073 C 
ATOM      8  O   UNL     1      17.207  15.663  57.159  1.00  0.00    -0.545 OA
ATOM      9  O   UNL     1      15.387  15.243  58.473  1.00  0.00    -0.545 OA
ENDBRANCH   1   7
TORSDOF 1
ENDMDL
MODEL 3
REMARK VINA RESULT:    -4.643     18.339     18.682
REMARK INTER + INTRA:          -4.930
REMARK INTER:                  -4.911
REMARK INTRA:                  -0.019
REMARK UNBOUND:                -0.016
REMARK SMILES O=C([O-])c1cccnc1
REMARK SMILES IDX 4 1 5 2 9 3 6 4 8 5 7 6 2 7 1 8 3 9
REMARK H PARENT
REMARK Flexibility Score: inf
ROOT
ATOM      1  C   UNL     1      11.048  28.647  55.054  1.00  0.00     0.016 A 
ATOM      2  C   UNL     1      10.544  27.517  55.718  1.00  0.00     0.013 A 
ATOM      3  C   UNL     1      11.304  29.806  55.808  1.00  0.00     0.120 A 
ATOM      4  C   UNL     1      10.309  27.558  57.093  1.00  0.00     0.021 A 
ATOM      5  N   UNL     1      11.066  29.820  57.148  1.00  0.00    -0.264 NA
ATOM      6  C   UNL     1      10.578  28.731  57.799  1.00  0.00     0.111 A 
ENDROOT
BRANCH   1   7
ATOM      7  C   UNL     1      11.301  28.616  53.598  1.00  0.00     0.073 C 
ATOM      8  O   UNL     1      10.905  29.556  52.859  1.00  0.00    -0.545 OA
ATOM      9  O   UNL     1      11.979  27.547  53.024  1.00  0.00    -0.545 OA
ENDBRANCH   1   7
TORSDOF 1
ENDMDL
MODEL 4
REMARK VINA RESULT:    -4.519     11.546     12.648
REMARK INTER + INTRA:          -4.800
REMARK INTER:                  -4.782
REMARK INTRA:                  -0.017
REMARK UNBOUND:                -0.016
REMARK SMILES O=C([O-])c1cccnc1
REMARK SMILES IDX 4 1 5 2 9 3 6 4 8 5 7 6 2 7 1 8 3 9
REMARK H PARENT
REMARK Flexibility Score: inf
ROOT
ATOM      1  C   UNL     1      17.468  15.622  59.298  1.00  0.00     0.016 A 
ATOM      2  C   UNL     1      16.123  16.009  59.176  1.00  0.00     0.013 A 
ATOM      3  C   UNL     1      18.014  15.500  60.588  1.00  0.00     0.120 A 
ATOM      4  C   UNL     1      15.360  16.260  60.317  1.00  0.00     0.021 A 
ATOM      5  N   UNL     1      17.248  15.750  61.684  1.00  0.00    -0.264 NA
ATOM      6  C   UNL     1      15.945  16.125  61.576  1.00  0.00     0.111 A 
ENDROOT
BRANCH   1   7
ATOM      7  C   UNL     1      18.287  15.353  58.097  1.00  0.00     0.073 C 
ATOM      8  O   UNL     1      18.553  16.277  57.283  1.00  0.00    -0.545 OA
ATOM      9  O   UNL     1      18.774  14.075  57.848  1.00  0.00    -0.545 OA
ENDBRANCH   1   7
TORSDOF 1
ENDMDL
MODEL 5
REMARK VINA RESULT:    -4.407      9.533     10.425
REMARK INTER + INTRA:          -4.681
REMARK INTER:                  -4.661
REMARK INTRA:                  -0.019
REMARK UNBOUND:                -0.016
REMARK SMILES O=C([O-])c1cccnc1
REMARK SMILES IDX 4 1 5 2 9 3 6 4 8 5 7 6 2 7 1 8 3 9
REMARK H PARENT
REMARK Flexibility Score: inf
ROOT
ATOM      1  C   UNL     1      14.201  13.363  63.837  1.00  0.00     0.016 A 
ATOM      2  C   UNL     1      13.865  14.059  65.009  1.00  0.00     0.013 A 
ATOM      3  C   UNL     1      14.359  14.096  62.647  1.00  0.00     0.120 A 
ATOM      4  C   UNL     1      13.695  15.444  64.979  1.00  0.00     0.021 A 
ATOM      5  N   UNL     1      14.189  15.446  62.645  1.00  0.00    -0.264 NA
ATOM      6  C   UNL     1      13.863  16.128  63.775  1.00  0.00     0.111 A 
ENDROOT
BRANCH   1   7
ATOM      7  C   UNL     1      14.383  11.896  63.856  1.00  0.00     0.073 C 
ATOM      8  O   UNL     1      13.515  11.150  64.383  1.00  0.00    -0.545 OA
ATOM      9  O   UNL     1      15.516  11.319  63.294  1.00  0.00    -0.545 OA
ENDBRANCH   1   7
TORSDOF 1
ENDMDL
MODEL 6
REMARK VINA RESULT:    -4.351     10.094     11.241
REMARK INTER + INTRA:          -4.622
REMARK INTER:                  -4.605
REMARK INTRA:                  -0.017
REMARK UNBOUND:                -0.016
REMARK SMILES O=C([O-])c1cccnc1
REMARK SMILES IDX 4 1 5 2 9 3 6 4 8 5 7 6 2 7 1 8 3 9
REMARK H PARENT
REMARK Flexibility Score: inf
ROOT
ATOM      1  C   UNL     1      16.723  16.450  61.161  1.00  0.00     0.016 A 
ATOM      2  C   UNL     1      18.070  16.064  61.261  1.00  0.00     0.013 A 
ATOM      3  C   UNL     1      16.211  16.764  59.889  1.00  0.00     0.120 A 
ATOM      4  C   UNL     1      18.867  15.997  60.118  1.00  0.00     0.021 A 
ATOM      5  N   UNL     1      17.010  16.690  58.790  1.00  0.00    -0.264 NA
ATOM      6  C   UNL     1      18.315  16.318  58.878  1.00  0.00     0.111 A 
ENDROOT
BRANCH   1   7
ATOM      7  C   UNL     1      15.868  16.524  62.365  1.00  0.00     0.073 C 
ATOM      8  O   UNL     1      15.525  17.639  62.838  1.00  0.00    -0.545 OA
ATOM      9  O   UNL     1      15.433  15.363  62.992  1.00  0.00    -0.545 OA
ENDBRANCH   1   7
TORSDOF 1
ENDMDL
MODEL 7
REMARK VINA RESULT:    -4.343     10.688     11.902
REMARK INTER + INTRA:          -4.613
REMARK INTER:                  -4.597
REMARK INTRA:                  -0.016
REMARK UNBOUND:                -0.016
REMARK SMILES O=C([O-])c1cccnc1
REMARK SMILES IDX 4 1 5 2 9 3 6 4 8 5 7 6 2 7 1 8 3 9
REMARK H PARENT
REMARK Flexibility Score: inf
ROOT
ATOM      1  C   UNL     1      18.649  16.690  60.630  1.00  0.00     0.016 A 
ATOM      2  C   UNL     1      18.036  15.479  60.987  1.00  0.00     0.013 A 
ATOM      3  C   UNL     1      18.329  17.260  59.384  1.00  0.00     0.120 A 
ATOM      4  C   UNL     1      17.132  14.867  60.117  1.00  0.00     0.021 A 
ATOM      5  N   UNL     1      17.444  16.643  58.555  1.00  0.00    -0.264 NA
ATOM      6  C   UNL     1      16.846  15.470  58.892  1.00  0.00     0.111 A 
ENDROOT
BRANCH   1   7
ATOM      7  C   UNL     1      19.608  17.348  61.543  1.00  0.00     0.073 C 
ATOM      8  O   UNL     1      20.849  17.221  61.368  1.00  0.00    -0.545 OA
ATOM      9  O   UNL     1      19.153  18.115  62.609  1.00  0.00    -0.545 OA
ENDBRANCH   1   7
TORSDOF 1
ENDMDL
MODEL 8
REMARK VINA RESULT:    -4.311      1.206      2.003
REMARK INTER + INTRA:          -4.579
REMARK INTER:                  -4.563
REMARK INTRA:                  -0.016
REMARK UNBOUND:                -0.016
REMARK SMILES O=C([O-])c1cccnc1
REMARK SMILES IDX 4 1 5 2 9 3 6 4 8 5 7 6 2 7 1 8 3 9
REMARK H PARENT
REMARK Flexibility Score: inf
ROOT
ATOM      1  C   UNL     1      16.070  19.666  71.139  1.00  0.00     0.016 A 
ATOM      2  C   UNL     1      14.836  20.004  71.718  1.00  0.00     0.013 A 
ATOM      3  C   UNL     1      17.034  20.678  70.983  1.00  0.00     0.120 A 
ATOM      4  C   UNL     1      14.588  21.316  72.125  1.00  0.00     0.021 A 
ATOM      5  N   UNL     1      16.767  21.949  71.388  1.00  0.00    -0.264 NA
ATOM      6  C   UNL     1      15.575  22.286  71.949  1.00  0.00     0.111 A 
ENDROOT
BRANCH   1   7
ATOM      7  C   UNL     1      16.345  18.280  70.704  1.00  0.00     0.073 C 
ATOM      8  O   UNL     1      16.146  17.932  69.510  1.00  0.00    -0.545 OA
ATOM      9  O   UNL     1      16.826  17.341  71.609  1.00  0.00    -0.545 OA
ENDBRANCH   1   7
TORSDOF 1
ENDMDL
MODEL 9
REMARK VINA RESULT:    -4.206     10.367     11.681
REMARK INTER + INTRA:          -4.468
REMARK INTER:                  -4.451
REMARK INTRA:                  -0.016
REMARK UNBOUND:                -0.016
REMARK SMILES O=C([O-])c1cccnc1
REMARK SMILES IDX 4 1 5 2 9 3 6 4 8 5 7 6 2 7 1 8 3 9
REMARK H PARENT
REMARK Flexibility Score: inf
ROOT
ATOM      1  C   UNL     1      16.476  15.990  61.061  1.00  0.00     0.016 A 
ATOM      2  C   UNL     1      15.701  15.920  59.891  1.00  0.00     0.013 A 
ATOM      3  C   UNL     1      17.852  15.719  60.968  1.00  0.00     0.120 A 
ATOM      4  C   UNL     1      16.297  15.589  58.674  1.00  0.00     0.021 A 
ATOM      5  N   UNL     1      18.409  15.398  59.768  1.00  0.00    -0.264 NA
ATOM      6  C   UNL     1      17.667  15.328  58.631  1.00  0.00     0.111 A 
ENDROOT
BRANCH   1   7
ATOM      7  C   UNL     1      15.855  16.341  62.356  1.00  0.00     0.073 C 
ATOM      8  O   UNL     1      15.308  15.455  63.064  1.00  0.00    -0.545 OA
ATOM      9  O   UNL     1      15.867  17.655  62.810  1.00  0.00    -0.545 OA
ENDBRANCH   1   7
TORSDOF 1
ENDMDL
