MODEL 1
REMARK VINA RESULT:    -2.870      0.000      0.000
REMARK INTER + INTRA:          -3.244
REMARK INTER:                  -3.206
REMARK INTRA:                  -0.038
REMARK UNBOUND:                -0.038
REMARK SMILES CCCC(=O)[O-]
REMARK SMILES IDX 3 1 4 2 5 3 6 4 2 5 1 6
REMARK H PARENT
REMARK Flexibility Score: inf
ROOT
ATOM      1  C   UNL     1      11.970  22.922 -19.654  1.00  0.00     0.052 C 
ENDROOT
BRANCH   1   2
ATOM      2  C   UNL     1      12.438  21.943 -18.625  1.00  0.00     0.041 C 
ATOM      3  O   UNL     1      11.875  21.886 -17.501  1.00  0.00    -0.550 OA
ATOM      4  O   UNL     1      13.530  21.125 -18.890  1.00  0.00    -0.550 OA
ENDBRANCH   1   2
BRANCH   1   5
ATOM      5  C   UNL     1      13.054  23.146 -20.712  1.00  0.00     0.003 C 
ATOM      6  C   UNL     1      12.612  22.618 -22.075  1.00  0.00     0.004 C 
ENDBRANCH   1   5
TORSDOF 2
ENDMDL
MODEL 2
REMARK VINA RESULT:    -2.800     25.080     25.609
REMARK INTER + INTRA:          -3.165
REMARK INTER:                  -3.094
REMARK INTRA:                  -0.071
REMARK UNBOUND:                -0.038
REMARK SMILES CCCC(=O)[O-]
REMARK SMILES IDX 3 1 4 2 5 3 6 4 2 5 1 6
REMARK H PARENT
REMARK Flexibility Score: inf
ROOT
ATOM      1  C   UNL     1      30.531   3.875 -26.200  1.00  0.00     0.052 C 
ENDROOT
BRANCH   1   2
ATOM      2  C   UNL     1      29.243   4.275 -25.554  1.00  0.00     0.041 C 
ATOM      3  O   UNL     1      29.134   4.273 -24.301  1.00  0.00    -0.550 OA
ATOM      4  O   UNL     1      28.145   4.603 -26.340  1.00  0.00    -0.550 OA
ENDBRANCH   1   2
BRANCH   1   5
ATOM      5  C   UNL     1      31.643   4.860 -25.830  1.00  0.00     0.003 C 
ATOM      6  C   UNL     1      31.383   6.238 -26.434  1.00  0.00     0.004 C 
ENDBRANCH   1   5
TORSDOF 2
ENDMDL
MODEL 3
REMARK VINA RESULT:    -2.778     25.840     26.563
REMARK INTER + INTRA:          -3.141
REMARK INTER:                  -3.118
REMARK INTRA:                  -0.023
REMARK UNBOUND:                -0.038
REMARK SMILES CCCC(=O)[O-]
REMARK SMILES IDX 3 1 4 2 5 3 6 4 2 5 1 6
REMARK H PARENT
REMARK Flexibility Score: inf
ROOT
ATOM      1  C   UNL     1      31.511   4.229 -27.408  1.00  0.00     0.052 C 
ENDROOT
BRANCH   1   2
ATOM      2  C   UNL     1      31.191   5.405 -26.543  1.00  0.00     0.041 C 
ATOM      3  O   UNL     1      32.116   6.107 -26.058  1.00  0.00    -0.550 OA
ATOM      4  O   UNL     1      29.869   5.699 -26.230  1.00  0.00    -0.550 OA
ENDBRANCH   1   2
BRANCH   1   5
ATOM      5  C   UNL     1      30.540   4.153 -28.590  1.00  0.00     0.003 C 
ATOM      6  C   UNL     1      31.232   4.532 -29.897  1.00  0.00     0.004 C 
ENDBRANCH   1   5
TORSDOF 2
ENDMDL
MODEL 4
REMARK VINA RESULT:    -2.773     25.626     26.313
REMARK INTER + INTRA:          -3.136
REMARK INTER:                  -3.065
REMARK INTRA:                  -0.071
REMARK UNBOUND:                -0.038
REMARK SMILES CCCC(=O)[O-]
REMARK SMILES IDX 3 1 4 2 5 3 6 4 2 5 1 6
REMARK H PARENT
REMARK Flexibility Score: inf
ROOT
ATOM      1  C   UNL     1      31.661   4.237 -25.709  1.00  0.00     0.052 C 
ENDROOT
BRANCH   1   2
ATOM      2  C   UNL     1      31.359   5.102 -26.892  1.00  0.00     0.041 C 
ATOM      3  O   UNL     1      31.141   4.584 -28.017  1.00  0.00    -0.550 OA
ATOM      4  O   UNL     1      31.366   6.485 -26.760  1.00  0.00    -0.550 OA
ENDBRANCH   1   2
BRANCH   1   5
ATOM      5  C   UNL     1      30.682   4.529 -24.569  1.00  0.00     0.003 C 
ATOM      6  C   UNL     1      29.244   4.237 -24.989  1.00  0.00     0.004 C 
ENDBRANCH   1   5
TORSDOF 2
ENDMDL
MODEL 5
REMARK VINA RESULT:    -2.770     24.990     25.431
REMARK INTER + INTRA:          -3.132
REMARK INTER:                  -3.084
REMARK INTRA:                  -0.048
REMARK UNBOUND:                -0.038
REMARK SMILES CCCC(=O)[O-]
REMARK SMILES IDX 3 1 4 2 5 3 6 4 2 5 1 6
REMARK H PARENT
REMARK Flexibility Score: inf
ROOT
ATOM      1  C   UNL     1      30.909   4.613 -25.470  1.00  0.00     0.052 C 
ENDROOT
BRANCH   1   2
ATOM      2  C   UNL     1      31.013   6.067 -25.805  1.00  0.00     0.041 C 
ATOM      3  O   UNL     1      31.256   6.431 -26.985  1.00  0.00    -0.550 OA
ATOM      4  O   UNL     1      30.890   7.021 -24.802  1.00  0.00    -0.550 OA
ENDBRANCH   1   2
BRANCH   1   5
ATOM      5  C   UNL     1      29.503   4.279 -24.964  1.00  0.00     0.003 C 
ATOM      6  C   UNL     1      28.566   3.945 -26.122  1.00  0.00     0.004 C 
ENDBRANCH   1   5
TORSDOF 2
ENDMDL
MODEL 6
REMARK VINA RESULT:    -2.721     24.877     25.501
REMARK INTER + INTRA:          -3.078
REMARK INTER:                  -3.039
REMARK INTRA:                  -0.038
REMARK UNBOUND:                -0.038
REMARK SMILES CCCC(=O)[O-]
REMARK SMILES IDX 3 1 4 2 5 3 6 4 2 5 1 6
REMARK H PARENT
REMARK Flexibility Score: inf
ROOT
ATOM      1  C   UNL     1      31.616   6.386 -26.057  1.00  0.00     0.052 C 
ENDROOT
BRANCH   1   2
ATOM      2  C   UNL     1      31.371   6.878 -24.666  1.00  0.00     0.041 C 
ATOM      3  O   UNL     1      30.601   6.247 -23.896  1.00  0.00    -0.550 OA
ATOM      4  O   UNL     1      31.956   8.062 -24.235  1.00  0.00    -0.550 OA
ENDBRANCH   1   2
BRANCH   1   5
ATOM      5  C   UNL     1      31.819   4.868 -26.060  1.00  0.00     0.003 C 
ATOM      6  C   UNL     1      30.692   4.163 -26.811  1.00  0.00     0.004 C 
ENDBRANCH   1   5
TORSDOF 2
ENDMDL
MODEL 7
REMARK VINA RESULT:    -2.717      1.303      1.978
REMARK INTER + INTRA:          -3.073
REMARK INTER:                  -3.034
REMARK INTRA:                  -0.038
REMARK UNBOUND:                -0.038
REMARK SMILES CCCC(=O)[O-]
REMARK SMILES IDX 3 1 4 2 5 3 6 4 2 5 1 6
REMARK H PARENT
REMARK Flexibility Score: inf
ROOT
ATOM      1  C   UNL     1      12.257  22.968 -20.582  1.00  0.00     0.052 C 
ENDROOT
BRANCH   1   2
ATOM      2  C   UNL     1      13.441  22.599 -19.746  1.00  0.00     0.041 C 
ATOM      3  O   UNL     1      14.588  23.016 -20.051  1.00  0.00    -0.550 OA
ATOM      4  O   UNL     1      13.284  21.753 -18.655  1.00  0.00    -0.550 OA
ENDBRANCH   1   2
BRANCH   1   5
ATOM      5  C   UNL     1      12.260  22.178 -21.893  1.00  0.00     0.003 C 
ATOM      6  C   UNL     1      12.607  23.077 -23.077  1.00  0.00     0.004 C 
ENDBRANCH   1   5
TORSDOF 2
ENDMDL
MODEL 8
REMARK VINA RESULT:    -2.701      2.245      3.073
REMARK INTER + INTRA:          -3.055
REMARK INTER:                  -3.034
REMARK INTRA:                  -0.021
REMARK UNBOUND:                -0.038
REMARK SMILES CCCC(=O)[O-]
REMARK SMILES IDX 3 1 4 2 5 3 6 4 2 5 1 6
REMARK H PARENT
REMARK Flexibility Score: inf
ROOT
ATOM      1  C   UNL     1      14.011  21.864 -19.348  1.00  0.00     0.052 C 
ENDROOT
BRANCH   1   2
ATOM      2  C   UNL     1      12.616  22.267 -18.986  1.00  0.00     0.041 C 
ATOM      3  O   UNL     1      12.092  21.852 -17.921  1.00  0.00    -0.550 OA
ATOM      4  O   UNL     1      11.877  23.064 -19.852  1.00  0.00    -0.550 OA
ENDBRANCH   1   2
BRANCH   1   5
ATOM      5  C   UNL     1      14.616  20.985 -18.251  1.00  0.00     0.003 C 
ATOM      6  C   UNL     1      16.081  21.336 -18.008  1.00  0.00     0.004 C 
ENDBRANCH   1   5
TORSDOF 2
ENDMDL
MODEL 9
REMARK VINA RESULT:    -2.670     25.008     25.614
REMARK INTER + INTRA:          -3.021
REMARK INTER:                  -3.010
REMARK INTRA:                  -0.011
REMARK UNBOUND:                -0.038
REMARK SMILES CCCC(=O)[O-]
REMARK SMILES IDX 3 1 4 2 5 3 6 4 2 5 1 6
REMARK H PARENT
REMARK Flexibility Score: inf
ROOT
ATOM      1  C   UNL     1      29.502   4.318 -24.658  1.00  0.00     0.052 C 
ENDROOT
BRANCH   1   2
ATOM      2  C   UNL     1      29.184   4.680 -26.074  1.00  0.00     0.041 C 
ATOM      3  O   UNL     1      27.990   4.705 -26.470  1.00  0.00    -0.550 OA
ATOM      4  O   UNL     1      30.212   4.944 -26.971  1.00  0.00    -0.550 OA
ENDBRANCH   1   2
BRANCH   1   5
ATOM      5  C   UNL     1      31.017   4.283 -24.442  1.00  0.00     0.003 C 
ATOM      6  C   UNL     1      31.361   4.219 -22.956  1.00  0.00     0.004 C 
ENDBRANCH   1   5
TORSDOF 2
ENDMDL
