MODEL 1
REMARK VINA RESULT:    -6.410      0.000      0.000
REMARK INTER + INTRA:         -10.807
REMARK INTER:                  -9.033
REMARK INTRA:                  -1.773
REMARK UNBOUND:                -1.773
REMARK SMILES C[C@H](CO)CCC(=O)[C@H](C)[C@H]1C(=O)C[C@@H]2[C@H]3CC=C4C[C@@H](O)CC[C@]4(C)[C@H]3CC[C@@]21C
REMARK SMILES IDX 6 1 5 2 2 3 1 4 3 5 4 6 7 8 8 9 9 10 10 11 11 12 12 13 30 14
REMARK SMILES IDX 13 15 14 16 15 17 29 18 31 19 16 20 28 21 27 22 17 23 25 24
REMARK SMILES IDX 18 25 19 26 24 27 26 28 20 29 23 30 21 31 22 32
REMARK H PARENT 4 7 22 33
REMARK Flexibility Score: inf
ROOT
ATOM      1  C   UNL     1     175.550 159.506 154.323  1.00  0.00     0.076 C 
ENDROOT
BRANCH   1   2
ATOM      2  C   UNL     1     174.468 159.529 155.418  1.00  0.00     0.013 C 
BRANCH   2   3
ATOM      3  C   UNL     1     173.093 158.970 154.973  1.00  0.00     0.012 C 
ATOM      4  C   UNL     1     172.010 160.058 154.945  1.00  0.00     0.010 C 
BRANCH   3   5
ATOM      5  C   UNL     1     172.624 157.761 155.809  1.00  0.00     0.159 C 
BRANCH   5   6
ATOM      6  O   UNL     1     172.515 156.610 155.015  1.00  0.00    -0.396 OA
ATOM      7  H   UNL     1     172.169 156.905 154.132  1.00  0.00     0.210 HD
ENDBRANCH   5   6
ENDBRANCH   3   5
ENDBRANCH   2   3
ENDBRANCH   1   2
BRANCH   1   8
ATOM      8  C   UNL     1     175.763 160.889 153.752  1.00  0.00     0.136 C 
ATOM      9  O   UNL     1     176.111 161.788 154.502  1.00  0.00    -0.299 OA
BRANCH   8  10
ATOM     10  C   UNL     1     175.521 161.201 152.282  1.00  0.00     0.064 C 
ATOM     11  C   UNL     1     176.022 162.631 152.007  1.00  0.00     0.017 C 
BRANCH  10  12
ATOM     12  C   UNL     1     174.016 160.983 151.884  1.00  0.00     0.072 C 
ATOM     13  C   UNL     1     173.230 162.250 151.731  1.00  0.00     0.137 C 
ATOM     14  C   UNL     1     173.734 160.237 150.521  1.00  0.00    -0.019 C 
ATOM     15  O   UNL     1     173.159 163.110 152.596  1.00  0.00    -0.299 OA
ATOM     16  C   UNL     1     172.395 162.311 150.511  1.00  0.00     0.080 C 
ATOM     17  C   UNL     1     172.428 160.883 149.937  1.00  0.00     0.007 C 
ATOM     18  C   UNL     1     173.573 158.711 150.723  1.00  0.00     0.008 C 
ATOM     19  C   UNL     1     174.865 160.467 149.481  1.00  0.00     0.012 C 
ATOM     20  C   UNL     1     171.103 160.098 150.237  1.00  0.00     0.001 C 
ATOM     21  C   UNL     1     172.333 158.285 151.538  1.00  0.00     0.005 C 
ATOM     22  C   UNL     1     171.161 159.314 151.567  1.00  0.00     0.003 C 
ATOM     23  C   UNL     1     170.705 159.150 149.092  1.00  0.00     0.031 C 
ATOM     24  C   UNL     1     169.755 158.677 151.924  1.00  0.00    -0.008 C 
ATOM     25  C   UNL     1     169.453 158.383 149.421  1.00  0.00    -0.027 C 
ATOM     26  C   UNL     1     169.045 158.116 150.684  1.00  0.00    -0.065 C 
ATOM     27  C   UNL     1     168.820 159.777 152.530  1.00  0.00     0.014 C 
ATOM     28  C   UNL     1     169.935 157.557 152.990  1.00  0.00     0.016 C 
ATOM     29  C   UNL     1     167.647 157.574 150.888  1.00  0.00     0.063 C 
ATOM     30  C   UNL     1     167.355 159.321 152.724  1.00  0.00     0.033 C 
ATOM     31  C   UNL     1     166.760 158.702 151.442  1.00  0.00     0.118 C 
BRANCH  31  32
ATOM     32  O   UNL     1     165.455 158.236 151.676  1.00  0.00    -0.393 OA
ATOM     33  H   UNL     1     165.382 157.331 151.276  1.00  0.00     0.210 HD
ENDBRANCH  31  32
ENDBRANCH  10  12
ENDBRANCH   8  10
ENDBRANCH   1   8
TORSDOF 8
ENDMDL
MODEL 2
REMARK VINA RESULT:    -6.396      8.091     10.882
REMARK INTER + INTRA:         -10.787
REMARK INTER:                  -9.012
REMARK INTRA:                  -1.775
REMARK UNBOUND:                -1.773
REMARK SMILES C[C@H](CO)CCC(=O)[C@H](C)[C@H]1C(=O)C[C@@H]2[C@H]3CC=C4C[C@@H](O)CC[C@]4(C)[C@H]3CC[C@@]21C
REMARK SMILES IDX 6 1 5 2 2 3 1 4 3 5 4 6 7 8 8 9 9 10 10 11 11 12 12 13 30 14
REMARK SMILES IDX 13 15 14 16 15 17 29 18 31 19 16 20 28 21 27 22 17 23 25 24
REMARK SMILES IDX 18 25 19 26 24 27 26 28 20 29 23 30 21 31 22 32
REMARK H PARENT 4 7 22 33
REMARK Flexibility Score: inf
ROOT
ATOM      1  C   UNL     1     175.142 173.170 154.086  1.00  0.00     0.076 C 
ENDROOT
BRANCH   1   2
ATOM      2  C   UNL     1     174.984 172.208 155.277  1.00  0.00     0.013 C 
BRANCH   2   3
ATOM      3  C   UNL     1     174.837 170.717 154.883  1.00  0.00     0.012 C 
ATOM      4  C   UNL     1     173.384 170.232 154.990  1.00  0.00     0.010 C 
BRANCH   3   5
ATOM      5  C   UNL     1     175.780 169.781 155.667  1.00  0.00     0.159 C 
BRANCH   5   6
ATOM      6  O   UNL     1     175.072 168.713 156.239  1.00  0.00    -0.396 OA
ATOM      7  H   UNL     1     175.437 168.588 157.154  1.00  0.00     0.210 HD
ENDBRANCH   5   6
ENDBRANCH   3   5
ENDBRANCH   2   3
ENDBRANCH   1   2
BRANCH   1   8
ATOM      8  C   UNL     1     173.803 173.740 153.677  1.00  0.00     0.136 C 
ATOM      9  O   UNL     1     173.120 174.301 154.520  1.00  0.00    -0.299 OA
BRANCH   8  10
ATOM     10  C   UNL     1     173.267 173.602 152.260  1.00  0.00     0.064 C 
ATOM     11  C   UNL     1     171.989 174.454 152.146  1.00  0.00     0.017 C 
BRANCH  10  12
ATOM     12  C   UNL     1     173.046 172.095 151.869  1.00  0.00     0.072 C 
ATOM     13  C   UNL     1     171.607 171.703 151.720  1.00  0.00     0.137 C 
ATOM     14  C   UNL     1     173.678 171.608 150.506  1.00  0.00    -0.019 C 
ATOM     15  O   UNL     1     170.765 171.884 152.585  1.00  0.00    -0.299 OA
ATOM     16  C   UNL     1     171.308 170.915 150.503  1.00  0.00     0.080 C 
ATOM     17  C   UNL     1     172.685 170.537 149.929  1.00  0.00     0.007 C 
ATOM     18  C   UNL     1     175.095 171.018 150.708  1.00  0.00     0.008 C 
ATOM     19  C   UNL     1     173.778 172.753 149.461  1.00  0.00     0.012 C 
ATOM     20  C   UNL     1     173.060 169.045 150.234  1.00  0.00     0.001 C 
ATOM     21  C   UNL     1     175.151 169.712 151.529  1.00  0.00     0.005 C 
ATOM     22  C   UNL     1     173.831 168.882 151.563  1.00  0.00     0.003 C 
ATOM     23  C   UNL     1     173.854 168.388 149.090  1.00  0.00     0.031 C 
ATOM     24  C   UNL     1     174.041 167.355 151.926  1.00  0.00    -0.008 C 
ATOM     25  C   UNL     1     174.232 166.971 149.425  1.00  0.00    -0.027 C 
ATOM     26  C   UNL     1     174.374 166.508 150.689  1.00  0.00    -0.065 C 
ATOM     27  C   UNL     1     172.721 166.774 152.537  1.00  0.00     0.014 C 
ATOM     28  C   UNL     1     175.168 167.212 152.990  1.00  0.00     0.016 C 
ATOM     29  C   UNL     1     174.496 165.015 150.899  1.00  0.00     0.063 C 
ATOM     30  C   UNL     1     172.741 165.241 152.738  1.00  0.00     0.033 C 
ATOM     31  C   UNL     1     173.162 164.488 151.458  1.00  0.00     0.118 C 
BRANCH  31  32
ATOM     32  O   UNL     1     173.237 163.106 151.698  1.00  0.00    -0.393 OA
ATOM     33  H   UNL     1     173.041 162.641 150.843  1.00  0.00     0.210 HD
ENDBRANCH  31  32
ENDBRANCH  10  12
ENDBRANCH   8  10
ENDBRANCH   1   8
TORSDOF 8
ENDMDL
MODEL 3
REMARK VINA RESULT:    -5.763      4.753      8.526
REMARK INTER + INTRA:          -9.894
REMARK INTER:                  -8.875
REMARK INTRA:                  -1.019
REMARK UNBOUND:                -1.773
REMARK SMILES C[C@H](CO)CCC(=O)[C@H](C)[C@H]1C(=O)C[C@@H]2[C@H]3CC=C4C[C@@H](O)CC[C@]4(C)[C@H]3CC[C@@]21C
REMARK SMILES IDX 6 1 5 2 2 3 1 4 3 5 4 6 7 8 8 9 9 10 10 11 11 12 12 13 30 14
REMARK SMILES IDX 13 15 14 16 15 17 29 18 31 19 16 20 28 21 27 22 17 23 25 24
REMARK SMILES IDX 18 25 19 26 24 27 26 28 20 29 23 30 21 31 22 32
REMARK H PARENT 4 7 22 33
REMARK Flexibility Score: inf
ROOT
ATOM      1  C   UNL     1     172.424 161.038 149.643  1.00  0.00     0.076 C 
ENDROOT
BRANCH   1   2
ATOM      2  C   UNL     1     173.876 161.012 150.153  1.00  0.00     0.013 C 
BRANCH   2   3
ATOM      3  C   UNL     1     174.383 159.610 150.575  1.00  0.00     0.012 C 
ATOM      4  C   UNL     1     173.359 158.509 150.266  1.00  0.00     0.010 C 
BRANCH   3   5
ATOM      5  C   UNL     1     174.826 159.539 152.051  1.00  0.00     0.159 C 
BRANCH   5   6
ATOM      6  O   UNL     1     173.825 158.971 152.853  1.00  0.00    -0.396 OA
ATOM      7  H   UNL     1     173.424 158.231 152.326  1.00  0.00     0.210 HD
ENDBRANCH   5   6
ENDBRANCH   3   5
ENDBRANCH   2   3
ENDBRANCH   1   2
BRANCH   1   8
ATOM      8  C   UNL     1     171.557 161.894 150.538  1.00  0.00     0.136 C 
ATOM      9  O   UNL     1     170.475 162.275 150.119  1.00  0.00    -0.299 OA
BRANCH   8  10
ATOM     10  C   UNL     1     172.008 162.324 151.926  1.00  0.00     0.064 C 
ATOM     11  C   UNL     1     170.953 161.847 152.942  1.00  0.00     0.017 C 
BRANCH  10  12
ATOM     12  C   UNL     1     172.281 163.871 151.993  1.00  0.00     0.072 C 
ATOM     13  C   UNL     1     171.224 164.651 152.714  1.00  0.00     0.137 C 
ATOM     14  C   UNL     1     173.605 164.335 152.717  1.00  0.00    -0.019 C 
ATOM     15  O   UNL     1     170.036 164.598 152.434  1.00  0.00    -0.299 OA
ATOM     16  C   UNL     1     171.744 165.635 153.689  1.00  0.00     0.080 C 
ATOM     17  C   UNL     1     173.259 165.696 153.419  1.00  0.00     0.007 C 
ATOM     18  C   UNL     1     174.780 164.491 151.722  1.00  0.00     0.008 C 
ATOM     19  C   UNL     1     174.046 163.344 153.830  1.00  0.00     0.012 C 
ATOM     20  C   UNL     1     173.661 166.983 152.616  1.00  0.00     0.001 C 
ATOM     21  C   UNL     1     174.615 165.622 150.684  1.00  0.00     0.005 C 
ATOM     22  C   UNL     1     173.634 166.766 151.087  1.00  0.00     0.003 C 
ATOM     23  C   UNL     1     175.033 167.539 153.037  1.00  0.00     0.031 C 
ATOM     24  C   UNL     1     173.873 168.123 150.306  1.00  0.00    -0.008 C 
ATOM     25  C   UNL     1     175.410 168.749 152.227  1.00  0.00    -0.027 C 
ATOM     26  C   UNL     1     174.942 168.995 150.981  1.00  0.00    -0.065 C 
ATOM     27  C   UNL     1     172.549 168.958 150.285  1.00  0.00     0.014 C 
ATOM     28  C   UNL     1     174.279 167.824 148.834  1.00  0.00     0.016 C 
ATOM     29  C   UNL     1     175.183 170.363 150.381  1.00  0.00     0.063 C 
ATOM     30  C   UNL     1     172.716 170.392 149.731  1.00  0.00     0.033 C 
ATOM     31  C   UNL     1     173.865 171.155 150.422  1.00  0.00     0.118 C 
BRANCH  31  32
ATOM     32  O   UNL     1     174.032 172.426 149.846  1.00  0.00    -0.393 OA
ATOM     33  H   UNL     1     173.355 173.030 150.247  1.00  0.00     0.210 HD
ENDBRANCH  31  32
ENDBRANCH  10  12
ENDBRANCH   8  10
ENDBRANCH   1   8
TORSDOF 8
ENDMDL
MODEL 4
REMARK VINA RESULT:    -5.736      8.219     10.772
REMARK INTER + INTRA:          -9.856
REMARK INTER:                  -8.236
REMARK INTRA:                  -1.620
REMARK UNBOUND:                -1.773
REMARK SMILES C[C@H](CO)CCC(=O)[C@H](C)[C@H]1C(=O)C[C@@H]2[C@H]3CC=C4C[C@@H](O)CC[C@]4(C)[C@H]3CC[C@@]21C
REMARK SMILES IDX 6 1 5 2 2 3 1 4 3 5 4 6 7 8 8 9 9 10 10 11 11 12 12 13 30 14
REMARK SMILES IDX 13 15 14 16 15 17 29 18 31 19 16 20 28 21 27 22 17 23 25 24
REMARK SMILES IDX 18 25 19 26 24 27 26 28 20 29 23 30 21 31 22 32
REMARK H PARENT 4 7 22 33
REMARK Flexibility Score: inf
ROOT
ATOM      1  C   UNL     1     175.453 173.528 153.466  1.00  0.00     0.076 C 
ENDROOT
BRANCH   1   2
ATOM      2  C   UNL     1     175.185 172.296 154.348  1.00  0.00     0.013 C 
BRANCH   2   3
ATOM      3  C   UNL     1     174.086 172.502 155.421  1.00  0.00     0.012 C 
ATOM      4  C   UNL     1     172.742 171.896 154.993  1.00  0.00     0.010 C 
BRANCH   3   5
ATOM      5  C   UNL     1     173.908 173.976 155.839  1.00  0.00     0.159 C 
BRANCH   5   6
ATOM      6  O   UNL     1     172.769 174.537 155.241  1.00  0.00    -0.396 OA
ATOM      7  H   UNL     1     172.946 174.568 154.265  1.00  0.00     0.210 HD
ENDBRANCH   5   6
ENDBRANCH   3   5
ENDBRANCH   2   3
ENDBRANCH   1   2
BRANCH   1   8
ATOM      8  C   UNL     1     174.508 173.558 152.286  1.00  0.00     0.136 C 
ATOM      9  O   UNL     1     173.537 174.298 152.329  1.00  0.00    -0.299 OA
BRANCH   8  10
ATOM     10  C   UNL     1     174.710 172.668 151.068  1.00  0.00     0.064 C 
ATOM     11  C   UNL     1     174.360 173.488 149.812  1.00  0.00     0.017 C 
BRANCH  10  12
ATOM     12  C   UNL     1     173.890 171.331 151.185  1.00  0.00     0.072 C 
ATOM     13  C   UNL     1     172.665 171.283 150.324  1.00  0.00     0.137 C 
ATOM     14  C   UNL     1     174.636 169.995 150.796  1.00  0.00    -0.019 C 
ATOM     15  O   UNL     1     171.792 172.138 150.343  1.00  0.00    -0.299 OA
ATOM     16  C   UNL     1     172.497 170.026 149.563  1.00  0.00     0.080 C 
ATOM     17  C   UNL     1     173.548 169.066 150.150  1.00  0.00     0.007 C 
ATOM     18  C   UNL     1     175.298 169.327 152.025  1.00  0.00     0.008 C 
ATOM     19  C   UNL     1     175.737 170.227 149.724  1.00  0.00     0.012 C 
ATOM     20  C   UNL     1     172.907 168.014 151.121  1.00  0.00     0.001 C 
ATOM     21  C   UNL     1     174.316 168.799 153.093  1.00  0.00     0.005 C 
ATOM     22  C   UNL     1     172.872 168.497 152.587  1.00  0.00     0.003 C 
ATOM     23  C   UNL     1     173.597 166.639 151.043  1.00  0.00     0.031 C 
ATOM     24  C   UNL     1     172.066 167.491 153.508  1.00  0.00    -0.008 C 
ATOM     25  C   UNL     1     172.987 165.661 152.010  1.00  0.00    -0.027 C 
ATOM     26  C   UNL     1     172.347 166.026 153.146  1.00  0.00    -0.065 C 
ATOM     27  C   UNL     1     170.529 167.723 153.319  1.00  0.00     0.014 C 
ATOM     28  C   UNL     1     172.411 167.748 155.004  1.00  0.00     0.016 C 
ATOM     29  C   UNL     1     171.553 164.976 153.892  1.00  0.00     0.063 C 
ATOM     30  C   UNL     1     169.641 166.662 154.010  1.00  0.00     0.033 C 
ATOM     31  C   UNL     1     170.056 165.222 153.639  1.00  0.00     0.118 C 
BRANCH  31  32
ATOM     32  O   UNL     1     169.275 164.286 154.339  1.00  0.00    -0.393 OA
ATOM     33  H   UNL     1     169.796 163.991 155.131  1.00  0.00     0.210 HD
ENDBRANCH  31  32
ENDBRANCH  10  12
ENDBRANCH   8  10
ENDBRANCH   1   8
TORSDOF 8
ENDMDL
MODEL 5
REMARK VINA RESULT:    -5.670     11.777     14.330
REMARK INTER + INTRA:          -9.764
REMARK INTER:                  -8.571
REMARK INTRA:                  -1.193
REMARK UNBOUND:                -1.773
REMARK SMILES C[C@H](CO)CCC(=O)[C@H](C)[C@H]1C(=O)C[C@@H]2[C@H]3CC=C4C[C@@H](O)CC[C@]4(C)[C@H]3CC[C@@]21C
REMARK SMILES IDX 6 1 5 2 2 3 1 4 3 5 4 6 7 8 8 9 9 10 10 11 11 12 12 13 30 14
REMARK SMILES IDX 13 15 14 16 15 17 29 18 31 19 16 20 28 21 27 22 17 23 25 24
REMARK SMILES IDX 18 25 19 26 24 27 26 28 20 29 23 30 21 31 22 32
REMARK H PARENT 4 7 22 33
REMARK Flexibility Score: inf
ROOT
ATOM      1  C   UNL     1     172.439 170.560 149.631  1.00  0.00     0.076 C 
ENDROOT
BRANCH   1   2
ATOM      2  C   UNL     1     172.699 172.037 149.976  1.00  0.00     0.013 C 
BRANCH   2   3
ATOM      3  C   UNL     1     174.107 172.322 150.556  1.00  0.00     0.012 C 
ATOM      4  C   UNL     1     175.003 171.076 150.536  1.00  0.00     0.010 C 
BRANCH   3   5
ATOM      5  C   UNL     1     174.074 172.943 151.968  1.00  0.00     0.159 C 
BRANCH   5   6
ATOM      6  O   UNL     1     173.577 174.255 151.933  1.00  0.00    -0.396 OA
ATOM      7  H   UNL     1     173.018 174.325 151.114  1.00  0.00     0.210 HD
ENDBRANCH   5   6
ENDBRANCH   3   5
ENDBRANCH   2   3
ENDBRANCH   1   2
BRANCH   1   8
ATOM      8  C   UNL     1     171.380 169.976 150.537  1.00  0.00     0.136 C 
ATOM      9  O   UNL     1     170.698 169.051 150.125  1.00  0.00    -0.299 OA
BRANCH   8  10
ATOM     10  C   UNL     1     171.114 170.531 151.929  1.00  0.00     0.064 C 
ATOM     11  C   UNL     1     171.230 169.372 152.937  1.00  0.00     0.017 C 
BRANCH  10  12
ATOM     12  C   UNL     1     169.734 171.280 152.000  1.00  0.00     0.072 C 
ATOM     13  C   UNL     1     168.653 170.515 152.703  1.00  0.00     0.137 C 
ATOM     14  C   UNL     1     169.710 172.672 152.746  1.00  0.00    -0.019 C 
ATOM     15  O   UNL     1     168.328 169.376 152.403  1.00  0.00    -0.299 OA
ATOM     16  C   UNL     1     167.881 171.305 153.686  1.00  0.00     0.080 C 
ATOM     17  C   UNL     1     168.305 172.765 153.441  1.00  0.00     0.007 C 
ATOM     18  C   UNL     1     169.941 173.851 151.771  1.00  0.00     0.008 C 
ATOM     19  C   UNL     1     170.783 172.757 153.867  1.00  0.00     0.012 C 
ATOM     20  C   UNL     1     167.218 173.568 152.645  1.00  0.00     0.001 C 
ATOM     21  C   UNL     1     168.822 174.071 150.730  1.00  0.00     0.005 C 
ATOM     22  C   UNL     1     167.424 173.498 151.116  1.00  0.00     0.003 C 
ATOM     23  C   UNL     1     167.125 175.039 153.089  1.00  0.00     0.031 C 
ATOM     24  C   UNL     1     166.218 174.169 150.339  1.00  0.00    -0.008 C 
ATOM     25  C   UNL     1     166.102 175.794 152.285  1.00  0.00    -0.027 C 
ATOM     26  C   UNL     1     165.726 175.449 151.031  1.00  0.00    -0.065 C 
ATOM     27  C   UNL     1     165.006 173.179 150.294  1.00  0.00     0.014 C 
ATOM     28  C   UNL     1     166.638 174.482 148.874  1.00  0.00     0.016 C 
ATOM     29  C   UNL     1     164.510 176.122 150.434  1.00  0.00     0.063 C 
ATOM     30  C   UNL     1     163.702 173.802 149.742  1.00  0.00     0.033 C 
ATOM     31  C   UNL     1     163.340 175.123 150.453  1.00  0.00     0.118 C 
BRANCH  31  32
ATOM     32  O   UNL     1     162.191 175.695 149.879  1.00  0.00    -0.393 OA
ATOM     33  H   UNL     1     162.488 176.427 149.278  1.00  0.00     0.210 HD
ENDBRANCH  31  32
ENDBRANCH  10  12
ENDBRANCH   8  10
ENDBRANCH   1   8
TORSDOF 8
ENDMDL
MODEL 6
REMARK VINA RESULT:    -5.657      2.340      6.225
REMARK INTER + INTRA:          -9.746
REMARK INTER:                  -8.009
REMARK INTRA:                  -1.737
REMARK UNBOUND:                -1.773
REMARK SMILES C[C@H](CO)CCC(=O)[C@H](C)[C@H]1C(=O)C[C@@H]2[C@H]3CC=C4C[C@@H](O)CC[C@]4(C)[C@H]3CC[C@@]21C
REMARK SMILES IDX 6 1 5 2 2 3 1 4 3 5 4 6 7 8 8 9 9 10 10 11 11 12 12 13 30 14
REMARK SMILES IDX 13 15 14 16 15 17 29 18 31 19 16 20 28 21 27 22 17 23 25 24
REMARK SMILES IDX 18 25 19 26 24 27 26 28 20 29 23 30 21 31 22 32
REMARK H PARENT 4 7 22 33
REMARK Flexibility Score: inf
ROOT
ATOM      1  C   UNL     1     168.249 160.987 151.644  1.00  0.00     0.076 C 
ENDROOT
BRANCH   1   2
ATOM      2  C   UNL     1     167.311 159.771 151.731  1.00  0.00     0.013 C 
BRANCH   2   3
ATOM      3  C   UNL     1     167.458 158.938 153.029  1.00  0.00     0.012 C 
ATOM      4  C   UNL     1     168.806 159.184 153.723  1.00  0.00     0.010 C 
BRANCH   3   5
ATOM      5  C   UNL     1     167.226 157.428 152.817  1.00  0.00     0.159 C 
BRANCH   5   6
ATOM      6  O   UNL     1     168.440 156.750 152.632  1.00  0.00    -0.396 OA
ATOM      7  H   UNL     1     168.282 156.073 151.923  1.00  0.00     0.210 HD
ENDBRANCH   5   6
ENDBRANCH   3   5
ENDBRANCH   2   3
ENDBRANCH   1   2
BRANCH   1   8
ATOM      8  C   UNL     1     168.686 161.226 150.216  1.00  0.00     0.136 C 
ATOM      9  O   UNL     1     167.933 161.824 149.463  1.00  0.00    -0.299 OA
BRANCH   8  10
ATOM     10  C   UNL     1     170.015 160.711 149.683  1.00  0.00     0.064 C 
ATOM     11  C   UNL     1     169.722 159.746 148.518  1.00  0.00     0.017 C 
BRANCH  10  12
ATOM     12  C   UNL     1     170.884 160.063 150.822  1.00  0.00     0.072 C 
ATOM     13  C   UNL     1     171.089 158.586 150.676  1.00  0.00     0.137 C 
ATOM     14  C   UNL     1     172.360 160.600 150.992  1.00  0.00    -0.019 C 
ATOM     15  O   UNL     1     170.174 157.787 150.546  1.00  0.00    -0.299 OA
ATOM     16  C   UNL     1     172.485 158.137 150.873  1.00  0.00     0.080 C 
ATOM     17  C   UNL     1     173.219 159.365 151.441  1.00  0.00     0.007 C 
ATOM     18  C   UNL     1     172.437 161.752 152.022  1.00  0.00     0.008 C 
ATOM     19  C   UNL     1     172.957 161.112 149.652  1.00  0.00     0.012 C 
ATOM     20  C   UNL     1     173.457 159.244 152.987  1.00  0.00     0.001 C 
ATOM     21  C   UNL     1     172.114 161.353 153.478  1.00  0.00     0.005 C 
ATOM     22  C   UNL     1     172.301 159.842 153.819  1.00  0.00     0.003 C 
ATOM     23  C   UNL     1     174.793 159.868 153.431  1.00  0.00     0.031 C 
ATOM     24  C   UNL     1     172.489 159.551 155.364  1.00  0.00    -0.008 C 
ATOM     25  C   UNL     1     174.978 159.772 154.920  1.00  0.00    -0.027 C 
ATOM     26  C   UNL     1     173.955 159.685 155.802  1.00  0.00    -0.065 C 
ATOM     27  C   UNL     1     172.051 158.081 155.678  1.00  0.00     0.014 C 
ATOM     28  C   UNL     1     171.592 160.510 156.199  1.00  0.00     0.016 C 
ATOM     29  C   UNL     1     174.272 159.329 157.238  1.00  0.00     0.063 C 
ATOM     30  C   UNL     1     172.384 157.616 157.114  1.00  0.00     0.033 C 
ATOM     31  C   UNL     1     173.862 157.866 157.482  1.00  0.00     0.118 C 
BRANCH  31  32
ATOM     32  O   UNL     1     174.110 157.498 158.815  1.00  0.00    -0.393 OA
ATOM     33  H   UNL     1     175.007 157.845 159.062  1.00  0.00     0.210 HD
ENDBRANCH  31  32
ENDBRANCH  10  12
ENDBRANCH   8  10
ENDBRANCH   1   8
TORSDOF 8
ENDMDL
MODEL 7
REMARK VINA RESULT:    -5.380      1.494      2.330
REMARK INTER + INTRA:          -9.356
REMARK INTER:                  -8.205
REMARK INTRA:                  -1.151
REMARK UNBOUND:                -1.773
REMARK SMILES C[C@H](CO)CCC(=O)[C@H](C)[C@H]1C(=O)C[C@@H]2[C@H]3CC=C4C[C@@H](O)CC[C@]4(C)[C@H]3CC[C@@]21C
REMARK SMILES IDX 6 1 5 2 2 3 1 4 3 5 4 6 7 8 8 9 9 10 10 11 11 12 12 13 30 14
REMARK SMILES IDX 13 15 14 16 15 17 29 18 31 19 16 20 28 21 27 22 17 23 25 24
REMARK SMILES IDX 18 25 19 26 24 27 26 28 20 29 23 30 21 31 22 32
REMARK H PARENT 4 7 22 33
REMARK Flexibility Score: inf
ROOT
ATOM      1  C   UNL     1     174.143 160.161 153.908  1.00  0.00     0.076 C 
ENDROOT
BRANCH   1   2
ATOM      2  C   UNL     1     174.345 158.818 154.632  1.00  0.00     0.013 C 
BRANCH   2   3
ATOM      3  C   UNL     1     173.212 158.445 155.620  1.00  0.00     0.012 C 
ATOM      4  C   UNL     1     173.397 159.113 156.990  1.00  0.00     0.010 C 
BRANCH   3   5
ATOM      5  C   UNL     1     173.017 156.923 155.782  1.00  0.00     0.159 C 
BRANCH   5   6
ATOM      6  O   UNL     1     174.247 156.248 155.735  1.00  0.00    -0.396 OA
ATOM      7  H   UNL     1     174.270 155.760 154.870  1.00  0.00     0.210 HD
ENDBRANCH   5   6
ENDBRANCH   3   5
ENDBRANCH   2   3
ENDBRANCH   1   2
BRANCH   1   8
ATOM      8  C   UNL     1     174.945 160.205 152.627  1.00  0.00     0.136 C 
ATOM      9  O   UNL     1     176.033 160.760 152.634  1.00  0.00    -0.299 OA
BRANCH   8  10
ATOM     10  C   UNL     1     174.422 159.613 151.327  1.00  0.00     0.064 C 
ATOM     11  C   UNL     1     175.136 160.318 150.158  1.00  0.00     0.017 C 
BRANCH  10  12
ATOM     12  C   UNL     1     172.854 159.701 151.240  1.00  0.00     0.072 C 
ATOM     13  C   UNL     1     172.347 160.750 150.297  1.00  0.00     0.137 C 
ATOM     14  C   UNL     1     172.089 158.407 150.758  1.00  0.00    -0.019 C 
ATOM     15  O   UNL     1     172.682 161.924 150.350  1.00  0.00    -0.299 OA
ATOM     16  C   UNL     1     171.269 160.294 149.393  1.00  0.00     0.080 C 
ATOM     17  C   UNL     1     170.849 158.918 149.942  1.00  0.00     0.007 C 
ATOM     18  C   UNL     1     171.657 157.517 151.950  1.00  0.00     0.008 C 
ATOM     19  C   UNL     1     172.947 157.539 149.797  1.00  0.00     0.012 C 
ATOM     20  C   UNL     1     169.503 158.991 150.745  1.00  0.00     0.001 C 
ATOM     21  C   UNL     1     170.597 158.140 152.884  1.00  0.00     0.005 C 
ATOM     22  C   UNL     1     169.720 159.263 152.250  1.00  0.00     0.003 C 
ATOM     23  C   UNL     1     168.637 157.731 150.565  1.00  0.00     0.031 C 
ATOM     24  C   UNL     1     168.344 159.503 152.998  1.00  0.00    -0.008 C 
ATOM     25  C   UNL     1     167.372 157.811 151.374  1.00  0.00    -0.027 C 
ATOM     26  C   UNL     1     167.243 158.557 152.497  1.00  0.00    -0.065 C 
ATOM     27  C   UNL     1     167.849 160.964 152.730  1.00  0.00     0.014 C 
ATOM     28  C   UNL     1     168.537 159.333 154.533  1.00  0.00     0.016 C 
ATOM     29  C   UNL     1     165.857 158.762 153.068  1.00  0.00     0.063 C 
ATOM     30  C   UNL     1     166.416 161.247 153.238  1.00  0.00     0.033 C 
ATOM     31  C   UNL     1     165.401 160.195 152.741  1.00  0.00     0.118 C 
BRANCH  31  32
ATOM     32  O   UNL     1     164.127 160.444 153.279  1.00  0.00    -0.393 OA
ATOM     33  H   UNL     1     163.479 160.450 152.528  1.00  0.00     0.210 HD
ENDBRANCH  31  32
ENDBRANCH  10  12
ENDBRANCH   8  10
ENDBRANCH   1   8
TORSDOF 8
ENDMDL
MODEL 8
REMARK VINA RESULT:    -5.376      3.105      7.079
REMARK INTER + INTRA:          -9.349
REMARK INTER:                  -8.990
REMARK INTRA:                  -0.359
REMARK UNBOUND:                -1.773
REMARK SMILES C[C@H](CO)CCC(=O)[C@H](C)[C@H]1C(=O)C[C@@H]2[C@H]3CC=C4C[C@@H](O)CC[C@]4(C)[C@H]3CC[C@@]21C
REMARK SMILES IDX 6 1 5 2 2 3 1 4 3 5 4 6 7 8 8 9 9 10 10 11 11 12 12 13 30 14
REMARK SMILES IDX 13 15 14 16 15 17 29 18 31 19 16 20 28 21 27 22 17 23 25 24
REMARK SMILES IDX 18 25 19 26 24 27 26 28 20 29 23 30 21 31 22 32
REMARK H PARENT 4 7 22 33
REMARK Flexibility Score: inf
ROOT
ATOM      1  C   UNL     1     173.779 164.532 151.356  1.00  0.00     0.076 C 
ENDROOT
BRANCH   1   2
ATOM      2  C   UNL     1     174.727 165.492 150.616  1.00  0.00     0.013 C 
BRANCH   2   3
ATOM      3  C   UNL     1     174.116 166.880 150.298  1.00  0.00     0.012 C 
ATOM      4  C   UNL     1     174.627 167.444 148.965  1.00  0.00     0.010 C 
BRANCH   3   5
ATOM      5  C   UNL     1     174.310 167.908 151.432  1.00  0.00     0.159 C 
BRANCH   5   6
ATOM      6  O   UNL     1     175.274 167.470 152.353  1.00  0.00    -0.396 OA
ATOM      7  H   UNL     1     175.029 167.866 153.230  1.00  0.00     0.210 HD
ENDBRANCH   5   6
ENDBRANCH   3   5
ENDBRANCH   2   3
ENDBRANCH   1   2
BRANCH   1   8
ATOM      8  C   UNL     1     174.498 163.259 151.740  1.00  0.00     0.136 C 
ATOM      9  O   UNL     1     175.610 163.339 152.240  1.00  0.00    -0.299 OA
BRANCH   8  10
ATOM     10  C   UNL     1     173.895 161.885 151.488  1.00  0.00     0.064 C 
ATOM     11  C   UNL     1     172.712 162.052 150.516  1.00  0.00     0.017 C 
BRANCH  10  12
ATOM     12  C   UNL     1     173.499 161.171 152.832  1.00  0.00     0.072 C 
ATOM     13  C   UNL     1     172.061 161.341 153.219  1.00  0.00     0.137 C 
ATOM     14  C   UNL     1     173.689 159.605 152.896  1.00  0.00    -0.019 C 
ATOM     15  O   UNL     1     171.513 162.429 153.318  1.00  0.00    -0.299 OA
ATOM     16  C   UNL     1     171.388 160.095 153.645  1.00  0.00     0.080 C 
ATOM     17  C   UNL     1     172.522 159.065 153.797  1.00  0.00     0.007 C 
ATOM     18  C   UNL     1     175.074 159.216 153.467  1.00  0.00     0.008 C 
ATOM     19  C   UNL     1     173.539 158.937 151.501  1.00  0.00     0.012 C 
ATOM     20  C   UNL     1     172.897 158.821 155.301  1.00  0.00     0.001 C 
ATOM     21  C   UNL     1     175.301 159.588 154.948  1.00  0.00     0.005 C 
ATOM     22  C   UNL     1     174.008 159.770 155.801  1.00  0.00     0.003 C 
ATOM     23  C   UNL     1     173.296 157.361 155.582  1.00  0.00     0.031 C 
ATOM     24  C   UNL     1     174.240 159.617 157.360  1.00  0.00    -0.008 C 
ATOM     25  C   UNL     1     173.686 157.164 157.021  1.00  0.00    -0.027 C 
ATOM     26  C   UNL     1     174.163 158.152 157.814  1.00  0.00    -0.065 C 
ATOM     27  C   UNL     1     173.126 160.396 158.136  1.00  0.00     0.014 C 
ATOM     28  C   UNL     1     175.617 160.226 157.754  1.00  0.00     0.016 C 
ATOM     29  C   UNL     1     174.268 157.893 159.301  1.00  0.00     0.063 C 
ATOM     30  C   UNL     1     173.129 160.148 159.662  1.00  0.00     0.033 C 
ATOM     31  C   UNL     1     173.128 158.644 160.010  1.00  0.00     0.118 C 
BRANCH  31  32
ATOM     32  O   UNL     1     173.202 158.458 161.401  1.00  0.00    -0.393 OA
ATOM     33  H   UNL     1     173.023 159.334 161.832  1.00  0.00     0.210 HD
ENDBRANCH  31  32
ENDBRANCH  10  12
ENDBRANCH   8  10
ENDBRANCH   1   8
TORSDOF 8
ENDMDL
MODEL 9
REMARK VINA RESULT:    -5.371      9.684     12.584
REMARK INTER + INTRA:          -9.342
REMARK INTER:                  -7.900
REMARK INTRA:                  -1.443
REMARK UNBOUND:                -1.773
REMARK SMILES C[C@H](CO)CCC(=O)[C@H](C)[C@H]1C(=O)C[C@@H]2[C@H]3CC=C4C[C@@H](O)CC[C@]4(C)[C@H]3CC[C@@]21C
REMARK SMILES IDX 6 1 5 2 2 3 1 4 3 5 4 6 7 8 8 9 9 10 10 11 11 12 12 13 30 14
REMARK SMILES IDX 13 15 14 16 15 17 29 18 31 19 16 20 28 21 27 22 17 23 25 24
REMARK SMILES IDX 18 25 19 26 24 27 26 28 20 29 23 30 21 31 22 32
REMARK H PARENT 4 7 22 33
REMARK Flexibility Score: inf
ROOT
ATOM      1  C   UNL     1     175.049 170.673 150.463  1.00  0.00     0.076 C 
ENDROOT
BRANCH   1   2
ATOM      2  C   UNL     1     174.920 171.803 151.500  1.00  0.00     0.013 C 
BRANCH   2   3
ATOM      3  C   UNL     1     174.079 173.015 151.026  1.00  0.00     0.012 C 
ATOM      4  C   UNL     1     173.174 172.661 149.837  1.00  0.00     0.010 C 
BRANCH   3   5
ATOM      5  C   UNL     1     174.929 174.263 150.708  1.00  0.00     0.159 C 
BRANCH   5   6
ATOM      6  O   UNL     1     175.259 174.315 149.345  1.00  0.00    -0.396 OA
ATOM      7  H   UNL     1     174.569 173.786 148.865  1.00  0.00     0.210 HD
ENDBRANCH   5   6
ENDBRANCH   3   5
ENDBRANCH   2   3
ENDBRANCH   1   2
BRANCH   1   8
ATOM      8  C   UNL     1     175.014 169.321 151.137  1.00  0.00     0.136 C 
ATOM      9  O   UNL     1     175.975 168.972 151.806  1.00  0.00    -0.299 OA
BRANCH   8  10
ATOM     10  C   UNL     1     173.837 168.370 150.976  1.00  0.00     0.064 C 
ATOM     11  C   UNL     1     173.996 167.634 149.632  1.00  0.00     0.017 C 
BRANCH  10  12
ATOM     12  C   UNL     1     172.463 169.121 151.114  1.00  0.00     0.072 C 
ATOM     13  C   UNL     1     171.426 168.695 150.120  1.00  0.00     0.137 C 
ATOM     14  C   UNL     1     171.700 168.974 152.490  1.00  0.00    -0.019 C 
ATOM     15  O   UNL     1     171.610 168.689 148.912  1.00  0.00    -0.299 OA
ATOM     16  C   UNL     1     170.088 168.441 150.698  1.00  0.00     0.080 C 
ATOM     17  C   UNL     1     170.170 168.980 152.138  1.00  0.00     0.007 C 
ATOM     18  C   UNL     1     172.062 170.115 153.472  1.00  0.00     0.008 C 
ATOM     19  C   UNL     1     172.006 167.622 153.190  1.00  0.00     0.012 C 
ATOM     20  C   UNL     1     169.455 170.368 152.288  1.00  0.00     0.001 C 
ATOM     21  C   UNL     1     171.598 171.523 153.041  1.00  0.00     0.005 C 
ATOM     22  C   UNL     1     170.405 171.560 152.037  1.00  0.00     0.003 C 
ATOM     23  C   UNL     1     168.765 170.533 153.654  1.00  0.00     0.031 C 
ATOM     24  C   UNL     1     169.618 172.934 152.026  1.00  0.00    -0.008 C 
ATOM     25  C   UNL     1     168.120 171.886 153.786  1.00  0.00    -0.027 C 
ATOM     26  C   UNL     1     168.526 172.983 153.105  1.00  0.00    -0.065 C 
ATOM     27  C   UNL     1     168.904 173.119 150.644  1.00  0.00     0.014 C 
ATOM     28  C   UNL     1     170.611 174.117 152.217  1.00  0.00     0.016 C 
ATOM     29  C   UNL     1     167.640 174.209 153.122  1.00  0.00     0.063 C 
ATOM     30  C   UNL     1     167.937 174.324 150.590  1.00  0.00     0.033 C 
ATOM     31  C   UNL     1     166.931 174.320 151.761  1.00  0.00     0.118 C 
BRANCH  31  32
ATOM     32  O   UNL     1     166.117 175.464 151.719  1.00  0.00    -0.393 OA
ATOM     33  H   UNL     1     165.174 175.167 151.807  1.00  0.00     0.210 HD
ENDBRANCH  31  32
ENDBRANCH  10  12
ENDBRANCH   8  10
ENDBRANCH   1   8
TORSDOF 8
ENDMDL
