MODEL 1
REMARK VINA RESULT:    -3.772      0.000      0.000
REMARK INTER + INTRA:          -4.011
REMARK INTER:                  -3.992
REMARK INTRA:                  -0.019
REMARK UNBOUND:                -0.019
REMARK SMILES O=C([O-])c1cccnc1
REMARK SMILES IDX 4 1 5 2 9 3 6 4 8 5 7 6 2 7 1 8 3 9
REMARK H PARENT
REMARK Flexibility Score: inf
ROOT
ATOM      1  C   UNL     1      38.667  -7.405  10.070  1.00  0.00     0.016 A 
ATOM      2  C   UNL     1      38.505  -6.546   8.970  1.00  0.00     0.013 A 
ATOM      3  C   UNL     1      39.812  -8.217  10.119  1.00  0.00     0.120 A 
ATOM      4  C   UNL     1      39.466  -6.513   7.959  1.00  0.00     0.021 A 
ATOM      5  N   UNL     1      40.734  -8.166   9.121  1.00  0.00    -0.264 NA
ATOM      6  C   UNL     1      40.587  -7.340   8.052  1.00  0.00     0.111 A 
ENDROOT
BRANCH   1   7
ATOM      7  C   UNL     1      37.660  -7.455  11.151  1.00  0.00     0.073 C 
ATOM      8  O   UNL     1      36.445  -7.662  10.887  1.00  0.00    -0.545 OA
ATOM      9  O   UNL     1      38.040  -7.275  12.477  1.00  0.00    -0.545 OA
ENDBRANCH   1   7
TORSDOF 1
ENDMDL
MODEL 2
REMARK VINA RESULT:    -3.763      3.423      5.243
REMARK INTER + INTRA:          -4.002
REMARK INTER:                  -3.984
REMARK INTRA:                  -0.018
REMARK UNBOUND:                -0.019
REMARK SMILES O=C([O-])c1cccnc1
REMARK SMILES IDX 4 1 5 2 9 3 6 4 8 5 7 6 2 7 1 8 3 9
REMARK H PARENT
REMARK Flexibility Score: inf
ROOT
ATOM      1  C   UNL     1      37.045  -7.459  12.565  1.00  0.00     0.016 A 
ATOM      2  C   UNL     1      37.111  -6.529  13.616  1.00  0.00     0.013 A 
ATOM      3  C   UNL     1      35.986  -8.382  12.557  1.00  0.00     0.120 A 
ATOM      4  C   UNL     1      36.142  -6.535  14.620  1.00  0.00     0.021 A 
ATOM      5  N   UNL     1      35.054  -8.367  13.547  1.00  0.00    -0.264 NA
ATOM      6  C   UNL     1      35.109  -7.473  14.568  1.00  0.00     0.111 A 
ENDROOT
BRANCH   1   7
ATOM      7  C   UNL     1      38.062  -7.468  11.492  1.00  0.00     0.073 C 
ATOM      8  O   UNL     1      39.281  -7.631  11.766  1.00  0.00    -0.545 OA
ATOM      9  O   UNL     1      37.686  -7.297  10.164  1.00  0.00    -0.545 OA
ENDBRANCH   1   7
TORSDOF 1
ENDMDL
MODEL 3
REMARK VINA RESULT:    -3.557      4.569      5.641
REMARK INTER + INTRA:          -3.784
REMARK INTER:                  -3.763
REMARK INTRA:                  -0.021
REMARK UNBOUND:                -0.019
REMARK SMILES O=C([O-])c1cccnc1
REMARK SMILES IDX 4 1 5 2 9 3 6 4 8 5 7 6 2 7 1 8 3 9
REMARK H PARENT
REMARK Flexibility Score: inf
ROOT
ATOM      1  C   UNL     1      35.170  -7.588  14.326  1.00  0.00     0.016 A 
ATOM      2  C   UNL     1      36.080  -6.551  14.589  1.00  0.00     0.013 A 
ATOM      3  C   UNL     1      35.436  -8.453  13.251  1.00  0.00     0.120 A 
ATOM      4  C   UNL     1      37.216  -6.395  13.793  1.00  0.00     0.021 A 
ATOM      5  N   UNL     1      36.551  -8.280  12.491  1.00  0.00    -0.264 NA
ATOM      6  C   UNL     1      37.437  -7.280  12.736  1.00  0.00     0.111 A 
ENDROOT
BRANCH   1   7
ATOM      7  C   UNL     1      33.961  -7.770  15.158  1.00  0.00     0.073 C 
ATOM      8  O   UNL     1      32.903  -8.234  14.656  1.00  0.00    -0.545 OA
ATOM      9  O   UNL     1      33.977  -7.430  16.506  1.00  0.00    -0.545 OA
ENDBRANCH   1   7
TORSDOF 1
ENDMDL
MODEL 4
REMARK VINA RESULT:    -3.532      3.325      4.144
REMARK INTER + INTRA:          -3.757
REMARK INTER:                  -3.735
REMARK INTRA:                  -0.022
REMARK UNBOUND:                -0.019
REMARK SMILES O=C([O-])c1cccnc1
REMARK SMILES IDX 4 1 5 2 9 3 6 4 8 5 7 6 2 7 1 8 3 9
REMARK H PARENT
REMARK Flexibility Score: inf
ROOT
ATOM      1  C   UNL     1      40.512  -7.609   8.380  1.00  0.00     0.016 A 
ATOM      2  C   UNL     1      39.587  -6.586   8.106  1.00  0.00     0.013 A 
ATOM      3  C   UNL     1      40.250  -8.475   9.454  1.00  0.00     0.120 A 
ATOM      4  C   UNL     1      38.442  -6.447   8.892  1.00  0.00     0.021 A 
ATOM      5  N   UNL     1      39.127  -8.318  10.205  1.00  0.00    -0.264 NA
ATOM      6  C   UNL     1      38.227  -7.333   9.950  1.00  0.00     0.111 A 
ENDROOT
BRANCH   1   7
ATOM      7  C   UNL     1      41.730  -7.772   7.559  1.00  0.00     0.073 C 
ATOM      8  O   UNL     1      42.774  -8.274   8.054  1.00  0.00    -0.545 OA
ATOM      9  O   UNL     1      41.740  -7.374   6.226  1.00  0.00    -0.545 OA
ENDBRANCH   1   7
TORSDOF 1
ENDMDL
MODEL 5
REMARK VINA RESULT:    -3.531      3.201      3.848
REMARK INTER + INTRA:          -3.756
REMARK INTER:                  -3.740
REMARK INTRA:                  -0.016
REMARK UNBOUND:                -0.019
REMARK SMILES O=C([O-])c1cccnc1
REMARK SMILES IDX 4 1 5 2 9 3 6 4 8 5 7 6 2 7 1 8 3 9
REMARK H PARENT
REMARK Flexibility Score: inf
ROOT
ATOM      1  C   UNL     1      36.999  -7.853  13.008  1.00  0.00     0.016 A 
ATOM      2  C   UNL     1      38.006  -7.377  12.150  1.00  0.00     0.013 A 
ATOM      3  C   UNL     1      36.965  -9.227  13.298  1.00  0.00     0.120 A 
ATOM      4  C   UNL     1      38.940  -8.260  11.608  1.00  0.00     0.021 A 
ATOM      5  N   UNL     1      37.888 -10.067  12.756  1.00  0.00    -0.264 NA
ATOM      6  C   UNL     1      38.864  -9.617  11.926  1.00  0.00     0.111 A 
ENDROOT
BRANCH   1   7
ATOM      7  C   UNL     1      36.000  -6.934  13.592  1.00  0.00     0.073 C 
ATOM      8  O   UNL     1      35.051  -6.490  12.892  1.00  0.00    -0.545 OA
ATOM      9  O   UNL     1      36.093  -6.547  14.924  1.00  0.00    -0.545 OA
ENDBRANCH   1   7
TORSDOF 1
ENDMDL
MODEL 6
REMARK VINA RESULT:    -3.479      2.594      3.491
REMARK INTER + INTRA:          -3.701
REMARK INTER:                  -3.684
REMARK INTRA:                  -0.017
REMARK UNBOUND:                -0.019
REMARK SMILES O=C([O-])c1cccnc1
REMARK SMILES IDX 4 1 5 2 9 3 6 4 8 5 7 6 2 7 1 8 3 9
REMARK H PARENT
REMARK Flexibility Score: inf
ROOT
ATOM      1  C   UNL     1      38.674  -7.830   9.526  1.00  0.00     0.016 A 
ATOM      2  C   UNL     1      37.678  -7.410  10.423  1.00  0.00     0.013 A 
ATOM      3  C   UNL     1      38.770  -9.200   9.229  1.00  0.00     0.120 A 
ATOM      4  C   UNL     1      36.813  -8.342  10.997  1.00  0.00     0.021 A 
ATOM      5  N   UNL     1      37.915 -10.088   9.802  1.00  0.00    -0.264 NA
ATOM      6  C   UNL     1      36.948  -9.693  10.671  1.00  0.00     0.111 A 
ENDROOT
BRANCH   1   7
ATOM      7  C   UNL     1      39.601  -6.858   8.907  1.00  0.00     0.073 C 
ATOM      8  O   UNL     1      39.518  -6.586   7.680  1.00  0.00    -0.545 OA
ATOM      9  O   UNL     1      40.576  -6.229   9.673  1.00  0.00    -0.545 OA
ENDBRANCH   1   7
TORSDOF 1
ENDMDL
MODEL 7
REMARK VINA RESULT:    -3.421      2.858      3.846
REMARK INTER + INTRA:          -3.640
REMARK INTER:                  -3.623
REMARK INTRA:                  -0.017
REMARK UNBOUND:                -0.019
REMARK SMILES O=C([O-])c1cccnc1
REMARK SMILES IDX 4 1 5 2 9 3 6 4 8 5 7 6 2 7 1 8 3 9
REMARK H PARENT
REMARK Flexibility Score: inf
ROOT
ATOM      1  C   UNL     1      38.683  -7.886   9.569  1.00  0.00     0.016 A 
ATOM      2  C   UNL     1      38.776  -9.261   9.294  1.00  0.00     0.013 A 
ATOM      3  C   UNL     1      37.671  -7.447  10.440  1.00  0.00     0.120 A 
ATOM      4  C   UNL     1      37.879 -10.156   9.879  1.00  0.00     0.021 A 
ATOM      5  N   UNL     1      36.810  -8.340  10.997  1.00  0.00    -0.264 NA
ATOM      6  C   UNL     1      36.891  -9.671  10.737  1.00  0.00     0.111 A 
ENDROOT
BRANCH   1   7
ATOM      7  C   UNL     1      39.623  -6.923   8.959  1.00  0.00     0.073 C 
ATOM      8  O   UNL     1      40.512  -6.365   9.658  1.00  0.00    -0.545 OA
ATOM      9  O   UNL     1      39.540  -6.618   7.605  1.00  0.00    -0.545 OA
ENDBRANCH   1   7
TORSDOF 1
ENDMDL
MODEL 8
REMARK VINA RESULT:    -3.382      8.609      9.218
REMARK INTER + INTRA:          -3.599
REMARK INTER:                  -3.580
REMARK INTRA:                  -0.019
REMARK UNBOUND:                -0.019
REMARK SMILES O=C([O-])c1cccnc1
REMARK SMILES IDX 4 1 5 2 9 3 6 4 8 5 7 6 2 7 1 8 3 9
REMARK H PARENT
REMARK Flexibility Score: inf
ROOT
ATOM      1  C   UNL     1      40.552  -5.047   1.781  1.00  0.00     0.016 A 
ATOM      2  C   UNL     1      40.940  -4.391   2.962  1.00  0.00     0.013 A 
ATOM      3  C   UNL     1      39.471  -4.526   1.053  1.00  0.00     0.120 A 
ATOM      4  C   UNL     1      40.258  -3.250   3.387  1.00  0.00     0.021 A 
ATOM      5  N   UNL     1      38.822  -3.413   1.488  1.00  0.00    -0.264 NA
ATOM      6  C   UNL     1      39.188  -2.771   2.628  1.00  0.00     0.111 A 
ENDROOT
BRANCH   1   7
ATOM      7  C   UNL     1      41.263  -6.257   1.315  1.00  0.00     0.073 C 
ATOM      8  O   UNL     1      40.621  -7.287   0.977  1.00  0.00    -0.545 OA
ATOM      9  O   UNL     1      42.651  -6.274   1.242  1.00  0.00    -0.545 OA
ENDBRANCH   1   7
TORSDOF 1
ENDMDL
MODEL 9
REMARK VINA RESULT:    -3.289     10.820     11.800
REMARK INTER + INTRA:          -3.500
REMARK INTER:                  -3.484
REMARK INTRA:                  -0.016
REMARK UNBOUND:                -0.019
REMARK SMILES O=C([O-])c1cccnc1
REMARK SMILES IDX 4 1 5 2 9 3 6 4 8 5 7 6 2 7 1 8 3 9
REMARK H PARENT
REMARK Flexibility Score: inf
ROOT
ATOM      1  C   UNL     1      34.909  -4.659  19.989  1.00  0.00     0.016 A 
ATOM      2  C   UNL     1      36.212  -4.302  20.376  1.00  0.00     0.013 A 
ATOM      3  C   UNL     1      33.875  -3.730  20.190  1.00  0.00     0.120 A 
ATOM      4  C   UNL     1      36.456  -3.051  20.945  1.00  0.00     0.021 A 
ATOM      5  N   UNL     1      34.139  -2.518  20.747  1.00  0.00    -0.264 NA
ATOM      6  C   UNL     1      35.395  -2.162  21.125  1.00  0.00     0.111 A 
ENDROOT
BRANCH   1   7
ATOM      7  C   UNL     1      34.630  -5.979  19.384  1.00  0.00     0.073 C 
ATOM      8  O   UNL     1      34.076  -6.888  20.058  1.00  0.00    -0.545 OA
ATOM      9  O   UNL     1      34.974  -6.235  18.062  1.00  0.00    -0.545 OA
ENDBRANCH   1   7
TORSDOF 1
ENDMDL
