MODEL 1
REMARK VINA RESULT:    -4.026      0.000      0.000
REMARK INTER + INTRA:         -13.604
REMARK INTER:                  -9.205
REMARK INTRA:                  -4.399
REMARK UNBOUND:                -4.399
REMARK SMILES CCCCCCCCCCCCCCCCCCCCCCCC(=O)[O-]
REMARK SMILES IDX 13 1 14 2 15 3 16 4 17 5 18 6 19 7 20 8 21 9 22 10 23 11
REMARK SMILES IDX 24 12 25 13 26 14 12 15 11 16 10 17 9 18 8 19 7 20 6 21 5 22
REMARK SMILES IDX 4 23 3 24 2 25 1 26
REMARK H PARENT
REMARK Flexibility Score: inf
ROOT
ATOM      1  C   UNL     1      25.647   2.496   7.663  1.00  0.00     0.000 C 
ENDROOT
BRANCH   1   2
ATOM      2  C   UNL     1      26.851   2.816   6.763  1.00  0.00     0.000 C 
BRANCH   2   3
ATOM      3  C   UNL     1      28.203   2.534   7.443  1.00  0.00     0.000 C 
BRANCH   3   4
ATOM      4  C   UNL     1      28.110   2.073   8.909  1.00  0.00     0.000 C 
BRANCH   4   5
ATOM      5  C   UNL     1      28.855   0.757   9.172  1.00  0.00     0.000 C 
BRANCH   5   6
ATOM      6  C   UNL     1      27.983  -0.451   8.808  1.00  0.00     0.000 C 
BRANCH   6   7
ATOM      7  C   UNL     1      28.644  -1.300   7.716  1.00  0.00     0.000 C 
BRANCH   7   8
ATOM      8  C   UNL     1      27.747  -1.399   6.474  1.00  0.00     0.000 C 
BRANCH   8   9
ATOM      9  C   UNL     1      26.295  -0.967   6.746  1.00  0.00     0.000 C 
BRANCH   9  10
ATOM     10  C   UNL     1      25.491  -0.558   5.495  1.00  0.00     0.006 C 
BRANCH  10  11
ATOM     11  C   UNL     1      26.285   0.263   4.466  1.00  0.00     0.053 C 
BRANCH  11  12
ATOM     12  C   UNL     1      25.509   0.482   3.203  1.00  0.00     0.041 C 
ATOM     13  O   UNL     1      26.078   0.380   2.085  1.00  0.00    -0.550 OA
ATOM     14  O   UNL     1      24.165   0.829   3.263  1.00  0.00    -0.550 OA
ENDBRANCH  11  12
ENDBRANCH  10  11
ENDBRANCH   9  10
ENDBRANCH   8   9
ENDBRANCH   7   8
ENDBRANCH   6   7
ENDBRANCH   5   6
ENDBRANCH   4   5
ENDBRANCH   3   4
ENDBRANCH   2   3
ENDBRANCH   1   2
BRANCH   1  15
ATOM     15  C   UNL     1      24.347   3.035   7.047  1.00  0.00     0.000 C 
BRANCH  15  16
ATOM     16  C   UNL     1      24.318   4.570   6.960  1.00  0.00     0.000 C 
BRANCH  16  17
ATOM     17  C   UNL     1      22.975   5.163   7.418  1.00  0.00     0.000 C 
BRANCH  17  18
ATOM     18  C   UNL     1      23.144   6.389   8.335  1.00  0.00    -0.000 C 
BRANCH  18  19
ATOM     19  C   UNL     1      22.817   6.143   9.820  1.00  0.00    -0.000 C 
BRANCH  19  20
ATOM     20  C   UNL     1      24.074   6.035  10.700  1.00  0.00    -0.000 C 
BRANCH  20  21
ATOM     21  C   UNL     1      24.754   4.661  10.588  1.00  0.00    -0.000 C 
BRANCH  21  22
ATOM     22  C   UNL     1      26.278   4.774  10.399  1.00  0.00    -0.000 C 
BRANCH  22  23
ATOM     23  C   UNL     1      26.714   6.160   9.901  1.00  0.00    -0.000 C 
BRANCH  23  24
ATOM     24  C   UNL     1      27.054   6.167   8.401  1.00  0.00    -0.000 C 
BRANCH  24  25
ATOM     25  C   UNL     1      26.722   7.509   7.728  1.00  0.00    -0.003 C 
ATOM     26  C   UNL     1      26.096   8.517   8.692  1.00  0.00     0.004 C 
ENDBRANCH  24  25
ENDBRANCH  23  24
ENDBRANCH  22  23
ENDBRANCH  21  22
ENDBRANCH  20  21
ENDBRANCH  19  20
ENDBRANCH  18  19
ENDBRANCH  17  18
ENDBRANCH  16  17
ENDBRANCH  15  16
ENDBRANCH   1  15
TORSDOF 22
ENDMDL
MODEL 2
REMARK VINA RESULT:    -3.879      1.772      3.559
REMARK INTER + INTRA:         -13.266
REMARK INTER:                  -9.876
REMARK INTRA:                  -3.390
REMARK UNBOUND:                -4.399
REMARK SMILES CCCCCCCCCCCCCCCCCCCCCCCC(=O)[O-]
REMARK SMILES IDX 13 1 14 2 15 3 16 4 17 5 18 6 19 7 20 8 21 9 22 10 23 11
REMARK SMILES IDX 24 12 25 13 26 14 12 15 11 16 10 17 9 18 8 19 7 20 6 21 5 22
REMARK SMILES IDX 4 23 3 24 2 25 1 26
REMARK H PARENT
REMARK Flexibility Score: inf
ROOT
ATOM      1  C   UNL     1      25.449   4.241   9.715  1.00  0.00     0.000 C 
ENDROOT
BRANCH   1   2
ATOM      2  C   UNL     1      26.862   4.823   9.867  1.00  0.00     0.000 C 
BRANCH   2   3
ATOM      3  C   UNL     1      27.777   3.957  10.752  1.00  0.00     0.000 C 
BRANCH   3   4
ATOM      4  C   UNL     1      28.683   2.975   9.986  1.00  0.00     0.000 C 
BRANCH   4   5
ATOM      5  C   UNL     1      28.909   3.384   8.524  1.00  0.00     0.000 C 
BRANCH   5   6
ATOM      6  C   UNL     1      28.436   2.284   7.565  1.00  0.00     0.000 C 
BRANCH   6   7
ATOM      7  C   UNL     1      27.855   1.093   8.336  1.00  0.00     0.000 C 
BRANCH   7   8
ATOM      8  C   UNL     1      26.499   0.667   7.754  1.00  0.00     0.000 C 
BRANCH   8   9
ATOM      9  C   UNL     1      26.258   1.207   6.333  1.00  0.00     0.000 C 
BRANCH   9  10
ATOM     10  C   UNL     1      26.513   0.193   5.198  1.00  0.00     0.006 C 
BRANCH  10  11
ATOM     11  C   UNL     1      26.871   0.828   3.845  1.00  0.00     0.053 C 
BRANCH  11  12
ATOM     12  C   UNL     1      26.485  -0.050   2.694  1.00  0.00     0.041 C 
ATOM     13  O   UNL     1      26.845  -1.256   2.669  1.00  0.00    -0.550 OA
ATOM     14  O   UNL     1      25.753   0.473   1.635  1.00  0.00    -0.550 OA
ENDBRANCH  11  12
ENDBRANCH  10  11
ENDBRANCH   9  10
ENDBRANCH   8   9
ENDBRANCH   7   8
ENDBRANCH   6   7
ENDBRANCH   5   6
ENDBRANCH   4   5
ENDBRANCH   3   4
ENDBRANCH   2   3
ENDBRANCH   1   2
BRANCH   1  15
ATOM     15  C   UNL     1      24.966   4.354   8.260  1.00  0.00     0.000 C 
BRANCH  15  16
ATOM     16  C   UNL     1      26.011   4.993   7.332  1.00  0.00     0.000 C 
BRANCH  16  17
ATOM     17  C   UNL     1      25.576   6.374   6.812  1.00  0.00     0.000 C 
BRANCH  17  18
ATOM     18  C   UNL     1      26.568   7.493   7.183  1.00  0.00    -0.000 C 
BRANCH  18  19
ATOM     19  C   UNL     1      26.410   8.058   8.607  1.00  0.00    -0.000 C 
BRANCH  19  20
ATOM     20  C   UNL     1      25.043   8.724   8.838  1.00  0.00    -0.000 C 
BRANCH  20  21
ATOM     21  C   UNL     1      24.099   7.852   9.681  1.00  0.00    -0.000 C 
BRANCH  21  22
ATOM     22  C   UNL     1      22.647   7.895   9.171  1.00  0.00    -0.000 C 
BRANCH  22  23
ATOM     23  C   UNL     1      22.202   6.569   8.535  1.00  0.00    -0.000 C 
BRANCH  23  24
ATOM     24  C   UNL     1      20.980   6.738   7.616  1.00  0.00    -0.000 C 
BRANCH  24  25
ATOM     25  C   UNL     1      20.589   8.212   7.420  1.00  0.00    -0.003 C 
ATOM     26  C   UNL     1      19.081   8.444   7.528  1.00  0.00     0.004 C 
ENDBRANCH  24  25
ENDBRANCH  23  24
ENDBRANCH  22  23
ENDBRANCH  21  22
ENDBRANCH  20  21
ENDBRANCH  19  20
ENDBRANCH  18  19
ENDBRANCH  17  18
ENDBRANCH  16  17
ENDBRANCH  15  16
ENDBRANCH   1  15
TORSDOF 22
ENDMDL
MODEL 3
REMARK VINA RESULT:    -3.868      2.040      4.387
REMARK INTER + INTRA:         -13.242
REMARK INTER:                  -8.832
REMARK INTRA:                  -4.410
REMARK UNBOUND:                -4.399
REMARK SMILES CCCCCCCCCCCCCCCCCCCCCCCC(=O)[O-]
REMARK SMILES IDX 13 1 14 2 15 3 16 4 17 5 18 6 19 7 20 8 21 9 22 10 23 11
REMARK SMILES IDX 24 12 25 13 26 14 12 15 11 16 10 17 9 18 8 19 7 20 6 21 5 22
REMARK SMILES IDX 4 23 3 24 2 25 1 26
REMARK H PARENT
REMARK Flexibility Score: inf
ROOT
ATOM      1  C   UNL     1      25.860   6.491   7.777  1.00  0.00     0.000 C 
ENDROOT
BRANCH   1   2
ATOM      2  C   UNL     1      24.902   6.611   8.973  1.00  0.00     0.000 C 
BRANCH   2   3
ATOM      3  C   UNL     1      25.404   5.865  10.223  1.00  0.00     0.000 C 
BRANCH   3   4
ATOM      4  C   UNL     1      26.856   5.361  10.140  1.00  0.00     0.000 C 
BRANCH   4   5
ATOM      5  C   UNL     1      27.017   3.916  10.633  1.00  0.00     0.000 C 
BRANCH   5   6
ATOM      6  C   UNL     1      28.388   3.351  10.242  1.00  0.00     0.000 C 
BRANCH   6   7
ATOM      7  C   UNL     1      28.785   3.794   8.829  1.00  0.00     0.000 C 
BRANCH   7   8
ATOM      8  C   UNL     1      28.687   2.626   7.836  1.00  0.00     0.000 C 
BRANCH   8   9
ATOM      9  C   UNL     1      28.423   1.275   8.522  1.00  0.00     0.000 C 
BRANCH   9  10
ATOM     10  C   UNL     1      28.467   0.048   7.587  1.00  0.00     0.006 C 
BRANCH  10  11
ATOM     11  C   UNL     1      27.089  -0.471   7.150  1.00  0.00     0.053 C 
BRANCH  11  12
ATOM     12  C   UNL     1      26.758  -0.070   5.745  1.00  0.00     0.041 C 
ATOM     13  O   UNL     1      25.843  -0.665   5.116  1.00  0.00    -0.550 OA
ATOM     14  O   UNL     1      27.480   0.939   5.120  1.00  0.00    -0.550 OA
ENDBRANCH  11  12
ENDBRANCH  10  11
ENDBRANCH   9  10
ENDBRANCH   8   9
ENDBRANCH   7   8
ENDBRANCH   6   7
ENDBRANCH   5   6
ENDBRANCH   4   5
ENDBRANCH   3   4
ENDBRANCH   2   3
ENDBRANCH   1   2
BRANCH   1  15
ATOM     15  C   UNL     1      25.267   5.580   6.691  1.00  0.00     0.000 C 
BRANCH  15  16
ATOM     16  C   UNL     1      25.902   4.180   6.674  1.00  0.00     0.000 C 
BRANCH  16  17
ATOM     17  C   UNL     1      24.859   3.056   6.789  1.00  0.00     0.000 C 
BRANCH  17  18
ATOM     18  C   UNL     1      24.865   2.372   8.169  1.00  0.00    -0.000 C 
BRANCH  18  19
ATOM     19  C   UNL     1      23.762   2.844   9.135  1.00  0.00    -0.000 C 
BRANCH  19  20
ATOM     20  C   UNL     1      22.413   2.144   8.891  1.00  0.00    -0.000 C 
BRANCH  20  21
ATOM     21  C   UNL     1      21.267   3.141   8.659  1.00  0.00    -0.000 C 
BRANCH  21  22
ATOM     22  C   UNL     1      21.758   4.600   8.610  1.00  0.00    -0.000 C 
BRANCH  22  23
ATOM     23  C   UNL     1      21.655   5.213   7.204  1.00  0.00    -0.000 C 
BRANCH  23  24
ATOM     24  C   UNL     1      21.581   6.749   7.237  1.00  0.00    -0.000 C 
BRANCH  24  25
ATOM     25  C   UNL     1      20.295   7.291   6.592  1.00  0.00    -0.003 C 
ATOM     26  C   UNL     1      19.047   7.000   7.426  1.00  0.00     0.004 C 
ENDBRANCH  24  25
ENDBRANCH  23  24
ENDBRANCH  22  23
ENDBRANCH  21  22
ENDBRANCH  20  21
ENDBRANCH  19  20
ENDBRANCH  18  19
ENDBRANCH  17  18
ENDBRANCH  16  17
ENDBRANCH  15  16
ENDBRANCH   1  15
TORSDOF 22
ENDMDL
MODEL 4
REMARK VINA RESULT:    -3.854      3.031      7.296
REMARK INTER + INTRA:         -13.210
REMARK INTER:                  -8.978
REMARK INTRA:                  -4.232
REMARK UNBOUND:                -4.399
REMARK SMILES CCCCCCCCCCCCCCCCCCCCCCCC(=O)[O-]
REMARK SMILES IDX 13 1 14 2 15 3 16 4 17 5 18 6 19 7 20 8 21 9 22 10 23 11
REMARK SMILES IDX 24 12 25 13 26 14 12 15 11 16 10 17 9 18 8 19 7 20 6 21 5 22
REMARK SMILES IDX 4 23 3 24 2 25 1 26
REMARK H PARENT
REMARK Flexibility Score: inf
ROOT
ATOM      1  C   UNL     1      25.537   4.364  10.094  1.00  0.00     0.000 C 
ENDROOT
BRANCH   1   2
ATOM      2  C   UNL     1      25.125   4.518   8.622  1.00  0.00     0.000 C 
BRANCH   2   3
ATOM      3  C   UNL     1      26.220   5.166   7.756  1.00  0.00     0.000 C 
BRANCH   3   4
ATOM      4  C   UNL     1      25.742   6.328   6.866  1.00  0.00     0.000 C 
BRANCH   4   5
ATOM      5  C   UNL     1      26.510   7.633   7.120  1.00  0.00     0.000 C 
BRANCH   5   6
ATOM      6  C   UNL     1      26.389   8.065   8.587  1.00  0.00     0.000 C 
BRANCH   6   7
ATOM      7  C   UNL     1      25.004   8.652   8.877  1.00  0.00     0.000 C 
BRANCH   7   8
ATOM      8  C   UNL     1      24.295   7.869   9.992  1.00  0.00     0.000 C 
BRANCH   8   9
ATOM      9  C   UNL     1      22.821   7.566   9.670  1.00  0.00     0.000 C 
BRANCH   9  10
ATOM     10  C   UNL     1      22.546   7.137   8.214  1.00  0.00     0.006 C 
BRANCH  10  11
ATOM     11  C   UNL     1      21.484   6.038   8.062  1.00  0.00     0.053 C 
BRANCH  11  12
ATOM     12  C   UNL     1      20.288   6.515   7.297  1.00  0.00     0.041 C 
ATOM     13  O   UNL     1      20.333   7.602   6.664  1.00  0.00    -0.550 OA
ATOM     14  O   UNL     1      19.112   5.773   7.307  1.00  0.00    -0.550 OA
ENDBRANCH  11  12
ENDBRANCH  10  11
ENDBRANCH   9  10
ENDBRANCH   8   9
ENDBRANCH   7   8
ENDBRANCH   6   7
ENDBRANCH   5   6
ENDBRANCH   4   5
ENDBRANCH   3   4
ENDBRANCH   2   3
ENDBRANCH   1   2
BRANCH   1  15
ATOM     15  C   UNL     1      26.975   4.860  10.314  1.00  0.00     0.000 C 
BRANCH  15  16
ATOM     16  C   UNL     1      27.937   3.735  10.729  1.00  0.00     0.000 C 
BRANCH  16  17
ATOM     17  C   UNL     1      28.768   3.203   9.549  1.00  0.00     0.000 C 
BRANCH  17  18
ATOM     18  C   UNL     1      28.715   1.669   9.422  1.00  0.00    -0.000 C 
BRANCH  18  19
ATOM     19  C   UNL     1      28.591   1.137   7.982  1.00  0.00    -0.000 C 
BRANCH  19  20
ATOM     20  C   UNL     1      28.323   2.250   6.954  1.00  0.00    -0.000 C 
BRANCH  20  21
ATOM     21  C   UNL     1      27.156   1.913   6.013  1.00  0.00    -0.000 C 
BRANCH  21  22
ATOM     22  C   UNL     1      26.274   0.773   6.555  1.00  0.00    -0.000 C 
BRANCH  22  23
ATOM     23  C   UNL     1      24.856   1.242   6.917  1.00  0.00    -0.000 C 
BRANCH  23  24
ATOM     24  C   UNL     1      24.302   2.272   5.918  1.00  0.00    -0.000 C 
BRANCH  24  25
ATOM     25  C   UNL     1      22.801   2.538   6.118  1.00  0.00    -0.003 C 
ATOM     26  C   UNL     1      22.358   2.369   7.572  1.00  0.00     0.004 C 
ENDBRANCH  24  25
ENDBRANCH  23  24
ENDBRANCH  22  23
ENDBRANCH  21  22
ENDBRANCH  20  21
ENDBRANCH  19  20
ENDBRANCH  18  19
ENDBRANCH  17  18
ENDBRANCH  16  17
ENDBRANCH  15  16
ENDBRANCH   1  15
TORSDOF 22
ENDMDL
MODEL 5
REMARK VINA RESULT:    -3.841      2.471      7.007
REMARK INTER + INTRA:         -13.180
REMARK INTER:                  -9.112
REMARK INTRA:                  -4.068
REMARK UNBOUND:                -4.399
REMARK SMILES CCCCCCCCCCCCCCCCCCCCCCCC(=O)[O-]
REMARK SMILES IDX 13 1 14 2 15 3 16 4 17 5 18 6 19 7 20 8 21 9 22 10 23 11
REMARK SMILES IDX 24 12 25 13 26 14 12 15 11 16 10 17 9 18 8 19 7 20 6 21 5 22
REMARK SMILES IDX 4 23 3 24 2 25 1 26
REMARK H PARENT
REMARK Flexibility Score: inf
ROOT
ATOM      1  C   UNL     1      24.091   3.860   8.373  1.00  0.00     0.000 C 
ENDROOT
BRANCH   1   2
ATOM      2  C   UNL     1      24.687   3.862   6.957  1.00  0.00     0.000 C 
BRANCH   2   3
ATOM      3  C   UNL     1      25.864   4.842   6.801  1.00  0.00     0.000 C 
BRANCH   3   4
ATOM      4  C   UNL     1      25.478   6.332   6.832  1.00  0.00     0.000 C 
BRANCH   4   5
ATOM      5  C   UNL     1      26.394   7.170   7.736  1.00  0.00     0.000 C 
BRANCH   5   6
ATOM      6  C   UNL     1      25.579   8.151   8.586  1.00  0.00     0.000 C 
BRANCH   6   7
ATOM      7  C   UNL     1      24.511   7.418   9.405  1.00  0.00     0.000 C 
BRANCH   7   8
ATOM      8  C   UNL     1      23.110   7.977   9.113  1.00  0.00     0.000 C 
BRANCH   8   9
ATOM      9  C   UNL     1      22.116   6.896   8.653  1.00  0.00     0.000 C 
BRANCH   9  10
ATOM     10  C   UNL     1      21.444   7.164   7.291  1.00  0.00     0.006 C 
BRANCH  10  11
ATOM     11  C   UNL     1      21.769   6.127   6.205  1.00  0.00     0.053 C 
BRANCH  11  12
ATOM     12  C   UNL     1      20.544   5.400   5.739  1.00  0.00     0.041 C 
ATOM     13  O   UNL     1      20.375   4.189   6.037  1.00  0.00    -0.550 OA
ATOM     14  O   UNL     1      19.604   6.053   4.950  1.00  0.00    -0.550 OA
ENDBRANCH  11  12
ENDBRANCH  10  11
ENDBRANCH   9  10
ENDBRANCH   8   9
ENDBRANCH   7   8
ENDBRANCH   6   7
ENDBRANCH   5   6
ENDBRANCH   4   5
ENDBRANCH   3   4
ENDBRANCH   2   3
ENDBRANCH   1   2
BRANCH   1  15
ATOM     15  C   UNL     1      25.042   3.174   9.365  1.00  0.00     0.000 C 
BRANCH  15  16
ATOM     16  C   UNL     1      25.512   4.113  10.488  1.00  0.00     0.000 C 
BRANCH  16  17
ATOM     17  C   UNL     1      26.932   4.655  10.249  1.00  0.00     0.000 C 
BRANCH  17  18
ATOM     18  C   UNL     1      28.028   3.735  10.819  1.00  0.00    -0.000 C 
BRANCH  18  19
ATOM     19  C   UNL     1      28.716   2.824   9.786  1.00  0.00    -0.000 C 
BRANCH  19  20
ATOM     20  C   UNL     1      28.671   3.396   8.359  1.00  0.00    -0.000 C 
BRANCH  20  21
ATOM     21  C   UNL     1      28.601   2.297   7.287  1.00  0.00    -0.000 C 
BRANCH  21  22
ATOM     22  C   UNL     1      27.434   1.320   7.522  1.00  0.00    -0.000 C 
BRANCH  22  23
ATOM     23  C   UNL     1      27.004   0.590   6.240  1.00  0.00    -0.000 C 
BRANCH  23  24
ATOM     24  C   UNL     1      25.496   0.289   6.212  1.00  0.00    -0.000 C 
BRANCH  24  25
ATOM     25  C   UNL     1      25.168  -1.125   6.718  1.00  0.00    -0.003 C 
ATOM     26  C   UNL     1      26.317  -2.112   6.507  1.00  0.00     0.004 C 
ENDBRANCH  24  25
ENDBRANCH  23  24
ENDBRANCH  22  23
ENDBRANCH  21  22
ENDBRANCH  20  21
ENDBRANCH  19  20
ENDBRANCH  18  19
ENDBRANCH  17  18
ENDBRANCH  16  17
ENDBRANCH  15  16
ENDBRANCH   1  15
TORSDOF 22
ENDMDL
MODEL 6
REMARK VINA RESULT:    -3.823      2.913      6.148
REMARK INTER + INTRA:         -13.138
REMARK INTER:                  -8.759
REMARK INTRA:                  -4.379
REMARK UNBOUND:                -4.399
REMARK SMILES CCCCCCCCCCCCCCCCCCCCCCCC(=O)[O-]
REMARK SMILES IDX 13 1 14 2 15 3 16 4 17 5 18 6 19 7 20 8 21 9 22 10 23 11
REMARK SMILES IDX 24 12 25 13 26 14 12 15 11 16 10 17 9 18 8 19 7 20 6 21 5 22
REMARK SMILES IDX 4 23 3 24 2 25 1 26
REMARK H PARENT
REMARK Flexibility Score: inf
ROOT
ATOM      1  C   UNL     1      25.329   6.021   6.798  1.00  0.00     0.000 C 
ENDROOT
BRANCH   1   2
ATOM      2  C   UNL     1      25.841   4.573   6.791  1.00  0.00     0.000 C 
BRANCH   2   3
ATOM      3  C   UNL     1      24.710   3.534   6.898  1.00  0.00     0.000 C 
BRANCH   3   4
ATOM      4  C   UNL     1      25.038   2.302   7.762  1.00  0.00     0.000 C 
BRANCH   4   5
ATOM      5  C   UNL     1      24.299   2.300   9.108  1.00  0.00     0.000 C 
BRANCH   5   6
ATOM      6  C   UNL     1      23.029   3.157   9.039  1.00  0.00     0.000 C 
BRANCH   6   7
ATOM      7  C   UNL     1      21.774   2.280   8.978  1.00  0.00     0.000 C 
BRANCH   7   8
ATOM      8  C   UNL     1      21.067   2.422   7.622  1.00  0.00     0.000 C 
BRANCH   8   9
ATOM      9  C   UNL     1      20.709   3.879   7.280  1.00  0.00     0.000 C 
BRANCH   9  10
ATOM     10  C   UNL     1      21.233   4.377   5.918  1.00  0.00     0.006 C 
BRANCH  10  11
ATOM     11  C   UNL     1      21.676   5.849   5.905  1.00  0.00     0.053 C 
BRANCH  11  12
ATOM     12  C   UNL     1      20.543   6.779   6.211  1.00  0.00     0.041 C 
ATOM     13  O   UNL     1      20.727   7.778   6.955  1.00  0.00    -0.550 OA
ATOM     14  O   UNL     1      19.276   6.525   5.699  1.00  0.00    -0.550 OA
ENDBRANCH  11  12
ENDBRANCH  10  11
ENDBRANCH   9  10
ENDBRANCH   8   9
ENDBRANCH   7   8
ENDBRANCH   6   7
ENDBRANCH   5   6
ENDBRANCH   4   5
ENDBRANCH   3   4
ENDBRANCH   2   3
ENDBRANCH   1   2
BRANCH   1  15
ATOM     15  C   UNL     1      25.756   6.745   8.085  1.00  0.00     0.000 C 
BRANCH  15  16
ATOM     16  C   UNL     1      24.730   6.600   9.220  1.00  0.00     0.000 C 
BRANCH  16  17
ATOM     17  C   UNL     1      25.224   5.680  10.350  1.00  0.00     0.000 C 
BRANCH  17  18
ATOM     18  C   UNL     1      26.752   5.489  10.342  1.00  0.00    -0.000 C 
BRANCH  18  19
ATOM     19  C   UNL     1      27.226   4.025  10.411  1.00  0.00    -0.000 C 
BRANCH  19  20
ATOM     20  C   UNL     1      28.346   3.710   9.404  1.00  0.00    -0.000 C 
BRANCH  20  21
ATOM     21  C   UNL     1      28.506   2.202   9.156  1.00  0.00    -0.000 C 
BRANCH  21  22
ATOM     22  C   UNL     1      28.581   1.857   7.658  1.00  0.00    -0.000 C 
BRANCH  22  23
ATOM     23  C   UNL     1      28.561   0.343   7.396  1.00  0.00    -0.000 C 
BRANCH  23  24
ATOM     24  C   UNL     1      27.551  -0.053   6.305  1.00  0.00    -0.000 C 
BRANCH  24  25
ATOM     25  C   UNL     1      27.397   1.030   5.224  1.00  0.00    -0.003 C 
ATOM     26  C   UNL     1      26.108   0.880   4.416  1.00  0.00     0.004 C 
ENDBRANCH  24  25
ENDBRANCH  23  24
ENDBRANCH  22  23
ENDBRANCH  21  22
ENDBRANCH  20  21
ENDBRANCH  19  20
ENDBRANCH  18  19
ENDBRANCH  17  18
ENDBRANCH  16  17
ENDBRANCH  15  16
ENDBRANCH   1  15
TORSDOF 22
ENDMDL
MODEL 7
REMARK VINA RESULT:    -3.793      2.982      7.524
REMARK INTER + INTRA:         -13.070
REMARK INTER:                  -9.509
REMARK INTRA:                  -3.561
REMARK UNBOUND:                -4.399
REMARK SMILES CCCCCCCCCCCCCCCCCCCCCCCC(=O)[O-]
REMARK SMILES IDX 13 1 14 2 15 3 16 4 17 5 18 6 19 7 20 8 21 9 22 10 23 11
REMARK SMILES IDX 24 12 25 13 26 14 12 15 11 16 10 17 9 18 8 19 7 20 6 21 5 22
REMARK SMILES IDX 4 23 3 24 2 25 1 26
REMARK H PARENT
REMARK Flexibility Score: inf
ROOT
ATOM      1  C   UNL     1      25.491   1.093   5.103  1.00  0.00     0.000 C 
ENDROOT
BRANCH   1   2
ATOM      2  C   UNL     1      25.499   0.585   6.553  1.00  0.00     0.000 C 
BRANCH   2   3
ATOM      3  C   UNL     1      26.000   1.638   7.557  1.00  0.00     0.000 C 
BRANCH   3   4
ATOM      4  C   UNL     1      27.015   2.647   6.990  1.00  0.00     0.000 C 
BRANCH   4   5
ATOM      5  C   UNL     1      28.422   2.477   7.578  1.00  0.00     0.000 C 
BRANCH   5   6
ATOM      6  C   UNL     1      28.751   3.611   8.556  1.00  0.00     0.000 C 
BRANCH   6   7
ATOM      7  C   UNL     1      28.570   3.157  10.009  1.00  0.00     0.000 C 
BRANCH   7   8
ATOM      8  C   UNL     1      27.647   4.115  10.777  1.00  0.00     0.000 C 
BRANCH   8   9
ATOM      9  C   UNL     1      26.215   4.150  10.214  1.00  0.00     0.000 C 
BRANCH   9  10
ATOM     10  C   UNL     1      25.676   5.558   9.889  1.00  0.00     0.006 C 
BRANCH  10  11
ATOM     11  C   UNL     1      26.684   6.480   9.185  1.00  0.00     0.053 C 
BRANCH  11  12
ATOM     12  C   UNL     1      26.003   7.534   8.366  1.00  0.00     0.041 C 
ATOM     13  O   UNL     1      26.572   8.010   7.348  1.00  0.00    -0.550 OA
ATOM     14  O   UNL     1      24.754   8.011   8.744  1.00  0.00    -0.550 OA
ENDBRANCH  11  12
ENDBRANCH  10  11
ENDBRANCH   9  10
ENDBRANCH   8   9
ENDBRANCH   7   8
ENDBRANCH   6   7
ENDBRANCH   5   6
ENDBRANCH   4   5
ENDBRANCH   3   4
ENDBRANCH   2   3
ENDBRANCH   1   2
BRANCH   1  15
ATOM     15  C   UNL     1      26.772   0.669   4.368  1.00  0.00     0.000 C 
BRANCH  15  16
ATOM     16  C   UNL     1      26.533   0.360   2.881  1.00  0.00     0.000 C 
BRANCH  16  17
ATOM     17  C   UNL     1      26.530  -1.149   2.583  1.00  0.00     0.000 C 
BRANCH  17  18
ATOM     18  C   UNL     1      25.110  -1.736   2.478  1.00  0.00    -0.000 C 
BRANCH  18  19
ATOM     19  C   UNL     1      24.562  -2.354   3.778  1.00  0.00    -0.000 C 
BRANCH  19  20
ATOM     20  C   UNL     1      25.646  -3.068   4.605  1.00  0.00    -0.000 C 
BRANCH  20  21
ATOM     21  C   UNL     1      25.408  -2.943   6.118  1.00  0.00    -0.000 C 
BRANCH  21  22
ATOM     22  C   UNL     1      26.718  -2.999   6.925  1.00  0.00    -0.000 C 
BRANCH  22  23
ATOM     23  C   UNL     1      27.859  -2.212   6.261  1.00  0.00    -0.000 C 
BRANCH  23  24
ATOM     24  C   UNL     1      28.740  -1.476   7.285  1.00  0.00    -0.000 C 
BRANCH  24  25
ATOM     25  C   UNL     1      28.322  -1.763   8.736  1.00  0.00    -0.003 C 
ATOM     26  C   UNL     1      28.397  -0.525   9.630  1.00  0.00     0.004 C 
ENDBRANCH  24  25
ENDBRANCH  23  24
ENDBRANCH  22  23
ENDBRANCH  21  22
ENDBRANCH  20  21
ENDBRANCH  19  20
ENDBRANCH  18  19
ENDBRANCH  17  18
ENDBRANCH  16  17
ENDBRANCH  15  16
ENDBRANCH   1  15
TORSDOF 22
ENDMDL
MODEL 8
REMARK VINA RESULT:    -3.791      3.055      7.568
REMARK INTER + INTRA:         -13.065
REMARK INTER:                  -8.856
REMARK INTRA:                  -4.210
REMARK UNBOUND:                -4.399
REMARK SMILES CCCCCCCCCCCCCCCCCCCCCCCC(=O)[O-]
REMARK SMILES IDX 13 1 14 2 15 3 16 4 17 5 18 6 19 7 20 8 21 9 22 10 23 11
REMARK SMILES IDX 24 12 25 13 26 14 12 15 11 16 10 17 9 18 8 19 7 20 6 21 5 22
REMARK SMILES IDX 4 23 3 24 2 25 1 26
REMARK H PARENT
REMARK Flexibility Score: inf
ROOT
ATOM      1  C   UNL     1      24.536   1.555   7.156  1.00  0.00     0.000 C 
ENDROOT
BRANCH   1   2
ATOM      2  C   UNL     1      24.317   2.844   6.347  1.00  0.00     0.000 C 
BRANCH   2   3
ATOM      3  C   UNL     1      23.470   3.888   7.096  1.00  0.00     0.000 C 
BRANCH   3   4
ATOM      4  C   UNL     1      24.057   5.311   7.114  1.00  0.00     0.000 C 
BRANCH   4   5
ATOM      5  C   UNL     1      25.563   5.342   6.819  1.00  0.00     0.000 C 
BRANCH   5   6
ATOM      6  C   UNL     1      26.336   5.995   7.972  1.00  0.00     0.000 C 
BRANCH   6   7
ATOM      7  C   UNL     1      26.963   4.936   8.886  1.00  0.00     0.000 C 
BRANCH   7   8
ATOM      8  C   UNL     1      26.533   5.142  10.346  1.00  0.00     0.000 C 
BRANCH   8   9
ATOM      9  C   UNL     1      25.032   4.889  10.572  1.00  0.00     0.000 C 
BRANCH   9  10
ATOM     10  C   UNL     1      24.255   6.073  11.184  1.00  0.00     0.006 C 
BRANCH  10  11
ATOM     11  C   UNL     1      23.040   6.531  10.363  1.00  0.00     0.053 C 
BRANCH  11  12
ATOM     12  C   UNL     1      23.313   7.801   9.617  1.00  0.00     0.041 C 
ATOM     13  O   UNL     1      24.426   8.378   9.735  1.00  0.00    -0.550 OA
ATOM     14  O   UNL     1      22.327   8.364   8.816  1.00  0.00    -0.550 OA
ENDBRANCH  11  12
ENDBRANCH  10  11
ENDBRANCH   9  10
ENDBRANCH   8   9
ENDBRANCH   7   8
ENDBRANCH   6   7
ENDBRANCH   5   6
ENDBRANCH   4   5
ENDBRANCH   3   4
ENDBRANCH   2   3
ENDBRANCH   1   2
BRANCH   1  15
ATOM     15  C   UNL     1      25.953   1.516   7.748  1.00  0.00     0.000 C 
BRANCH  15  16
ATOM     16  C   UNL     1      27.028   1.991   6.757  1.00  0.00     0.000 C 
BRANCH  16  17
ATOM     17  C   UNL     1      28.455   1.826   7.308  1.00  0.00     0.000 C 
BRANCH  17  18
ATOM     18  C   UNL     1      28.481   1.488   8.810  1.00  0.00    -0.000 C 
BRANCH  18  19
ATOM     19  C   UNL     1      28.878   0.038   9.144  1.00  0.00    -0.000 C 
BRANCH  19  20
ATOM     20  C   UNL     1      29.045  -0.841   7.893  1.00  0.00    -0.000 C 
BRANCH  20  21
ATOM     21  C   UNL     1      27.880  -1.826   7.705  1.00  0.00    -0.000 C 
BRANCH  21  22
ATOM     22  C   UNL     1      27.488  -1.998   6.227  1.00  0.00    -0.000 C 
BRANCH  22  23
ATOM     23  C   UNL     1      26.035  -1.584   5.946  1.00  0.00    -0.000 C 
BRANCH  23  24
ATOM     24  C   UNL     1      25.713  -1.549   4.442  1.00  0.00    -0.000 C 
BRANCH  24  25
ATOM     25  C   UNL     1      25.441  -0.125   3.931  1.00  0.00    -0.003 C 
ATOM     26  C   UNL     1      26.688   0.543   3.349  1.00  0.00     0.004 C 
ENDBRANCH  24  25
ENDBRANCH  23  24
ENDBRANCH  22  23
ENDBRANCH  21  22
ENDBRANCH  20  21
ENDBRANCH  19  20
ENDBRANCH  18  19
ENDBRANCH  17  18
ENDBRANCH  16  17
ENDBRANCH  15  16
ENDBRANCH   1  15
TORSDOF 22
ENDMDL
MODEL 9
REMARK VINA RESULT:    -3.759      2.302      7.068
REMARK INTER + INTRA:         -12.993
REMARK INTER:                  -8.912
REMARK INTRA:                  -4.081
REMARK UNBOUND:                -4.399
REMARK SMILES CCCCCCCCCCCCCCCCCCCCCCCC(=O)[O-]
REMARK SMILES IDX 13 1 14 2 15 3 16 4 17 5 18 6 19 7 20 8 21 9 22 10 23 11
REMARK SMILES IDX 24 12 25 13 26 14 12 15 11 16 10 17 9 18 8 19 7 20 6 21 5 22
REMARK SMILES IDX 4 23 3 24 2 25 1 26
REMARK H PARENT
REMARK Flexibility Score: inf
ROOT
ATOM      1  C   UNL     1      28.739   1.717   7.581  1.00  0.00     0.000 C 
ENDROOT
BRANCH   1   2
ATOM      2  C   UNL     1      27.888   2.977   7.795  1.00  0.00     0.000 C 
BRANCH   2   3
ATOM      3  C   UNL     1      27.152   2.984   9.147  1.00  0.00     0.000 C 
BRANCH   3   4
ATOM      4  C   UNL     1      27.663   4.024  10.161  1.00  0.00     0.000 C 
BRANCH   4   5
ATOM      5  C   UNL     1      26.683   5.186  10.374  1.00  0.00     0.000 C 
BRANCH   5   6
ATOM      6  C   UNL     1      26.716   6.158   9.189  1.00  0.00     0.000 C 
BRANCH   6   7
ATOM      7  C   UNL     1      25.440   7.006   9.134  1.00  0.00     0.000 C 
BRANCH   7   8
ATOM      8  C   UNL     1      24.417   6.401   8.161  1.00  0.00     0.000 C 
BRANCH   8   9
ATOM      9  C   UNL     1      25.064   5.523   7.077  1.00  0.00     0.000 C 
BRANCH   9  10
ATOM     10  C   UNL     1      24.482   4.099   6.956  1.00  0.00     0.006 C 
BRANCH  10  11
ATOM     11  C   UNL     1      23.670   3.637   8.176  1.00  0.00     0.053 C 
BRANCH  11  12
ATOM     12  C   UNL     1      22.243   3.347   7.823  1.00  0.00     0.041 C 
ATOM     13  O   UNL     1      21.578   4.175   7.147  1.00  0.00    -0.550 OA
ATOM     14  O   UNL     1      21.640   2.177   8.267  1.00  0.00    -0.550 OA
ENDBRANCH  11  12
ENDBRANCH  10  11
ENDBRANCH   9  10
ENDBRANCH   8   9
ENDBRANCH   7   8
ENDBRANCH   6   7
ENDBRANCH   5   6
ENDBRANCH   4   5
ENDBRANCH   3   4
ENDBRANCH   2   3
ENDBRANCH   1   2
BRANCH   1  15
ATOM     15  C   UNL     1      28.726   0.829   8.835  1.00  0.00     0.000 C 
BRANCH  15  16
ATOM     16  C   UNL     1      28.648  -0.671   8.504  1.00  0.00     0.000 C 
BRANCH  16  17
ATOM     17  C   UNL     1      28.197  -0.934   7.057  1.00  0.00     0.000 C 
BRANCH  17  18
ATOM     18  C   UNL     1      27.199  -2.102   6.944  1.00  0.00    -0.000 C 
BRANCH  18  19
ATOM     19  C   UNL     1      25.729  -1.686   6.754  1.00  0.00    -0.000 C 
BRANCH  19  20
ATOM     20  C   UNL     1      25.498  -0.181   6.975  1.00  0.00    -0.000 C 
BRANCH  20  21
ATOM     21  C   UNL     1      24.951   0.520   5.722  1.00  0.00    -0.000 C 
BRANCH  21  22
ATOM     22  C   UNL     1      25.994   1.438   5.060  1.00  0.00    -0.000 C 
BRANCH  22  23
ATOM     23  C   UNL     1      26.897   0.691   4.065  1.00  0.00    -0.000 C 
BRANCH  23  24
ATOM     24  C   UNL     1      26.260   0.568   2.671  1.00  0.00    -0.000 C 
BRANCH  24  25
ATOM     25  C   UNL     1      26.373  -0.853   2.094  1.00  0.00    -0.003 C 
ATOM     26  C   UNL     1      26.601  -1.913   3.173  1.00  0.00     0.004 C 
ENDBRANCH  24  25
ENDBRANCH  23  24
ENDBRANCH  22  23
ENDBRANCH  21  22
ENDBRANCH  20  21
ENDBRANCH  19  20
ENDBRANCH  18  19
ENDBRANCH  17  18
ENDBRANCH  16  17
ENDBRANCH  15  16
ENDBRANCH   1  15
TORSDOF 22
ENDMDL
