MODEL 1
REMARK VINA RESULT:    -3.779      0.000      0.000
REMARK INTER + INTRA:          -4.620
REMARK INTER:                  -4.552
REMARK INTRA:                  -0.068
REMARK UNBOUND:                -0.068
REMARK SMILES CCCCCO
REMARK SMILES IDX 4 1 3 2 2 3 1 4 5 5 6 6
REMARK H PARENT 6 7
REMARK Flexibility Score: inf
ROOT
ATOM      1  C   UNL     1      -4.658  -4.399   4.081  1.00  0.00     0.028 C 
ENDROOT
BRANCH   1   2
ATOM      2  C   UNL     1      -3.529  -5.103   3.319  1.00  0.00     0.002 C 
BRANCH   2   3
ATOM      3  C   UNL     1      -4.088  -6.178   2.380  1.00  0.00    -0.003 C 
ATOM      4  C   UNL     1      -3.255  -7.455   2.446  1.00  0.00     0.004 C 
ENDBRANCH   2   3
ENDBRANCH   1   2
BRANCH   1   5
ATOM      5  C   UNL     1      -5.507  -5.405   4.863  1.00  0.00     0.156 C 
BRANCH   5   6
ATOM      6  O   UNL     1      -4.914  -5.679   6.103  1.00  0.00    -0.396 OA
ATOM      7  H   UNL     1      -4.576  -4.812   6.454  1.00  0.00     0.210 HD
ENDBRANCH   5   6
ENDBRANCH   1   5
TORSDOF 4
ENDMDL
MODEL 2
REMARK VINA RESULT:    -3.759      8.079      9.167
REMARK INTER + INTRA:          -4.596
REMARK INTER:                  -4.527
REMARK INTRA:                  -0.069
REMARK UNBOUND:                -0.068
REMARK SMILES CCCCCO
REMARK SMILES IDX 4 1 3 2 2 3 1 4 5 5 6 6
REMARK H PARENT 6 7
REMARK Flexibility Score: inf
ROOT
ATOM      1  C   UNL     1       2.745  -5.146  -1.947  1.00  0.00     0.028 C 
ENDROOT
BRANCH   1   2
ATOM      2  C   UNL     1       1.476  -5.673  -1.268  1.00  0.00     0.002 C 
BRANCH   2   3
ATOM      3  C   UNL     1       1.774  -6.938  -0.454  1.00  0.00    -0.003 C 
ATOM      4  C   UNL     1       0.592  -7.902  -0.479  1.00  0.00     0.004 C 
ENDBRANCH   2   3
ENDBRANCH   1   2
BRANCH   1   5
ATOM      5  C   UNL     1       3.400  -6.227  -2.811  1.00  0.00     0.156 C 
BRANCH   5   6
ATOM      6  O   UNL     1       2.693  -6.383  -4.010  1.00  0.00    -0.396 OA
ATOM      7  H   UNL     1       1.727  -6.322  -3.781  1.00  0.00     0.210 HD
ENDBRANCH   5   6
ENDBRANCH   1   5
TORSDOF 4
ENDMDL
MODEL 3
REMARK VINA RESULT:    -3.569      7.785      8.448
REMARK INTER + INTRA:          -4.367
REMARK INTER:                  -4.345
REMARK INTRA:                  -0.023
REMARK UNBOUND:                -0.068
REMARK SMILES CCCCCO
REMARK SMILES IDX 4 1 3 2 2 3 1 4 5 5 6 6
REMARK H PARENT 6 7
REMARK Flexibility Score: inf
ROOT
ATOM      1  C   UNL     1       1.124  -8.013  -0.511  1.00  0.00     0.028 C 
ENDROOT
BRANCH   1   2
ATOM      2  C   UNL     1       1.990  -6.752  -0.411  1.00  0.00     0.002 C 
BRANCH   2   3
ATOM      3  C   UNL     1       1.664  -5.770  -1.541  1.00  0.00    -0.003 C 
ATOM      4  C   UNL     1       2.674  -5.883  -2.679  1.00  0.00     0.004 C 
ENDBRANCH   2   3
ENDBRANCH   1   2
BRANCH   1   5
ATOM      5  C   UNL     1       1.948  -9.273  -0.232  1.00  0.00     0.156 C 
BRANCH   5   6
ATOM      6  O   UNL     1       1.214 -10.417  -0.572  1.00  0.00    -0.396 OA
ATOM      7  H   UNL     1       1.042 -10.365  -1.549  1.00  0.00     0.210 HD
ENDBRANCH   5   6
ENDBRANCH   1   5
TORSDOF 4
ENDMDL
MODEL 4
REMARK VINA RESULT:    -3.524      6.551      7.586
REMARK INTER + INTRA:          -4.314
REMARK INTER:                  -4.294
REMARK INTRA:                  -0.019
REMARK UNBOUND:                -0.068
REMARK SMILES CCCCCO
REMARK SMILES IDX 4 1 3 2 2 3 1 4 5 5 6 6
REMARK H PARENT 6 7
REMARK Flexibility Score: inf
ROOT
ATOM      1  C   UNL     1       1.034  -8.456  -0.426  1.00  0.00     0.028 C 
ENDROOT
BRANCH   1   2
ATOM      2  C   UNL     1       1.608  -7.046  -0.243  1.00  0.00     0.002 C 
BRANCH   2   3
ATOM      3  C   UNL     1       1.889  -6.388  -1.599  1.00  0.00    -0.003 C 
ATOM      4  C   UNL     1       1.714  -4.874  -1.523  1.00  0.00     0.004 C 
ENDBRANCH   2   3
ENDBRANCH   1   2
BRANCH   1   5
ATOM      5  C   UNL     1      -0.429  -8.518   0.020  1.00  0.00     0.156 C 
BRANCH   5   6
ATOM      6  O   UNL     1      -1.207  -9.147  -0.960  1.00  0.00    -0.396 OA
ATOM      7  H   UNL     1      -2.157  -9.021  -0.694  1.00  0.00     0.210 HD
ENDBRANCH   5   6
ENDBRANCH   1   5
TORSDOF 4
ENDMDL
MODEL 5
REMARK VINA RESULT:    -3.524      2.552      3.917
REMARK INTER + INTRA:          -4.313
REMARK INTER:                  -4.303
REMARK INTRA:                  -0.010
REMARK UNBOUND:                -0.068
REMARK SMILES CCCCCO
REMARK SMILES IDX 4 1 3 2 2 3 1 4 5 5 6 6
REMARK H PARENT 6 7
REMARK Flexibility Score: inf
ROOT
ATOM      1  C   UNL     1      -3.081  -7.543   2.504  1.00  0.00     0.028 C 
ENDROOT
BRANCH   1   2
ATOM      2  C   UNL     1      -4.100  -6.398   2.512  1.00  0.00     0.002 C 
BRANCH   2   3
ATOM      3  C   UNL     1      -3.547  -5.176   3.254  1.00  0.00    -0.003 C 
ATOM      4  C   UNL     1      -4.651  -4.442   4.009  1.00  0.00     0.004 C 
ENDBRANCH   2   3
ENDBRANCH   1   2
BRANCH   1   5
ATOM      5  C   UNL     1      -3.752  -8.876   2.159  1.00  0.00     0.156 C 
BRANCH   5   6
ATOM      6  O   UNL     1      -2.849  -9.932   2.334  1.00  0.00    -0.396 OA
ATOM      7  H   UNL     1      -3.125 -10.650   1.705  1.00  0.00     0.210 HD
ENDBRANCH   5   6
ENDBRANCH   1   5
TORSDOF 4
ENDMDL
MODEL 6
REMARK VINA RESULT:    -3.288      6.946      8.152
REMARK INTER + INTRA:          -4.029
REMARK INTER:                  -3.988
REMARK INTRA:                  -0.042
REMARK UNBOUND:                -0.068
REMARK SMILES CCCCCO
REMARK SMILES IDX 4 1 3 2 2 3 1 4 5 5 6 6
REMARK H PARENT 6 7
REMARK Flexibility Score: inf
ROOT
ATOM      1  C   UNL     1       2.677  -9.237   0.320  1.00  0.00     0.028 C 
ENDROOT
BRANCH   1   2
ATOM      2  C   UNL     1       2.177  -7.797   0.159  1.00  0.00     0.002 C 
BRANCH   2   3
ATOM      3  C   UNL     1       0.854  -7.758  -0.614  1.00  0.00    -0.003 C 
ATOM      4  C   UNL     1      -0.252  -8.480   0.149  1.00  0.00     0.004 C 
ENDBRANCH   2   3
ENDBRANCH   1   2
BRANCH   1   5
ATOM      5  C   UNL     1       3.078  -9.523   1.770  1.00  0.00     0.156 C 
BRANCH   5   6
ATOM      6  O   UNL     1       2.984 -10.895   2.036  1.00  0.00    -0.396 OA
ATOM      7  H   UNL     1       2.736 -11.335   1.180  1.00  0.00     0.210 HD
ENDBRANCH   5   6
ENDBRANCH   1   5
TORSDOF 4
ENDMDL
MODEL 7
REMARK VINA RESULT:    -3.224      7.774      8.565
REMARK INTER + INTRA:          -3.952
REMARK INTER:                  -3.913
REMARK INTRA:                  -0.040
REMARK UNBOUND:                -0.068
REMARK SMILES CCCCCO
REMARK SMILES IDX 4 1 3 2 2 3 1 4 5 5 6 6
REMARK H PARENT 6 7
REMARK Flexibility Score: inf
ROOT
ATOM      1  C   UNL     1       3.637  -8.395   0.102  1.00  0.00     0.028 C 
ENDROOT
BRANCH   1   2
ATOM      2  C   UNL     1       2.819  -7.784  -1.042  1.00  0.00     0.002 C 
BRANCH   2   3
ATOM      3  C   UNL     1       1.780  -6.793  -0.505  1.00  0.00    -0.003 C 
ATOM      4  C   UNL     1       1.769  -5.506  -1.326  1.00  0.00     0.004 C 
ENDBRANCH   2   3
ENDBRANCH   1   2
BRANCH   1   5
ATOM      5  C   UNL     1       2.779  -9.335   0.953  1.00  0.00     0.156 C 
BRANCH   5   6
ATOM      6  O   UNL     1       2.938  -9.038   2.313  1.00  0.00    -0.396 OA
ATOM      7  H   UNL     1       3.345  -8.132   2.360  1.00  0.00     0.210 HD
ENDBRANCH   5   6
ENDBRANCH   1   5
TORSDOF 4
ENDMDL
MODEL 8
REMARK VINA RESULT:    -3.177      4.129      4.675
REMARK INTER + INTRA:          -3.896
REMARK INTER:                  -3.813
REMARK INTRA:                  -0.082
REMARK UNBOUND:                -0.068
REMARK SMILES CCCCCO
REMARK SMILES IDX 4 1 3 2 2 3 1 4 5 5 6 6
REMARK H PARENT 6 7
REMARK Flexibility Score: inf
ROOT
ATOM      1  C   UNL     1      -5.109  -8.819   1.883  1.00  0.00     0.028 C 
ENDROOT
BRANCH   1   2
ATOM      2  C   UNL     1      -3.915  -7.858   1.852  1.00  0.00     0.002 C 
BRANCH   2   3
ATOM      3  C   UNL     1      -2.605  -8.602   2.139  1.00  0.00    -0.003 C 
ATOM      4  C   UNL     1      -1.638  -8.488   0.965  1.00  0.00     0.004 C 
ENDBRANCH   2   3
ENDBRANCH   1   2
BRANCH   1   5
ATOM      5  C   UNL     1      -5.929  -8.722   0.593  1.00  0.00     0.156 C 
BRANCH   5   6
ATOM      6  O   UNL     1      -5.080  -8.730  -0.522  1.00  0.00    -0.396 OA
ATOM      7  H   UNL     1      -5.186  -9.619  -0.954  1.00  0.00     0.210 HD
ENDBRANCH   5   6
ENDBRANCH   1   5
TORSDOF 4
ENDMDL
MODEL 9
REMARK VINA RESULT:    -3.151      3.397      4.355
REMARK INTER + INTRA:          -3.864
REMARK INTER:                  -3.828
REMARK INTRA:                  -0.035
REMARK UNBOUND:                -0.068
REMARK SMILES CCCCCO
REMARK SMILES IDX 4 1 3 2 2 3 1 4 5 5 6 6
REMARK H PARENT 6 7
REMARK Flexibility Score: inf
ROOT
ATOM      1  C   UNL     1      -5.102  -8.537   1.997  1.00  0.00     0.028 C 
ENDROOT
BRANCH   1   2
ATOM      2  C   UNL     1      -5.155  -7.062   2.408  1.00  0.00     0.002 C 
BRANCH   2   3
ATOM      3  C   UNL     1      -3.751  -6.445   2.423  1.00  0.00    -0.003 C 
ATOM      4  C   UNL     1      -3.728  -5.147   3.223  1.00  0.00     0.004 C 
ENDBRANCH   2   3
ENDBRANCH   1   2
BRANCH   1   5
ATOM      5  C   UNL     1      -6.018  -8.810   0.801  1.00  0.00     0.156 C 
BRANCH   5   6
ATOM      6  O   UNL     1      -5.373  -8.460  -0.392  1.00  0.00    -0.396 OA
ATOM      7  H   UNL     1      -5.134  -9.311  -0.847  1.00  0.00     0.210 HD
ENDBRANCH   5   6
ENDBRANCH   1   5
TORSDOF 4
ENDMDL
