MODEL 1
REMARK VINA RESULT:    34.850      0.000      0.000
REMARK INTER + INTRA:          41.119
REMARK INTER:                  40.962
REMARK INTRA:                   0.157
REMARK UNBOUND:                 0.157
REMARK SMILES O=c1c(O)c(-c2ccc(O)c(O)c2)oc2cc(O)ccc12
REMARK SMILES IDX 5 1 3 2 2 3 1 4 21 5 15 6 14 7 16 8 17 9 19 10 20 11 6 12
REMARK SMILES IDX 7 13 8 14 9 15 13 16 11 17 10 18 12 20 4 22 18 24
REMARK H PARENT 10 19 12 21 4 23 18 25
REMARK Flexibility Score: inf
ROOT
ATOM      1  C   UNL     1      10.278  61.571  23.000  1.00  0.00     0.180 A 
ATOM      2  C   UNL     1      11.563  62.140  22.897  1.00  0.00     0.208 A 
ATOM      3  C   UNL     1      11.822  63.350  23.559  1.00  0.00     0.235 A 
ATOM      4  O   UNL     1      12.968  63.874  23.490  1.00  0.00    -0.285 OA
ATOM      5  C   UNL     1      10.795  63.972  24.287  1.00  0.00     0.069 A 
ATOM      6  C   UNL     1       9.529  63.350  24.322  1.00  0.00     0.142 A 
ATOM      7  O   UNL     1       9.327  62.200  23.689  1.00  0.00    -0.452 OA
ATOM      8  C   UNL     1       8.477  63.943  25.029  1.00  0.00     0.094 A 
ATOM      9  C   UNL     1       8.676  65.153  25.706  1.00  0.00     0.119 A 
ATOM     10  C   UNL     1       9.931  65.771  25.675  1.00  0.00     0.047 A 
ATOM     11  C   UNL     1      10.988  65.187  24.970  1.00  0.00     0.020 A 
ENDROOT
BRANCH   1  12
ATOM     12  C   UNL     1       9.932  60.287  22.346  1.00  0.00     0.025 A 
ATOM     13  C   UNL     1      10.858  59.233  22.266  1.00  0.00     0.016 A 
ATOM     14  C   UNL     1      10.500  58.023  21.667  1.00  0.00     0.051 A 
ATOM     15  C   UNL     1       9.214  57.842  21.150  1.00  0.00     0.157 A 
ATOM     16  C   UNL     1       8.633  60.095  21.846  1.00  0.00     0.062 A 
ATOM     17  C   UNL     1       8.273  58.881  21.242  1.00  0.00     0.158 A 
BRANCH  15  18
ATOM     18  O   UNL     1       8.888  56.624  20.555  1.00  0.00    -0.504 OA
ATOM     19  H   UNL     1       8.144  56.541  19.873  1.00  0.00     0.293 HD
ENDBRANCH  15  18
BRANCH  17  20
ATOM     20  O   UNL     1       6.986  58.706  20.737  1.00  0.00    -0.504 OA
ATOM     21  H   UNL     1       6.584  59.355  20.071  1.00  0.00     0.293 HD
ENDBRANCH  17  20
ENDBRANCH   1  12
BRANCH   2  22
ATOM     22  O   UNL     1      12.551  61.524  22.124  1.00  0.00    -0.502 OA
ATOM     23  H   UNL     1      12.362  61.148  21.203  1.00  0.00     0.293 HD
ENDBRANCH   2  22
BRANCH   9  24
ATOM     24  O   UNL     1       7.635  65.751  26.413  1.00  0.00    -0.508 OA
ATOM     25  H   UNL     1       6.666  65.537  26.210  1.00  0.00     0.293 HD
ENDBRANCH   9  24
TORSDOF 5
ENDMDL
MODEL 2
REMARK VINA RESULT:    36.760      0.968      1.641
REMARK INTER + INTRA:          43.363
REMARK INTER:                  43.049
REMARK INTRA:                   0.315
REMARK UNBOUND:                 0.157
REMARK SMILES O=c1c(O)c(-c2ccc(O)c(O)c2)oc2cc(O)ccc12
REMARK SMILES IDX 5 1 3 2 2 3 1 4 21 5 15 6 14 7 16 8 17 9 19 10 20 11 6 12
REMARK SMILES IDX 7 13 8 14 9 15 13 16 11 17 10 18 12 20 4 22 18 24
REMARK H PARENT 10 19 12 21 4 23 18 25
REMARK Flexibility Score: inf
ROOT
ATOM      1  C   UNL     1       9.851  61.004  22.740  1.00  0.00     0.180 A 
ATOM      2  C   UNL     1      11.220  61.305  22.581  1.00  0.00     0.208 A 
ATOM      3  C   UNL     1      11.746  62.430  23.234  1.00  0.00     0.235 A 
ATOM      4  O   UNL     1      12.970  62.714  23.115  1.00  0.00    -0.285 OA
ATOM      5  C   UNL     1      10.899  63.236  24.011  1.00  0.00     0.069 A 
ATOM      6  C   UNL     1       9.536  62.881  24.102  1.00  0.00     0.142 A 
ATOM      7  O   UNL     1       9.079  61.803  23.474  1.00  0.00    -0.452 OA
ATOM      8  C   UNL     1       8.658  63.665  24.859  1.00  0.00     0.094 A 
ATOM      9  C   UNL     1       9.127  64.801  25.530  1.00  0.00     0.119 A 
ATOM     10  C   UNL     1      10.477  65.154  25.443  1.00  0.00     0.047 A 
ATOM     11  C   UNL     1      11.362  64.379  24.689  1.00  0.00     0.020 A 
ENDROOT
BRANCH   1  12
ATOM     12  C   UNL     1       9.226  59.825  22.099  1.00  0.00     0.025 A 
ATOM     13  C   UNL     1       7.886  59.848  21.674  1.00  0.00     0.016 A 
ATOM     14  C   UNL     1       7.325  58.731  21.048  1.00  0.00     0.051 A 
ATOM     15  C   UNL     1       8.093  57.584  20.826  1.00  0.00     0.157 A 
ATOM     16  C   UNL     1      10.000  58.679  21.855  1.00  0.00     0.062 A 
ATOM     17  C   UNL     1       9.438  57.557  21.229  1.00  0.00     0.158 A 
BRANCH  15  18
ATOM     18  O   UNL     1       7.504  56.485  20.203  1.00  0.00    -0.504 OA
ATOM     19  H   UNL     1       7.172  55.683  20.726  1.00  0.00     0.293 HD
ENDBRANCH  15  18
BRANCH  17  20
ATOM     20  O   UNL     1      10.212  56.419  21.005  1.00  0.00    -0.504 OA
ATOM     21  H   UNL     1      11.045  56.449  20.430  1.00  0.00     0.293 HD
ENDBRANCH  17  20
ENDBRANCH   1  12
BRANCH   2  22
ATOM     22  O   UNL     1      12.028  60.513  21.761  1.00  0.00    -0.502 OA
ATOM     23  H   UNL     1      12.033  59.502  21.820  1.00  0.00     0.293 HD
ENDBRANCH   2  22
BRANCH   9  24
ATOM     24  O   UNL     1       8.259  65.587  26.286  1.00  0.00    -0.508 OA
ATOM     25  H   UNL     1       7.592  65.174  26.926  1.00  0.00     0.293 HD
ENDBRANCH   9  24
TORSDOF 5
ENDMDL
