MODEL 1
REMARK VINA RESULT:    -5.844      0.000      0.000
REMARK INTER + INTRA:          -6.015
REMARK INTER:                  -6.015
REMARK INTRA:                   0.000
REMARK UNBOUND:                 0.000
REMARK SMILES Cc1cccc(O)c1C
REMARK SMILES IDX 1 1 2 2 8 3 6 4 5 5 4 6 3 7 9 8 7 9
REMARK H PARENT 7 10
REMARK Flexibility Score: inf
ROOT
ATOM      1  C   UNL     1      81.499   0.093   0.413  1.00  0.00     0.045 C 
ATOM      2  C   UNL     1      81.266   1.541   0.065  1.00  0.00    -0.045 A 
ATOM      3  C   UNL     1      82.263   2.335  -0.567  1.00  0.00    -0.006 A 
ATOM      4  C   UNL     1      81.976   3.692  -0.865  1.00  0.00     0.118 A 
ATOM      5  C   UNL     1      80.729   4.232  -0.539  1.00  0.00     0.046 A 
ATOM      6  C   UNL     1      79.758   3.449   0.081  1.00  0.00     0.004 A 
ATOM      7  C   UNL     1      80.023   2.115   0.381  1.00  0.00     0.004 A 
ATOM      8  C   UNL     1      83.619   1.772  -0.930  1.00  0.00     0.048 C 
ENDROOT
BRANCH   4   9
ATOM      9  O   UNL     1      82.905   4.531  -1.486  1.00  0.00    -0.508 OA
ATOM     10  H   UNL     1      82.668   5.432  -1.879  1.00  0.00     0.293 HD
ENDBRANCH   4   9
TORSDOF 1
ENDMDL
MODEL 2
REMARK VINA RESULT:    -5.282      1.780      3.285
REMARK INTER + INTRA:          -5.436
REMARK INTER:                  -5.436
REMARK INTRA:                   0.000
REMARK UNBOUND:                 0.000
REMARK SMILES Cc1cccc(O)c1C
REMARK SMILES IDX 1 1 2 2 8 3 6 4 5 5 4 6 3 7 9 8 7 9
REMARK H PARENT 7 10
REMARK Flexibility Score: inf
ROOT
ATOM      1  C   UNL     1      78.172  -0.298  -0.371  1.00  0.00     0.045 C 
ATOM      2  C   UNL     1      79.430   0.496  -0.134  1.00  0.00    -0.045 A 
ATOM      3  C   UNL     1      79.409   1.904   0.066  1.00  0.00    -0.006 A 
ATOM      4  C   UNL     1      80.632   2.588   0.284  1.00  0.00     0.118 A 
ATOM      5  C   UNL     1      81.837   1.880   0.301  1.00  0.00     0.046 A 
ATOM      6  C   UNL     1      81.851   0.501   0.105  1.00  0.00     0.004 A 
ATOM      7  C   UNL     1      80.659  -0.186  -0.111  1.00  0.00     0.004 A 
ATOM      8  C   UNL     1      78.117   2.691   0.052  1.00  0.00     0.048 C 
ENDROOT
BRANCH   4   9
ATOM      9  O   UNL     1      80.687   3.970   0.488  1.00  0.00    -0.508 OA
ATOM     10  H   UNL     1      80.605   4.403   1.398  1.00  0.00     0.293 HD
ENDBRANCH   4   9
TORSDOF 1
ENDMDL
MODEL 3
REMARK VINA RESULT:    -5.280      0.872      2.659
REMARK INTER + INTRA:          -5.435
REMARK INTER:                  -5.435
REMARK INTRA:                   0.000
REMARK UNBOUND:                 0.000
REMARK SMILES Cc1cccc(O)c1C
REMARK SMILES IDX 1 1 2 2 8 3 6 4 5 5 4 6 3 7 9 8 7 9
REMARK H PARENT 7 10
REMARK Flexibility Score: inf
ROOT
ATOM      1  C   UNL     1      79.010   3.027   0.431  1.00  0.00     0.045 C 
ATOM      2  C   UNL     1      80.374   2.466   0.121  1.00  0.00    -0.045 A 
ATOM      3  C   UNL     1      81.406   3.261  -0.449  1.00  0.00    -0.006 A 
ATOM      4  C   UNL     1      82.667   2.667  -0.714  1.00  0.00     0.118 A 
ATOM      5  C   UNL     1      82.882   1.318  -0.416  1.00  0.00     0.046 A 
ATOM      6  C   UNL     1      81.867   0.546   0.142  1.00  0.00     0.004 A 
ATOM      7  C   UNL     1      80.623   1.112   0.408  1.00  0.00     0.004 A 
ATOM      8  C   UNL     1      81.197   4.722  -0.779  1.00  0.00     0.048 C 
ENDROOT
BRANCH   4   9
ATOM      9  O   UNL     1      83.727   3.386  -1.272  1.00  0.00    -0.508 OA
ATOM     10  H   UNL     1      83.736   3.714  -2.229  1.00  0.00     0.293 HD
ENDBRANCH   4   9
TORSDOF 1
ENDMDL
MODEL 4
REMARK VINA RESULT:    -5.271      1.982      2.628
REMARK INTER + INTRA:          -5.425
REMARK INTER:                  -5.425
REMARK INTRA:                   0.000
REMARK UNBOUND:                 0.000
REMARK SMILES Cc1cccc(O)c1C
REMARK SMILES IDX 1 1 2 2 8 3 6 4 5 5 4 6 3 7 9 8 7 9
REMARK H PARENT 7 10
REMARK Flexibility Score: inf
ROOT
ATOM      1  C   UNL     1      80.940  -1.290  -0.102  1.00  0.00     0.045 C 
ATOM      2  C   UNL     1      80.098  -0.041  -0.057  1.00  0.00    -0.045 A 
ATOM      3  C   UNL     1      80.649   1.229   0.269  1.00  0.00    -0.006 A 
ATOM      4  C   UNL     1      79.797   2.364   0.293  1.00  0.00     0.118 A 
ATOM      5  C   UNL     1      78.437   2.225  -0.001  1.00  0.00     0.046 A 
ATOM      6  C   UNL     1      77.905   0.978  -0.318  1.00  0.00     0.004 A 
ATOM      7  C   UNL     1      78.726  -0.146  -0.346  1.00  0.00     0.004 A 
ATOM      8  C   UNL     1      82.117   1.403   0.589  1.00  0.00     0.048 C 
ENDROOT
BRANCH   4   9
ATOM      9  O   UNL     1      80.268   3.642   0.603  1.00  0.00    -0.508 OA
ATOM     10  H   UNL     1      80.263   4.413  -0.052  1.00  0.00     0.293 HD
ENDBRANCH   4   9
TORSDOF 1
ENDMDL
MODEL 5
REMARK VINA RESULT:    -5.231      2.272      3.067
REMARK INTER + INTRA:          -5.384
REMARK INTER:                  -5.384
REMARK INTRA:                   0.000
REMARK UNBOUND:                 0.000
REMARK SMILES Cc1cccc(O)c1C
REMARK SMILES IDX 1 1 2 2 8 3 6 4 5 5 4 6 3 7 9 8 7 9
REMARK H PARENT 7 10
REMARK Flexibility Score: inf
ROOT
ATOM      1  C   UNL     1      82.981   1.259  -0.002  1.00  0.00     0.045 C 
ATOM      2  C   UNL     1      81.605   1.873  -0.007  1.00  0.00    -0.045 A 
ATOM      3  C   UNL     1      80.424   1.081  -0.006  1.00  0.00    -0.006 A 
ATOM      4  C   UNL     1      79.161   1.726  -0.011  1.00  0.00     0.118 A 
ATOM      5  C   UNL     1      79.088   3.122  -0.018  1.00  0.00     0.046 A 
ATOM      6  C   UNL     1      80.248   3.892  -0.019  1.00  0.00     0.004 A 
ATOM      7  C   UNL     1      81.497   3.275  -0.015  1.00  0.00     0.004 A 
ATOM      8  C   UNL     1      80.479  -0.431   0.002  1.00  0.00     0.048 C 
ENDROOT
BRANCH   4   9
ATOM      9  O   UNL     1      77.959   1.013  -0.010  1.00  0.00    -0.508 OA
ATOM     10  H   UNL     1      77.313   1.007  -0.787  1.00  0.00     0.293 HD
ENDBRANCH   4   9
TORSDOF 1
ENDMDL
MODEL 6
REMARK VINA RESULT:    -5.171      1.849      2.527
REMARK INTER + INTRA:          -5.323
REMARK INTER:                  -5.323
REMARK INTRA:                   0.000
REMARK UNBOUND:                 0.000
REMARK SMILES Cc1cccc(O)c1C
REMARK SMILES IDX 1 1 2 2 8 3 6 4 5 5 4 6 3 7 9 8 7 9
REMARK H PARENT 7 10
REMARK Flexibility Score: inf
ROOT
ATOM      1  C   UNL     1      78.164  -0.465  -0.367  1.00  0.00     0.045 C 
ATOM      2  C   UNL     1      78.896   0.827  -0.112  1.00  0.00    -0.045 A 
ATOM      3  C   UNL     1      80.305   0.871   0.080  1.00  0.00    -0.006 A 
ATOM      4  C   UNL     1      80.929   2.123   0.316  1.00  0.00     0.118 A 
ATOM      5  C   UNL     1      80.162   3.291   0.359  1.00  0.00     0.046 A 
ATOM      6  C   UNL     1      78.783   3.240   0.172  1.00  0.00     0.004 A 
ATOM      7  C   UNL     1      78.154   2.020  -0.061  1.00  0.00     0.004 A 
ATOM      8  C   UNL     1      81.154  -0.379   0.037  1.00  0.00     0.048 C 
ENDROOT
BRANCH   4   9
ATOM      9  O   UNL     1      82.308   2.243   0.512  1.00  0.00    -0.508 OA
ATOM     10  H   UNL     1      82.946   2.567  -0.202  1.00  0.00     0.293 HD
ENDBRANCH   4   9
TORSDOF 1
ENDMDL
MODEL 7
REMARK VINA RESULT:    -5.153      2.150      3.520
REMARK INTER + INTRA:          -5.303
REMARK INTER:                  -5.303
REMARK INTRA:                   0.000
REMARK UNBOUND:                 0.000
REMARK SMILES Cc1cccc(O)c1C
REMARK SMILES IDX 1 1 2 2 8 3 6 4 5 5 4 6 3 7 9 8 7 9
REMARK H PARENT 7 10
REMARK Flexibility Score: inf
ROOT
ATOM      1  C   UNL     1      82.911   2.262   0.025  1.00  0.00     0.045 C 
ATOM      2  C   UNL     1      81.553   1.611  -0.012  1.00  0.00    -0.045 A 
ATOM      3  C   UNL     1      80.350   2.371  -0.016  1.00  0.00    -0.006 A 
ATOM      4  C   UNL     1      79.106   1.691  -0.051  1.00  0.00     0.118 A 
ATOM      5  C   UNL     1      79.071   0.294  -0.082  1.00  0.00     0.046 A 
ATOM      6  C   UNL     1      80.252  -0.444  -0.077  1.00  0.00     0.004 A 
ATOM      7  C   UNL     1      81.483   0.207  -0.042  1.00  0.00     0.004 A 
ATOM      8  C   UNL     1      80.363   3.883   0.016  1.00  0.00     0.048 C 
ENDROOT
BRANCH   4   9
ATOM      9  O   UNL     1      77.885   2.372  -0.058  1.00  0.00    -0.508 OA
ATOM     10  H   UNL     1      77.407   2.652  -0.904  1.00  0.00     0.293 HD
ENDBRANCH   4   9
TORSDOF 1
ENDMDL
MODEL 8
REMARK VINA RESULT:    -5.153      1.905      2.965
REMARK INTER + INTRA:          -5.303
REMARK INTER:                  -5.303
REMARK INTRA:                   0.000
REMARK UNBOUND:                 0.000
REMARK SMILES Cc1cccc(O)c1C
REMARK SMILES IDX 1 1 2 2 8 3 6 4 5 5 4 6 3 7 9 8 7 9
REMARK H PARENT 7 10
REMARK Flexibility Score: inf
ROOT
ATOM      1  C   UNL     1      81.747   4.736  -0.753  1.00  0.00     0.045 C 
ATOM      2  C   UNL     1      81.006   3.474  -0.397  1.00  0.00    -0.045 A 
ATOM      3  C   UNL     1      81.634   2.197  -0.422  1.00  0.00    -0.006 A 
ATOM      4  C   UNL     1      80.875   1.050  -0.075  1.00  0.00     0.118 A 
ATOM      5  C   UNL     1      79.531   1.181   0.284  1.00  0.00     0.046 A 
ATOM      6  C   UNL     1      78.922   2.433   0.305  1.00  0.00     0.004 A 
ATOM      7  C   UNL     1      79.652   3.571  -0.033  1.00  0.00     0.004 A 
ATOM      8  C   UNL     1      83.087   2.031  -0.806  1.00  0.00     0.048 C 
ENDROOT
BRANCH   4   9
ATOM      9  O   UNL     1      81.425  -0.235  -0.076  1.00  0.00    -0.508 OA
ATOM     10  H   UNL     1      82.141  -0.536   0.572  1.00  0.00     0.293 HD
ENDBRANCH   4   9
TORSDOF 1
ENDMDL
MODEL 9
REMARK VINA RESULT:    -5.095      1.315      2.467
REMARK INTER + INTRA:          -5.244
REMARK INTER:                  -5.244
REMARK INTRA:                   0.000
REMARK UNBOUND:                 0.000
REMARK SMILES Cc1cccc(O)c1C
REMARK SMILES IDX 1 1 2 2 8 3 6 4 5 5 4 6 3 7 9 8 7 9
REMARK H PARENT 7 10
REMARK Flexibility Score: inf
ROOT
ATOM      1  C   UNL     1      78.593   2.169   0.363  1.00  0.00     0.045 C 
ATOM      2  C   UNL     1      79.974   2.608  -0.049  1.00  0.00    -0.045 A 
ATOM      3  C   UNL     1      81.075   1.708  -0.080  1.00  0.00    -0.006 A 
ATOM      4  C   UNL     1      82.349   2.191  -0.477  1.00  0.00     0.118 A 
ATOM      5  C   UNL     1      82.509   3.533  -0.832  1.00  0.00     0.046 A 
ATOM      6  C   UNL     1      81.427   4.409  -0.800  1.00  0.00     0.004 A 
ATOM      7  C   UNL     1      80.170   3.953  -0.411  1.00  0.00     0.004 A 
ATOM      8  C   UNL     1      80.925   0.252   0.299  1.00  0.00     0.048 C 
ENDROOT
BRANCH   4   9
ATOM      9  O   UNL     1      83.475   1.365  -0.532  1.00  0.00    -0.508 OA
ATOM     10  H   UNL     1      84.313   1.529   0.008  1.00  0.00     0.293 HD
ENDBRANCH   4   9
TORSDOF 1
ENDMDL
