MODEL 1
REMARK VINA RESULT:    -3.879      0.000      0.000
REMARK INTER + INTRA:          -9.248
REMARK INTER:                  -7.281
REMARK INTRA:                  -1.967
REMARK UNBOUND:                -1.967
REMARK SMILES O=C([O-])CCCCCCCCCCCCCCC(=O)[O-]
REMARK SMILES IDX 10 1 9 2 8 3 7 4 6 5 5 6 4 7 2 8 1 9 3 10 11 11 12 12 13 13
REMARK SMILES IDX 14 14 15 15 16 16 17 17 18 18 19 19 20 20
REMARK H PARENT
REMARK Flexibility Score: inf
ROOT
ATOM      1  C   UNL     1      76.647 -74.889  -1.368  1.00  0.00     0.000 C 
ENDROOT
BRANCH   1   2
ATOM      2  C   UNL     1      75.874 -76.010  -2.087  1.00  0.00     0.000 C 
BRANCH   2   3
ATOM      3  C   UNL     1      74.465 -76.215  -1.511  1.00  0.00     0.000 C 
BRANCH   3   4
ATOM      4  C   UNL     1      74.404 -75.958   0.005  1.00  0.00     0.000 C 
BRANCH   4   5
ATOM      5  C   UNL     1      72.964 -75.935   0.543  1.00  0.00     0.000 C 
BRANCH   5   6
ATOM      6  C   UNL     1      72.891 -76.236   2.048  1.00  0.00     0.006 C 
BRANCH   6   7
ATOM      7  C   UNL     1      72.612 -77.721   2.296  1.00  0.00     0.053 C 
BRANCH   7   8
ATOM      8  C   UNL     1      72.415 -77.982   3.756  1.00  0.00     0.041 C 
ATOM      9  O   UNL     1      73.125 -77.387   4.608  1.00  0.00    -0.550 OA
ATOM     10  O   UNL     1      71.476 -78.917   4.174  1.00  0.00    -0.550 OA
ENDBRANCH   7   8
ENDBRANCH   6   7
ENDBRANCH   5   6
ENDBRANCH   4   5
ENDBRANCH   3   4
ENDBRANCH   2   3
ENDBRANCH   1   2
BRANCH   1  11
ATOM     11  C   UNL     1      77.382 -73.959  -2.346  1.00  0.00     0.000 C 
BRANCH  11  12
ATOM     12  C   UNL     1      76.552 -73.656  -3.607  1.00  0.00     0.000 C 
BRANCH  12  13
ATOM     13  C   UNL     1      76.382 -72.147  -3.849  1.00  0.00     0.000 C 
BRANCH  13  14
ATOM     14  C   UNL     1      74.989 -71.638  -3.442  1.00  0.00     0.000 C 
BRANCH  14  15
ATOM     15  C   UNL     1      73.973 -72.776  -3.233  1.00  0.00     0.000 C 
BRANCH  15  16
ATOM     16  C   UNL     1      73.328 -72.817  -1.835  1.00  0.00     0.006 C 
BRANCH  16  17
ATOM     17  C   UNL     1      74.164 -72.100  -0.769  1.00  0.00     0.053 C 
BRANCH  17  18
ATOM     18  C   UNL     1      73.366 -71.011  -0.125  1.00  0.00     0.041 C 
ATOM     19  O   UNL     1      72.118 -71.127  -0.000  1.00  0.00    -0.550 OA
ATOM     20  O   UNL     1      74.006 -69.888   0.384  1.00  0.00    -0.550 OA
ENDBRANCH  17  18
ENDBRANCH  16  17
ENDBRANCH  15  16
ENDBRANCH  14  15
ENDBRANCH  13  14
ENDBRANCH  12  13
ENDBRANCH  11  12
ENDBRANCH   1  11
TORSDOF 15
ENDMDL
MODEL 2
REMARK VINA RESULT:    -3.878      3.408      5.491
REMARK INTER + INTRA:          -9.245
REMARK INTER:                  -6.674
REMARK INTRA:                  -2.572
REMARK UNBOUND:                -1.967
REMARK SMILES O=C([O-])CCCCCCCCCCCCCCC(=O)[O-]
REMARK SMILES IDX 10 1 9 2 8 3 7 4 6 5 5 6 4 7 2 8 1 9 3 10 11 11 12 12 13 13
REMARK SMILES IDX 14 14 15 15 16 16 17 17 18 18 19 19 20 20
REMARK H PARENT
REMARK Flexibility Score: inf
ROOT
ATOM      1  C   UNL     1      76.340 -72.177  -3.757  1.00  0.00     0.000 C 
ENDROOT
BRANCH   1   2
ATOM      2  C   UNL     1      77.475 -73.216  -3.722  1.00  0.00     0.000 C 
BRANCH   2   3
ATOM      3  C   UNL     1      76.996 -74.625  -4.105  1.00  0.00     0.000 C 
BRANCH   3   4
ATOM      4  C   UNL     1      77.777 -75.732  -3.376  1.00  0.00     0.000 C 
BRANCH   4   5
ATOM      5  C   UNL     1      78.248 -75.301  -1.978  1.00  0.00     0.000 C 
BRANCH   5   6
ATOM      6  C   UNL     1      78.508 -76.496  -1.047  1.00  0.00     0.006 C 
BRANCH   6   7
ATOM      7  C   UNL     1      78.710 -77.783  -1.853  1.00  0.00     0.053 C 
BRANCH   7   8
ATOM      8  C   UNL     1      78.116 -78.952  -1.133  1.00  0.00     0.041 C 
ATOM      9  O   UNL     1      77.019 -79.439  -1.509  1.00  0.00    -0.550 OA
ATOM     10  O   UNL     1      78.756 -79.477  -0.016  1.00  0.00    -0.550 OA
ENDBRANCH   7   8
ENDBRANCH   6   7
ENDBRANCH   5   6
ENDBRANCH   4   5
ENDBRANCH   3   4
ENDBRANCH   2   3
ENDBRANCH   1   2
BRANCH   1  11
ATOM     11  C   UNL     1      74.995 -72.759  -3.295  1.00  0.00     0.000 C 
BRANCH  11  12
ATOM     12  C   UNL     1      74.428 -72.030  -2.064  1.00  0.00     0.000 C 
BRANCH  12  13
ATOM     13  C   UNL     1      74.069 -72.995  -0.923  1.00  0.00     0.000 C 
BRANCH  13  14
ATOM     14  C   UNL     1      75.158 -74.055  -0.684  1.00  0.00     0.000 C 
BRANCH  14  15
ATOM     15  C   UNL     1      74.587 -75.404  -0.209  1.00  0.00     0.000 C 
BRANCH  15  16
ATOM     16  C   UNL     1      74.806 -76.577  -1.181  1.00  0.00     0.006 C 
BRANCH  16  17
ATOM     17  C   UNL     1      74.125 -76.365  -2.539  1.00  0.00     0.053 C 
BRANCH  17  18
ATOM     18  C   UNL     1      72.641 -76.275  -2.371  1.00  0.00     0.041 C 
ATOM     19  O   UNL     1      72.026 -75.233  -2.717  1.00  0.00    -0.550 OA
ATOM     20  O   UNL     1      71.931 -77.362  -1.878  1.00  0.00    -0.550 OA
ENDBRANCH  17  18
ENDBRANCH  16  17
ENDBRANCH  15  16
ENDBRANCH  14  15
ENDBRANCH  13  14
ENDBRANCH  12  13
ENDBRANCH  11  12
ENDBRANCH   1  11
TORSDOF 15
ENDMDL
MODEL 3
REMARK VINA RESULT:    -3.869      1.243      5.715
REMARK INTER + INTRA:          -9.229
REMARK INTER:                  -7.382
REMARK INTRA:                  -1.847
REMARK UNBOUND:                -1.967
REMARK SMILES O=C([O-])CCCCCCCCCCCCCCC(=O)[O-]
REMARK SMILES IDX 10 1 9 2 8 3 7 4 6 5 5 6 4 7 2 8 1 9 3 10 11 11 12 12 13 13
REMARK SMILES IDX 14 14 15 15 16 16 17 17 18 18 19 19 20 20
REMARK H PARENT
REMARK Flexibility Score: inf
ROOT
ATOM      1  C   UNL     1      77.873 -74.104  -2.286  1.00  0.00     0.000 C 
ENDROOT
BRANCH   1   2
ATOM      2  C   UNL     1      77.060 -73.376  -3.371  1.00  0.00     0.000 C 
BRANCH   2   3
ATOM      3  C   UNL     1      76.030 -74.293  -4.049  1.00  0.00     0.000 C 
BRANCH   3   4
ATOM      4  C   UNL     1      74.600 -73.729  -3.975  1.00  0.00     0.000 C 
BRANCH   4   5
ATOM      5  C   UNL     1      74.521 -72.422  -3.171  1.00  0.00     0.000 C 
BRANCH   5   6
ATOM      6  C   UNL     1      73.531 -72.508  -1.999  1.00  0.00     0.006 C 
BRANCH   6   7
ATOM      7  C   UNL     1      74.029 -71.694  -0.801  1.00  0.00     0.053 C 
BRANCH   7   8
ATOM      8  C   UNL     1      72.878 -71.075  -0.072  1.00  0.00     0.041 C 
ATOM      9  O   UNL     1      71.767 -71.663  -0.026  1.00  0.00    -0.550 OA
ATOM     10  O   UNL     1      73.022 -69.825   0.519  1.00  0.00    -0.550 OA
ENDBRANCH   7   8
ENDBRANCH   6   7
ENDBRANCH   5   6
ENDBRANCH   4   5
ENDBRANCH   3   4
ENDBRANCH   2   3
ENDBRANCH   1   2
BRANCH   1  11
ATOM     11  C   UNL     1      78.115 -75.584  -2.624  1.00  0.00     0.000 C 
BRANCH  11  12
ATOM     12  C   UNL     1      78.271 -76.458  -1.367  1.00  0.00     0.000 C 
BRANCH  12  13
ATOM     13  C   UNL     1      77.160 -76.207  -0.336  1.00  0.00     0.000 C 
BRANCH  13  14
ATOM     14  C   UNL     1      75.766 -76.583  -0.868  1.00  0.00     0.000 C 
BRANCH  14  15
ATOM     15  C   UNL     1      74.687 -75.547  -0.504  1.00  0.00     0.000 C 
BRANCH  15  16
ATOM     16  C   UNL     1      73.314 -76.144  -0.141  1.00  0.00     0.006 C 
BRANCH  16  17
ATOM     17  C   UNL     1      72.817 -75.703   1.241  1.00  0.00     0.053 C 
BRANCH  17  18
ATOM     18  C   UNL     1      72.920 -76.830   2.219  1.00  0.00     0.041 C 
ATOM     19  O   UNL     1      73.157 -76.597   3.433  1.00  0.00    -0.550 OA
ATOM     20  O   UNL     1      72.704 -78.136   1.798  1.00  0.00    -0.550 OA
ENDBRANCH  17  18
ENDBRANCH  16  17
ENDBRANCH  15  16
ENDBRANCH  14  15
ENDBRANCH  13  14
ENDBRANCH  12  13
ENDBRANCH  11  12
ENDBRANCH   1  11
TORSDOF 15
ENDMDL
MODEL 4
REMARK VINA RESULT:    -3.840      2.175      3.332
REMARK INTER + INTRA:          -9.174
REMARK INTER:                  -6.733
REMARK INTRA:                  -2.441
REMARK UNBOUND:                -1.967
REMARK SMILES O=C([O-])CCCCCCCCCCCCCCC(=O)[O-]
REMARK SMILES IDX 10 1 9 2 8 3 7 4 6 5 5 6 4 7 2 8 1 9 3 10 11 11 12 12 13 13
REMARK SMILES IDX 14 14 15 15 16 16 17 17 18 18 19 19 20 20
REMARK H PARENT
REMARK Flexibility Score: inf
ROOT
ATOM      1  C   UNL     1      77.731 -75.891  -0.829  1.00  0.00     0.000 C 
ENDROOT
BRANCH   1   2
ATOM      2  C   UNL     1      78.511 -76.767  -1.826  1.00  0.00     0.000 C 
BRANCH   2   3
ATOM      3  C   UNL     1      77.701 -77.983  -2.299  1.00  0.00     0.000 C 
BRANCH   3   4
ATOM      4  C   UNL     1      77.132 -77.797  -3.717  1.00  0.00     0.000 C 
BRANCH   4   5
ATOM      5  C   UNL     1      75.656 -77.367  -3.709  1.00  0.00     0.000 C 
BRANCH   5   6
ATOM      6  C   UNL     1      74.931 -77.765  -2.414  1.00  0.00     0.006 C 
BRANCH   6   7
ATOM      7  C   UNL     1      73.957 -76.670  -1.973  1.00  0.00     0.053 C 
BRANCH   7   8
ATOM      8  C   UNL     1      73.794 -76.679  -0.486  1.00  0.00     0.041 C 
ATOM      9  O   UNL     1      73.319 -77.690   0.094  1.00  0.00    -0.550 OA
ATOM     10  O   UNL     1      74.126 -75.552   0.256  1.00  0.00    -0.550 OA
ENDBRANCH   7   8
ENDBRANCH   6   7
ENDBRANCH   5   6
ENDBRANCH   4   5
ENDBRANCH   3   4
ENDBRANCH   2   3
ENDBRANCH   1   2
BRANCH   1  11
ATOM     11  C   UNL     1      77.026 -74.708  -1.511  1.00  0.00     0.000 C 
BRANCH  11  12
ATOM     12  C   UNL     1      77.757 -74.240  -2.782  1.00  0.00     0.000 C 
BRANCH  12  13
ATOM     13  C   UNL     1      76.955 -73.188  -3.566  1.00  0.00     0.000 C 
BRANCH  13  14
ATOM     14  C   UNL     1      75.547 -73.681  -3.944  1.00  0.00     0.000 C 
BRANCH  14  15
ATOM     15  C   UNL     1      74.446 -72.658  -3.612  1.00  0.00     0.000 C 
BRANCH  15  16
ATOM     16  C   UNL     1      73.691 -72.925  -2.296  1.00  0.00     0.006 C 
BRANCH  16  17
ATOM     17  C   UNL     1      74.317 -72.209  -1.093  1.00  0.00     0.053 C 
BRANCH  17  18
ATOM     18  C   UNL     1      73.299 -71.356  -0.404  1.00  0.00     0.041 C 
ATOM     19  O   UNL     1      73.660 -70.357   0.270  1.00  0.00    -0.550 OA
ATOM     20  O   UNL     1      71.946 -71.637  -0.547  1.00  0.00    -0.550 OA
ENDBRANCH  17  18
ENDBRANCH  16  17
ENDBRANCH  15  16
ENDBRANCH  14  15
ENDBRANCH  13  14
ENDBRANCH  12  13
ENDBRANCH  11  12
ENDBRANCH   1  11
TORSDOF 15
ENDMDL
MODEL 5
REMARK VINA RESULT:    -3.830      1.683      5.444
REMARK INTER + INTRA:          -9.156
REMARK INTER:                  -6.649
REMARK INTRA:                  -2.506
REMARK UNBOUND:                -1.967
REMARK SMILES O=C([O-])CCCCCCCCCCCCCCC(=O)[O-]
REMARK SMILES IDX 10 1 9 2 8 3 7 4 6 5 5 6 4 7 2 8 1 9 3 10 11 11 12 12 13 13
REMARK SMILES IDX 14 14 15 15 16 16 17 17 18 18 19 19 20 20
REMARK H PARENT
REMARK Flexibility Score: inf
ROOT
ATOM      1  C   UNL     1      77.183 -74.290  -2.168  1.00  0.00     0.000 C 
ENDROOT
BRANCH   1   2
ATOM      2  C   UNL     1      77.612 -73.182  -3.146  1.00  0.00     0.000 C 
BRANCH   2   3
ATOM      3  C   UNL     1      76.414 -72.440  -3.757  1.00  0.00     0.000 C 
BRANCH   3   4
ATOM      4  C   UNL     1      75.146 -73.311  -3.810  1.00  0.00     0.000 C 
BRANCH   4   5
ATOM      5  C   UNL     1      73.911 -72.592  -3.244  1.00  0.00     0.000 C 
BRANCH   5   6
ATOM      6  C   UNL     1      73.491 -73.133  -1.869  1.00  0.00     0.006 C 
BRANCH   6   7
ATOM      7  C   UNL     1      74.232 -72.403  -0.745  1.00  0.00     0.053 C 
BRANCH   7   8
ATOM      8  C   UNL     1      73.453 -71.209  -0.292  1.00  0.00     0.041 C 
ATOM      9  O   UNL     1      74.051 -70.158   0.057  1.00  0.00    -0.550 OA
ATOM     10  O   UNL     1      72.067 -71.271  -0.214  1.00  0.00    -0.550 OA
ENDBRANCH   7   8
ENDBRANCH   6   7
ENDBRANCH   5   6
ENDBRANCH   4   5
ENDBRANCH   3   4
ENDBRANCH   2   3
ENDBRANCH   1   2
BRANCH   1  11
ATOM     11  C   UNL     1      77.922 -75.614  -2.417  1.00  0.00     0.000 C 
BRANCH  11  12
ATOM     12  C   UNL     1      77.463 -76.311  -3.711  1.00  0.00     0.000 C 
BRANCH  12  13
ATOM     13  C   UNL     1      76.503 -77.481  -3.438  1.00  0.00     0.000 C 
BRANCH  13  14
ATOM     14  C   UNL     1      75.038 -77.125  -3.744  1.00  0.00     0.000 C 
BRANCH  14  15
ATOM     15  C   UNL     1      74.275 -76.617  -2.508  1.00  0.00     0.000 C 
BRANCH  15  16
ATOM     16  C   UNL     1      74.792 -77.157  -1.161  1.00  0.00     0.006 C 
BRANCH  16  17
ATOM     17  C   UNL     1      74.686 -76.133  -0.025  1.00  0.00     0.053 C 
BRANCH  17  18
ATOM     18  C   UNL     1      73.341 -76.214   0.627  1.00  0.00     0.041 C 
ATOM     19  O   UNL     1      72.568 -75.221   0.609  1.00  0.00    -0.550 OA
ATOM     20  O   UNL     1      72.923 -77.402   1.212  1.00  0.00    -0.550 OA
ENDBRANCH  17  18
ENDBRANCH  16  17
ENDBRANCH  15  16
ENDBRANCH  14  15
ENDBRANCH  13  14
ENDBRANCH  12  13
ENDBRANCH  11  12
ENDBRANCH   1  11
TORSDOF 15
ENDMDL
MODEL 6
REMARK VINA RESULT:    -3.801      3.128      5.095
REMARK INTER + INTRA:          -9.102
REMARK INTER:                  -7.202
REMARK INTRA:                  -1.900
REMARK UNBOUND:                -1.967
REMARK SMILES O=C([O-])CCCCCCCCCCCCCCC(=O)[O-]
REMARK SMILES IDX 10 1 9 2 8 3 7 4 6 5 5 6 4 7 2 8 1 9 3 10 11 11 12 12 13 13
REMARK SMILES IDX 14 14 15 15 16 16 17 17 18 18 19 19 20 20
REMARK H PARENT
REMARK Flexibility Score: inf
ROOT
ATOM      1  C   UNL     1      73.752 -72.930  -3.264  1.00  0.00     0.000 C 
ENDROOT
BRANCH   1   2
ATOM      2  C   UNL     1      74.139 -72.360  -1.888  1.00  0.00     0.000 C 
BRANCH   2   3
ATOM      3  C   UNL     1      73.698 -73.268  -0.730  1.00  0.00     0.000 C 
BRANCH   3   4
ATOM      4  C   UNL     1      74.732 -74.362  -0.411  1.00  0.00     0.000 C 
BRANCH   4   5
ATOM      5  C   UNL     1      74.295 -75.751  -0.904  1.00  0.00     0.000 C 
BRANCH   5   6
ATOM      6  C   UNL     1      72.896 -76.142  -0.403  1.00  0.00     0.006 C 
BRANCH   6   7
ATOM      7  C   UNL     1      72.987 -77.179   0.720  1.00  0.00     0.053 C 
BRANCH   7   8
ATOM      8  C   UNL     1      72.849 -76.521   2.056  1.00  0.00     0.041 C 
ATOM      9  O   UNL     1      72.218 -75.438   2.167  1.00  0.00    -0.550 OA
ATOM     10  O   UNL     1      73.456 -77.082   3.173  1.00  0.00    -0.550 OA
ENDBRANCH   7   8
ENDBRANCH   6   7
ENDBRANCH   5   6
ENDBRANCH   4   5
ENDBRANCH   3   4
ENDBRANCH   2   3
ENDBRANCH   1   2
BRANCH   1  11
ATOM     11  C   UNL     1      74.976 -73.331  -4.102  1.00  0.00     0.000 C 
BRANCH  11  12
ATOM     12  C   UNL     1      76.216 -72.477  -3.780  1.00  0.00     0.000 C 
BRANCH  12  13
ATOM     13  C   UNL     1      77.494 -73.321  -3.658  1.00  0.00     0.000 C 
BRANCH  13  14
ATOM     14  C   UNL     1      77.660 -73.943  -2.261  1.00  0.00     0.000 C 
BRANCH  14  15
ATOM     15  C   UNL     1      78.144 -75.404  -2.310  1.00  0.00     0.000 C 
BRANCH  15  16
ATOM     16  C   UNL     1      77.938 -76.196  -1.006  1.00  0.00     0.006 C 
BRANCH  16  17
ATOM     17  C   UNL     1      77.438 -77.626  -1.248  1.00  0.00     0.053 C 
BRANCH  17  18
ATOM     18  C   UNL     1      78.563 -78.603  -1.110  1.00  0.00     0.041 C 
ATOM     19  O   UNL     1      78.607 -79.384  -0.124  1.00  0.00    -0.550 OA
ATOM     20  O   UNL     1      79.537 -78.685  -2.097  1.00  0.00    -0.550 OA
ENDBRANCH  17  18
ENDBRANCH  16  17
ENDBRANCH  15  16
ENDBRANCH  14  15
ENDBRANCH  13  14
ENDBRANCH  12  13
ENDBRANCH  11  12
ENDBRANCH   1  11
TORSDOF 15
ENDMDL
MODEL 7
REMARK VINA RESULT:    -3.795      1.943      2.943
REMARK INTER + INTRA:          -9.089
REMARK INTER:                  -7.140
REMARK INTRA:                  -1.950
REMARK UNBOUND:                -1.967
REMARK SMILES O=C([O-])CCCCCCCCCCCCCCC(=O)[O-]
REMARK SMILES IDX 10 1 9 2 8 3 7 4 6 5 5 6 4 7 2 8 1 9 3 10 11 11 12 12 13 13
REMARK SMILES IDX 14 14 15 15 16 16 17 17 18 18 19 19 20 20
REMARK H PARENT
REMARK Flexibility Score: inf
ROOT
ATOM      1  C   UNL     1      77.753 -73.988  -2.256  1.00  0.00     0.000 C 
ENDROOT
BRANCH   1   2
ATOM      2  C   UNL     1      78.082 -75.491  -2.246  1.00  0.00     0.000 C 
BRANCH   2   3
ATOM      3  C   UNL     1      77.603 -76.207  -3.518  1.00  0.00     0.000 C 
BRANCH   3   4
ATOM      4  C   UNL     1      76.311 -77.012  -3.290  1.00  0.00     0.000 C 
BRANCH   4   5
ATOM      5  C   UNL     1      76.173 -77.513  -1.843  1.00  0.00     0.000 C 
BRANCH   5   6
ATOM      6  C   UNL     1      74.787 -77.223  -1.247  1.00  0.00     0.006 C 
BRANCH   6   7
ATOM      7  C   UNL     1      74.787 -75.899  -0.479  1.00  0.00     0.053 C 
BRANCH   7   8
ATOM      8  C   UNL     1      73.615 -75.829   0.448  1.00  0.00     0.041 C 
ATOM      9  O   UNL     1      72.852 -74.828   0.430  1.00  0.00    -0.550 OA
ATOM     10  O   UNL     1      73.391 -76.850   1.363  1.00  0.00    -0.550 OA
ENDBRANCH   7   8
ENDBRANCH   6   7
ENDBRANCH   5   6
ENDBRANCH   4   5
ENDBRANCH   3   4
ENDBRANCH   2   3
ENDBRANCH   1   2
BRANCH   1  11
ATOM     11  C   UNL     1      77.497 -73.451  -3.673  1.00  0.00     0.000 C 
BRANCH  11  12
ATOM     12  C   UNL     1      76.198 -72.630  -3.767  1.00  0.00     0.000 C 
BRANCH  12  13
ATOM     13  C   UNL     1      74.946 -73.520  -3.840  1.00  0.00     0.000 C 
BRANCH  13  14
ATOM     14  C   UNL     1      73.923 -73.190  -2.740  1.00  0.00     0.000 C 
BRANCH  14  15
ATOM     15  C   UNL     1      74.389 -72.054  -1.810  1.00  0.00     0.000 C 
BRANCH  15  16
ATOM     16  C   UNL     1      73.363 -71.632  -0.741  1.00  0.00     0.006 C 
BRANCH  16  17
ATOM     17  C   UNL     1      73.812 -70.409   0.068  1.00  0.00     0.053 C 
BRANCH  17  18
ATOM     18  C   UNL     1      72.701 -69.928   0.947  1.00  0.00     0.041 C 
ATOM     19  O   UNL     1      71.724 -70.680   1.203  1.00  0.00    -0.550 OA
ATOM     20  O   UNL     1      72.767 -68.666   1.523  1.00  0.00    -0.550 OA
ENDBRANCH  17  18
ENDBRANCH  16  17
ENDBRANCH  15  16
ENDBRANCH  14  15
ENDBRANCH  13  14
ENDBRANCH  12  13
ENDBRANCH  11  12
ENDBRANCH   1  11
TORSDOF 15
ENDMDL
MODEL 8
REMARK VINA RESULT:    -3.793      3.291      5.822
REMARK INTER + INTRA:          -9.087
REMARK INTER:                  -6.606
REMARK INTRA:                  -2.481
REMARK UNBOUND:                -1.967
REMARK SMILES O=C([O-])CCCCCCCCCCCCCCC(=O)[O-]
REMARK SMILES IDX 10 1 9 2 8 3 7 4 6 5 5 6 4 7 2 8 1 9 3 10 11 11 12 12 13 13
REMARK SMILES IDX 14 14 15 15 16 16 17 17 18 18 19 19 20 20
REMARK H PARENT
REMARK Flexibility Score: inf
ROOT
ATOM      1  C   UNL     1      77.516 -76.118  -0.827  1.00  0.00     0.000 C 
ENDROOT
BRANCH   1   2
ATOM      2  C   UNL     1      78.328 -75.349  -1.885  1.00  0.00     0.000 C 
BRANCH   2   3
ATOM      3  C   UNL     1      77.442 -74.762  -2.994  1.00  0.00     0.000 C 
BRANCH   3   4
ATOM      4  C   UNL     1      77.623 -73.241  -3.149  1.00  0.00     0.000 C 
BRANCH   4   5
ATOM      5  C   UNL     1      76.387 -72.559  -3.758  1.00  0.00     0.000 C 
BRANCH   5   6
ATOM      6  C   UNL     1      75.073 -73.241  -3.348  1.00  0.00     0.006 C 
BRANCH   6   7
ATOM      7  C   UNL     1      74.309 -72.389  -2.330  1.00  0.00     0.053 C 
BRANCH   7   8
ATOM      8  C   UNL     1      74.215 -73.099  -1.017  1.00  0.00     0.041 C 
ATOM      9  O   UNL     1      75.251 -73.548  -0.463  1.00  0.00    -0.550 OA
ATOM     10  O   UNL     1      72.974 -73.304  -0.426  1.00  0.00    -0.550 OA
ENDBRANCH   7   8
ENDBRANCH   6   7
ENDBRANCH   5   6
ENDBRANCH   4   5
ENDBRANCH   3   4
ENDBRANCH   2   3
ENDBRANCH   1   2
BRANCH   1  11
ATOM     11  C   UNL     1      77.901 -77.604  -0.754  1.00  0.00     0.000 C 
BRANCH  11  12
ATOM     12  C   UNL     1      78.724 -78.060  -1.972  1.00  0.00     0.000 C 
BRANCH  12  13
ATOM     13  C   UNL     1      77.960 -79.059  -2.856  1.00  0.00     0.000 C 
BRANCH  13  14
ATOM     14  C   UNL     1      77.118 -78.364  -3.939  1.00  0.00     0.000 C 
BRANCH  14  15
ATOM     15  C   UNL     1      75.604 -78.479  -3.686  1.00  0.00     0.000 C 
BRANCH  15  16
ATOM     16  C   UNL     1      74.847 -77.138  -3.668  1.00  0.00     0.006 C 
BRANCH  16  17
ATOM     17  C   UNL     1      74.292 -76.783  -2.283  1.00  0.00     0.053 C 
BRANCH  17  18
ATOM     18  C   UNL     1      72.898 -76.252  -2.399  1.00  0.00     0.041 C 
ATOM     19  O   UNL     1      72.112 -76.317  -1.418  1.00  0.00    -0.550 OA
ATOM     20  O   UNL     1      72.483 -75.640  -3.575  1.00  0.00    -0.550 OA
ENDBRANCH  17  18
ENDBRANCH  16  17
ENDBRANCH  15  16
ENDBRANCH  14  15
ENDBRANCH  13  14
ENDBRANCH  12  13
ENDBRANCH  11  12
ENDBRANCH   1  11
TORSDOF 15
ENDMDL
MODEL 9
REMARK VINA RESULT:    -3.776      4.335      5.902
REMARK INTER + INTRA:          -9.054
REMARK INTER:                  -6.585
REMARK INTRA:                  -2.469
REMARK UNBOUND:                -1.967
REMARK SMILES O=C([O-])CCCCCCCCCCCCCCC(=O)[O-]
REMARK SMILES IDX 10 1 9 2 8 3 7 4 6 5 5 6 4 7 2 8 1 9 3 10 11 11 12 12 13 13
REMARK SMILES IDX 14 14 15 15 16 16 17 17 18 18 19 19 20 20
REMARK H PARENT
REMARK Flexibility Score: inf
ROOT
ATOM      1  C   UNL     1      73.794 -72.790  -2.873  1.00  0.00     0.000 C 
ENDROOT
BRANCH   1   2
ATOM      2  C   UNL     1      73.508 -72.991  -1.374  1.00  0.00     0.000 C 
BRANCH   2   3
ATOM      3  C   UNL     1      74.692 -73.628  -0.630  1.00  0.00     0.000 C 
BRANCH   3   4
ATOM      4  C   UNL     1      74.579 -75.160  -0.542  1.00  0.00     0.000 C 
BRANCH   4   5
ATOM      5  C   UNL     1      73.180 -75.672  -0.924  1.00  0.00     0.000 C 
BRANCH   5   6
ATOM      6  C   UNL     1      73.211 -76.642  -2.115  1.00  0.00     0.006 C 
BRANCH   6   7
ATOM      7  C   UNL     1      74.431 -77.563  -2.039  1.00  0.00     0.053 C 
BRANCH   7   8
ATOM      8  C   UNL     1      74.743 -78.135  -3.385  1.00  0.00     0.041 C 
ATOM      9  O   UNL     1      73.817 -78.558  -4.125  1.00  0.00    -0.550 OA
ATOM     10  O   UNL     1      76.063 -78.241  -3.806  1.00  0.00    -0.550 OA
ENDBRANCH   7   8
ENDBRANCH   6   7
ENDBRANCH   5   6
ENDBRANCH   4   5
ENDBRANCH   3   4
ENDBRANCH   2   3
ENDBRANCH   1   2
BRANCH   1  11
ATOM     11  C   UNL     1      75.015 -71.890  -3.124  1.00  0.00     0.000 C 
BRANCH  11  12
ATOM     12  C   UNL     1      76.120 -72.606  -3.921  1.00  0.00     0.000 C 
BRANCH  12  13
ATOM     13  C   UNL     1      75.881 -74.121  -4.027  1.00  0.00     0.000 C 
BRANCH  13  14
ATOM     14  C   UNL     1      77.094 -74.943  -3.560  1.00  0.00     0.000 C 
BRANCH  14  15
ATOM     15  C   UNL     1      77.818 -74.312  -2.357  1.00  0.00     0.000 C 
BRANCH  15  16
ATOM     16  C   UNL     1      78.659 -75.295  -1.521  1.00  0.00     0.006 C 
BRANCH  16  17
ATOM     17  C   UNL     1      77.885 -76.558  -1.126  1.00  0.00     0.053 C 
BRANCH  17  18
ATOM     18  C   UNL     1      78.658 -77.784  -1.501  1.00  0.00     0.041 C 
ATOM     19  O   UNL     1      78.603 -78.813  -0.778  1.00  0.00    -0.550 OA
ATOM     20  O   UNL     1      79.400 -77.805  -2.675  1.00  0.00    -0.550 OA
ENDBRANCH  17  18
ENDBRANCH  16  17
ENDBRANCH  15  16
ENDBRANCH  14  15
ENDBRANCH  13  14
ENDBRANCH  12  13
ENDBRANCH  11  12
ENDBRANCH   1  11
TORSDOF 15
ENDMDL
