MODEL 1
REMARK VINA RESULT:    -4.675      0.000      0.000
REMARK INTER + INTRA:          -6.930
REMARK INTER:                  -6.588
REMARK INTRA:                  -0.342
REMARK UNBOUND:                -0.342
REMARK SMILES CCCCCCCCC(=O)[O-]
REMARK SMILES IDX 6 1 7 2 8 3 9 4 10 5 11 6 5 7 4 8 3 9 2 10 1 11
REMARK H PARENT
REMARK Flexibility Score: inf
ROOT
ATOM      1  C   UNL     1      11.654   2.991  -1.986  1.00  0.00     0.000 C 
ENDROOT
BRANCH   1   2
ATOM      2  C   UNL     1      11.511   2.703  -3.495  1.00  0.00     0.006 C 
BRANCH   2   3
ATOM      3  C   UNL     1      11.528   1.211  -3.864  1.00  0.00     0.053 C 
BRANCH   3   4
ATOM      4  C   UNL     1      11.542   1.002  -5.347  1.00  0.00     0.041 C 
ATOM      5  O   UNL     1      11.262   1.953  -6.125  1.00  0.00    -0.550 OA
ATOM      6  O   UNL     1      11.897  -0.234  -5.871  1.00  0.00    -0.550 OA
ENDBRANCH   3   4
ENDBRANCH   2   3
ENDBRANCH   1   2
BRANCH   1   7
ATOM      7  C   UNL     1      10.738   2.162  -1.069  1.00  0.00     0.000 C 
BRANCH   7   8
ATOM      8  C   UNL     1      11.518   1.335  -0.032  1.00  0.00    -0.000 C 
BRANCH   8   9
ATOM      9  C   UNL     1      12.805   0.726  -0.609  1.00  0.00    -0.000 C 
BRANCH   9  10
ATOM     10  C   UNL     1      13.560  -0.140   0.410  1.00  0.00    -0.003 C 
ATOM     11  C   UNL     1      12.674  -0.477   1.606  1.00  0.00     0.004 C 
ENDBRANCH   9  10
ENDBRANCH   8   9
ENDBRANCH   7   8
ENDBRANCH   1   7
TORSDOF 7
ENDMDL
MODEL 2
REMARK VINA RESULT:    -4.441      4.293      6.071
REMARK INTER + INTRA:          -6.600
REMARK INTER:                  -6.216
REMARK INTRA:                  -0.384
REMARK UNBOUND:                -0.342
REMARK SMILES CCCCCCCCC(=O)[O-]
REMARK SMILES IDX 6 1 7 2 8 3 9 4 10 5 11 6 5 7 4 8 3 9 2 10 1 11
REMARK H PARENT
REMARK Flexibility Score: inf
ROOT
ATOM      1  C   UNL     1      10.233   2.514  -0.328  1.00  0.00     0.000 C 
ENDROOT
BRANCH   1   2
ATOM      2  C   UNL     1       9.956   3.217   1.018  1.00  0.00     0.006 C 
BRANCH   2   3
ATOM      3  C   UNL     1       9.157   4.524   0.902  1.00  0.00     0.053 C 
BRANCH   3   4
ATOM      4  C   UNL     1       9.923   5.697   1.433  1.00  0.00     0.041 C 
ATOM      5  O   UNL     1      10.497   5.625   2.552  1.00  0.00    -0.550 OA
ATOM      6  O   UNL     1      10.030   6.857   0.678  1.00  0.00    -0.550 OA
ENDBRANCH   3   4
ENDBRANCH   2   3
ENDBRANCH   1   2
BRANCH   1   7
ATOM      7  C   UNL     1      11.477   1.608  -0.351  1.00  0.00     0.000 C 
BRANCH   7   8
ATOM      8  C   UNL     1      12.249   1.685  -1.680  1.00  0.00    -0.000 C 
BRANCH   8   9
ATOM      9  C   UNL     1      11.837   2.895  -2.532  1.00  0.00    -0.000 C 
BRANCH   9  10
ATOM     10  C   UNL     1      11.470   2.508  -3.973  1.00  0.00    -0.003 C 
ATOM     11  C   UNL     1      11.427   0.992  -4.140  1.00  0.00     0.004 C 
ENDBRANCH   9  10
ENDBRANCH   8   9
ENDBRANCH   7   8
ENDBRANCH   1   7
TORSDOF 7
ENDMDL
MODEL 3
REMARK VINA RESULT:    -4.431      3.705      5.669
REMARK INTER + INTRA:          -6.587
REMARK INTER:                  -6.201
REMARK INTRA:                  -0.386
REMARK UNBOUND:                -0.342
REMARK SMILES CCCCCCCCC(=O)[O-]
REMARK SMILES IDX 6 1 7 2 8 3 9 4 10 5 11 6 5 7 4 8 3 9 2 10 1 11
REMARK H PARENT
REMARK Flexibility Score: inf
ROOT
ATOM      1  C   UNL     1      11.459   1.642  -0.467  1.00  0.00     0.000 C 
ENDROOT
BRANCH   1   2
ATOM      2  C   UNL     1      10.093   2.351  -0.346  1.00  0.00     0.006 C 
BRANCH   2   3
ATOM      3  C   UNL     1       9.898   3.140   0.958  1.00  0.00     0.053 C 
BRANCH   3   4
ATOM      4  C   UNL     1       9.204   4.447   0.722  1.00  0.00     0.041 C 
ATOM      5  O   UNL     1       8.008   4.605   1.088  1.00  0.00    -0.550 OA
ATOM      6  O   UNL     1       9.887   5.500   0.129  1.00  0.00    -0.550 OA
ENDBRANCH   3   4
ENDBRANCH   2   3
ENDBRANCH   1   2
BRANCH   1   7
ATOM      7  C   UNL     1      12.260   1.971  -1.739  1.00  0.00     0.000 C 
BRANCH   7   8
ATOM      8  C   UNL     1      11.493   2.887  -2.709  1.00  0.00    -0.000 C 
BRANCH   8   9
ATOM      9  C   UNL     1      11.532   2.376  -4.158  1.00  0.00    -0.000 C 
BRANCH   9  10
ATOM     10  C   UNL     1      11.567   0.842  -4.245  1.00  0.00    -0.003 C 
ATOM     11  C   UNL     1      11.659   0.377  -5.695  1.00  0.00     0.004 C 
ENDBRANCH   9  10
ENDBRANCH   8   9
ENDBRANCH   7   8
ENDBRANCH   1   7
TORSDOF 7
ENDMDL
MODEL 4
REMARK VINA RESULT:    -4.416      2.101      3.921
REMARK INTER + INTRA:          -6.566
REMARK INTER:                  -5.966
REMARK INTRA:                  -0.600
REMARK UNBOUND:                -0.342
REMARK SMILES CCCCCCCCC(=O)[O-]
REMARK SMILES IDX 6 1 7 2 8 3 9 4 10 5 11 6 5 7 4 8 3 9 2 10 1 11
REMARK H PARENT
REMARK Flexibility Score: inf
ROOT
ATOM      1  C   UNL     1      11.448   1.609  -0.290  1.00  0.00     0.000 C 
ENDROOT
BRANCH   1   2
ATOM      2  C   UNL     1      12.304   1.628  -1.574  1.00  0.00     0.006 C 
BRANCH   2   3
ATOM      3  C   UNL     1      11.891   2.694  -2.601  1.00  0.00     0.053 C 
BRANCH   3   4
ATOM      4  C   UNL     1      11.611   2.096  -3.946  1.00  0.00     0.041 C 
ATOM      5  O   UNL     1      11.688   0.849  -4.114  1.00  0.00    -0.550 OA
ATOM      6  O   UNL     1      11.233   2.911  -5.004  1.00  0.00    -0.550 OA
ENDBRANCH   3   4
ENDBRANCH   2   3
ENDBRANCH   1   2
BRANCH   1   7
ATOM      7  C   UNL     1      10.153   2.439  -0.353  1.00  0.00     0.000 C 
BRANCH   7   8
ATOM      8  C   UNL     1       9.890   3.235   0.937  1.00  0.00    -0.000 C 
BRANCH   8   9
ATOM      9  C   UNL     1       9.637   4.727   0.668  1.00  0.00    -0.000 C 
BRANCH   9  10
ATOM     10  C   UNL     1       9.625   5.066  -0.831  1.00  0.00    -0.003 C 
ATOM     11  C   UNL     1      10.672   6.125  -1.162  1.00  0.00     0.004 C 
ENDBRANCH   9  10
ENDBRANCH   8   9
ENDBRANCH   7   8
ENDBRANCH   1   7
TORSDOF 7
ENDMDL
MODEL 5
REMARK VINA RESULT:    -4.273      3.629      5.443
REMARK INTER + INTRA:          -6.364
REMARK INTER:                  -5.930
REMARK INTRA:                  -0.433
REMARK UNBOUND:                -0.342
REMARK SMILES CCCCCCCCC(=O)[O-]
REMARK SMILES IDX 6 1 7 2 8 3 9 4 10 5 11 6 5 7 4 8 3 9 2 10 1 11
REMARK H PARENT
REMARK Flexibility Score: inf
ROOT
ATOM      1  C   UNL     1      10.215   2.367  -0.431  1.00  0.00     0.000 C 
ENDROOT
BRANCH   1   2
ATOM      2  C   UNL     1       9.957   3.161   0.867  1.00  0.00     0.006 C 
BRANCH   2   3
ATOM      3  C   UNL     1       8.535   3.729   0.995  1.00  0.00     0.053 C 
BRANCH   3   4
ATOM      4  C   UNL     1       8.191   4.639  -0.145  1.00  0.00     0.041 C 
ATOM      5  O   UNL     1       7.145   4.443  -0.819  1.00  0.00    -0.550 OA
ATOM      6  O   UNL     1       9.009   5.721  -0.441  1.00  0.00    -0.550 OA
ENDBRANCH   3   4
ENDBRANCH   2   3
ENDBRANCH   1   2
BRANCH   1   7
ATOM      7  C   UNL     1      11.544   1.591  -0.472  1.00  0.00     0.000 C 
BRANCH   7   8
ATOM      8  C   UNL     1      12.302   1.773  -1.798  1.00  0.00    -0.000 C 
BRANCH   8   9
ATOM      9  C   UNL     1      11.699   2.881  -2.676  1.00  0.00    -0.000 C 
BRANCH   9  10
ATOM     10  C   UNL     1      11.446   2.422  -4.120  1.00  0.00    -0.003 C 
ATOM     11  C   UNL     1      11.417   0.899  -4.214  1.00  0.00     0.004 C 
ENDBRANCH   9  10
ENDBRANCH   8   9
ENDBRANCH   7   8
ENDBRANCH   1   7
TORSDOF 7
ENDMDL
MODEL 6
REMARK VINA RESULT:    -4.238      1.494      2.891
REMARK INTER + INTRA:          -6.314
REMARK INTER:                  -5.852
REMARK INTRA:                  -0.463
REMARK UNBOUND:                -0.342
REMARK SMILES CCCCCCCCC(=O)[O-]
REMARK SMILES IDX 6 1 7 2 8 3 9 4 10 5 11 6 5 7 4 8 3 9 2 10 1 11
REMARK H PARENT
REMARK Flexibility Score: inf
ROOT
ATOM      1  C   UNL     1      12.201   2.558  -2.350  1.00  0.00     0.000 C 
ENDROOT
BRANCH   1   2
ATOM      2  C   UNL     1      11.067   2.243  -3.348  1.00  0.00     0.006 C 
BRANCH   2   3
ATOM      3  C   UNL     1      11.167   0.860  -4.011  1.00  0.00     0.053 C 
BRANCH   3   4
ATOM      4  C   UNL     1      11.500   0.962  -5.469  1.00  0.00     0.041 C 
ATOM      5  O   UNL     1      11.215   2.007  -6.113  1.00  0.00    -0.550 OA
ATOM      6  O   UNL     1      12.153  -0.084  -6.107  1.00  0.00    -0.550 OA
ENDBRANCH   3   4
ENDBRANCH   2   3
ENDBRANCH   1   2
BRANCH   1   7
ATOM      7  C   UNL     1      12.163   1.756  -1.037  1.00  0.00     0.000 C 
BRANCH   7   8
ATOM      8  C   UNL     1      10.744   1.626  -0.456  1.00  0.00    -0.000 C 
BRANCH   8   9
ATOM      9  C   UNL     1      10.403   2.758   0.526  1.00  0.00    -0.000 C 
BRANCH   9  10
ATOM     10  C   UNL     1       8.944   3.225   0.409  1.00  0.00    -0.003 C 
ATOM     11  C   UNL     1       8.839   4.484  -0.446  1.00  0.00     0.004 C 
ENDBRANCH   9  10
ENDBRANCH   8   9
ENDBRANCH   7   8
ENDBRANCH   1   7
TORSDOF 7
ENDMDL
MODEL 7
REMARK VINA RESULT:    -4.170      5.043      6.511
REMARK INTER + INTRA:          -6.219
REMARK INTER:                  -5.883
REMARK INTRA:                  -0.336
REMARK UNBOUND:                -0.342
REMARK SMILES CCCCCCCCC(=O)[O-]
REMARK SMILES IDX 6 1 7 2 8 3 9 4 10 5 11 6 5 7 4 8 3 9 2 10 1 11
REMARK H PARENT
REMARK Flexibility Score: inf
ROOT
ATOM      1  C   UNL     1       9.152   3.036   0.341  1.00  0.00     0.000 C 
ENDROOT
BRANCH   1   2
ATOM      2  C   UNL     1      10.019   3.942   1.241  1.00  0.00     0.006 C 
BRANCH   2   3
ATOM      3  C   UNL     1       9.727   5.444   1.103  1.00  0.00     0.053 C 
BRANCH   3   4
ATOM      4  C   UNL     1       9.577   6.109   2.437  1.00  0.00     0.041 C 
ATOM      5  O   UNL     1       8.452   6.534   2.811  1.00  0.00    -0.550 OA
ATOM      6  O   UNL     1      10.674   6.231   3.280  1.00  0.00    -0.550 OA
ENDBRANCH   3   4
ENDBRANCH   2   3
ENDBRANCH   1   2
BRANCH   1   7
ATOM      7  C   UNL     1       9.909   2.316  -0.789  1.00  0.00     0.000 C 
BRANCH   7   8
ATOM      8  C   UNL     1      11.261   1.740  -0.333  1.00  0.00    -0.000 C 
BRANCH   8   9
ATOM      9  C   UNL     1      12.304   1.719  -1.462  1.00  0.00    -0.000 C 
BRANCH   9  10
ATOM     10  C   UNL     1      11.771   2.317  -2.772  1.00  0.00    -0.003 C 
ATOM     11  C   UNL     1      11.665   1.252  -3.859  1.00  0.00     0.004 C 
ENDBRANCH   9  10
ENDBRANCH   8   9
ENDBRANCH   7   8
ENDBRANCH   1   7
TORSDOF 7
ENDMDL
MODEL 8
REMARK VINA RESULT:    -4.121      3.691      4.503
REMARK INTER + INTRA:          -6.149
REMARK INTER:                  -5.771
REMARK INTRA:                  -0.378
REMARK UNBOUND:                -0.342
REMARK SMILES CCCCCCCCC(=O)[O-]
REMARK SMILES IDX 6 1 7 2 8 3 9 4 10 5 11 6 5 7 4 8 3 9 2 10 1 11
REMARK H PARENT
REMARK Flexibility Score: inf
ROOT
ATOM      1  C   UNL     1      10.546   3.464  -2.826  1.00  0.00     0.000 C 
ENDROOT
BRANCH   1   2
ATOM      2  C   UNL     1       9.511   4.181  -1.933  1.00  0.00     0.006 C 
BRANCH   2   3
ATOM      3  C   UNL     1       8.858   3.285  -0.869  1.00  0.00     0.053 C 
BRANCH   3   4
ATOM      4  C   UNL     1       9.047   3.830   0.514  1.00  0.00     0.041 C 
ATOM      5  O   UNL     1       8.231   4.667   0.983  1.00  0.00    -0.550 OA
ATOM      6  O   UNL     1      10.106   3.388   1.296  1.00  0.00    -0.550 OA
ENDBRANCH   3   4
ENDBRANCH   2   3
ENDBRANCH   1   2
BRANCH   1   7
ATOM      7  C   UNL     1      11.858   3.072  -2.124  1.00  0.00     0.000 C 
BRANCH   7   8
ATOM      8  C   UNL     1      11.982   1.556  -1.891  1.00  0.00    -0.000 C 
BRANCH   8   9
ATOM      9  C   UNL     1      12.013   1.189  -0.399  1.00  0.00    -0.000 C 
BRANCH   9  10
ATOM     10  C   UNL     1      13.027   0.079  -0.082  1.00  0.00    -0.003 C 
ATOM     11  C   UNL     1      12.875  -0.408   1.356  1.00  0.00     0.004 C 
ENDBRANCH   9  10
ENDBRANCH   8   9
ENDBRANCH   7   8
ENDBRANCH   1   7
TORSDOF 7
ENDMDL
MODEL 9
REMARK VINA RESULT:    -3.945      3.174      4.842
REMARK INTER + INTRA:          -5.901
REMARK INTER:                  -5.344
REMARK INTRA:                  -0.557
REMARK UNBOUND:                -0.342
REMARK SMILES CCCCCCCCC(=O)[O-]
REMARK SMILES IDX 6 1 7 2 8 3 9 4 10 5 11 6 5 7 4 8 3 9 2 10 1 11
REMARK H PARENT
REMARK Flexibility Score: inf
ROOT
ATOM      1  C   UNL     1       8.958   3.113   0.266  1.00  0.00     0.000 C 
ENDROOT
BRANCH   1   2
ATOM      2  C   UNL     1       9.776   4.302   0.811  1.00  0.00     0.006 C 
BRANCH   2   3
ATOM      3  C   UNL     1       9.518   5.636   0.094  1.00  0.00     0.053 C 
BRANCH   3   4
ATOM      4  C   UNL     1      10.114   5.657  -1.280  1.00  0.00     0.041 C 
ATOM      5  O   UNL     1      11.291   6.070  -1.454  1.00  0.00    -0.550 OA
ATOM      6  O   UNL     1       9.381   5.190  -2.363  1.00  0.00    -0.550 OA
ENDBRANCH   3   4
ENDBRANCH   2   3
ENDBRANCH   1   2
BRANCH   1   7
ATOM      7  C   UNL     1       9.755   2.095  -0.569  1.00  0.00     0.000 C 
BRANCH   7   8
ATOM      8  C   UNL     1      11.214   1.951  -0.103  1.00  0.00    -0.000 C 
BRANCH   8   9
ATOM      9  C   UNL     1      12.171   1.615  -1.258  1.00  0.00    -0.000 C 
BRANCH   9  10
ATOM     10  C   UNL     1      11.902   2.458  -2.514  1.00  0.00    -0.003 C 
ATOM     11  C   UNL     1      11.623   1.568  -3.722  1.00  0.00     0.004 C 
ENDBRANCH   9  10
ENDBRANCH   8   9
ENDBRANCH   7   8
ENDBRANCH   1   7
TORSDOF 7
ENDMDL
