MODEL 1
REMARK VINA RESULT:    -2.203      0.000      0.000
REMARK INTER + INTRA:          -5.922
REMARK INTER:                  -4.134
REMARK INTRA:                  -1.788
REMARK UNBOUND:                -1.788
REMARK SMILES O=C([O-])CCCCCCCCCCCCCCC(=O)[O-]
REMARK SMILES IDX 10 1 9 2 8 3 7 4 6 5 5 6 4 7 2 8 1 9 3 10 11 11 12 12 13 13
REMARK SMILES IDX 14 14 15 15 16 16 17 17 18 18 19 19 20 20
REMARK H PARENT
REMARK Flexibility Score: inf
ROOT
ATOM      1  C   UNL     1      -6.149  -9.137  -6.100  1.00  0.00     0.000 C 
ENDROOT
BRANCH   1   2
ATOM      2  C   UNL     1      -5.104 -10.125  -5.556  1.00  0.00     0.000 C 
BRANCH   2   3
ATOM      3  C   UNL     1      -3.654  -9.776  -5.956  1.00  0.00     0.000 C 
BRANCH   3   4
ATOM      4  C   UNL     1      -3.598  -8.850  -7.183  1.00  0.00     0.000 C 
BRANCH   4   5
ATOM      5  C   UNL     1      -3.662  -9.632  -8.514  1.00  0.00     0.000 C 
BRANCH   5   6
ATOM      6  C   UNL     1      -4.176  -8.790  -9.698  1.00  0.00     0.006 C 
BRANCH   6   7
ATOM      7  C   UNL     1      -3.938  -7.282  -9.542  1.00  0.00     0.053 C 
BRANCH   7   8
ATOM      8  C   UNL     1      -5.226  -6.523  -9.436  1.00  0.00     0.041 C 
ATOM      9  O   UNL     1      -6.328  -7.120  -9.559  1.00  0.00    -0.550 OA
ATOM     10  O   UNL     1      -5.209  -5.159  -9.177  1.00  0.00    -0.550 OA
ENDBRANCH   7   8
ENDBRANCH   6   7
ENDBRANCH   5   6
ENDBRANCH   4   5
ENDBRANCH   3   4
ENDBRANCH   2   3
ENDBRANCH   1   2
BRANCH   1  11
ATOM     11  C   UNL     1      -7.437  -9.833  -6.570  1.00  0.00     0.000 C 
BRANCH  11  12
ATOM     12  C   UNL     1      -7.448 -10.125  -8.083  1.00  0.00     0.000 C 
BRANCH  12  13
ATOM     13  C   UNL     1      -8.833 -10.089  -8.755  1.00  0.00     0.000 C 
BRANCH  13  14
ATOM     14  C   UNL     1      -9.826  -9.159  -8.040  1.00  0.00     0.000 C 
BRANCH  14  15
ATOM     15  C   UNL     1     -10.082  -7.849  -8.809  1.00  0.00     0.000 C 
BRANCH  15  16
ATOM     16  C   UNL     1      -9.889  -6.556  -7.991  1.00  0.00     0.006 C 
BRANCH  16  17
ATOM     17  C   UNL     1      -8.568  -6.483  -7.209  1.00  0.00     0.053 C 
BRANCH  17  18
ATOM     18  C   UNL     1      -8.259  -5.087  -6.763  1.00  0.00     0.041 C 
ATOM     19  O   UNL     1      -7.103  -4.791  -6.361  1.00  0.00    -0.550 OA
ATOM     20  O   UNL     1      -9.257  -4.121  -6.763  1.00  0.00    -0.550 OA
ENDBRANCH  17  18
ENDBRANCH  16  17
ENDBRANCH  15  16
ENDBRANCH  14  15
ENDBRANCH  13  14
ENDBRANCH  12  13
ENDBRANCH  11  12
ENDBRANCH   1  11
TORSDOF 15
ENDMDL
MODEL 2
REMARK VINA RESULT:    -1.806     22.127     24.010
REMARK INTER + INTRA:          -5.178
REMARK INTER:                  -4.081
REMARK INTRA:                  -1.097
REMARK UNBOUND:                -1.788
REMARK SMILES O=C([O-])CCCCCCCCCCCCCCC(=O)[O-]
REMARK SMILES IDX 10 1 9 2 8 3 7 4 6 5 5 6 4 7 2 8 1 9 3 10 11 11 12 12 13 13
REMARK SMILES IDX 14 14 15 15 16 16 17 17 18 18 19 19 20 20
REMARK H PARENT
REMARK Flexibility Score: inf
ROOT
ATOM      1  C   UNL     1      10.124   6.996   2.166  1.00  0.00     0.000 C 
ENDROOT
BRANCH   1   2
ATOM      2  C   UNL     1       9.835   8.280   2.962  1.00  0.00     0.000 C 
BRANCH   2   3
ATOM      3  C   UNL     1       9.950   8.101   4.492  1.00  0.00     0.000 C 
BRANCH   3   4
ATOM      4  C   UNL     1       9.400   6.742   4.958  1.00  0.00     0.000 C 
BRANCH   4   5
ATOM      5  C   UNL     1       8.068   6.880   5.729  1.00  0.00     0.000 C 
BRANCH   5   6
ATOM      6  C   UNL     1       6.829   6.925   4.813  1.00  0.00     0.006 C 
BRANCH   6   7
ATOM      7  C   UNL     1       6.625   8.270   4.104  1.00  0.00     0.053 C 
BRANCH   7   8
ATOM      8  C   UNL     1       5.520   9.067   4.726  1.00  0.00     0.041 C 
ATOM      9  O   UNL     1       5.746   9.787   5.735  1.00  0.00    -0.550 OA
ATOM     10  O   UNL     1       4.244   9.032   4.178  1.00  0.00    -0.550 OA
ENDBRANCH   7   8
ENDBRANCH   6   7
ENDBRANCH   5   6
ENDBRANCH   4   5
ENDBRANCH   3   4
ENDBRANCH   2   3
ENDBRANCH   1   2
BRANCH   1  11
ATOM     11  C   UNL     1       8.861   6.397   1.526  1.00  0.00     0.000 C 
BRANCH  11  12
ATOM     12  C   UNL     1       8.999   4.897   1.207  1.00  0.00     0.000 C 
BRANCH  12  13
ATOM     13  C   UNL     1       9.359   3.995   2.402  1.00  0.00     0.000 C 
BRANCH  13  14
ATOM     14  C   UNL     1       9.974   2.651   1.978  1.00  0.00     0.000 C 
BRANCH  14  15
ATOM     15  C   UNL     1      10.124   1.663   3.151  1.00  0.00     0.000 C 
BRANCH  15  16
ATOM     16  C   UNL     1       9.356   2.040   4.433  1.00  0.00     0.006 C 
BRANCH  16  17
ATOM     17  C   UNL     1       9.765   1.245   5.683  1.00  0.00     0.053 C 
BRANCH  17  18
ATOM     18  C   UNL     1       8.582   0.880   6.526  1.00  0.00     0.041 C 
ATOM     19  O   UNL     1       8.538   1.216   7.738  1.00  0.00    -0.550 OA
ATOM     20  O   UNL     1       7.541   0.140   5.979  1.00  0.00    -0.550 OA
ENDBRANCH  17  18
ENDBRANCH  16  17
ENDBRANCH  15  16
ENDBRANCH  14  15
ENDBRANCH  13  14
ENDBRANCH  12  13
ENDBRANCH  11  12
ENDBRANCH   1  11
TORSDOF 15
ENDMDL
MODEL 3
REMARK VINA RESULT:    -1.718      2.139      5.435
REMARK INTER + INTRA:          -5.013
REMARK INTER:                  -3.291
REMARK INTRA:                  -1.722
REMARK UNBOUND:                -1.788
REMARK SMILES O=C([O-])CCCCCCCCCCCCCCC(=O)[O-]
REMARK SMILES IDX 10 1 9 2 8 3 7 4 6 5 5 6 4 7 2 8 1 9 3 10 11 11 12 12 13 13
REMARK SMILES IDX 14 14 15 15 16 16 17 17 18 18 19 19 20 20
REMARK H PARENT
REMARK Flexibility Score: inf
ROOT
ATOM      1  C   UNL     1      -8.170  -5.519 -10.021  1.00  0.00     0.000 C 
ENDROOT
BRANCH   1   2
ATOM      2  C   UNL     1      -6.919  -6.353  -9.699  1.00  0.00     0.000 C 
BRANCH   2   3
ATOM      3  C   UNL     1      -5.865  -5.593  -8.864  1.00  0.00     0.000 C 
BRANCH   3   4
ATOM      4  C   UNL     1      -6.486  -4.904  -7.637  1.00  0.00     0.000 C 
BRANCH   4   5
ATOM      5  C   UNL     1      -7.539  -5.790  -6.934  1.00  0.00     0.000 C 
BRANCH   5   6
ATOM      6  C   UNL     1      -8.537  -4.994  -6.071  1.00  0.00     0.006 C 
BRANCH   6   7
ATOM      7  C   UNL     1      -9.867  -4.690  -6.773  1.00  0.00     0.053 C 
BRANCH   7   8
ATOM      8  C   UNL     1      -9.954  -3.259  -7.208  1.00  0.00     0.041 C 
ATOM      9  O   UNL     1      -9.856  -2.330  -6.362  1.00  0.00    -0.550 OA
ATOM     10  O   UNL     1     -10.120  -2.950  -8.552  1.00  0.00    -0.550 OA
ENDBRANCH   7   8
ENDBRANCH   6   7
ENDBRANCH   5   6
ENDBRANCH   4   5
ENDBRANCH   3   4
ENDBRANCH   2   3
ENDBRANCH   1   2
BRANCH   1  11
ATOM     11  C   UNL     1      -9.444  -6.374 -10.124  1.00  0.00     0.000 C 
BRANCH  11  12
ATOM     12  C   UNL     1      -9.460  -7.555  -9.135  1.00  0.00     0.000 C 
BRANCH  12  13
ATOM     13  C   UNL     1      -9.876  -8.913  -9.730  1.00  0.00     0.000 C 
BRANCH  13  14
ATOM     14  C   UNL     1      -9.006 -10.080  -9.235  1.00  0.00     0.000 C 
BRANCH  14  15
ATOM     15  C   UNL     1      -7.497  -9.780  -9.316  1.00  0.00     0.000 C 
BRANCH  15  16
ATOM     16  C   UNL     1      -6.687 -10.125  -8.050  1.00  0.00     0.006 C 
BRANCH  16  17
ATOM     17  C   UNL     1      -5.760  -9.004  -7.556  1.00  0.00     0.053 C 
BRANCH  17  18
ATOM     18  C   UNL     1      -4.323  -9.292  -7.860  1.00  0.00     0.041 C 
ATOM     19  O   UNL     1      -3.420  -8.939  -7.056  1.00  0.00    -0.550 OA
ATOM     20  O   UNL     1      -3.977  -9.922  -9.049  1.00  0.00    -0.550 OA
ENDBRANCH  17  18
ENDBRANCH  16  17
ENDBRANCH  15  16
ENDBRANCH  14  15
ENDBRANCH  13  14
ENDBRANCH  12  13
ENDBRANCH  11  12
ENDBRANCH   1  11
TORSDOF 15
ENDMDL
MODEL 4
REMARK VINA RESULT:    -1.706      1.935      5.660
REMARK INTER + INTRA:          -4.991
REMARK INTER:                  -3.608
REMARK INTRA:                  -1.383
REMARK UNBOUND:                -1.788
REMARK SMILES O=C([O-])CCCCCCCCCCCCCCC(=O)[O-]
REMARK SMILES IDX 10 1 9 2 8 3 7 4 6 5 5 6 4 7 2 8 1 9 3 10 11 11 12 12 13 13
REMARK SMILES IDX 14 14 15 15 16 16 17 17 18 18 19 19 20 20
REMARK H PARENT
REMARK Flexibility Score: inf
ROOT
ATOM      1  C   UNL     1      -5.504  -5.440  -9.146  1.00  0.00     0.000 C 
ENDROOT
BRANCH   1   2
ATOM      2  C   UNL     1      -6.671  -5.223 -10.123  1.00  0.00     0.000 C 
BRANCH   2   3
ATOM      3  C   UNL     1      -7.898  -6.116  -9.834  1.00  0.00     0.000 C 
BRANCH   3   4
ATOM      4  C   UNL     1      -9.221  -5.340  -9.954  1.00  0.00     0.000 C 
BRANCH   4   5
ATOM      5  C   UNL     1     -10.087  -5.454  -8.681  1.00  0.00     0.000 C 
BRANCH   5   6
ATOM      6  C   UNL     1     -10.092  -4.174  -7.822  1.00  0.00     0.006 C 
BRANCH   6   7
ATOM      7  C   UNL     1      -9.546  -4.372  -6.402  1.00  0.00     0.053 C 
BRANCH   7   8
ATOM      8  C   UNL     1      -8.217  -5.063  -6.407  1.00  0.00     0.041 C 
ATOM      9  O   UNL     1      -8.153  -6.318  -6.494  1.00  0.00    -0.550 OA
ATOM     10  O   UNL     1      -7.047  -4.318  -6.339  1.00  0.00    -0.550 OA
ENDBRANCH   7   8
ENDBRANCH   6   7
ENDBRANCH   5   6
ENDBRANCH   4   5
ENDBRANCH   3   4
ENDBRANCH   2   3
ENDBRANCH   1   2
BRANCH   1  11
ATOM     11  C   UNL     1      -4.764  -6.766  -9.390  1.00  0.00     0.000 C 
BRANCH  11  12
ATOM     12  C   UNL     1      -3.801  -7.139  -8.248  1.00  0.00     0.000 C 
BRANCH  12  13
ATOM     13  C   UNL     1      -3.440  -8.633  -8.146  1.00  0.00     0.000 C 
BRANCH  13  14
ATOM     14  C   UNL     1      -4.601  -9.561  -8.539  1.00  0.00     0.000 C 
BRANCH  14  15
ATOM     15  C   UNL     1      -5.511  -9.922  -7.349  1.00  0.00     0.000 C 
BRANCH  15  16
ATOM     16  C   UNL     1      -7.003  -9.581  -7.533  1.00  0.00     0.006 C 
BRANCH  16  17
ATOM     17  C   UNL     1      -7.495  -9.620  -8.988  1.00  0.00     0.053 C 
BRANCH  17  18
ATOM     18  C   UNL     1      -8.972  -9.392  -9.085  1.00  0.00     0.041 C 
ATOM     19  O   UNL     1      -9.599  -9.725 -10.125  1.00  0.00    -0.550 OA
ATOM     20  O   UNL     1      -9.651  -8.782  -8.037  1.00  0.00    -0.550 OA
ENDBRANCH  17  18
ENDBRANCH  16  17
ENDBRANCH  15  16
ENDBRANCH  14  15
ENDBRANCH  13  14
ENDBRANCH  12  13
ENDBRANCH  11  12
ENDBRANCH   1  11
TORSDOF 15
ENDMDL
MODEL 5
REMARK VINA RESULT:    -1.449     21.640     23.498
REMARK INTER + INTRA:          -4.507
REMARK INTER:                  -3.668
REMARK INTRA:                  -0.839
REMARK UNBOUND:                -1.788
REMARK SMILES O=C([O-])CCCCCCCCCCCCCCC(=O)[O-]
REMARK SMILES IDX 10 1 9 2 8 3 7 4 6 5 5 6 4 7 2 8 1 9 3 10 11 11 12 12 13 13
REMARK SMILES IDX 14 14 15 15 16 16 17 17 18 18 19 19 20 20
REMARK H PARENT
REMARK Flexibility Score: inf
ROOT
ATOM      1  C   UNL     1       9.536   4.980   1.887  1.00  0.00     0.000 C 
ENDROOT
BRANCH   1   2
ATOM      2  C   UNL     1       9.388   3.475   1.605  1.00  0.00     0.000 C 
BRANCH   2   3
ATOM      3  C   UNL     1      10.125   2.578   2.624  1.00  0.00     0.000 C 
BRANCH   3   4
ATOM      4  C   UNL     1       9.877   1.082   2.365  1.00  0.00     0.000 C 
BRANCH   4   5
ATOM      5  C   UNL     1       9.460   0.326   3.646  1.00  0.00     0.000 C 
BRANCH   5   6
ATOM      6  C   UNL     1      10.104   0.886   4.929  1.00  0.00     0.006 C 
BRANCH   6   7
ATOM      7  C   UNL     1       9.159   1.748   5.777  1.00  0.00     0.053 C 
BRANCH   7   8
ATOM      8  C   UNL     1       8.359   0.921   6.736  1.00  0.00     0.041 C 
ATOM      9  O   UNL     1       7.460   0.148   6.313  1.00  0.00    -0.550 OA
ATOM     10  O   UNL     1       8.623   0.988   8.099  1.00  0.00    -0.550 OA
ENDBRANCH   7   8
ENDBRANCH   6   7
ENDBRANCH   5   6
ENDBRANCH   4   5
ENDBRANCH   3   4
ENDBRANCH   2   3
ENDBRANCH   1   2
BRANCH   1  11
ATOM     11  C   UNL     1       8.249   5.768   1.594  1.00  0.00     0.000 C 
BRANCH  11  12
ATOM     12  C   UNL     1       7.775   6.617   2.789  1.00  0.00     0.000 C 
BRANCH  12  13
ATOM     13  C   UNL     1       7.980   5.981   4.176  1.00  0.00     0.000 C 
BRANCH  13  14
ATOM     14  C   UNL     1       8.834   6.848   5.116  1.00  0.00     0.000 C 
BRANCH  14  15
ATOM     15  C   UNL     1       9.038   8.282   4.591  1.00  0.00     0.000 C 
BRANCH  15  16
ATOM     16  C   UNL     1       7.998   9.314   5.070  1.00  0.00     0.006 C 
BRANCH  16  17
ATOM     17  C   UNL     1       6.913   9.657   4.038  1.00  0.00     0.053 C 
BRANCH  17  18
ATOM     18  C   UNL     1       5.538   9.356   4.551  1.00  0.00     0.041 C 
ATOM     19  O   UNL     1       4.830   8.479   3.991  1.00  0.00    -0.550 OA
ATOM     20  O   UNL     1       5.027  10.069   5.629  1.00  0.00    -0.550 OA
ENDBRANCH  17  18
ENDBRANCH  16  17
ENDBRANCH  15  16
ENDBRANCH  14  15
ENDBRANCH  13  14
ENDBRANCH  12  13
ENDBRANCH  11  12
ENDBRANCH   1  11
TORSDOF 15
ENDMDL
MODEL 6
REMARK VINA RESULT:    -1.351      2.070      5.607
REMARK INTER + INTRA:          -4.324
REMARK INTER:                  -2.879
REMARK INTRA:                  -1.445
REMARK UNBOUND:                -1.788
REMARK SMILES O=C([O-])CCCCCCCCCCCCCCC(=O)[O-]
REMARK SMILES IDX 10 1 9 2 8 3 7 4 6 5 5 6 4 7 2 8 1 9 3 10 11 11 12 12 13 13
REMARK SMILES IDX 14 14 15 15 16 16 17 17 18 18 19 19 20 20
REMARK H PARENT
REMARK Flexibility Score: inf
ROOT
ATOM      1  C   UNL     1      -5.485  -5.710  -9.001  1.00  0.00     0.000 C 
ENDROOT
BRANCH   1   2
ATOM      2  C   UNL     1      -6.690  -6.033  -9.900  1.00  0.00     0.000 C 
BRANCH   2   3
ATOM      3  C   UNL     1      -7.594  -7.156  -9.345  1.00  0.00     0.000 C 
BRANCH   3   4
ATOM      4  C   UNL     1      -8.947  -7.223 -10.073  1.00  0.00     0.000 C 
BRANCH   4   5
ATOM      5  C   UNL     1     -10.124  -7.473  -9.104  1.00  0.00     0.000 C 
BRANCH   5   6
ATOM      6  C   UNL     1      -9.972  -6.751  -7.751  1.00  0.00     0.006 C 
BRANCH   6   7
ATOM      7  C   UNL     1      -9.819  -5.229  -7.870  1.00  0.00     0.053 C 
BRANCH   7   8
ATOM      8  C   UNL     1      -8.937  -4.672  -6.794  1.00  0.00     0.041 C 
ATOM      9  O   UNL     1      -8.237  -5.441  -6.084  1.00  0.00    -0.550 OA
ATOM     10  O   UNL     1      -8.873  -3.299  -6.590  1.00  0.00    -0.550 OA
ENDBRANCH   7   8
ENDBRANCH   6   7
ENDBRANCH   5   6
ENDBRANCH   4   5
ENDBRANCH   3   4
ENDBRANCH   2   3
ENDBRANCH   1   2
BRANCH   1  11
ATOM     11  C   UNL     1      -4.140  -6.048  -9.666  1.00  0.00     0.000 C 
BRANCH  11  12
ATOM     12  C   UNL     1      -3.204  -6.863  -8.753  1.00  0.00     0.000 C 
BRANCH  12  13
ATOM     13  C   UNL     1      -3.519  -8.367  -8.655  1.00  0.00     0.000 C 
BRANCH  13  14
ATOM     14  C   UNL     1      -4.344  -8.889  -9.843  1.00  0.00     0.000 C 
BRANCH  14  15
ATOM     15  C   UNL     1      -5.420  -9.909  -9.425  1.00  0.00     0.000 C 
BRANCH  15  16
ATOM     16  C   UNL     1      -5.569 -10.125  -7.906  1.00  0.00     0.006 C 
BRANCH  16  17
ATOM     17  C   UNL     1      -6.884  -9.600  -7.309  1.00  0.00     0.053 C 
BRANCH  17  18
ATOM     18  C   UNL     1      -6.947  -9.804  -5.827  1.00  0.00     0.041 C 
ATOM     19  O   UNL     1      -8.036  -9.663  -5.212  1.00  0.00    -0.550 OA
ATOM     20  O   UNL     1      -5.793 -10.120  -5.120  1.00  0.00    -0.550 OA
ENDBRANCH  17  18
ENDBRANCH  16  17
ENDBRANCH  15  16
ENDBRANCH  14  15
ENDBRANCH  13  14
ENDBRANCH  12  13
ENDBRANCH  11  12
ENDBRANCH   1  11
TORSDOF 15
ENDMDL
MODEL 7
REMARK VINA RESULT:    -0.858      2.502      4.859
REMARK INTER + INTRA:          -3.398
REMARK INTER:                  -2.907
REMARK INTRA:                  -0.491
REMARK UNBOUND:                -1.788
REMARK SMILES O=C([O-])CCCCCCCCCCCCCCC(=O)[O-]
REMARK SMILES IDX 10 1 9 2 8 3 7 4 6 5 5 6 4 7 2 8 1 9 3 10 11 11 12 12 13 13
REMARK SMILES IDX 14 14 15 15 16 16 17 17 18 18 19 19 20 20
REMARK H PARENT
REMARK Flexibility Score: inf
ROOT
ATOM      1  C   UNL     1      -8.543  -7.618  -7.118  1.00  0.00     0.000 C 
ENDROOT
BRANCH   1   2
ATOM      2  C   UNL     1      -9.036  -9.074  -7.161  1.00  0.00     0.000 C 
BRANCH   2   3
ATOM      3  C   UNL     1      -9.973  -9.376  -8.350  1.00  0.00     0.000 C 
BRANCH   3   4
ATOM      4  C   UNL     1      -9.250 -10.125  -9.483  1.00  0.00     0.000 C 
BRANCH   4   5
ATOM      5  C   UNL     1      -8.101  -9.294 -10.096  1.00  0.00     0.000 C 
BRANCH   5   6
ATOM      6  C   UNL     1      -6.723  -9.978  -9.992  1.00  0.00     0.006 C 
BRANCH   6   7
ATOM      7  C   UNL     1      -6.195 -10.103  -8.556  1.00  0.00     0.053 C 
BRANCH   7   8
ATOM      8  C   UNL     1      -4.698 -10.064  -8.508  1.00  0.00     0.041 C 
ATOM      9  O   UNL     1      -4.095 -10.125  -7.404  1.00  0.00    -0.550 OA
ATOM     10  O   UNL     1      -3.967  -9.985  -9.687  1.00  0.00    -0.550 OA
ENDBRANCH   7   8
ENDBRANCH   6   7
ENDBRANCH   5   6
ENDBRANCH   4   5
ENDBRANCH   3   4
ENDBRANCH   2   3
ENDBRANCH   1   2
BRANCH   1  11
ATOM     11  C   UNL     1      -9.500  -6.645  -7.827  1.00  0.00     0.000 C 
BRANCH  11  12
ATOM     12  C   UNL     1      -9.641  -5.297  -7.096  1.00  0.00     0.000 C 
BRANCH  12  13
ATOM     13  C   UNL     1      -8.468  -4.317  -7.280  1.00  0.00     0.000 C 
BRANCH  13  14
ATOM     14  C   UNL     1      -7.181  -4.780  -6.577  1.00  0.00     0.000 C 
BRANCH  14  15
ATOM     15  C   UNL     1      -6.230  -5.552  -7.512  1.00  0.00     0.000 C 
BRANCH  15  16
ATOM     16  C   UNL     1      -6.535  -5.420  -9.018  1.00  0.00     0.006 C 
BRANCH  16  17
ATOM     17  C   UNL     1      -5.638  -6.271  -9.930  1.00  0.00     0.053 C 
BRANCH  17  18
ATOM     18  C   UNL     1      -4.191  -6.148  -9.565  1.00  0.00     0.041 C 
ATOM     19  O   UNL     1      -3.524  -5.149  -9.943  1.00  0.00    -0.550 OA
ATOM     20  O   UNL     1      -3.571  -7.154  -8.835  1.00  0.00    -0.550 OA
ENDBRANCH  17  18
ENDBRANCH  16  17
ENDBRANCH  15  16
ENDBRANCH  14  15
ENDBRANCH  13  14
ENDBRANCH  12  13
ENDBRANCH  11  12
ENDBRANCH   1  11
TORSDOF 15
ENDMDL
MODEL 8
REMARK VINA RESULT:    -0.611      1.405      2.397
REMARK INTER + INTRA:          -2.935
REMARK INTER:                  -2.898
REMARK INTRA:                  -0.036
REMARK UNBOUND:                -1.788
REMARK SMILES O=C([O-])CCCCCCCCCCCCCCC(=O)[O-]
REMARK SMILES IDX 10 1 9 2 8 3 7 4 6 5 5 6 4 7 2 8 1 9 3 10 11 11 12 12 13 13
REMARK SMILES IDX 14 14 15 15 16 16 17 17 18 18 19 19 20 20
REMARK H PARENT
REMARK Flexibility Score: inf
ROOT
ATOM      1  C   UNL     1      -7.886  -8.129  -7.042  1.00  0.00     0.000 C 
ENDROOT
BRANCH   1   2
ATOM      2  C   UNL     1      -7.741  -9.658  -6.948  1.00  0.00     0.000 C 
BRANCH   2   3
ATOM      3  C   UNL     1      -6.312 -10.125  -6.597  1.00  0.00     0.000 C 
BRANCH   3   4
ATOM      4  C   UNL     1      -5.272  -9.010  -6.801  1.00  0.00     0.000 C 
BRANCH   4   5
ATOM      5  C   UNL     1      -3.968  -9.533  -7.443  1.00  0.00     0.000 C 
BRANCH   5   6
ATOM      6  C   UNL     1      -4.165 -10.100  -8.863  1.00  0.00     0.006 C 
BRANCH   6   7
ATOM      7  C   UNL     1      -3.852  -9.099  -9.983  1.00  0.00     0.053 C 
BRANCH   7   8
ATOM      8  C   UNL     1      -4.713  -7.876  -9.895  1.00  0.00     0.041 C 
ATOM      9  O   UNL     1      -5.969  -7.981  -9.895  1.00  0.00    -0.550 OA
ATOM     10  O   UNL     1      -4.129  -6.621  -9.789  1.00  0.00    -0.550 OA
ENDBRANCH   7   8
ENDBRANCH   6   7
ENDBRANCH   5   6
ENDBRANCH   4   5
ENDBRANCH   3   4
ENDBRANCH   2   3
ENDBRANCH   1   2
BRANCH   1  11
ATOM     11  C   UNL     1      -9.337  -7.684  -7.291  1.00  0.00     0.000 C 
BRANCH  11  12
ATOM     12  C   UNL     1      -9.825  -7.990  -8.719  1.00  0.00     0.000 C 
BRANCH  12  13
ATOM     13  C   UNL     1      -9.288  -7.054  -9.818  1.00  0.00     0.000 C 
BRANCH  13  14
ATOM     14  C   UNL     1      -9.541  -5.567  -9.520  1.00  0.00     0.000 C 
BRANCH  14  15
ATOM     15  C   UNL     1     -10.125  -5.327  -8.115  1.00  0.00     0.000 C 
BRANCH  15  16
ATOM     16  C   UNL     1      -9.437  -4.217  -7.296  1.00  0.00     0.006 C 
BRANCH  16  17
ATOM     17  C   UNL     1      -8.359  -4.713  -6.320  1.00  0.00     0.053 C 
BRANCH  17  18
ATOM     18  C   UNL     1      -6.977  -4.495  -6.856  1.00  0.00     0.041 C 
ATOM     19  O   UNL     1      -6.221  -3.637  -6.331  1.00  0.00    -0.550 OA
ATOM     20  O   UNL     1      -6.538  -5.220  -7.957  1.00  0.00    -0.550 OA
ENDBRANCH  17  18
ENDBRANCH  16  17
ENDBRANCH  15  16
ENDBRANCH  14  15
ENDBRANCH  13  14
ENDBRANCH  12  13
ENDBRANCH  11  12
ENDBRANCH   1  11
TORSDOF 15
ENDMDL
