MODEL 1
REMARK VINA RESULT:    -3.241      0.000      0.000
REMARK INTER + INTRA:         -11.766
REMARK INTER:                  -7.408
REMARK INTRA:                  -4.358
REMARK UNBOUND:                -4.358
REMARK SMILES CCCCCCCCCCCCCCCCCCCCCCCC(=O)[O-]
REMARK SMILES IDX 13 1 14 2 15 3 16 4 17 5 18 6 19 7 20 8 21 9 22 10 23 11
REMARK SMILES IDX 24 12 25 13 26 14 12 15 11 16 10 17 9 18 8 19 7 20 6 21 5 22
REMARK SMILES IDX 4 23 3 24 2 25 1 26
REMARK H PARENT
REMARK Flexibility Score: inf
ROOT
ATOM      1  C   UNL     1      11.045  43.917 151.191  1.00  0.00     0.000 C 
ENDROOT
BRANCH   1   2
ATOM      2  C   UNL     1      10.768  44.106 152.690  1.00  0.00     0.000 C 
BRANCH   2   3
ATOM      3  C   UNL     1      12.036  43.962 153.547  1.00  0.00     0.000 C 
BRANCH   3   4
ATOM      4  C   UNL     1      11.929  42.758 154.489  1.00  0.00     0.000 C 
BRANCH   4   5
ATOM      5  C   UNL     1      10.461  42.426 154.795  1.00  0.00     0.000 C 
BRANCH   5   6
ATOM      6  C   UNL     1      10.154  42.379 156.302  1.00  0.00     0.000 C 
BRANCH   6   7
ATOM      7  C   UNL     1       9.062  43.354 156.776  1.00  0.00     0.000 C 
BRANCH   7   8
ATOM      8  C   UNL     1       8.929  44.592 155.873  1.00  0.00     0.000 C 
BRANCH   8   9
ATOM      9  C   UNL     1       8.689  45.887 156.682  1.00  0.00     0.000 C 
BRANCH   9  10
ATOM     10  C   UNL     1       8.873  47.173 155.857  1.00  0.00     0.006 C 
BRANCH  10  11
ATOM     11  C   UNL     1      10.081  47.145 154.909  1.00  0.00     0.053 C 
BRANCH  11  12
ATOM     12  C   UNL     1       9.873  48.022 153.711  1.00  0.00     0.041 C 
ATOM     13  O   UNL     1       9.513  47.520 152.615  1.00  0.00    -0.550 OA
ATOM     14  O   UNL     1      10.098  49.390 153.800  1.00  0.00    -0.550 OA
ENDBRANCH  11  12
ENDBRANCH  10  11
ENDBRANCH   9  10
ENDBRANCH   8   9
ENDBRANCH   7   8
ENDBRANCH   6   7
ENDBRANCH   5   6
ENDBRANCH   4   5
ENDBRANCH   3   4
ENDBRANCH   2   3
ENDBRANCH   1   2
BRANCH   1  15
ATOM     15  C   UNL     1      12.390  43.220 150.920  1.00  0.00     0.000 C 
BRANCH  15  16
ATOM     16  C   UNL     1      12.358  42.349 149.655  1.00  0.00     0.000 C 
BRANCH  16  17
ATOM     17  C   UNL     1      11.828  40.931 149.929  1.00  0.00     0.000 C 
BRANCH  17  18
ATOM     18  C   UNL     1      12.034  40.493 151.388  1.00  0.00    -0.000 C 
BRANCH  18  19
ATOM     19  C   UNL     1      10.761  39.906 152.015  1.00  0.00    -0.000 C 
BRANCH  19  20
ATOM     20  C   UNL     1       9.750  39.508 150.933  1.00  0.00    -0.000 C 
BRANCH  20  21
ATOM     21  C   UNL     1       8.347  40.028 151.268  1.00  0.00    -0.000 C 
BRANCH  21  22
ATOM     22  C   UNL     1       8.418  41.185 152.276  1.00  0.00    -0.000 C 
BRANCH  22  23
ATOM     23  C   UNL     1       7.350  41.079 153.376  1.00  0.00    -0.000 C 
BRANCH  23  24
ATOM     24  C   UNL     1       6.717  42.436 153.720  1.00  0.00    -0.000 C 
BRANCH  24  25
ATOM     25  C   UNL     1       6.650  43.339 152.483  1.00  0.00    -0.003 C 
ATOM     26  C   UNL     1       7.100  44.759 152.813  1.00  0.00     0.004 C 
ENDBRANCH  24  25
ENDBRANCH  23  24
ENDBRANCH  22  23
ENDBRANCH  21  22
ENDBRANCH  20  21
ENDBRANCH  19  20
ENDBRANCH  18  19
ENDBRANCH  17  18
ENDBRANCH  16  17
ENDBRANCH  15  16
ENDBRANCH   1  15
TORSDOF 22
ENDMDL
MODEL 2
REMARK VINA RESULT:    -3.050      2.682      6.077
REMARK INTER + INTRA:         -11.331
REMARK INTER:                  -6.894
REMARK INTRA:                  -4.437
REMARK UNBOUND:                -4.358
REMARK SMILES CCCCCCCCCCCCCCCCCCCCCCCC(=O)[O-]
REMARK SMILES IDX 13 1 14 2 15 3 16 4 17 5 18 6 19 7 20 8 21 9 22 10 23 11
REMARK SMILES IDX 24 12 25 13 26 14 12 15 11 16 10 17 9 18 8 19 7 20 6 21 5 22
REMARK SMILES IDX 4 23 3 24 2 25 1 26
REMARK H PARENT
REMARK Flexibility Score: inf
ROOT
ATOM      1  C   UNL     1      11.479  43.987 153.085  1.00  0.00     0.000 C 
ENDROOT
BRANCH   1   2
ATOM      2  C   UNL     1      12.241  43.913 151.753  1.00  0.00     0.000 C 
BRANCH   2   3
ATOM      3  C   UNL     1      11.470  43.133 150.675  1.00  0.00     0.000 C 
BRANCH   3   4
ATOM      4  C   UNL     1      12.423  42.289 149.821  1.00  0.00     0.000 C 
BRANCH   4   5
ATOM      5  C   UNL     1      12.012  40.809 149.836  1.00  0.00     0.000 C 
BRANCH   5   6
ATOM      6  C   UNL     1      11.999  40.202 151.251  1.00  0.00     0.000 C 
BRANCH   6   7
ATOM      7  C   UNL     1      10.691  39.490 151.642  1.00  0.00     0.000 C 
BRANCH   7   8
ATOM      8  C   UNL     1       9.730  40.391 152.436  1.00  0.00     0.000 C 
BRANCH   8   9
ATOM      9  C   UNL     1       8.258  40.204 152.006  1.00  0.00     0.000 C 
BRANCH   9  10
ATOM     10  C   UNL     1       7.271  40.160 153.187  1.00  0.00     0.006 C 
BRANCH  10  11
ATOM     11  C   UNL     1       5.895  40.766 152.880  1.00  0.00     0.053 C 
BRANCH  11  12
ATOM     12  C   UNL     1       4.971  40.684 154.058  1.00  0.00     0.041 C 
ATOM     13  O   UNL     1       3.960  39.935 154.017  1.00  0.00    -0.550 OA
ATOM     14  O   UNL     1       5.213  41.451 155.190  1.00  0.00    -0.550 OA
ENDBRANCH  11  12
ENDBRANCH  10  11
ENDBRANCH   9  10
ENDBRANCH   8   9
ENDBRANCH   7   8
ENDBRANCH   6   7
ENDBRANCH   5   6
ENDBRANCH   4   5
ENDBRANCH   3   4
ENDBRANCH   2   3
ENDBRANCH   1   2
BRANCH   1  15
ATOM     15  C   UNL     1      11.869  42.857 154.054  1.00  0.00     0.000 C 
BRANCH  15  16
ATOM     16  C   UNL     1      10.749  42.523 155.051  1.00  0.00     0.000 C 
BRANCH  16  17
ATOM     17  C   UNL     1       9.696  43.641 155.149  1.00  0.00     0.000 C 
BRANCH  17  18
ATOM     18  C   UNL     1       8.283  43.159 154.786  1.00  0.00    -0.000 C 
BRANCH  18  19
ATOM     19  C   UNL     1       7.591  44.070 153.761  1.00  0.00    -0.000 C 
BRANCH  19  20
ATOM     20  C   UNL     1       8.081  43.768 152.340  1.00  0.00    -0.000 C 
BRANCH  20  21
ATOM     21  C   UNL     1       8.104  45.037 151.480  1.00  0.00    -0.000 C 
BRANCH  21  22
ATOM     22  C   UNL     1       8.151  46.294 152.361  1.00  0.00    -0.000 C 
BRANCH  22  23
ATOM     23  C   UNL     1       9.473  47.066 152.223  1.00  0.00    -0.000 C 
BRANCH  23  24
ATOM     24  C   UNL     1       9.763  47.967 153.433  1.00  0.00    -0.000 C 
BRANCH  24  25
ATOM     25  C   UNL     1      10.220  47.136 154.638  1.00  0.00    -0.003 C 
ATOM     26  C   UNL     1       9.241  47.266 155.801  1.00  0.00     0.004 C 
ENDBRANCH  24  25
ENDBRANCH  23  24
ENDBRANCH  22  23
ENDBRANCH  21  22
ENDBRANCH  20  21
ENDBRANCH  19  20
ENDBRANCH  18  19
ENDBRANCH  17  18
ENDBRANCH  16  17
ENDBRANCH  15  16
ENDBRANCH   1  15
TORSDOF 22
ENDMDL
MODEL 3
REMARK VINA RESULT:    -3.024      1.381      2.449
REMARK INTER + INTRA:         -11.271
REMARK INTER:                  -6.596
REMARK INTRA:                  -4.674
REMARK UNBOUND:                -4.358
REMARK SMILES CCCCCCCCCCCCCCCCCCCCCCCC(=O)[O-]
REMARK SMILES IDX 13 1 14 2 15 3 16 4 17 5 18 6 19 7 20 8 21 9 22 10 23 11
REMARK SMILES IDX 24 12 25 13 26 14 12 15 11 16 10 17 9 18 8 19 7 20 6 21 5 22
REMARK SMILES IDX 4 23 3 24 2 25 1 26
REMARK H PARENT
REMARK Flexibility Score: inf
ROOT
ATOM      1  C   UNL     1      11.381  43.517 151.892  1.00  0.00     0.000 C 
ENDROOT
BRANCH   1   2
ATOM      2  C   UNL     1      11.782  43.301 153.359  1.00  0.00     0.000 C 
BRANCH   2   3
ATOM      3  C   UNL     1      10.599  43.472 154.325  1.00  0.00     0.000 C 
BRANCH   3   4
ATOM      4  C   UNL     1      10.470  42.261 155.256  1.00  0.00     0.000 C 
BRANCH   4   5
ATOM      5  C   UNL     1       9.800  42.653 156.581  1.00  0.00     0.000 C 
BRANCH   5   6
ATOM      6  C   UNL     1       8.501  43.455 156.386  1.00  0.00     0.000 C 
BRANCH   6   7
ATOM      7  C   UNL     1       8.451  44.805 157.123  1.00  0.00     0.000 C 
BRANCH   7   8
ATOM      8  C   UNL     1       8.723  46.005 156.201  1.00  0.00     0.000 C 
BRANCH   8   9
ATOM      9  C   UNL     1       7.825  45.995 154.943  1.00  0.00     0.000 C 
BRANCH   9  10
ATOM     10  C   UNL     1       8.561  46.411 153.656  1.00  0.00     0.006 C 
BRANCH  10  11
ATOM     11  C   UNL     1       9.912  47.098 153.899  1.00  0.00     0.053 C 
BRANCH  11  12
ATOM     12  C   UNL     1       9.806  48.591 153.806  1.00  0.00     0.041 C 
ATOM     13  O   UNL     1      10.531  49.322 154.529  1.00  0.00    -0.550 OA
ATOM     14  O   UNL     1       8.891  49.173 152.938  1.00  0.00    -0.550 OA
ENDBRANCH  11  12
ENDBRANCH  10  11
ENDBRANCH   9  10
ENDBRANCH   8   9
ENDBRANCH   7   8
ENDBRANCH   6   7
ENDBRANCH   5   6
ENDBRANCH   4   5
ENDBRANCH   3   4
ENDBRANCH   2   3
ENDBRANCH   1   2
BRANCH   1  15
ATOM     15  C   UNL     1      11.664  42.286 151.013  1.00  0.00     0.000 C 
BRANCH  15  16
ATOM     16  C   UNL     1      12.004  41.037 151.841  1.00  0.00     0.000 C 
BRANCH  16  17
ATOM     17  C   UNL     1      10.963  39.917 151.671  1.00  0.00     0.000 C 
BRANCH  17  18
ATOM     18  C   UNL     1       9.788  40.044 152.653  1.00  0.00    -0.000 C 
BRANCH  18  19
ATOM     19  C   UNL     1       8.504  40.552 151.980  1.00  0.00    -0.000 C 
BRANCH  19  20
ATOM     20  C   UNL     1       7.475  40.993 153.027  1.00  0.00    -0.000 C 
BRANCH  20  21
ATOM     21  C   UNL     1       7.375  42.522 153.097  1.00  0.00    -0.000 C 
BRANCH  21  22
ATOM     22  C   UNL     1       7.669  43.152 151.728  1.00  0.00    -0.000 C 
BRANCH  22  23
ATOM     23  C   UNL     1       6.624  44.204 151.323  1.00  0.00    -0.000 C 
BRANCH  23  24
ATOM     24  C   UNL     1       7.173  45.229 150.318  1.00  0.00    -0.000 C 
BRANCH  24  25
ATOM     25  C   UNL     1       8.662  44.987 150.047  1.00  0.00    -0.003 C 
ATOM     26  C   UNL     1       9.457  46.286 150.143  1.00  0.00     0.004 C 
ENDBRANCH  24  25
ENDBRANCH  23  24
ENDBRANCH  22  23
ENDBRANCH  21  22
ENDBRANCH  20  21
ENDBRANCH  19  20
ENDBRANCH  18  19
ENDBRANCH  17  18
ENDBRANCH  16  17
ENDBRANCH  15  16
ENDBRANCH   1  15
TORSDOF 22
ENDMDL
MODEL 4
REMARK VINA RESULT:    -3.023      1.499      2.941
REMARK INTER + INTRA:         -11.270
REMARK INTER:                  -6.883
REMARK INTRA:                  -4.387
REMARK UNBOUND:                -4.358
REMARK SMILES CCCCCCCCCCCCCCCCCCCCCCCC(=O)[O-]
REMARK SMILES IDX 13 1 14 2 15 3 16 4 17 5 18 6 19 7 20 8 21 9 22 10 23 11
REMARK SMILES IDX 24 12 25 13 26 14 12 15 11 16 10 17 9 18 8 19 7 20 6 21 5 22
REMARK SMILES IDX 4 23 3 24 2 25 1 26
REMARK H PARENT
REMARK Flexibility Score: inf
ROOT
ATOM      1  C   UNL     1      10.257  43.041 153.561  1.00  0.00     0.000 C 
ENDROOT
BRANCH   1   2
ATOM      2  C   UNL     1       9.561  42.188 154.633  1.00  0.00     0.000 C 
BRANCH   2   3
ATOM      3  C   UNL     1      10.146  42.413 156.037  1.00  0.00     0.000 C 
BRANCH   3   4
ATOM      4  C   UNL     1       9.165  43.189 156.923  1.00  0.00     0.000 C 
BRANCH   4   5
ATOM      5  C   UNL     1       7.888  43.547 156.148  1.00  0.00     0.000 C 
BRANCH   5   6
ATOM      6  C   UNL     1       7.738  45.059 155.900  1.00  0.00     0.000 C 
BRANCH   6   7
ATOM      7  C   UNL     1       8.630  45.955 156.779  1.00  0.00     0.000 C 
BRANCH   7   8
ATOM      8  C   UNL     1       9.419  46.998 155.969  1.00  0.00     0.000 C 
BRANCH   8   9
ATOM      9  C   UNL     1      10.012  46.408 154.670  1.00  0.00     0.000 C 
BRANCH   9  10
ATOM     10  C   UNL     1       9.760  47.279 153.426  1.00  0.00     0.006 C 
BRANCH  10  11
ATOM     11  C   UNL     1       9.729  46.495 152.106  1.00  0.00     0.053 C 
BRANCH  11  12
ATOM     12  C   UNL     1       8.353  46.449 151.514  1.00  0.00     0.041 C 
ATOM     13  O   UNL     1       7.346  46.337 152.261  1.00  0.00    -0.550 OA
ATOM     14  O   UNL     1       8.182  46.508 150.137  1.00  0.00    -0.550 OA
ENDBRANCH  11  12
ENDBRANCH  10  11
ENDBRANCH   9  10
ENDBRANCH   8   9
ENDBRANCH   7   8
ENDBRANCH   6   7
ENDBRANCH   5   6
ENDBRANCH   4   5
ENDBRANCH   3   4
ENDBRANCH   2   3
ENDBRANCH   1   2
BRANCH   1  15
ATOM     15  C   UNL     1      11.770  43.182 153.807  1.00  0.00     0.000 C 
BRANCH  15  16
ATOM     16  C   UNL     1      12.535  43.603 152.543  1.00  0.00     0.000 C 
BRANCH  16  17
ATOM     17  C   UNL     1      11.734  43.340 151.256  1.00  0.00     0.000 C 
BRANCH  17  18
ATOM     18  C   UNL     1      12.485  42.437 150.265  1.00  0.00    -0.000 C 
BRANCH  18  19
ATOM     19  C   UNL     1      11.774  41.096 150.028  1.00  0.00    -0.000 C 
BRANCH  19  20
ATOM     20  C   UNL     1      12.026  40.130 151.191  1.00  0.00    -0.000 C 
BRANCH  20  21
ATOM     21  C   UNL     1      10.733  39.848 151.967  1.00  0.00    -0.000 C 
BRANCH  21  22
ATOM     22  C   UNL     1       9.506  39.993 151.056  1.00  0.00    -0.000 C 
BRANCH  22  23
ATOM     23  C   UNL     1       8.198  40.160 151.846  1.00  0.00    -0.000 C 
BRANCH  23  24
ATOM     24  C   UNL     1       7.469  41.472 151.516  1.00  0.00    -0.000 C 
BRANCH  24  25
ATOM     25  C   UNL     1       8.269  42.306 150.509  1.00  0.00    -0.003 C 
ATOM     26  C   UNL     1       7.344  43.106 149.597  1.00  0.00     0.004 C 
ENDBRANCH  24  25
ENDBRANCH  23  24
ENDBRANCH  22  23
ENDBRANCH  21  22
ENDBRANCH  20  21
ENDBRANCH  19  20
ENDBRANCH  18  19
ENDBRANCH  17  18
ENDBRANCH  16  17
ENDBRANCH  15  16
ENDBRANCH   1  15
TORSDOF 22
ENDMDL
MODEL 5
REMARK VINA RESULT:    -3.015      2.321      6.143
REMARK INTER + INTRA:         -11.251
REMARK INTER:                  -6.659
REMARK INTRA:                  -4.592
REMARK UNBOUND:                -4.358
REMARK SMILES CCCCCCCCCCCCCCCCCCCCCCCC(=O)[O-]
REMARK SMILES IDX 13 1 14 2 15 3 16 4 17 5 18 6 19 7 20 8 21 9 22 10 23 11
REMARK SMILES IDX 24 12 25 13 26 14 12 15 11 16 10 17 9 18 8 19 7 20 6 21 5 22
REMARK SMILES IDX 4 23 3 24 2 25 1 26
REMARK H PARENT
REMARK Flexibility Score: inf
ROOT
ATOM      1  C   UNL     1      10.829  43.408 153.978  1.00  0.00     0.000 C 
ENDROOT
BRANCH   1   2
ATOM      2  C   UNL     1      12.295  43.828 153.789  1.00  0.00     0.000 C 
BRANCH   2   3
ATOM      3  C   UNL     1      12.814  43.538 152.372  1.00  0.00     0.000 C 
BRANCH   3   4
ATOM      4  C   UNL     1      11.672  43.093 151.450  1.00  0.00     0.000 C 
BRANCH   4   5
ATOM      5  C   UNL     1      12.012  41.768 150.753  1.00  0.00     0.000 C 
BRANCH   5   6
ATOM      6  C   UNL     1      11.989  40.561 151.708  1.00  0.00     0.000 C 
BRANCH   6   7
ATOM      7  C   UNL     1      10.714  39.700 151.639  1.00  0.00     0.000 C 
BRANCH   7   8
ATOM      8  C   UNL     1       9.611  40.181 152.597  1.00  0.00     0.000 C 
BRANCH   8   9
ATOM      9  C   UNL     1       8.210  40.140 151.948  1.00  0.00     0.000 C 
BRANCH   9  10
ATOM     10  C   UNL     1       7.469  41.490 151.994  1.00  0.00     0.006 C 
BRANCH  10  11
ATOM     11  C   UNL     1       8.214  42.639 151.301  1.00  0.00     0.053 C 
BRANCH  11  12
ATOM     12  C   UNL     1       8.071  42.581 149.809  1.00  0.00     0.041 C 
ATOM     13  O   UNL     1       8.917  41.958 149.117  1.00  0.00    -0.550 OA
ATOM     14  O   UNL     1       7.016  43.232 149.183  1.00  0.00    -0.550 OA
ENDBRANCH  11  12
ENDBRANCH  10  11
ENDBRANCH   9  10
ENDBRANCH   8   9
ENDBRANCH   7   8
ENDBRANCH   6   7
ENDBRANCH   5   6
ENDBRANCH   4   5
ENDBRANCH   3   4
ENDBRANCH   2   3
ENDBRANCH   1   2
BRANCH   1  15
ATOM     15  C   UNL     1      10.617  42.545 155.234  1.00  0.00     0.000 C 
BRANCH  15  16
ATOM     16  C   UNL     1       9.332  42.914 155.992  1.00  0.00     0.000 C 
BRANCH  16  17
ATOM     17  C   UNL     1       8.143  43.160 155.048  1.00  0.00     0.000 C 
BRANCH  17  18
ATOM     18  C   UNL     1       7.520  44.553 155.228  1.00  0.00    -0.000 C 
BRANCH  18  19
ATOM     19  C   UNL     1       8.082  45.300 156.447  1.00  0.00    -0.000 C 
BRANCH  19  20
ATOM     20  C   UNL     1       8.258  46.792 156.140  1.00  0.00    -0.000 C 
BRANCH  20  21
ATOM     21  C   UNL     1       9.739  47.153 155.978  1.00  0.00    -0.000 C 
BRANCH  21  22
ATOM     22  C   UNL     1      10.142  47.162 154.496  1.00  0.00    -0.000 C 
BRANCH  22  23
ATOM     23  C   UNL     1       9.224  48.047 153.638  1.00  0.00    -0.000 C 
BRANCH  23  24
ATOM     24  C   UNL     1       8.551  47.271 152.495  1.00  0.00    -0.000 C 
BRANCH  24  25
ATOM     25  C   UNL     1       9.379  46.042 152.105  1.00  0.00    -0.003 C 
ATOM     26  C   UNL     1      10.132  46.275 150.799  1.00  0.00     0.004 C 
ENDBRANCH  24  25
ENDBRANCH  23  24
ENDBRANCH  22  23
ENDBRANCH  21  22
ENDBRANCH  20  21
ENDBRANCH  19  20
ENDBRANCH  18  19
ENDBRANCH  17  18
ENDBRANCH  16  17
ENDBRANCH  15  16
ENDBRANCH   1  15
TORSDOF 22
ENDMDL
MODEL 6
REMARK VINA RESULT:    -2.993      2.512      6.523
REMARK INTER + INTRA:         -11.201
REMARK INTER:                  -6.592
REMARK INTRA:                  -4.609
REMARK UNBOUND:                -4.358
REMARK SMILES CCCCCCCCCCCCCCCCCCCCCCCC(=O)[O-]
REMARK SMILES IDX 13 1 14 2 15 3 16 4 17 5 18 6 19 7 20 8 21 9 22 10 23 11
REMARK SMILES IDX 24 12 25 13 26 14 12 15 11 16 10 17 9 18 8 19 7 20 6 21 5 22
REMARK SMILES IDX 4 23 3 24 2 25 1 26
REMARK H PARENT
REMARK Flexibility Score: inf
ROOT
ATOM      1  C   UNL     1      10.214  42.433 155.878  1.00  0.00     0.000 C 
ENDROOT
BRANCH   1   2
ATOM      2  C   UNL     1      10.482  42.901 154.440  1.00  0.00     0.000 C 
BRANCH   2   3
ATOM      3  C   UNL     1      11.982  42.953 154.107  1.00  0.00     0.000 C 
BRANCH   3   4
ATOM      4  C   UNL     1      12.206  43.316 152.635  1.00  0.00     0.000 C 
BRANCH   4   5
ATOM      5  C   UNL     1      11.356  42.429 151.713  1.00  0.00     0.000 C 
BRANCH   5   6
ATOM      6  C   UNL     1      11.836  40.968 151.672  1.00  0.00     0.000 C 
BRANCH   6   7
ATOM      7  C   UNL     1      10.743  39.916 151.937  1.00  0.00     0.000 C 
BRANCH   7   8
ATOM      8  C   UNL     1       9.319  40.481 151.805  1.00  0.00     0.000 C 
BRANCH   8   9
ATOM      9  C   UNL     1       8.442  40.160 153.035  1.00  0.00     0.000 C 
BRANCH   9  10
ATOM     10  C   UNL     1       7.299  41.168 153.258  1.00  0.00     0.006 C 
BRANCH  10  11
ATOM     11  C   UNL     1       5.996  40.538 153.769  1.00  0.00     0.053 C 
BRANCH  11  12
ATOM     12  C   UNL     1       4.945  41.571 154.044  1.00  0.00     0.041 C 
ATOM     13  O   UNL     1       3.910  41.263 154.692  1.00  0.00    -0.550 OA
ATOM     14  O   UNL     1       5.097  42.866 153.567  1.00  0.00    -0.550 OA
ENDBRANCH  11  12
ENDBRANCH  10  11
ENDBRANCH   9  10
ENDBRANCH   8   9
ENDBRANCH   7   8
ENDBRANCH   6   7
ENDBRANCH   5   6
ENDBRANCH   4   5
ENDBRANCH   3   4
ENDBRANCH   2   3
ENDBRANCH   1   2
BRANCH   1  15
ATOM     15  C   UNL     1       9.125  43.266 156.579  1.00  0.00     0.000 C 
BRANCH  15  16
ATOM     16  C   UNL     1       7.906  43.518 155.678  1.00  0.00     0.000 C 
BRANCH  16  17
ATOM     17  C   UNL     1       6.808  44.328 156.387  1.00  0.00     0.000 C 
BRANCH  17  18
ATOM     18  C   UNL     1       6.501  45.658 155.679  1.00  0.00    -0.000 C 
BRANCH  18  19
ATOM     19  C   UNL     1       7.151  46.863 156.374  1.00  0.00    -0.000 C 
BRANCH  19  20
ATOM     20  C   UNL     1       8.202  47.516 155.467  1.00  0.00    -0.000 C 
BRANCH  20  21
ATOM     21  C   UNL     1       9.597  46.936 155.731  1.00  0.00    -0.000 C 
BRANCH  21  22
ATOM     22  C   UNL     1      10.238  46.438 154.427  1.00  0.00    -0.000 C 
BRANCH  22  23
ATOM     23  C   UNL     1       9.377  46.740 153.190  1.00  0.00    -0.000 C 
BRANCH  23  24
ATOM     24  C   UNL     1       9.956  46.132 151.903  1.00  0.00    -0.000 C 
BRANCH  24  25
ATOM     25  C   UNL     1       8.927  45.232 151.210  1.00  0.00    -0.003 C 
ATOM     26  C   UNL     1       7.945  44.642 152.218  1.00  0.00     0.004 C 
ENDBRANCH  24  25
ENDBRANCH  23  24
ENDBRANCH  22  23
ENDBRANCH  21  22
ENDBRANCH  20  21
ENDBRANCH  19  20
ENDBRANCH  18  19
ENDBRANCH  17  18
ENDBRANCH  16  17
ENDBRANCH  15  16
ENDBRANCH   1  15
TORSDOF 22
ENDMDL
MODEL 7
REMARK VINA RESULT:    -2.991      1.419      2.895
REMARK INTER + INTRA:         -11.197
REMARK INTER:                  -6.424
REMARK INTRA:                  -4.772
REMARK UNBOUND:                -4.358
REMARK SMILES CCCCCCCCCCCCCCCCCCCCCCCC(=O)[O-]
REMARK SMILES IDX 13 1 14 2 15 3 16 4 17 5 18 6 19 7 20 8 21 9 22 10 23 11
REMARK SMILES IDX 24 12 25 13 26 14 12 15 11 16 10 17 9 18 8 19 7 20 6 21 5 22
REMARK SMILES IDX 4 23 3 24 2 25 1 26
REMARK H PARENT
REMARK Flexibility Score: inf
ROOT
ATOM      1  C   UNL     1      11.204  44.048 153.429  1.00  0.00     0.000 C 
ENDROOT
BRANCH   1   2
ATOM      2  C   UNL     1      11.444  42.733 154.186  1.00  0.00     0.000 C 
BRANCH   2   3
ATOM      3  C   UNL     1      10.361  42.454 155.240  1.00  0.00     0.000 C 
BRANCH   3   4
ATOM      4  C   UNL     1       9.607  43.738 155.607  1.00  0.00     0.000 C 
BRANCH   4   5
ATOM      5  C   UNL     1       8.117  43.453 155.845  1.00  0.00     0.000 C 
BRANCH   5   6
ATOM      6  C   UNL     1       7.423  42.814 154.629  1.00  0.00     0.000 C 
BRANCH   6   7
ATOM      7  C   UNL     1       6.323  43.673 153.981  1.00  0.00     0.000 C 
BRANCH   7   8
ATOM      8  C   UNL     1       6.750  45.135 153.767  1.00  0.00     0.000 C 
BRANCH   8   9
ATOM      9  C   UNL     1       7.758  45.289 152.606  1.00  0.00     0.000 C 
BRANCH   9  10
ATOM     10  C   UNL     1       8.081  46.755 152.259  1.00  0.00     0.006 C 
BRANCH  10  11
ATOM     11  C   UNL     1       9.567  47.117 152.385  1.00  0.00     0.053 C 
BRANCH  11  12
ATOM     12  C   UNL     1       9.862  47.835 153.668  1.00  0.00     0.041 C 
ATOM     13  O   UNL     1      10.211  47.186 154.689  1.00  0.00    -0.550 OA
ATOM     14  O   UNL     1       9.729  49.215 153.743  1.00  0.00    -0.550 OA
ENDBRANCH  11  12
ENDBRANCH  10  11
ENDBRANCH   9  10
ENDBRANCH   8   9
ENDBRANCH   7   8
ENDBRANCH   6   7
ENDBRANCH   5   6
ENDBRANCH   4   5
ENDBRANCH   3   4
ENDBRANCH   2   3
ENDBRANCH   1   2
BRANCH   1  15
ATOM     15  C   UNL     1      11.401  43.901 151.909  1.00  0.00     0.000 C 
BRANCH  15  16
ATOM     16  C   UNL     1      12.268  42.687 151.543  1.00  0.00     0.000 C 
BRANCH  16  17
ATOM     17  C   UNL     1      12.070  42.240 150.084  1.00  0.00     0.000 C 
BRANCH  17  18
ATOM     18  C   UNL     1      12.139  40.714 149.916  1.00  0.00    -0.000 C 
BRANCH  18  19
ATOM     19  C   UNL     1      11.958  39.963 151.244  1.00  0.00    -0.000 C 
BRANCH  19  20
ATOM     20  C   UNL     1      10.543  39.382 151.355  1.00  0.00    -0.000 C 
BRANCH  20  21
ATOM     21  C   UNL     1       9.775  40.016 152.521  1.00  0.00    -0.000 C 
BRANCH  21  22
ATOM     22  C   UNL     1       8.406  40.534 152.058  1.00  0.00    -0.000 C 
BRANCH  22  23
ATOM     23  C   UNL     1       8.510  41.815 151.215  1.00  0.00    -0.000 C 
BRANCH  23  24
ATOM     24  C   UNL     1       7.749  41.713 149.884  1.00  0.00    -0.000 C 
BRANCH  24  25
ATOM     25  C   UNL     1       8.720  41.680 148.699  1.00  0.00    -0.003 C 
ATOM     26  C   UNL     1       8.846  40.271 148.128  1.00  0.00     0.004 C 
ENDBRANCH  24  25
ENDBRANCH  23  24
ENDBRANCH  22  23
ENDBRANCH  21  22
ENDBRANCH  20  21
ENDBRANCH  19  20
ENDBRANCH  18  19
ENDBRANCH  17  18
ENDBRANCH  16  17
ENDBRANCH  15  16
ENDBRANCH   1  15
TORSDOF 22
ENDMDL
MODEL 8
REMARK VINA RESULT:    -2.974      3.696      6.247
REMARK INTER + INTRA:         -11.156
REMARK INTER:                  -6.704
REMARK INTRA:                  -4.452
REMARK UNBOUND:                -4.358
REMARK SMILES CCCCCCCCCCCCCCCCCCCCCCCC(=O)[O-]
REMARK SMILES IDX 13 1 14 2 15 3 16 4 17 5 18 6 19 7 20 8 21 9 22 10 23 11
REMARK SMILES IDX 24 12 25 13 26 14 12 15 11 16 10 17 9 18 8 19 7 20 6 21 5 22
REMARK SMILES IDX 4 23 3 24 2 25 1 26
REMARK H PARENT
REMARK Flexibility Score: inf
ROOT
ATOM      1  C   UNL     1      11.032  44.376 149.430  1.00  0.00     0.000 C 
ENDROOT
BRANCH   1   2
ATOM      2  C   UNL     1      10.614  45.837 149.663  1.00  0.00     0.000 C 
BRANCH   2   3
ATOM      3  C   UNL     1      10.052  46.070 151.075  1.00  0.00     0.000 C 
BRANCH   3   4
ATOM      4  C   UNL     1       9.440  44.784 151.642  1.00  0.00     0.000 C 
BRANCH   4   5
ATOM      5  C   UNL     1       7.905  44.845 151.610  1.00  0.00     0.000 C 
BRANCH   5   6
ATOM      6  C   UNL     1       7.259  43.516 151.180  1.00  0.00     0.000 C 
BRANCH   6   7
ATOM      7  C   UNL     1       8.232  42.331 151.047  1.00  0.00     0.000 C 
BRANCH   7   8
ATOM      8  C   UNL     1       7.779  41.089 151.834  1.00  0.00     0.000 C 
BRANCH   8   9
ATOM      9  C   UNL     1       8.801  39.933 151.747  1.00  0.00     0.000 C 
BRANCH   9  10
ATOM     10  C   UNL     1       8.957  39.353 150.329  1.00  0.00     0.006 C 
BRANCH  10  11
ATOM     11  C   UNL     1      10.137  38.383 150.173  1.00  0.00     0.053 C 
BRANCH  11  12
ATOM     12  C   UNL     1       9.677  36.983 149.893  1.00  0.00     0.041 C 
ATOM     13  O   UNL     1      10.474  36.018 150.025  1.00  0.00    -0.550 OA
ATOM     14  O   UNL     1       8.377  36.747 149.467  1.00  0.00    -0.550 OA
ENDBRANCH  11  12
ENDBRANCH  10  11
ENDBRANCH   9  10
ENDBRANCH   8   9
ENDBRANCH   7   8
ENDBRANCH   6   7
ENDBRANCH   5   6
ENDBRANCH   4   5
ENDBRANCH   3   4
ENDBRANCH   2   3
ENDBRANCH   1   2
BRANCH   1  15
ATOM     15  C   UNL     1      12.558  44.182 149.478  1.00  0.00     0.000 C 
BRANCH  15  16
ATOM     16  C   UNL     1      12.960  42.819 150.061  1.00  0.00     0.000 C 
BRANCH  16  17
ATOM     17  C   UNL     1      11.761  42.054 150.649  1.00  0.00     0.000 C 
BRANCH  17  18
ATOM     18  C   UNL     1      11.922  41.760 152.149  1.00  0.00    -0.000 C 
BRANCH  18  19
ATOM     19  C   UNL     1      12.307  43.007 152.959  1.00  0.00    -0.000 C 
BRANCH  19  20
ATOM     20  C   UNL     1      11.464  43.110 154.237  1.00  0.00    -0.000 C 
BRANCH  20  21
ATOM     21  C   UNL     1      10.393  42.015 154.283  1.00  0.00    -0.000 C 
BRANCH  21  22
ATOM     22  C   UNL     1       9.103  42.538 154.933  1.00  0.00    -0.000 C 
BRANCH  22  23
ATOM     23  C   UNL     1       9.338  43.112 156.339  1.00  0.00    -0.000 C 
BRANCH  23  24
ATOM     24  C   UNL     1       8.593  44.436 156.571  1.00  0.00    -0.000 C 
BRANCH  24  25
ATOM     25  C   UNL     1       8.451  45.221 155.262  1.00  0.00    -0.003 C 
ATOM     26  C   UNL     1       9.545  46.276 155.131  1.00  0.00     0.004 C 
ENDBRANCH  24  25
ENDBRANCH  23  24
ENDBRANCH  22  23
ENDBRANCH  21  22
ENDBRANCH  20  21
ENDBRANCH  19  20
ENDBRANCH  18  19
ENDBRANCH  17  18
ENDBRANCH  16  17
ENDBRANCH  15  16
ENDBRANCH   1  15
TORSDOF 22
ENDMDL
MODEL 9
REMARK VINA RESULT:    -2.925      3.524      6.173
REMARK INTER + INTRA:         -11.046
REMARK INTER:                  -7.021
REMARK INTRA:                  -4.025
REMARK UNBOUND:                -4.358
REMARK SMILES CCCCCCCCCCCCCCCCCCCCCCCC(=O)[O-]
REMARK SMILES IDX 13 1 14 2 15 3 16 4 17 5 18 6 19 7 20 8 21 9 22 10 23 11
REMARK SMILES IDX 24 12 25 13 26 14 12 15 11 16 10 17 9 18 8 19 7 20 6 21 5 22
REMARK SMILES IDX 4 23 3 24 2 25 1 26
REMARK H PARENT
REMARK Flexibility Score: inf
ROOT
ATOM      1  C   UNL     1      11.004  43.306 150.460  1.00  0.00     0.000 C 
ENDROOT
BRANCH   1   2
ATOM      2  C   UNL     1      12.273  42.614 149.939  1.00  0.00     0.000 C 
BRANCH   2   3
ATOM      3  C   UNL     1      12.021  41.155 149.526  1.00  0.00     0.000 C 
BRANCH   3   4
ATOM      4  C   UNL     1      10.764  40.601 150.207  1.00  0.00     0.000 C 
BRANCH   4   5
ATOM      5  C   UNL     1      11.121  39.856 151.501  1.00  0.00     0.000 C 
BRANCH   5   6
ATOM      6  C   UNL     1      10.126  40.123 152.645  1.00  0.00     0.000 C 
BRANCH   6   7
ATOM      7  C   UNL     1       8.650  40.219 152.215  1.00  0.00     0.000 C 
BRANCH   7   8
ATOM      8  C   UNL     1       7.714  40.626 153.366  1.00  0.00     0.000 C 
BRANCH   8   9
ATOM      9  C   UNL     1       6.226  40.398 153.021  1.00  0.00     0.000 C 
BRANCH   9  10
ATOM     10  C   UNL     1       5.299  40.411 154.251  1.00  0.00     0.006 C 
BRANCH  10  11
ATOM     11  C   UNL     1       4.798  39.023 154.676  1.00  0.00     0.053 C 
BRANCH  11  12
ATOM     12  C   UNL     1       3.380  38.785 154.251  1.00  0.00     0.041 C 
ATOM     13  O   UNL     1       3.009  39.090 153.088  1.00  0.00    -0.550 OA
ATOM     14  O   UNL     1       2.464  38.248 155.146  1.00  0.00    -0.550 OA
ENDBRANCH  11  12
ENDBRANCH  10  11
ENDBRANCH   9  10
ENDBRANCH   8   9
ENDBRANCH   7   8
ENDBRANCH   6   7
ENDBRANCH   5   6
ENDBRANCH   4   5
ENDBRANCH   3   4
ENDBRANCH   2   3
ENDBRANCH   1   2
BRANCH   1  15
ATOM     15  C   UNL     1      11.189  43.900 151.868  1.00  0.00     0.000 C 
BRANCH  15  16
ATOM     16  C   UNL     1      12.363  43.261 152.626  1.00  0.00     0.000 C 
BRANCH  16  17
ATOM     17  C   UNL     1      12.049  43.032 154.114  1.00  0.00     0.000 C 
BRANCH  17  18
ATOM     18  C   UNL     1      10.554  43.192 154.437  1.00  0.00    -0.000 C 
BRANCH  18  19
ATOM     19  C   UNL     1      10.122  42.376 155.664  1.00  0.00    -0.000 C 
BRANCH  19  20
ATOM     20  C   UNL     1       9.148  43.176 156.537  1.00  0.00    -0.000 C 
BRANCH  20  21
ATOM     21  C   UNL     1       8.972  44.604 156.006  1.00  0.00    -0.000 C 
BRANCH  21  22
ATOM     22  C   UNL     1       7.485  44.946 155.836  1.00  0.00    -0.000 C 
BRANCH  22  23
ATOM     23  C   UNL     1       6.646  43.738 155.388  1.00  0.00    -0.000 C 
BRANCH  23  24
ATOM     24  C   UNL     1       5.929  43.979 154.050  1.00  0.00    -0.000 C 
BRANCH  24  25
ATOM     25  C   UNL     1       6.754  44.898 153.143  1.00  0.00    -0.003 C 
ATOM     26  C   UNL     1       7.610  44.091 152.172  1.00  0.00     0.004 C 
ENDBRANCH  24  25
ENDBRANCH  23  24
ENDBRANCH  22  23
ENDBRANCH  21  22
ENDBRANCH  20  21
ENDBRANCH  19  20
ENDBRANCH  18  19
ENDBRANCH  17  18
ENDBRANCH  16  17
ENDBRANCH  15  16
ENDBRANCH   1  15
TORSDOF 22
ENDMDL
