MODEL 1
REMARK VINA RESULT:     2.020      0.000      0.000
REMARK INTER + INTRA:           2.458
REMARK INTER:                   2.315
REMARK INTRA:                   0.143
REMARK UNBOUND:                 0.143
REMARK SMILES CC(C)[C@@H]([NH3+])C(=O)[O-]
REMARK SMILES IDX 4 1 5 2 6 6 7 7 8 8 2 9 1 10 3 11
REMARK H PARENT 5 3 5 4 5 5
REMARK Flexibility Score: inf
ROOT
ATOM      1  C   UNL     1      -2.536  -4.618 -10.592  1.00  0.00     0.230 C 
ENDROOT
BRANCH   1   2
ATOM      2  N   UNL     1      -1.764  -5.245  -9.507  1.00  0.00    -0.350 N 
ATOM      3  H   UNL     1      -1.412  -6.182  -9.811  1.00  0.00     0.345 HD
ATOM      4  H   UNL     1      -0.927  -4.662  -9.276  1.00  0.00     0.345 HD
ATOM      5  H   UNL     1      -2.357  -5.364  -8.653  1.00  0.00     0.345 HD
ENDBRANCH   1   2
BRANCH   1   6
ATOM      6  C   UNL     1      -2.134  -3.168 -10.719  1.00  0.00     0.099 C 
ATOM      7  O   UNL     1      -2.783  -2.391 -11.468  1.00  0.00    -0.544 OA
ATOM      8  O   UNL     1      -1.049  -2.682 -10.001  1.00  0.00    -0.544 OA
ENDBRANCH   1   6
BRANCH   1   9
ATOM      9  C   UNL     1      -2.350  -5.368 -11.946  1.00  0.00     0.047 C 
ATOM     10  C   UNL     1      -2.060  -6.863 -11.720  1.00  0.00     0.014 C 
ATOM     11  C   UNL     1      -1.217  -4.758 -12.788  1.00  0.00     0.014 C 
ENDBRANCH   1   9
TORSDOF 3
ENDMDL
MODEL 2
REMARK VINA RESULT:     2.195      5.526      6.893
REMARK INTER + INTRA:           2.659
REMARK INTER:                   2.712
REMARK INTRA:                  -0.053
REMARK UNBOUND:                 0.143
REMARK SMILES CC(C)[C@@H]([NH3+])C(=O)[O-]
REMARK SMILES IDX 4 1 5 2 6 6 7 7 8 8 2 9 1 10 3 11
REMARK H PARENT 5 3 5 4 5 5
REMARK Flexibility Score: inf
ROOT
ATOM      1  C   UNL     1       1.596   0.319  -8.616  1.00  0.00     0.230 C 
ENDROOT
BRANCH   1   2
ATOM      2  N   UNL     1       3.045   0.500  -8.797  1.00  0.00    -0.350 N 
ATOM      3  H   UNL     1       3.243   1.454  -9.180  1.00  0.00     0.345 HD
ATOM      4  H   UNL     1       3.535   0.430  -7.877  1.00  0.00     0.345 HD
ATOM      5  H   UNL     1       3.428  -0.217  -9.455  1.00  0.00     0.345 HD
ENDBRANCH   1   2
BRANCH   1   6
ATOM      6  C   UNL     1       1.100  -0.739  -9.571  1.00  0.00     0.099 C 
ATOM      7  O   UNL     1       0.020  -1.345  -9.346  1.00  0.00    -0.544 OA
ATOM      8  O   UNL     1       1.832  -1.044 -10.712  1.00  0.00    -0.544 OA
ENDBRANCH   1   6
BRANCH   1   9
ATOM      9  C   UNL     1       1.236  -0.048  -7.144  1.00  0.00     0.047 C 
ATOM     10  C   UNL     1       0.234   0.959  -6.549  1.00  0.00     0.014 C 
ATOM     11  C   UNL     1       2.483  -0.106  -6.246  1.00  0.00     0.014 C 
ENDBRANCH   1   9
TORSDOF 3
ENDMDL
MODEL 3
REMARK VINA RESULT:     2.801      2.662      3.484
REMARK INTER + INTRA:           3.354
REMARK INTER:                   3.065
REMARK INTRA:                   0.289
REMARK UNBOUND:                 0.143
REMARK SMILES CC(C)[C@@H]([NH3+])C(=O)[O-]
REMARK SMILES IDX 4 1 5 2 6 6 7 7 8 8 2 9 1 10 3 11
REMARK H PARENT 5 3 5 4 5 5
REMARK Flexibility Score: inf
ROOT
ATOM      1  C   UNL     1      -2.882  -4.779 -11.767  1.00  0.00     0.230 C 
ENDROOT
BRANCH   1   2
ATOM      2  N   UNL     1      -2.987  -3.725 -12.788  1.00  0.00    -0.350 N 
ATOM      3  H   UNL     1      -3.323  -4.132 -13.692  1.00  0.00     0.345 HD
ATOM      4  H   UNL     1      -3.688  -3.007 -12.494  1.00  0.00     0.345 HD
ATOM      5  H   UNL     1      -2.059  -3.267 -12.944  1.00  0.00     0.345 HD
ENDBRANCH   1   2
BRANCH   1   6
ATOM      6  C   UNL     1      -1.905  -5.832 -12.231  1.00  0.00     0.099 C 
ATOM      7  O   UNL     1      -2.012  -7.021 -11.833  1.00  0.00    -0.544 OA
ATOM      8  O   UNL     1      -0.884  -5.492 -13.110  1.00  0.00    -0.544 OA
ENDBRANCH   1   6
BRANCH   1   9
ATOM      9  C   UNL     1      -2.463  -4.205 -10.379  1.00  0.00     0.047 C 
ATOM     10  C   UNL     1      -1.453  -3.052 -10.535  1.00  0.00     0.014 C 
ATOM     11  C   UNL     1      -1.855  -5.286  -9.471  1.00  0.00     0.014 C 
ENDBRANCH   1   9
TORSDOF 3
ENDMDL
MODEL 4
REMARK VINA RESULT:     3.247      2.748      3.384
REMARK INTER + INTRA:           3.864
REMARK INTER:                   3.777
REMARK INTRA:                   0.087
REMARK UNBOUND:                 0.143
REMARK SMILES CC(C)[C@@H]([NH3+])C(=O)[O-]
REMARK SMILES IDX 4 1 5 2 6 6 7 7 8 8 2 9 1 10 3 11
REMARK H PARENT 5 3 5 4 5 5
REMARK Flexibility Score: inf
ROOT
ATOM      1  C   UNL     1      -2.460  -6.112 -11.129  1.00  0.00     0.230 C 
ENDROOT
BRANCH   1   2
ATOM      2  N   UNL     1      -2.361  -7.053 -12.256  1.00  0.00    -0.350 N 
ATOM      3  H   UNL     1      -2.697  -8.001 -11.964  1.00  0.00     0.345 HD
ATOM      4  H   UNL     1      -2.973  -6.739 -13.044  1.00  0.00     0.345 HD
ATOM      5  H   UNL     1      -1.372  -7.129 -12.589  1.00  0.00     0.345 HD
ENDBRANCH   1   2
BRANCH   1   6
ATOM      6  C   UNL     1      -1.907  -6.761  -9.884  1.00  0.00     0.099 C 
ATOM      7  O   UNL     1      -1.871  -6.127  -8.797  1.00  0.00    -0.544 OA
ATOM      8  O   UNL     1      -1.443  -8.070  -9.930  1.00  0.00    -0.544 OA
ENDBRANCH   1   6
BRANCH   1   9
ATOM      9  C   UNL     1      -1.727  -4.768 -11.428  1.00  0.00     0.047 C 
ATOM     10  C   UNL     1      -2.417  -3.589 -10.718  1.00  0.00     0.014 C 
ATOM     11  C   UNL     1      -1.658  -4.476 -12.936  1.00  0.00     0.014 C 
ENDBRANCH   1   9
TORSDOF 3
ENDMDL
MODEL 5
REMARK VINA RESULT:     3.319      1.641      2.203
REMARK INTER + INTRA:           3.948
REMARK INTER:                   3.930
REMARK INTRA:                   0.017
REMARK UNBOUND:                 0.143
REMARK SMILES CC(C)[C@@H]([NH3+])C(=O)[O-]
REMARK SMILES IDX 4 1 5 2 6 6 7 7 8 8 2 9 1 10 3 11
REMARK H PARENT 5 3 5 4 5 5
REMARK Flexibility Score: inf
ROOT
ATOM      1  C   UNL     1      -2.062  -4.218 -11.973  1.00  0.00     0.230 C 
ENDROOT
BRANCH   1   2
ATOM      2  N   UNL     1      -3.480  -4.460 -12.279  1.00  0.00    -0.350 N 
ATOM      3  H   UNL     1      -3.916  -3.595 -12.676  1.00  0.00     0.345 HD
ATOM      4  H   UNL     1      -3.571  -5.209 -13.004  1.00  0.00     0.345 HD
ATOM      5  H   UNL     1      -4.002  -4.741 -11.417  1.00  0.00     0.345 HD
ENDBRANCH   1   2
BRANCH   1   6
ATOM      6  C   UNL     1      -1.919  -3.853 -10.516  1.00  0.00     0.099 C 
ATOM      7  O   UNL     1      -2.114  -4.716  -9.621  1.00  0.00    -0.544 OA
ATOM      8  O   UNL     1      -1.560  -2.560 -10.156  1.00  0.00    -0.544 OA
ENDBRANCH   1   6
BRANCH   1   9
ATOM      9  C   UNL     1      -1.172  -5.449 -12.329  1.00  0.00     0.047 C 
ATOM     10  C   UNL     1      -0.553  -5.302 -13.731  1.00  0.00     0.014 C 
ATOM     11  C   UNL     1      -1.963  -6.766 -12.263  1.00  0.00     0.014 C 
ENDBRANCH   1   9
TORSDOF 3
ENDMDL
MODEL 6
REMARK VINA RESULT:     3.363      2.601      3.236
REMARK INTER + INTRA:           3.998
REMARK INTER:                   2.924
REMARK INTRA:                   1.074
REMARK UNBOUND:                 0.143
REMARK SMILES CC(C)[C@@H]([NH3+])C(=O)[O-]
REMARK SMILES IDX 4 1 5 2 6 6 7 7 8 8 2 9 1 10 3 11
REMARK H PARENT 5 3 5 4 5 5
REMARK Flexibility Score: inf
ROOT
ATOM      1  C   UNL     1      -1.618  -5.519 -10.206  1.00  0.00     0.230 C 
ENDROOT
BRANCH   1   2
ATOM      2  N   UNL     1      -1.943  -5.658  -8.778  1.00  0.00    -0.350 N 
ATOM      3  H   UNL     1      -1.111  -5.410  -8.193  1.00  0.00     0.345 HD
ATOM      4  H   UNL     1      -2.711  -4.998  -8.516  1.00  0.00     0.345 HD
ATOM      5  H   UNL     1      -2.233  -6.640  -8.558  1.00  0.00     0.345 HD
ENDBRANCH   1   2
BRANCH   1   6
ATOM      6  C   UNL     1      -1.895  -6.823 -10.913  1.00  0.00     0.099 C 
ATOM      7  O   UNL     1      -2.307  -6.828 -12.102  1.00  0.00    -0.544 OA
ATOM      8  O   UNL     1      -1.687  -8.028 -10.254  1.00  0.00    -0.544 OA
ENDBRANCH   1   6
BRANCH   1   9
ATOM      9  C   UNL     1      -2.405  -4.348 -10.870  1.00  0.00     0.047 C 
ATOM     10  C   UNL     1      -2.272  -4.386 -12.403  1.00  0.00     0.014 C 
ATOM     11  C   UNL     1      -1.932  -2.977 -10.359  1.00  0.00     0.014 C 
ENDBRANCH   1   9
TORSDOF 3
ENDMDL
MODEL 7
REMARK VINA RESULT:     3.923      6.197      7.225
REMARK INTER + INTRA:           4.639
REMARK INTER:                   4.689
REMARK INTRA:                  -0.049
REMARK UNBOUND:                 0.143
REMARK SMILES CC(C)[C@@H]([NH3+])C(=O)[O-]
REMARK SMILES IDX 4 1 5 2 6 6 7 7 8 8 2 9 1 10 3 11
REMARK H PARENT 5 3 5 4 5 5
REMARK Flexibility Score: inf
ROOT
ATOM      1  C   UNL     1       1.472  -0.083  -6.835  1.00  0.00     0.230 C 
ENDROOT
BRANCH   1   2
ATOM      2  N   UNL     1       2.898  -0.271  -6.526  1.00  0.00    -0.350 N 
ATOM      3  H   UNL     1       3.374  -0.769  -7.313  1.00  0.00     0.345 HD
ATOM      4  H   UNL     1       3.369   0.657  -6.419  1.00  0.00     0.345 HD
ATOM      5  H   UNL     1       3.016  -0.828  -5.648  1.00  0.00     0.345 HD
ENDBRANCH   1   2
BRANCH   1   6
ATOM      6  C   UNL     1       0.909   1.011  -5.960  1.00  0.00     0.099 C 
ATOM      7  O   UNL     1      -0.246   1.465  -6.171  1.00  0.00    -0.544 OA
ATOM      8  O   UNL     1       1.663   1.516  -4.908  1.00  0.00    -0.544 OA
ENDBRANCH   1   6
BRANCH   1   9
ATOM      9  C   UNL     1       1.241   0.238  -8.344  1.00  0.00     0.047 C 
ATOM     10  C   UNL     1       0.471  -0.898  -9.042  1.00  0.00     0.014 C 
ATOM     11  C   UNL     1       2.565   0.479  -9.087  1.00  0.00     0.014 C 
ENDBRANCH   1   9
TORSDOF 3
ENDMDL
MODEL 8
REMARK VINA RESULT:     3.961      2.069      3.183
REMARK INTER + INTRA:           4.684
REMARK INTER:                   4.532
REMARK INTRA:                   0.152
REMARK UNBOUND:                 0.143
REMARK SMILES CC(C)[C@@H]([NH3+])C(=O)[O-]
REMARK SMILES IDX 4 1 5 2 6 6 7 7 8 8 2 9 1 10 3 11
REMARK H PARENT 5 3 5 4 5 5
REMARK Flexibility Score: inf
ROOT
ATOM      1  C   UNL     1      -1.750  -5.671 -11.619  1.00  0.00     0.230 C 
ENDROOT
BRANCH   1   2
ATOM      2  N   UNL     1      -2.467  -6.935 -11.846  1.00  0.00    -0.350 N 
ATOM      3  H   UNL     1      -3.149  -7.107 -11.070  1.00  0.00     0.345 HD
ATOM      4  H   UNL     1      -3.018  -6.884 -12.733  1.00  0.00     0.345 HD
ATOM      5  H   UNL     1      -1.797  -7.737 -11.894  1.00  0.00     0.345 HD
ENDBRANCH   1   2
BRANCH   1   6
ATOM      6  C   UNL     1      -1.775  -4.847 -12.883  1.00  0.00     0.099 C 
ATOM      7  O   UNL     1      -0.780  -4.833 -13.654  1.00  0.00    -0.544 OA
ATOM      8  O   UNL     1      -2.904  -4.104 -13.206  1.00  0.00    -0.544 OA
ENDBRANCH   1   6
BRANCH   1   9
ATOM      9  C   UNL     1      -2.347  -4.870 -10.421  1.00  0.00     0.047 C 
ATOM     10  C   UNL     1      -1.797  -3.433 -10.382  1.00  0.00     0.014 C 
ATOM     11  C   UNL     1      -2.061  -5.555  -9.074  1.00  0.00     0.014 C 
ENDBRANCH   1   9
TORSDOF 3
ENDMDL
MODEL 9
REMARK VINA RESULT:     4.212      1.920      3.298
REMARK INTER + INTRA:           4.971
REMARK INTER:                   5.029
REMARK INTRA:                  -0.059
REMARK UNBOUND:                 0.143
REMARK SMILES CC(C)[C@@H]([NH3+])C(=O)[O-]
REMARK SMILES IDX 4 1 5 2 6 6 7 7 8 8 2 9 1 10 3 11
REMARK H PARENT 5 3 5 4 5 5
REMARK Flexibility Score: inf
ROOT
ATOM      1  C   UNL     1      -1.521  -4.443 -10.611  1.00  0.00     0.230 C 
ENDROOT
BRANCH   1   2
ATOM      2  N   UNL     1      -2.077  -4.945  -9.344  1.00  0.00    -0.350 N 
ATOM      3  H   UNL     1      -2.684  -4.215  -8.904  1.00  0.00     0.345 HD
ATOM      4  H   UNL     1      -2.680  -5.781  -9.521  1.00  0.00     0.345 HD
ATOM      5  H   UNL     1      -1.310  -5.198  -8.678  1.00  0.00     0.345 HD
ENDBRANCH   1   2
BRANCH   1   6
ATOM      6  C   UNL     1      -2.280  -5.049 -11.766  1.00  0.00     0.099 C 
ATOM      7  O   UNL     1      -2.188  -6.280 -12.014  1.00  0.00    -0.544 OA
ATOM      8  O   UNL     1      -3.093  -4.248 -12.559  1.00  0.00    -0.544 OA
ENDBRANCH   1   6
BRANCH   1   9
ATOM      9  C   UNL     1      -1.549  -2.886 -10.682  1.00  0.00     0.047 C 
ATOM     10  C   UNL     1      -0.124  -2.306 -10.751  1.00  0.00     0.014 C 
ATOM     11  C   UNL     1      -2.285  -2.270  -9.480  1.00  0.00     0.014 C 
ENDBRANCH   1   9
TORSDOF 3
ENDMDL
