MODEL 1
REMARK VINA RESULT:    -7.715      0.000      0.000
REMARK INTER + INTRA:         -11.073
REMARK INTER:                 -10.195
REMARK INTRA:                  -0.878
REMARK UNBOUND:                -0.878
REMARK SMILES CC[C@H](C=C[C@@H](C)[C@H]1CC[C@H]2[C@@H]3CC=C4C[C@H](O)CC[C@]4(C)[C@@H]3CC[C@@]12C)C(C)C
REMARK SMILES IDX 6 1 7 2 5 3 4 4 3 5 2 6 1 7 28 8 29 9 30 10 8 11 9 12 26 13
REMARK SMILES IDX 10 14 11 15 25 16 27 17 12 18 24 19 23 20 13 21 21 22 14 23
REMARK SMILES IDX 15 24 20 25 22 26 16 27 19 28 17 29 18 30
REMARK H PARENT 18 31
REMARK Flexibility Score: inf
ROOT
ATOM      1  C   UNL     1     179.589 180.325 182.569  1.00  0.00     0.012 C 
ATOM      2  C   UNL     1     180.274 180.237 181.191  1.00  0.00     0.012 C 
ENDROOT
BRANCH   1   3
ATOM      3  C   UNL     1     179.264 181.767 182.880  1.00  0.00    -0.028 C 
ATOM      4  C   UNL     1     179.571 182.753 182.022  1.00  0.00    -0.027 C 
BRANCH   4   5
ATOM      5  C   UNL     1     179.215 184.198 182.304  1.00  0.00     0.014 C 
BRANCH   5   6
ATOM      6  C   UNL     1     178.742 184.352 183.769  1.00  0.00     0.004 C 
ATOM      7  C   UNL     1     177.263 184.737 183.860  1.00  0.00     0.004 C 
ENDBRANCH   5   6
BRANCH   5   8
ATOM      8  C   UNL     1     180.413 185.127 181.933  1.00  0.00    -0.011 C 
ATOM      9  C   UNL     1     181.553 185.027 182.960  1.00  0.00     0.008 C 
ATOM     10  C   UNL     1     180.962 184.896 180.514  1.00  0.00     0.008 C 
ENDBRANCH   5   8
ENDBRANCH   4   5
ENDBRANCH   1   3
BRANCH   1  11
ATOM     11  C   UNL     1     180.286 179.607 183.782  1.00  0.00     0.002 C 
ATOM     12  C   UNL     1     181.374 178.617 183.350  1.00  0.00     0.005 C 
ATOM     13  C   UNL     1     180.876 180.404 184.996  1.00  0.00    -0.026 C 
ATOM     14  C   UNL     1     182.283 178.412 184.554  1.00  0.00     0.005 C 
ATOM     15  C   UNL     1     181.768 179.320 185.683  1.00  0.00    -0.001 C 
ATOM     16  C   UNL     1     181.722 181.623 184.549  1.00  0.00     0.007 C 
ATOM     17  C   UNL     1     179.729 180.874 185.933  1.00  0.00     0.012 C 
ATOM     18  C   UNL     1     182.940 179.814 186.594  1.00  0.00     0.000 C 
ATOM     19  C   UNL     1     182.709 182.129 185.609  1.00  0.00     0.005 C 
ATOM     20  C   UNL     1     183.711 181.020 185.999  1.00  0.00     0.003 C 
ATOM     21  C   UNL     1     182.470 180.093 188.033  1.00  0.00     0.031 C 
ATOM     22  C   UNL     1     184.920 181.456 186.931  1.00  0.00    -0.008 C 
ATOM     23  C   UNL     1     183.541 180.683 188.900  1.00  0.00    -0.027 C 
ATOM     24  C   UNL     1     184.569 181.413 188.423  1.00  0.00    -0.065 C 
ATOM     25  C   UNL     1     185.421 182.895 186.585  1.00  0.00     0.014 C 
ATOM     26  C   UNL     1     186.087 180.455 186.690  1.00  0.00     0.016 C 
ATOM     27  C   UNL     1     185.553 182.008 189.417  1.00  0.00     0.063 C 
ATOM     28  C   UNL     1     186.499 183.429 187.544  1.00  0.00     0.033 C 
ATOM     29  C   UNL     1     186.004 183.416 188.997  1.00  0.00     0.118 C 
BRANCH  29  30
ATOM     30  O   UNL     1     184.947 184.329 189.144  1.00  0.00    -0.393 OA
ATOM     31  H   UNL     1     185.353 185.235 189.188  1.00  0.00     0.210 HD
ENDBRANCH  29  30
ENDBRANCH   1  11
TORSDOF 6
ENDMDL
MODEL 2
REMARK VINA RESULT:    -7.580      5.530      8.600
REMARK INTER + INTRA:         -10.896
REMARK INTER:                  -9.896
REMARK INTRA:                  -0.999
REMARK UNBOUND:                -0.878
REMARK SMILES CC[C@H](C=C[C@@H](C)[C@H]1CC[C@H]2[C@@H]3CC=C4C[C@H](O)CC[C@]4(C)[C@@H]3CC[C@@]12C)C(C)C
REMARK SMILES IDX 6 1 7 2 5 3 4 4 3 5 2 6 1 7 28 8 29 9 30 10 8 11 9 12 26 13
REMARK SMILES IDX 10 14 11 15 25 16 27 17 12 18 24 19 23 20 13 21 21 22 14 23
REMARK SMILES IDX 15 24 20 25 22 26 16 27 19 28 17 29 18 30
REMARK H PARENT 18 31
REMARK Flexibility Score: inf
ROOT
ATOM      1  C   UNL     1     183.366 174.142 178.865  1.00  0.00     0.012 C 
ATOM      2  C   UNL     1     183.733 175.226 177.832  1.00  0.00     0.012 C 
ENDROOT
BRANCH   1   3
ATOM      3  C   UNL     1     182.076 173.471 178.458  1.00  0.00    -0.028 C 
ATOM      4  C   UNL     1     181.305 173.975 177.481  1.00  0.00    -0.027 C 
BRANCH   4   5
ATOM      5  C   UNL     1     180.029 173.291 177.036  1.00  0.00     0.014 C 
BRANCH   5   6
ATOM      6  C   UNL     1     178.958 174.347 176.672  1.00  0.00     0.004 C 
ATOM      7  C   UNL     1     179.523 175.770 176.691  1.00  0.00     0.004 C 
ENDBRANCH   5   6
BRANCH   5   8
ATOM      8  C   UNL     1     180.335 172.288 175.879  1.00  0.00    -0.011 C 
ATOM      9  C   UNL     1     179.047 171.726 175.253  1.00  0.00     0.008 C 
ATOM     10  C   UNL     1     181.244 172.866 174.780  1.00  0.00     0.008 C 
ENDBRANCH   5   8
ENDBRANCH   4   5
ENDBRANCH   1   3
BRANCH   1  11
ATOM     11  C   UNL     1     183.361 174.550 180.384  1.00  0.00     0.002 C 
ATOM     12  C   UNL     1     184.699 175.129 180.855  1.00  0.00     0.005 C 
ATOM     13  C   UNL     1     182.247 175.465 180.998  1.00  0.00    -0.026 C 
ATOM     14  C   UNL     1     184.409 175.935 182.114  1.00  0.00     0.005 C 
ATOM     15  C   UNL     1     182.892 175.880 182.359  1.00  0.00    -0.001 C 
ATOM     16  C   UNL     1     181.949 176.706 180.118  1.00  0.00     0.007 C 
ATOM     17  C   UNL     1     180.943 174.647 181.212  1.00  0.00     0.012 C 
ATOM     18  C   UNL     1     182.378 177.193 183.037  1.00  0.00     0.000 C 
ATOM     19  C   UNL     1     181.272 177.862 180.867  1.00  0.00     0.005 C 
ATOM     20  C   UNL     1     182.156 178.354 182.034  1.00  0.00     0.003 C 
ATOM     21  C   UNL     1     181.129 176.942 183.901  1.00  0.00     0.031 C 
ATOM     22  C   UNL     1     181.682 179.678 182.770  1.00  0.00    -0.008 C 
ATOM     23  C   UNL     1     180.540 178.199 184.467  1.00  0.00    -0.027 C 
ATOM     24  C   UNL     1     180.669 179.409 183.888  1.00  0.00    -0.065 C 
ATOM     25  C   UNL     1     181.050 180.696 181.767  1.00  0.00     0.014 C 
ATOM     26  C   UNL     1     182.938 180.334 183.414  1.00  0.00     0.016 C 
ATOM     27  C   UNL     1     179.968 180.594 184.532  1.00  0.00     0.063 C 
ATOM     28  C   UNL     1     180.446 181.941 182.439  1.00  0.00     0.033 C 
ATOM     29  C   UNL     1     179.386 181.551 183.480  1.00  0.00     0.118 C 
BRANCH  29  30
ATOM     30  O   UNL     1     178.289 180.956 182.835  1.00  0.00    -0.393 OA
ATOM     31  H   UNL     1     177.824 181.676 182.334  1.00  0.00     0.210 HD
ENDBRANCH  29  30
ENDBRANCH   1  11
TORSDOF 6
ENDMDL
MODEL 3
REMARK VINA RESULT:    -7.494      5.922      9.146
REMARK INTER + INTRA:         -10.781
REMARK INTER:                  -9.813
REMARK INTRA:                  -0.968
REMARK UNBOUND:                -0.878
REMARK SMILES CC[C@H](C=C[C@@H](C)[C@H]1CC[C@H]2[C@@H]3CC=C4C[C@H](O)CC[C@]4(C)[C@@H]3CC[C@@]12C)C(C)C
REMARK SMILES IDX 6 1 7 2 5 3 4 4 3 5 2 6 1 7 28 8 29 9 30 10 8 11 9 12 26 13
REMARK SMILES IDX 10 14 11 15 25 16 27 17 12 18 24 19 23 20 13 21 21 22 14 23
REMARK SMILES IDX 15 24 20 25 22 26 16 27 19 28 17 29 18 30
REMARK H PARENT 18 31
REMARK Flexibility Score: inf
ROOT
ATOM      1  C   UNL     1     181.177 179.351 181.646  1.00  0.00     0.012 C 
ATOM      2  C   UNL     1     182.048 180.516 181.136  1.00  0.00     0.012 C 
ENDROOT
BRANCH   1   3
ATOM      3  C   UNL     1     180.162 179.874 182.634  1.00  0.00    -0.028 C 
ATOM      4  C   UNL     1     180.486 180.813 183.538  1.00  0.00    -0.027 C 
BRANCH   4   5
ATOM      5  C   UNL     1     179.467 181.376 184.507  1.00  0.00     0.014 C 
BRANCH   5   6
ATOM      6  C   UNL     1     179.864 181.019 185.960  1.00  0.00     0.004 C 
ATOM      7  C   UNL     1     180.802 179.812 186.021  1.00  0.00     0.004 C 
ENDBRANCH   5   6
BRANCH   5   8
ATOM      8  C   UNL     1     179.287 182.907 184.266  1.00  0.00    -0.011 C 
ATOM      9  C   UNL     1     178.551 183.196 182.947  1.00  0.00     0.008 C 
ATOM     10  C   UNL     1     178.592 183.641 185.427  1.00  0.00     0.008 C 
ENDBRANCH   5   8
ENDBRANCH   4   5
ENDBRANCH   1   3
BRANCH   1  11
ATOM     11  C   UNL     1     181.910 178.068 182.183  1.00  0.00     0.002 C 
ATOM     12  C   UNL     1     181.067 177.267 183.181  1.00  0.00     0.005 C 
ATOM     13  C   UNL     1     182.567 177.019 181.222  1.00  0.00    -0.026 C 
ATOM     14  C   UNL     1     181.637 175.855 183.203  1.00  0.00     0.005 C 
ATOM     15  C   UNL     1     182.784 175.804 182.180  1.00  0.00    -0.001 C 
ATOM     16  C   UNL     1     181.641 176.639 180.039  1.00  0.00     0.007 C 
ATOM     17  C   UNL     1     183.917 177.564 180.680  1.00  0.00     0.012 C 
ATOM     18  C   UNL     1     182.909 174.383 181.537  1.00  0.00     0.000 C 
ATOM     19  C   UNL     1     181.986 175.301 179.372  1.00  0.00     0.005 C 
ATOM     20  C   UNL     1     181.896 174.141 180.388  1.00  0.00     0.003 C 
ATOM     21  C   UNL     1     184.352 174.075 181.097  1.00  0.00     0.031 C 
ATOM     22  C   UNL     1     182.024 172.673 179.798  1.00  0.00    -0.008 C 
ATOM     23  C   UNL     1     184.482 172.773 180.367  1.00  0.00    -0.027 C 
ATOM     24  C   UNL     1     183.478 172.207 179.667  1.00  0.00    -0.065 C 
ATOM     25  C   UNL     1     181.343 172.557 178.396  1.00  0.00     0.014 C 
ATOM     26  C   UNL     1     181.302 171.705 180.780  1.00  0.00     0.016 C 
ATOM     27  C   UNL     1     183.762 170.914 178.920  1.00  0.00     0.063 C 
ATOM     28  C   UNL     1     181.553 171.197 177.710  1.00  0.00     0.033 C 
ATOM     29  C   UNL     1     183.046 170.875 177.560  1.00  0.00     0.118 C 
BRANCH  29  30
ATOM     30  O   UNL     1     183.639 171.789 176.673  1.00  0.00    -0.393 OA
ATOM     31  H   UNL     1     182.900 172.304 176.253  1.00  0.00     0.210 HD
ENDBRANCH  29  30
ENDBRANCH   1  11
TORSDOF 6
ENDMDL
MODEL 4
REMARK VINA RESULT:    -7.348      3.946      7.873
REMARK INTER + INTRA:         -10.588
REMARK INTER:                  -9.451
REMARK INTRA:                  -1.137
REMARK UNBOUND:                -0.878
REMARK SMILES CC[C@H](C=C[C@@H](C)[C@H]1CC[C@H]2[C@@H]3CC=C4C[C@H](O)CC[C@]4(C)[C@@H]3CC[C@@]12C)C(C)C
REMARK SMILES IDX 6 1 7 2 5 3 4 4 3 5 2 6 1 7 28 8 29 9 30 10 8 11 9 12 26 13
REMARK SMILES IDX 10 14 11 15 25 16 27 17 12 18 24 19 23 20 13 21 21 22 14 23
REMARK SMILES IDX 15 24 20 25 22 26 16 27 19 28 17 29 18 30
REMARK H PARENT 18 31
REMARK Flexibility Score: inf
ROOT
ATOM      1  C   UNL     1     180.670 180.834 185.856  1.00  0.00     0.012 C 
ATOM      2  C   UNL     1     179.848 182.120 186.072  1.00  0.00     0.012 C 
ENDROOT
BRANCH   1   3
ATOM      3  C   UNL     1     181.687 180.692 186.964  1.00  0.00    -0.028 C 
ATOM      4  C   UNL     1     182.301 181.765 187.490  1.00  0.00    -0.027 C 
BRANCH   4   5
ATOM      5  C   UNL     1     183.293 181.640 188.628  1.00  0.00     0.014 C 
BRANCH   5   6
ATOM      6  C   UNL     1     183.537 180.148 188.958  1.00  0.00     0.004 C 
ATOM      7  C   UNL     1     184.813 179.616 188.301  1.00  0.00     0.004 C 
ENDBRANCH   5   6
BRANCH   5   8
ATOM      8  C   UNL     1     184.597 182.428 188.291  1.00  0.00    -0.011 C 
ATOM      9  C   UNL     1     184.490 183.161 186.943  1.00  0.00     0.008 C 
ATOM     10  C   UNL     1     185.030 183.413 189.391  1.00  0.00     0.008 C 
ENDBRANCH   5   8
ENDBRANCH   4   5
ENDBRANCH   1   3
BRANCH   1  11
ATOM     11  C   UNL     1     181.312 180.603 184.439  1.00  0.00     0.002 C 
ATOM     12  C   UNL     1     182.834 180.783 184.432  1.00  0.00     0.005 C 
ATOM     13  C   UNL     1     181.018 179.319 183.590  1.00  0.00    -0.026 C 
ATOM     14  C   UNL     1     183.357 180.045 183.207  1.00  0.00     0.005 C 
ATOM     15  C   UNL     1     182.153 179.383 182.517  1.00  0.00    -0.001 C 
ATOM     16  C   UNL     1     181.114 178.020 184.429  1.00  0.00     0.007 C 
ATOM     17  C   UNL     1     179.612 179.422 182.937  1.00  0.00     0.012 C 
ATOM     18  C   UNL     1     182.565 178.047 181.815  1.00  0.00     0.000 C 
ATOM     19  C   UNL     1     181.336 176.748 183.599  1.00  0.00     0.005 C 
ATOM     20  C   UNL     1     182.648 176.843 182.789  1.00  0.00     0.003 C 
ATOM     21  C   UNL     1     181.670 177.736 180.601  1.00  0.00     0.031 C 
ATOM     22  C   UNL     1     183.115 175.522 182.044  1.00  0.00    -0.008 C 
ATOM     23  C   UNL     1     181.960 176.403 179.980  1.00  0.00    -0.027 C 
ATOM     24  C   UNL     1     182.481 175.361 180.658  1.00  0.00    -0.065 C 
ATOM     25  C   UNL     1     182.790 174.244 182.885  1.00  0.00     0.014 C 
ATOM     26  C   UNL     1     184.657 175.609 181.853  1.00  0.00     0.016 C 
ATOM     27  C   UNL     1     182.667 174.044 179.923  1.00  0.00     0.063 C 
ATOM     28  C   UNL     1     183.094 172.924 182.156  1.00  0.00     0.033 C 
ATOM     29  C   UNL     1     182.340 172.841 180.821  1.00  0.00     0.118 C 
BRANCH  29  30
ATOM     30  O   UNL     1     180.957 172.777 181.063  1.00  0.00    -0.393 OA
ATOM     31  H   UNL     1     180.552 172.292 180.297  1.00  0.00     0.210 HD
ENDBRANCH  29  30
ENDBRANCH   1  11
TORSDOF 6
ENDMDL
MODEL 5
REMARK VINA RESULT:    -7.326      3.486      7.148
REMARK INTER + INTRA:         -10.559
REMARK INTER:                  -9.281
REMARK INTRA:                  -1.279
REMARK UNBOUND:                -0.878
REMARK SMILES CC[C@H](C=C[C@@H](C)[C@H]1CC[C@H]2[C@@H]3CC=C4C[C@H](O)CC[C@]4(C)[C@@H]3CC[C@@]12C)C(C)C
REMARK SMILES IDX 6 1 7 2 5 3 4 4 3 5 2 6 1 7 28 8 29 9 30 10 8 11 9 12 26 13
REMARK SMILES IDX 10 14 11 15 25 16 27 17 12 18 24 19 23 20 13 21 21 22 14 23
REMARK SMILES IDX 15 24 20 25 22 26 16 27 19 28 17 29 18 30
REMARK H PARENT 18 31
REMARK Flexibility Score: inf
ROOT
ATOM      1  C   UNL     1     181.653 182.322 184.636  1.00  0.00     0.012 C 
ATOM      2  C   UNL     1     182.770 182.981 183.802  1.00  0.00     0.012 C 
ENDROOT
BRANCH   1   3
ATOM      3  C   UNL     1     182.146 182.085 186.044  1.00  0.00    -0.028 C 
ATOM      4  C   UNL     1     183.452 182.168 186.350  1.00  0.00    -0.027 C 
BRANCH   4   5
ATOM      5  C   UNL     1     183.955 181.973 187.765  1.00  0.00     0.014 C 
BRANCH   5   6
ATOM      6  C   UNL     1     182.860 181.305 188.630  1.00  0.00     0.004 C 
ATOM      7  C   UNL     1     183.105 179.805 188.813  1.00  0.00     0.004 C 
ENDBRANCH   5   6
BRANCH   5   8
ATOM      8  C   UNL     1     185.304 181.189 187.750  1.00  0.00    -0.011 C 
ATOM      9  C   UNL     1     185.667 180.701 186.338  1.00  0.00     0.008 C 
ATOM     10  C   UNL     1     186.484 181.972 188.354  1.00  0.00     0.008 C 
ENDBRANCH   5   8
ENDBRANCH   4   5
ENDBRANCH   1   3
BRANCH   1  11
ATOM     11  C   UNL     1     180.948 181.049 184.041  1.00  0.00     0.002 C 
ATOM     12  C   UNL     1     180.534 181.221 182.575  1.00  0.00     0.005 C 
ATOM     13  C   UNL     1     181.578 179.617 184.153  1.00  0.00    -0.026 C 
ATOM     14  C   UNL     1     180.370 179.821 181.999  1.00  0.00     0.005 C 
ATOM     15  C   UNL     1     180.738 178.819 183.105  1.00  0.00    -0.001 C 
ATOM     16  C   UNL     1     183.085 179.604 183.790  1.00  0.00     0.007 C 
ATOM     17  C   UNL     1     181.377 179.058 185.588  1.00  0.00     0.012 C 
ATOM     18  C   UNL     1     181.368 177.518 182.507  1.00  0.00     0.000 C 
ATOM     19  C   UNL     1     183.626 178.223 183.396  1.00  0.00     0.005 C 
ATOM     20  C   UNL     1     182.873 177.669 182.166  1.00  0.00     0.003 C 
ATOM     21  C   UNL     1     181.108 176.290 183.397  1.00  0.00     0.031 C 
ATOM     22  C   UNL     1     183.460 176.344 181.517  1.00  0.00    -0.008 C 
ATOM     23  C   UNL     1     181.801 175.053 182.916  1.00  0.00    -0.027 C 
ATOM     24  C   UNL     1     182.936 175.069 182.187  1.00  0.00    -0.065 C 
ATOM     25  C   UNL     1     185.022 176.322 181.571  1.00  0.00     0.014 C 
ATOM     26  C   UNL     1     183.016 176.313 180.025  1.00  0.00     0.016 C 
ATOM     27  C   UNL     1     183.572 173.740 181.815  1.00  0.00     0.063 C 
ATOM     28  C   UNL     1     185.644 175.002 181.084  1.00  0.00     0.033 C 
ATOM     29  C   UNL     1     185.106 173.806 181.881  1.00  0.00     0.118 C 
BRANCH  29  30
ATOM     30  O   UNL     1     185.531 173.901 183.217  1.00  0.00    -0.393 OA
ATOM     31  H   UNL     1     186.505 173.704 183.225  1.00  0.00     0.210 HD
ENDBRANCH  29  30
ENDBRANCH   1  11
TORSDOF 6
ENDMDL
MODEL 6
REMARK VINA RESULT:    -7.151      3.597      7.437
REMARK INTER + INTRA:         -10.328
REMARK INTER:                  -9.535
REMARK INTRA:                  -0.793
REMARK UNBOUND:                -0.878
REMARK SMILES CC[C@H](C=C[C@@H](C)[C@H]1CC[C@H]2[C@@H]3CC=C4C[C@H](O)CC[C@]4(C)[C@@H]3CC[C@@]12C)C(C)C
REMARK SMILES IDX 6 1 7 2 5 3 4 4 3 5 2 6 1 7 28 8 29 9 30 10 8 11 9 12 26 13
REMARK SMILES IDX 10 14 11 15 25 16 27 17 12 18 24 19 23 20 13 21 21 22 14 23
REMARK SMILES IDX 15 24 20 25 22 26 16 27 19 28 17 29 18 30
REMARK H PARENT 18 31
REMARK Flexibility Score: inf
ROOT
ATOM      1  C   UNL     1     180.844 178.424 184.374  1.00  0.00     0.012 C 
ATOM      2  C   UNL     1     181.545 179.089 185.574  1.00  0.00     0.012 C 
ENDROOT
BRANCH   1   3
ATOM      3  C   UNL     1     181.749 177.373 183.778  1.00  0.00    -0.028 C 
ATOM      4  C   UNL     1     181.251 176.266 183.202  1.00  0.00    -0.027 C 
BRANCH   4   5
ATOM      5  C   UNL     1     182.147 175.224 182.565  1.00  0.00     0.014 C 
BRANCH   5   6
ATOM      6  C   UNL     1     181.356 174.420 181.506  1.00  0.00     0.004 C 
ATOM      7  C   UNL     1     181.737 172.938 181.504  1.00  0.00     0.004 C 
ENDBRANCH   5   6
BRANCH   5   8
ATOM      8  C   UNL     1     183.437 175.898 182.003  1.00  0.00    -0.011 C 
ATOM      9  C   UNL     1     184.682 175.020 182.216  1.00  0.00     0.008 C 
ATOM     10  C   UNL     1     183.330 176.306 180.522  1.00  0.00     0.008 C 
ENDBRANCH   5   8
ENDBRANCH   4   5
ENDBRANCH   1   3
BRANCH   1  11
ATOM     11  C   UNL     1     180.230 179.362 183.271  1.00  0.00     0.002 C 
ATOM     12  C   UNL     1     179.016 180.157 183.765  1.00  0.00     0.005 C 
ATOM     13  C   UNL     1     181.108 180.368 182.450  1.00  0.00    -0.026 C 
ATOM     14  C   UNL     1     178.865 181.351 182.833  1.00  0.00     0.005 C 
ATOM     15  C   UNL     1     180.020 181.296 181.819  1.00  0.00    -0.001 C 
ATOM     16  C   UNL     1     182.079 181.176 183.348  1.00  0.00     0.007 C 
ATOM     17  C   UNL     1     181.910 179.608 181.358  1.00  0.00     0.012 C 
ATOM     18  C   UNL     1     180.456 182.731 181.376  1.00  0.00     0.000 C 
ATOM     19  C   UNL     1     182.582 182.482 182.718  1.00  0.00     0.005 C 
ATOM     20  C   UNL     1     181.402 183.424 182.391  1.00  0.00     0.003 C 
ATOM     21  C   UNL     1     181.044 182.741 179.954  1.00  0.00     0.031 C 
ATOM     22  C   UNL     1     181.780 184.894 181.927  1.00  0.00    -0.008 C 
ATOM     23  C   UNL     1     181.583 184.078 179.546  1.00  0.00    -0.027 C 
ATOM     24  C   UNL     1     182.044 184.995 180.420  1.00  0.00    -0.065 C 
ATOM     25  C   UNL     1     183.039 185.429 182.683  1.00  0.00     0.014 C 
ATOM     26  C   UNL     1     180.573 185.818 182.260  1.00  0.00     0.016 C 
ATOM     27  C   UNL     1     182.623 186.288 179.870  1.00  0.00     0.063 C 
ATOM     28  C   UNL     1     183.537 186.793 182.179  1.00  0.00     0.033 C 
ATOM     29  C   UNL     1     183.847 186.750 180.675  1.00  0.00     0.118 C 
BRANCH  29  30
ATOM     30  O   UNL     1     184.935 185.892 180.442  1.00  0.00    -0.393 OA
ATOM     31  H   UNL     1     185.167 185.976 179.480  1.00  0.00     0.210 HD
ENDBRANCH  29  30
ENDBRANCH   1  11
TORSDOF 6
ENDMDL
MODEL 7
REMARK VINA RESULT:    -7.135      6.649     10.368
REMARK INTER + INTRA:         -10.308
REMARK INTER:                  -9.408
REMARK INTRA:                  -0.900
REMARK UNBOUND:                -0.878
REMARK SMILES CC[C@H](C=C[C@@H](C)[C@H]1CC[C@H]2[C@@H]3CC=C4C[C@H](O)CC[C@]4(C)[C@@H]3CC[C@@]12C)C(C)C
REMARK SMILES IDX 6 1 7 2 5 3 4 4 3 5 2 6 1 7 28 8 29 9 30 10 8 11 9 12 26 13
REMARK SMILES IDX 10 14 11 15 25 16 27 17 12 18 24 19 23 20 13 21 21 22 14 23
REMARK SMILES IDX 15 24 20 25 22 26 16 27 19 28 17 29 18 30
REMARK H PARENT 18 31
REMARK Flexibility Score: inf
ROOT
ATOM      1  C   UNL     1     181.258 177.640 182.795  1.00  0.00     0.012 C 
ATOM      2  C   UNL     1     181.352 178.910 181.926  1.00  0.00     0.012 C 
ENDROOT
BRANCH   1   3
ATOM      3  C   UNL     1     181.266 178.025 184.255  1.00  0.00    -0.028 C 
ATOM      4  C   UNL     1     182.062 179.004 184.715  1.00  0.00    -0.027 C 
BRANCH   4   5
ATOM      5  C   UNL     1     182.049 179.427 186.170  1.00  0.00     0.014 C 
BRANCH   5   6
ATOM      6  C   UNL     1     183.484 179.775 186.633  1.00  0.00     0.004 C 
ATOM      7  C   UNL     1     184.380 180.197 185.467  1.00  0.00     0.004 C 
ENDBRANCH   5   6
BRANCH   5   8
ATOM      8  C   UNL     1     181.026 180.586 186.381  1.00  0.00    -0.011 C 
ATOM      9  C   UNL     1     181.296 181.357 187.684  1.00  0.00     0.008 C 
ATOM     10  C   UNL     1     180.944 181.567 185.198  1.00  0.00     0.008 C 
ENDBRANCH   5   8
ENDBRANCH   4   5
ENDBRANCH   1   3
BRANCH   1  11
ATOM     11  C   UNL     1     182.264 176.469 182.493  1.00  0.00     0.002 C 
ATOM     12  C   UNL     1     182.016 175.227 183.355  1.00  0.00     0.005 C 
ATOM     13  C   UNL     1     182.524 175.948 181.038  1.00  0.00    -0.026 C 
ATOM     14  C   UNL     1     182.662 174.054 182.630  1.00  0.00     0.005 C 
ATOM     15  C   UNL     1     183.246 174.589 181.312  1.00  0.00    -0.001 C 
ATOM     16  C   UNL     1     181.211 175.733 180.242  1.00  0.00     0.007 C 
ATOM     17  C   UNL     1     183.446 176.938 180.274  1.00  0.00     0.012 C 
ATOM     18  C   UNL     1     183.201 173.502 180.188  1.00  0.00     0.000 C 
ATOM     19  C   UNL     1     181.346 174.782 179.046  1.00  0.00     0.005 C 
ATOM     20  C   UNL     1     181.814 173.383 179.506  1.00  0.00     0.003 C 
ATOM     21  C   UNL     1     184.327 173.696 179.156  1.00  0.00     0.031 C 
ATOM     22  C   UNL     1     181.800 172.237 178.408  1.00  0.00    -0.008 C 
ATOM     23  C   UNL     1     184.240 172.745 178.001  1.00  0.00    -0.027 C 
ATOM     24  C   UNL     1     183.086 172.195 177.574  1.00  0.00    -0.065 C 
ATOM     25  C   UNL     1     180.587 172.390 177.434  1.00  0.00     0.014 C 
ATOM     26  C   UNL     1     181.670 170.875 179.149  1.00  0.00     0.016 C 
ATOM     27  C   UNL     1     183.127 171.295 176.350  1.00  0.00     0.063 C 
ATOM     28  C   UNL     1     180.596 171.392 176.264  1.00  0.00     0.033 C 
ATOM     29  C   UNL     1     181.895 171.498 175.453  1.00  0.00     0.118 C 
BRANCH  29  30
ATOM     30  O   UNL     1     181.956 172.751 174.821  1.00  0.00    -0.393 OA
ATOM     31  H   UNL     1     182.769 173.208 175.163  1.00  0.00     0.210 HD
ENDBRANCH  29  30
ENDBRANCH   1  11
TORSDOF 6
ENDMDL
MODEL 8
REMARK VINA RESULT:    -7.072      6.226      9.538
REMARK INTER + INTRA:         -10.224
REMARK INTER:                  -9.182
REMARK INTRA:                  -1.042
REMARK UNBOUND:                -0.878
REMARK SMILES CC[C@H](C=C[C@@H](C)[C@H]1CC[C@H]2[C@@H]3CC=C4C[C@H](O)CC[C@]4(C)[C@@H]3CC[C@@]12C)C(C)C
REMARK SMILES IDX 6 1 7 2 5 3 4 4 3 5 2 6 1 7 28 8 29 9 30 10 8 11 9 12 26 13
REMARK SMILES IDX 10 14 11 15 25 16 27 17 12 18 24 19 23 20 13 21 21 22 14 23
REMARK SMILES IDX 15 24 20 25 22 26 16 27 19 28 17 29 18 30
REMARK H PARENT 18 31
REMARK Flexibility Score: inf
ROOT
ATOM      1  C   UNL     1     183.371 173.983 179.132  1.00  0.00     0.012 C 
ATOM      2  C   UNL     1     182.230 173.043 178.698  1.00  0.00     0.012 C 
ENDROOT
BRANCH   1   3
ATOM      3  C   UNL     1     184.699 173.381 178.741  1.00  0.00    -0.028 C 
ATOM      4  C   UNL     1     184.812 172.077 178.435  1.00  0.00    -0.027 C 
BRANCH   4   5
ATOM      5  C   UNL     1     186.130 171.469 178.002  1.00  0.00     0.014 C 
BRANCH   5   6
ATOM      6  C   UNL     1     186.060 171.059 176.511  1.00  0.00     0.004 C 
ATOM      7  C   UNL     1     184.618 170.930 176.016  1.00  0.00     0.004 C 
ENDBRANCH   5   6
BRANCH   5   8
ATOM      8  C   UNL     1     187.303 172.445 178.328  1.00  0.00    -0.011 C 
ATOM      9  C   UNL     1     188.045 172.038 179.612  1.00  0.00     0.008 C 
ATOM     10  C   UNL     1     188.307 172.617 177.174  1.00  0.00     0.008 C 
ENDBRANCH   5   8
ENDBRANCH   4   5
ENDBRANCH   1   3
BRANCH   1  11
ATOM     11  C   UNL     1     183.375 174.493 180.620  1.00  0.00     0.002 C 
ATOM     12  C   UNL     1     184.712 175.117 181.038  1.00  0.00     0.005 C 
ATOM     13  C   UNL     1     182.257 175.437 181.181  1.00  0.00    -0.026 C 
ATOM     14  C   UNL     1     184.424 176.004 182.241  1.00  0.00     0.005 C 
ATOM     15  C   UNL     1     182.910 175.951 182.504  1.00  0.00    -0.001 C 
ATOM     16  C   UNL     1     181.938 176.612 180.221  1.00  0.00     0.007 C 
ATOM     17  C   UNL     1     180.964 174.623 181.462  1.00  0.00     0.012 C 
ATOM     18  C   UNL     1     182.387 177.301 183.096  1.00  0.00     0.000 C 
ATOM     19  C   UNL     1     181.255 177.810 180.896  1.00  0.00     0.005 C 
ATOM     20  C   UNL     1     182.145 178.389 182.018  1.00  0.00     0.003 C 
ATOM     21  C   UNL     1     181.149 177.098 183.988  1.00  0.00     0.031 C 
ATOM     22  C   UNL     1     181.663 179.755 182.667  1.00  0.00    -0.008 C 
ATOM     23  C   UNL     1     180.552 178.384 184.472  1.00  0.00    -0.027 C 
ATOM     24  C   UNL     1     180.663 179.553 183.810  1.00  0.00    -0.065 C 
ATOM     25  C   UNL     1     181.011 180.697 181.603  1.00  0.00     0.014 C 
ATOM     26  C   UNL     1     182.917 180.466 183.253  1.00  0.00     0.016 C 
ATOM     27  C   UNL     1     179.955 180.772 184.379  1.00  0.00     0.063 C 
ATOM     28  C   UNL     1     180.400 181.978 182.195  1.00  0.00     0.033 C 
ATOM     29  C   UNL     1     179.354 181.649 183.270  1.00  0.00     0.118 C 
BRANCH  29  30
ATOM     30  O   UNL     1     178.257 181.001 182.678  1.00  0.00    -0.393 OA
ATOM     31  H   UNL     1     178.614 180.456 181.928  1.00  0.00     0.210 HD
ENDBRANCH  29  30
ENDBRANCH   1  11
TORSDOF 6
ENDMDL
