MODEL 1
REMARK VINA RESULT:    -0.290      0.000      0.000
REMARK INTER + INTRA:          -2.308
REMARK INTER:                  -0.628
REMARK INTRA:                  -1.680
REMARK UNBOUND:                -1.680
REMARK SMILES CCCCCCCCCCCCCCCCCCCCCC(=O)[O-]
REMARK SMILES IDX 12 1 11 2 10 3 9 4 8 5 7 6 6 7 5 8 4 9 3 10 2 11 1 12 13 13
REMARK SMILES IDX 14 14 15 15 16 16 17 17 18 18 19 19 20 20 21 21 22 22 23 23
REMARK SMILES IDX 24 24
REMARK H PARENT
REMARK Flexibility Score: inf
ROOT
ATOM      1  C   UNL     1      23.474   6.127  17.609  1.00  0.00     0.000 C 
ENDROOT
BRANCH   1   2
ATOM      2  C   UNL     1      22.150   6.887  17.799  1.00  0.00     0.000 C 
BRANCH   2   3
ATOM      3  C   UNL     1      21.044   6.007  18.406  1.00  0.00     0.000 C 
BRANCH   3   4
ATOM      4  C   UNL     1      21.082   5.984  19.945  1.00  0.00    -0.000 C 
BRANCH   4   5
ATOM      5  C   UNL     1      21.775   4.726  20.495  1.00  0.00    -0.000 C 
BRANCH   5   6
ATOM      6  C   UNL     1      23.295   4.911  20.656  1.00  0.00    -0.000 C 
BRANCH   6   7
ATOM      7  C   UNL     1      23.871   4.132  21.852  1.00  0.00    -0.000 C 
BRANCH   7   8
ATOM      8  C   UNL     1      25.320   3.643  21.675  1.00  0.00    -0.000 C 
BRANCH   8   9
ATOM      9  C   UNL     1      26.033   3.383  23.010  1.00  0.00    -0.000 C 
BRANCH   9  10
ATOM     10  C   UNL     1      25.515   2.097  23.667  1.00  0.00    -0.000 C 
BRANCH  10  11
ATOM     11  C   UNL     1      25.922   2.030  25.143  1.00  0.00    -0.003 C 
ATOM     12  C   UNL     1      26.125   3.427  25.722  1.00  0.00     0.004 C 
ENDBRANCH  10  11
ENDBRANCH   9  10
ENDBRANCH   8   9
ENDBRANCH   7   8
ENDBRANCH   6   7
ENDBRANCH   5   6
ENDBRANCH   4   5
ENDBRANCH   3   4
ENDBRANCH   2   3
ENDBRANCH   1   2
BRANCH   1  13
ATOM     13  C   UNL     1      24.549   6.968  16.896  1.00  0.00     0.000 C 
BRANCH  13  14
ATOM     14  C   UNL     1      25.989   6.422  16.997  1.00  0.00     0.000 C 
BRANCH  14  15
ATOM     15  C   UNL     1      26.117   4.890  16.922  1.00  0.00     0.000 C 
BRANCH  15  16
ATOM     16  C   UNL     1      26.009   4.218  18.301  1.00  0.00     0.000 C 
BRANCH  16  17
ATOM     17  C   UNL     1      26.125   2.685  18.228  1.00  0.00     0.000 C 
BRANCH  17  18
ATOM     18  C   UNL     1      24.785   1.923  18.259  1.00  0.00     0.000 C 
BRANCH  18  19
ATOM     19  C   UNL     1      23.819   2.306  17.117  1.00  0.00     0.000 C 
BRANCH  19  20
ATOM     20  C   UNL     1      22.503   2.909  17.641  1.00  0.00     0.006 C 
BRANCH  20  21
ATOM     21  C   UNL     1      21.294   2.016  17.337  1.00  0.00     0.053 C 
BRANCH  21  22
ATOM     22  C   UNL     1      20.171   2.253  18.300  1.00  0.00     0.041 C 
ATOM     23  O   UNL     1      20.390   2.264  19.542  1.00  0.00    -0.550 OA
ATOM     24  O   UNL     1      18.886   2.489  17.826  1.00  0.00    -0.550 OA
ENDBRANCH  21  22
ENDBRANCH  20  21
ENDBRANCH  19  20
ENDBRANCH  18  19
ENDBRANCH  17  18
ENDBRANCH  16  17
ENDBRANCH  15  16
ENDBRANCH  14  15
ENDBRANCH  13  14
ENDBRANCH   1  13
TORSDOF 20
ENDMDL
MODEL 2
REMARK VINA RESULT:     0.671      2.458      5.798
REMARK INTER + INTRA:          -0.223
REMARK INTER:                   0.959
REMARK INTRA:                  -1.183
REMARK UNBOUND:                -1.680
REMARK SMILES CCCCCCCCCCCCCCCCCCCCCC(=O)[O-]
REMARK SMILES IDX 12 1 11 2 10 3 9 4 8 5 7 6 6 7 5 8 4 9 3 10 2 11 1 12 13 13
REMARK SMILES IDX 14 14 15 15 16 16 17 17 18 18 19 19 20 20 21 21 22 22 23 23
REMARK SMILES IDX 24 24
REMARK H PARENT
REMARK Flexibility Score: inf
ROOT
ATOM      1  C   UNL     1      21.767   4.183  20.619  1.00  0.00     0.000 C 
ENDROOT
BRANCH   1   2
ATOM      2  C   UNL     1      23.090   3.623  21.170  1.00  0.00     0.000 C 
BRANCH   2   3
ATOM      3  C   UNL     1      24.239   4.643  21.101  1.00  0.00     0.000 C 
BRANCH   3   4
ATOM      4  C   UNL     1      25.092   4.664  22.383  1.00  0.00    -0.000 C 
BRANCH   4   5
ATOM      5  C   UNL     1      25.869   3.354  22.591  1.00  0.00    -0.000 C 
BRANCH   5   6
ATOM      6  C   UNL     1      25.291   2.187  21.770  1.00  0.00    -0.000 C 
BRANCH   6   7
ATOM      7  C   UNL     1      26.039   1.958  20.444  1.00  0.00    -0.000 C 
BRANCH   7   8
ATOM      8  C   UNL     1      25.156   1.996  19.183  1.00  0.00    -0.000 C 
BRANCH   8   9
ATOM      9  C   UNL     1      25.964   1.879  17.881  1.00  0.00    -0.000 C 
BRANCH   9  10
ATOM     10  C   UNL     1      25.762   3.116  16.998  1.00  0.00    -0.000 C 
BRANCH  10  11
ATOM     11  C   UNL     1      25.788   4.400  17.834  1.00  0.00    -0.003 C 
ATOM     12  C   UNL     1      25.940   5.632  16.947  1.00  0.00     0.004 C 
ENDBRANCH  10  11
ENDBRANCH   9  10
ENDBRANCH   8   9
ENDBRANCH   7   8
ENDBRANCH   6   7
ENDBRANCH   5   6
ENDBRANCH   4   5
ENDBRANCH   3   4
ENDBRANCH   2   3
ENDBRANCH   1   2
BRANCH   1  13
ATOM     13  C   UNL     1      20.530   3.477  21.203  1.00  0.00     0.000 C 
BRANCH  13  14
ATOM     14  C   UNL     1      20.273   2.050  20.675  1.00  0.00     0.000 C 
BRANCH  14  15
ATOM     15  C   UNL     1      19.836   1.965  19.202  1.00  0.00     0.000 C 
BRANCH  15  16
ATOM     16  C   UNL     1      21.027   1.963  18.229  1.00  0.00     0.000 C 
BRANCH  16  17
ATOM     17  C   UNL     1      20.823   2.910  17.033  1.00  0.00     0.000 C 
BRANCH  17  18
ATOM     18  C   UNL     1      19.942   4.143  17.316  1.00  0.00     0.000 C 
BRANCH  18  19
ATOM     19  C   UNL     1      20.574   5.481  16.875  1.00  0.00     0.000 C 
BRANCH  19  20
ATOM     20  C   UNL     1      22.107   5.478  17.017  1.00  0.00     0.006 C 
BRANCH  20  21
ATOM     21  C   UNL     1      22.603   6.554  17.990  1.00  0.00     0.053 C 
BRANCH  21  22
ATOM     22  C   UNL     1      22.797   7.874  17.308  1.00  0.00     0.041 C 
ATOM     23  O   UNL     1      21.812   8.627  17.087  1.00  0.00    -0.550 OA
ATOM     24  O   UNL     1      24.074   8.284  16.940  1.00  0.00    -0.550 OA
ENDBRANCH  21  22
ENDBRANCH  20  21
ENDBRANCH  19  20
ENDBRANCH  18  19
ENDBRANCH  17  18
ENDBRANCH  16  17
ENDBRANCH  15  16
ENDBRANCH  14  15
ENDBRANCH  13  14
ENDBRANCH   1  13
TORSDOF 20
ENDMDL
MODEL 3
REMARK VINA RESULT:     0.717      3.007      6.706
REMARK INTER + INTRA:          -0.126
REMARK INTER:                  -0.565
REMARK INTRA:                   0.439
REMARK UNBOUND:                -1.680
REMARK SMILES CCCCCCCCCCCCCCCCCCCCCC(=O)[O-]
REMARK SMILES IDX 12 1 11 2 10 3 9 4 8 5 7 6 6 7 5 8 4 9 3 10 2 11 1 12 13 13
REMARK SMILES IDX 14 14 15 15 16 16 17 17 18 18 19 19 20 20 21 21 22 22 23 23
REMARK SMILES IDX 24 24
REMARK H PARENT
REMARK Flexibility Score: inf
ROOT
ATOM      1  C   UNL     1      19.919   4.506  18.252  1.00  0.00     0.000 C 
ENDROOT
BRANCH   1   2
ATOM      2  C   UNL     1      21.214   4.771  17.465  1.00  0.00     0.000 C 
BRANCH   2   3
ATOM      3  C   UNL     1      21.335   6.232  16.998  1.00  0.00     0.000 C 
BRANCH   3   4
ATOM      4  C   UNL     1      22.625   6.909  17.494  1.00  0.00    -0.000 C 
BRANCH   4   5
ATOM      5  C   UNL     1      23.891   6.233  16.942  1.00  0.00    -0.000 C 
BRANCH   5   6
ATOM      6  C   UNL     1      25.151   6.585  17.752  1.00  0.00    -0.000 C 
BRANCH   6   7
ATOM      7  C   UNL     1      26.019   7.662  17.075  1.00  0.00    -0.000 C 
BRANCH   7   8
ATOM      8  C   UNL     1      26.088   9.007  17.821  1.00  0.00    -0.000 C 
BRANCH   8   9
ATOM      9  C   UNL     1      26.125  10.216  16.875  1.00  0.00    -0.000 C 
BRANCH   9  10
ATOM     10  C   UNL     1      25.467  11.441  17.524  1.00  0.00    -0.000 C 
BRANCH  10  11
ATOM     11  C   UNL     1      24.041  11.119  17.985  1.00  0.00    -0.003 C 
ATOM     12  C   UNL     1      23.016  11.526  16.931  1.00  0.00     0.004 C 
ENDBRANCH  10  11
ENDBRANCH   9  10
ENDBRANCH   8   9
ENDBRANCH   7   8
ENDBRANCH   6   7
ENDBRANCH   5   6
ENDBRANCH   4   5
ENDBRANCH   3   4
ENDBRANCH   2   3
ENDBRANCH   1   2
BRANCH   1  13
ATOM     13  C   UNL     1      19.943   3.165  19.008  1.00  0.00     0.000 C 
BRANCH  13  14
ATOM     14  C   UNL     1      20.665   2.010  18.282  1.00  0.00     0.000 C 
BRANCH  14  15
ATOM     15  C   UNL     1      22.166   1.875  18.596  1.00  0.00     0.000 C 
BRANCH  15  16
ATOM     16  C   UNL     1      23.049   2.675  17.624  1.00  0.00     0.000 C 
BRANCH  16  17
ATOM     17  C   UNL     1      23.884   3.758  18.330  1.00  0.00     0.000 C 
BRANCH  17  18
ATOM     18  C   UNL     1      23.727   3.813  19.863  1.00  0.00     0.000 C 
BRANCH  18  19
ATOM     19  C   UNL     1      24.974   4.341  20.604  1.00  0.00     0.000 C 
BRANCH  19  20
ATOM     20  C   UNL     1      25.946   3.212  20.989  1.00  0.00     0.006 C 
BRANCH  20  21
ATOM     21  C   UNL     1      25.415   2.359  22.148  1.00  0.00     0.053 C 
BRANCH  21  22
ATOM     22  C   UNL     1      25.803   2.925  23.480  1.00  0.00     0.041 C 
ATOM     23  O   UNL     1      25.908   4.172  23.634  1.00  0.00    -0.550 OA
ATOM     24  O   UNL     1      26.020   2.076  24.559  1.00  0.00    -0.550 OA
ENDBRANCH  21  22
ENDBRANCH  20  21
ENDBRANCH  19  20
ENDBRANCH  18  19
ENDBRANCH  17  18
ENDBRANCH  16  17
ENDBRANCH  15  16
ENDBRANCH  14  15
ENDBRANCH  13  14
ENDBRANCH   1  13
TORSDOF 20
ENDMDL
MODEL 4
REMARK VINA RESULT:     0.998     13.574     16.853
REMARK INTER + INTRA:           0.484
REMARK INTER:                  -1.609
REMARK INTRA:                   2.093
REMARK UNBOUND:                -1.680
REMARK SMILES CCCCCCCCCCCCCCCCCCCCCC(=O)[O-]
REMARK SMILES IDX 12 1 11 2 10 3 9 4 8 5 7 6 6 7 5 8 4 9 3 10 2 11 1 12 13 13
REMARK SMILES IDX 14 14 15 15 16 16 17 17 18 18 19 19 20 20 21 21 22 22 23 23
REMARK SMILES IDX 24 24
REMARK H PARENT
REMARK Flexibility Score: inf
ROOT
ATOM      1  C   UNL     1      17.240  19.706  19.866  1.00  0.00     0.000 C 
ENDROOT
BRANCH   1   2
ATOM      2  C   UNL     1      16.669  20.834  18.989  1.00  0.00     0.000 C 
BRANCH   2   3
ATOM      3  C   UNL     1      17.211  20.795  17.550  1.00  0.00     0.000 C 
BRANCH   3   4
ATOM      4  C   UNL     1      17.786  19.419  17.169  1.00  0.00    -0.000 C 
BRANCH   4   5
ATOM      5  C   UNL     1      16.936  18.259  17.711  1.00  0.00    -0.000 C 
BRANCH   5   6
ATOM      6  C   UNL     1      17.782  17.028  18.083  1.00  0.00    -0.000 C 
BRANCH   6   7
ATOM      7  C   UNL     1      17.618  15.864  17.089  1.00  0.00    -0.000 C 
BRANCH   7   8
ATOM      8  C   UNL     1      18.804  14.883  17.033  1.00  0.00    -0.000 C 
BRANCH   8   9
ATOM      9  C   UNL     1      20.164  15.592  16.936  1.00  0.00    -0.000 C 
BRANCH   9  10
ATOM     10  C   UNL     1      20.056  17.051  17.395  1.00  0.00    -0.000 C 
BRANCH  10  11
ATOM     11  C   UNL     1      21.235  17.880  16.876  1.00  0.00    -0.003 C 
ATOM     12  C   UNL     1      21.232  19.281  17.480  1.00  0.00     0.004 C 
ENDBRANCH  10  11
ENDBRANCH   9  10
ENDBRANCH   8   9
ENDBRANCH   7   8
ENDBRANCH   6   7
ENDBRANCH   5   6
ENDBRANCH   4   5
ENDBRANCH   3   4
ENDBRANCH   2   3
ENDBRANCH   1   2
BRANCH   1  13
ATOM     13  C   UNL     1      18.732  19.900  20.193  1.00  0.00     0.000 C 
BRANCH  13  14
ATOM     14  C   UNL     1      19.220  21.364  20.209  1.00  0.00     0.000 C 
BRANCH  14  15
ATOM     15  C   UNL     1      20.193  21.719  21.347  1.00  0.00     0.000 C 
BRANCH  15  16
ATOM     16  C   UNL     1      21.599  22.076  20.836  1.00  0.00     0.000 C 
BRANCH  16  17
ATOM     17  C   UNL     1      21.812  21.697  19.360  1.00  0.00     0.000 C 
BRANCH  17  18
ATOM     18  C   UNL     1      23.264  21.351  18.974  1.00  0.00     0.000 C 
BRANCH  18  19
ATOM     19  C   UNL     1      24.329  22.125  19.782  1.00  0.00     0.000 C 
BRANCH  19  20
ATOM     20  C   UNL     1      25.345  21.187  20.457  1.00  0.00     0.006 C 
BRANCH  20  21
ATOM     21  C   UNL     1      25.450  19.833  19.743  1.00  0.00     0.053 C 
BRANCH  21  22
ATOM     22  C   UNL     1      25.825  18.733  20.688  1.00  0.00     0.041 C 
ATOM     23  O   UNL     1      25.977  17.556  20.265  1.00  0.00    -0.550 OA
ATOM     24  O   UNL     1      26.035  19.014  22.033  1.00  0.00    -0.550 OA
ENDBRANCH  21  22
ENDBRANCH  20  21
ENDBRANCH  19  20
ENDBRANCH  18  19
ENDBRANCH  17  18
ENDBRANCH  16  17
ENDBRANCH  15  16
ENDBRANCH  14  15
ENDBRANCH  13  14
ENDBRANCH   1  13
TORSDOF 20
ENDMDL
MODEL 5
REMARK VINA RESULT:     1.196      3.272      5.888
REMARK INTER + INTRA:           0.914
REMARK INTER:                   1.016
REMARK INTRA:                  -0.102
REMARK UNBOUND:                -1.680
REMARK SMILES CCCCCCCCCCCCCCCCCCCCCC(=O)[O-]
REMARK SMILES IDX 12 1 11 2 10 3 9 4 8 5 7 6 6 7 5 8 4 9 3 10 2 11 1 12 13 13
REMARK SMILES IDX 14 14 15 15 16 16 17 17 18 18 19 19 20 20 21 21 22 22 23 23
REMARK SMILES IDX 24 24
REMARK H PARENT
REMARK Flexibility Score: inf
ROOT
ATOM      1  C   UNL     1      20.254   4.631  18.947  1.00  0.00     0.000 C 
ENDROOT
BRANCH   1   2
ATOM      2  C   UNL     1      19.502   3.333  19.290  1.00  0.00     0.000 C 
BRANCH   2   3
ATOM      3  C   UNL     1      20.265   2.455  20.297  1.00  0.00     0.000 C 
BRANCH   3   4
ATOM      4  C   UNL     1      21.151   3.279  21.250  1.00  0.00    -0.000 C 
BRANCH   4   5
ATOM      5  C   UNL     1      22.642   2.929  21.113  1.00  0.00    -0.000 C 
BRANCH   5   6
ATOM      6  C   UNL     1      23.559   4.139  21.367  1.00  0.00    -0.000 C 
BRANCH   6   7
ATOM      7  C   UNL     1      25.044   3.752  21.483  1.00  0.00    -0.000 C 
BRANCH   7   8
ATOM      8  C   UNL     1      25.946   4.284  20.354  1.00  0.00    -0.000 C 
BRANCH   8   9
ATOM      9  C   UNL     1      25.788   3.502  19.041  1.00  0.00    -0.000 C 
BRANCH   9  10
ATOM     10  C   UNL     1      24.518   2.642  19.065  1.00  0.00    -0.000 C 
BRANCH  10  11
ATOM     11  C   UNL     1      24.203   2.088  17.672  1.00  0.00    -0.003 C 
ATOM     12  C   UNL     1      22.701   1.897  17.482  1.00  0.00     0.004 C 
ENDBRANCH  10  11
ENDBRANCH   9  10
ENDBRANCH   8   9
ENDBRANCH   7   8
ENDBRANCH   6   7
ENDBRANCH   5   6
ENDBRANCH   4   5
ENDBRANCH   3   4
ENDBRANCH   2   3
ENDBRANCH   1   2
BRANCH   1  13
ATOM     13  C   UNL     1      20.518   4.788  17.438  1.00  0.00     0.000 C 
BRANCH  13  14
ATOM     14  C   UNL     1      21.898   5.370  17.067  1.00  0.00     0.000 C 
BRANCH  14  15
ATOM     15  C   UNL     1      22.057   6.882  17.304  1.00  0.00     0.000 C 
BRANCH  15  16
ATOM     16  C   UNL     1      23.438   7.407  16.875  1.00  0.00     0.000 C 
BRANCH  16  17
ATOM     17  C   UNL     1      24.599   6.642  17.534  1.00  0.00     0.000 C 
BRANCH  17  18
ATOM     18  C   UNL     1      26.001   7.234  17.284  1.00  0.00     0.000 C 
BRANCH  18  19
ATOM     19  C   UNL     1      26.124   8.730  17.647  1.00  0.00     0.000 C 
BRANCH  19  20
ATOM     20  C   UNL     1      25.102   9.600  16.894  1.00  0.00     0.006 C 
BRANCH  20  21
ATOM     21  C   UNL     1      24.556  10.738  17.764  1.00  0.00     0.053 C 
BRANCH  21  22
ATOM     22  C   UNL     1      23.135  11.068  17.421  1.00  0.00     0.041 C 
ATOM     23  O   UNL     1      22.852  12.168  16.876  1.00  0.00    -0.550 OA
ATOM     24  O   UNL     1      22.126  10.147  17.680  1.00  0.00    -0.550 OA
ENDBRANCH  21  22
ENDBRANCH  20  21
ENDBRANCH  19  20
ENDBRANCH  18  19
ENDBRANCH  17  18
ENDBRANCH  16  17
ENDBRANCH  15  16
ENDBRANCH  14  15
ENDBRANCH  13  14
ENDBRANCH   1  13
TORSDOF 20
ENDMDL
MODEL 6
REMARK VINA RESULT:     1.635     13.489     16.810
REMARK INTER + INTRA:           1.867
REMARK INTER:                  -1.862
REMARK INTRA:                   3.729
REMARK UNBOUND:                -1.680
REMARK SMILES CCCCCCCCCCCCCCCCCCCCCC(=O)[O-]
REMARK SMILES IDX 12 1 11 2 10 3 9 4 8 5 7 6 6 7 5 8 4 9 3 10 2 11 1 12 13 13
REMARK SMILES IDX 14 14 15 15 16 16 17 17 18 18 19 19 20 20 21 21 22 22 23 23
REMARK SMILES IDX 24 24
REMARK H PARENT
REMARK Flexibility Score: inf
ROOT
ATOM      1  C   UNL     1      17.523  19.049  20.212  1.00  0.00     0.000 C 
ENDROOT
BRANCH   1   2
ATOM      2  C   UNL     1      16.355  19.548  19.344  1.00  0.00     0.000 C 
BRANCH   2   3
ATOM      3  C   UNL     1      16.431  19.033  17.896  1.00  0.00     0.000 C 
BRANCH   3   4
ATOM      4  C   UNL     1      17.011  20.078  16.925  1.00  0.00    -0.000 C 
BRANCH   4   5
ATOM      5  C   UNL     1      18.378  20.610  17.385  1.00  0.00    -0.000 C 
BRANCH   5   6
ATOM      6  C   UNL     1      19.540  19.686  16.979  1.00  0.00    -0.000 C 
BRANCH   6   7
ATOM      7  C   UNL     1      19.304  18.216  17.372  1.00  0.00    -0.000 C 
BRANCH   7   8
ATOM      8  C   UNL     1      20.381  17.230  16.884  1.00  0.00    -0.000 C 
BRANCH   8   9
ATOM      9  C   UNL     1      19.912  15.768  16.912  1.00  0.00    -0.000 C 
BRANCH   9  10
ATOM     10  C   UNL     1      18.442  15.671  17.339  1.00  0.00    -0.000 C 
BRANCH  10  11
ATOM     11  C   UNL     1      17.898  14.255  17.124  1.00  0.00    -0.003 C 
ATOM     12  C   UNL     1      16.373  14.251  17.083  1.00  0.00     0.004 C 
ENDBRANCH  10  11
ENDBRANCH   9  10
ENDBRANCH   8   9
ENDBRANCH   7   8
ENDBRANCH   6   7
ENDBRANCH   5   6
ENDBRANCH   4   5
ENDBRANCH   3   4
ENDBRANCH   2   3
ENDBRANCH   1   2
BRANCH   1  13
ATOM     13  C   UNL     1      18.898  19.474  19.665  1.00  0.00     0.000 C 
BRANCH  13  14
ATOM     14  C   UNL     1      19.121  20.997  19.551  1.00  0.00     0.000 C 
BRANCH  14  15
ATOM     15  C   UNL     1      19.158  21.757  20.888  1.00  0.00     0.000 C 
BRANCH  15  16
ATOM     16  C   UNL     1      20.479  21.554  21.649  1.00  0.00     0.000 C 
BRANCH  16  17
ATOM     17  C   UNL     1      21.695  22.124  20.897  1.00  0.00     0.000 C 
BRANCH  17  18
ATOM     18  C   UNL     1      22.939  21.214  20.878  1.00  0.00     0.000 C 
BRANCH  18  19
ATOM     19  C   UNL     1      22.827  20.017  19.910  1.00  0.00     0.000 C 
BRANCH  19  20
ATOM     20  C   UNL     1      23.199  20.396  18.466  1.00  0.00     0.006 C 
BRANCH  20  21
ATOM     21  C   UNL     1      24.684  20.755  18.324  1.00  0.00     0.053 C 
BRANCH  21  22
ATOM     22  C   UNL     1      25.541  19.534  18.191  1.00  0.00     0.041 C 
ATOM     23  O   UNL     1      25.782  19.046  17.055  1.00  0.00    -0.550 OA
ATOM     24  O   UNL     1      26.099  18.950  19.323  1.00  0.00    -0.550 OA
ENDBRANCH  21  22
ENDBRANCH  20  21
ENDBRANCH  19  20
ENDBRANCH  18  19
ENDBRANCH  17  18
ENDBRANCH  16  17
ENDBRANCH  15  16
ENDBRANCH  14  15
ENDBRANCH  13  14
ENDBRANCH   1  13
TORSDOF 20
ENDMDL
MODEL 7
REMARK VINA RESULT:     1.789      3.240      5.768
REMARK INTER + INTRA:           2.201
REMARK INTER:                   3.402
REMARK INTRA:                  -1.201
REMARK UNBOUND:                -1.680
REMARK SMILES CCCCCCCCCCCCCCCCCCCCCC(=O)[O-]
REMARK SMILES IDX 12 1 11 2 10 3 9 4 8 5 7 6 6 7 5 8 4 9 3 10 2 11 1 12 13 13
REMARK SMILES IDX 14 14 15 15 16 16 17 17 18 18 19 19 20 20 21 21 22 22 23 23
REMARK SMILES IDX 24 24
REMARK H PARENT
REMARK Flexibility Score: inf
ROOT
ATOM      1  C   UNL     1      22.984   4.869  17.781  1.00  0.00     0.000 C 
ENDROOT
BRANCH   1   2
ATOM      2  C   UNL     1      22.019   5.713  16.931  1.00  0.00     0.000 C 
BRANCH   2   3
ATOM      3  C   UNL     1      22.418   7.198  16.884  1.00  0.00     0.000 C 
BRANCH   3   4
ATOM      4  C   UNL     1      23.942   7.405  16.942  1.00  0.00    -0.000 C 
BRANCH   4   5
ATOM      5  C   UNL     1      24.330   8.893  16.962  1.00  0.00    -0.000 C 
BRANCH   5   6
ATOM      6  C   UNL     1      23.176   9.799  17.427  1.00  0.00    -0.000 C 
BRANCH   6   7
ATOM      7  C   UNL     1      23.573  11.285  17.504  1.00  0.00    -0.000 C 
BRANCH   7   8
ATOM      8  C   UNL     1      25.026  11.593  17.097  1.00  0.00    -0.000 C 
BRANCH   8   9
ATOM      9  C   UNL     1      26.047  11.205  18.177  1.00  0.00    -0.000 C 
BRANCH   9  10
ATOM     10  C   UNL     1      25.528  11.564  19.576  1.00  0.00    -0.000 C 
BRANCH  10  11
ATOM     11  C   UNL     1      26.011  12.954  20.001  1.00  0.00    -0.003 C 
ATOM     12  C   UNL     1      26.038  13.087  21.521  1.00  0.00     0.004 C 
ENDBRANCH  10  11
ENDBRANCH   9  10
ENDBRANCH   8   9
ENDBRANCH   7   8
ENDBRANCH   6   7
ENDBRANCH   5   6
ENDBRANCH   4   5
ENDBRANCH   3   4
ENDBRANCH   2   3
ENDBRANCH   1   2
BRANCH   1  13
ATOM     13  C   UNL     1      23.729   3.802  16.958  1.00  0.00     0.000 C 
BRANCH  13  14
ATOM     14  C   UNL     1      25.264   3.799  17.114  1.00  0.00     0.000 C 
BRANCH  14  15
ATOM     15  C   UNL     1      25.833   2.664  17.984  1.00  0.00     0.000 C 
BRANCH  15  16
ATOM     16  C   UNL     1      24.768   2.020  18.888  1.00  0.00     0.000 C 
BRANCH  16  17
ATOM     17  C   UNL     1      25.201   1.950  20.363  1.00  0.00     0.000 C 
BRANCH  17  18
ATOM     18  C   UNL     1      24.761   3.143  21.234  1.00  0.00     0.000 C 
BRANCH  18  19
ATOM     19  C   UNL     1      23.230   3.329  21.316  1.00  0.00     0.000 C 
BRANCH  19  20
ATOM     20  C   UNL     1      22.463   2.088  20.826  1.00  0.00     0.006 C 
BRANCH  20  21
ATOM     21  C   UNL     1      20.953   2.338  20.732  1.00  0.00     0.053 C 
BRANCH  21  22
ATOM     22  C   UNL     1      20.546   2.777  19.359  1.00  0.00     0.041 C 
ATOM     23  O   UNL     1      20.864   2.090  18.351  1.00  0.00    -0.550 OA
ATOM     24  O   UNL     1      19.789   3.932  19.194  1.00  0.00    -0.550 OA
ENDBRANCH  21  22
ENDBRANCH  20  21
ENDBRANCH  19  20
ENDBRANCH  18  19
ENDBRANCH  17  18
ENDBRANCH  16  17
ENDBRANCH  15  16
ENDBRANCH  14  15
ENDBRANCH  13  14
ENDBRANCH   1  13
TORSDOF 20
ENDMDL
