MODEL 1
REMARK VINA RESULT:     2.198      0.000      0.000
REMARK INTER + INTRA:           2.861
REMARK INTER:                   2.648
REMARK INTRA:                   0.213
REMARK UNBOUND:                 0.213
REMARK SMILES O=c1c(O)c(-c2ccc(O)c(O)c2)oc2cc(O)cc(O)c12
REMARK SMILES IDX 5 1 3 2 2 3 1 4 22 5 20 6 19 7 17 8 16 9 15 10 14 11 6 12
REMARK SMILES IDX 7 13 8 14 9 15 13 16 11 17 10 18 12 20 4 22 21 24 18 26
REMARK H PARENT 10 19 12 21 4 23 21 25 18 27
REMARK Flexibility Score: inf
ROOT
ATOM      1  C   UNL     1      33.822  68.378  -7.500  1.00  0.00     0.180 A 
ATOM      2  C   UNL     1      34.084  69.626  -8.092  1.00  0.00     0.208 A 
ATOM      3  C   UNL     1      33.373  70.752  -7.650  1.00  0.00     0.238 A 
ATOM      4  O   UNL     1      33.666  71.877  -8.132  1.00  0.00    -0.285 OA
ATOM      5  C   UNL     1      32.370  70.610  -6.661  1.00  0.00     0.111 A 
ATOM      6  C   UNL     1      31.556  71.676  -6.169  1.00  0.00     0.134 A 
ATOM      7  C   UNL     1      30.669  71.437  -5.113  1.00  0.00     0.093 A 
ATOM      8  C   UNL     1      30.518  70.160  -4.574  1.00  0.00     0.123 A 
ATOM      9  C   UNL     1      31.268  69.100  -5.083  1.00  0.00     0.094 A 
ATOM     10  C   UNL     1      32.190  69.314  -6.110  1.00  0.00     0.146 A 
ATOM     11  O   UNL     1      32.898  68.282  -6.550  1.00  0.00    -0.452 OA
ENDROOT
BRANCH   1  12
ATOM     12  C   UNL     1      34.541  67.148  -7.901  1.00  0.00     0.025 A 
ATOM     13  C   UNL     1      35.902  67.222  -8.232  1.00  0.00     0.016 A 
ATOM     14  C   UNL     1      36.595  66.078  -8.633  1.00  0.00     0.051 A 
ATOM     15  C   UNL     1      35.943  64.844  -8.725  1.00  0.00     0.157 A 
ATOM     16  C   UNL     1      33.877  65.915  -8.015  1.00  0.00     0.062 A 
ATOM     17  C   UNL     1      34.563  64.762  -8.419  1.00  0.00     0.158 A 
BRANCH  15  18
ATOM     18  O   UNL     1      36.694  63.737  -9.124  1.00  0.00    -0.504 OA
ATOM     19  H   UNL     1      37.681  63.629  -8.941  1.00  0.00     0.293 HD
ENDBRANCH  15  18
BRANCH  17  20
ATOM     20  O   UNL     1      33.841  63.571  -8.508  1.00  0.00    -0.504 OA
ATOM     21  H   UNL     1      33.985  62.875  -9.225  1.00  0.00     0.293 HD
ENDBRANCH  17  20
ENDBRANCH   1  12
BRANCH   2  22
ATOM     22  O   UNL     1      35.024  69.732  -9.121  1.00  0.00    -0.502 OA
ATOM     23  H   UNL     1      36.021  69.746  -8.948  1.00  0.00     0.293 HD
ENDBRANCH   2  22
BRANCH   6  24
ATOM     24  O   UNL     1      31.562  72.972  -6.696  1.00  0.00    -0.507 OA
ATOM     25  H   UNL     1      32.233  73.688  -6.464  1.00  0.00     0.293 HD
ENDBRANCH   6  24
BRANCH   8  26
ATOM     26  O   UNL     1      29.612  69.955  -3.535  1.00  0.00    -0.508 OA
ATOM     27  H   UNL     1      28.636  70.211  -3.624  1.00  0.00     0.293 HD
ENDBRANCH   8  26
TORSDOF 6
ENDMDL
