MODEL 1
REMARK VINA RESULT:    -4.292      0.000      0.000
REMARK INTER + INTRA:          -9.706
REMARK INTER:                  -7.554
REMARK INTRA:                  -2.152
REMARK UNBOUND:                -2.152
REMARK SMILES CCCCCCC=CCCCCCCCC(=O)[O-]
REMARK SMILES IDX 10 1 11 2 12 3 13 4 14 5 15 6 16 7 17 8 18 9 9 10 8 11 7 12
REMARK SMILES IDX 6 13 5 14 4 15 3 16 2 17 1 18
REMARK H PARENT
REMARK Flexibility Score: inf
ROOT
ATOM      1  C   UNL     1      33.106   8.511  28.986  1.00  0.00     0.004 C 
ENDROOT
BRANCH   1   2
ATOM      2  C   UNL     1      32.408   8.821  30.326  1.00  0.00     0.000 C 
BRANCH   2   3
ATOM      3  C   UNL     1      31.855   7.593  31.076  1.00  0.00     0.000 C 
BRANCH   3   4
ATOM      4  C   UNL     1      30.329   7.410  30.994  1.00  0.00     0.000 C 
BRANCH   4   5
ATOM      5  C   UNL     1      29.904   6.438  29.880  1.00  0.00     0.006 C 
BRANCH   5   6
ATOM      6  C   UNL     1      29.907   4.978  30.353  1.00  0.00     0.053 C 
BRANCH   6   7
ATOM      7  C   UNL     1      28.836   4.174  29.680  1.00  0.00     0.041 C 
ATOM      8  O   UNL     1      28.987   3.785  28.492  1.00  0.00    -0.550 OA
ATOM      9  O   UNL     1      27.659   3.880  30.356  1.00  0.00    -0.550 OA
ENDBRANCH   6   7
ENDBRANCH   5   6
ENDBRANCH   4   5
ENDBRANCH   3   4
ENDBRANCH   2   3
ENDBRANCH   1   2
BRANCH   1  10
ATOM     10  C   UNL     1      32.150   8.405  27.788  1.00  0.00     0.027 C 
BRANCH  10  11
ATOM     11  C   UNL     1      31.249   9.606  27.691  1.00  0.00    -0.031 C 
ATOM     12  C   UNL     1      29.913   9.490  27.701  1.00  0.00    -0.031 C 
BRANCH  12  13
ATOM     13  C   UNL     1      29.019  10.697  27.649  1.00  0.00     0.027 C 
BRANCH  13  14
ATOM     14  C   UNL     1      29.207  11.580  28.892  1.00  0.00     0.004 C 
BRANCH  14  15
ATOM     15  C   UNL     1      28.735  10.891  30.183  1.00  0.00     0.000 C 
BRANCH  15  16
ATOM     16  C   UNL     1      29.698  11.117  31.358  1.00  0.00    -0.000 C 
BRANCH  16  17
ATOM     17  C   UNL     1      30.628  12.305  31.085  1.00  0.00    -0.003 C 
ATOM     18  C   UNL     1      31.951  12.153  31.829  1.00  0.00     0.004 C 
ENDBRANCH  16  17
ENDBRANCH  15  16
ENDBRANCH  14  15
ENDBRANCH  13  14
ENDBRANCH  12  13
ENDBRANCH  10  11
ENDBRANCH   1  10
TORSDOF 13
ENDMDL
MODEL 2
REMARK VINA RESULT:    -4.135      2.412      3.852
REMARK INTER + INTRA:          -9.429
REMARK INTER:                  -7.057
REMARK INTRA:                  -2.372
REMARK UNBOUND:                -2.152
REMARK SMILES CCCCCCC=CCCCCCCCC(=O)[O-]
REMARK SMILES IDX 10 1 11 2 12 3 13 4 14 5 15 6 16 7 17 8 18 9 9 10 8 11 7 12
REMARK SMILES IDX 6 13 5 14 4 15 3 16 2 17 1 18
REMARK H PARENT
REMARK Flexibility Score: inf
ROOT
ATOM      1  C   UNL     1      33.538   8.767  29.394  1.00  0.00     0.004 C 
ENDROOT
BRANCH   1   2
ATOM      2  C   UNL     1      32.336   8.918  28.439  1.00  0.00     0.000 C 
BRANCH   2   3
ATOM      3  C   UNL     1      31.348   7.736  28.438  1.00  0.00     0.000 C 
BRANCH   3   4
ATOM      4  C   UNL     1      30.322   7.738  29.585  1.00  0.00     0.000 C 
BRANCH   4   5
ATOM      5  C   UNL     1      30.722   6.810  30.745  1.00  0.00     0.006 C 
BRANCH   5   6
ATOM      6  C   UNL     1      30.788   7.553  32.086  1.00  0.00     0.053 C 
BRANCH   6   7
ATOM      7  C   UNL     1      31.807   6.949  33.005  1.00  0.00     0.041 C 
ATOM      8  O   UNL     1      31.467   6.066  33.836  1.00  0.00    -0.550 OA
ATOM      9  O   UNL     1      33.125   7.383  32.963  1.00  0.00    -0.550 OA
ENDBRANCH   6   7
ENDBRANCH   5   6
ENDBRANCH   4   5
ENDBRANCH   3   4
ENDBRANCH   2   3
ENDBRANCH   1   2
BRANCH   1  10
ATOM     10  C   UNL     1      33.626   9.856  30.474  1.00  0.00     0.027 C 
BRANCH  10  11
ATOM     11  C   UNL     1      32.290  10.505  30.716  1.00  0.00    -0.031 C 
ATOM     12  C   UNL     1      31.952  11.000  31.916  1.00  0.00    -0.031 C 
BRANCH  12  13
ATOM     13  C   UNL     1      30.634  11.688  32.139  1.00  0.00     0.027 C 
BRANCH  13  14
ATOM     14  C   UNL     1      29.528  11.058  31.277  1.00  0.00     0.004 C 
BRANCH  14  15
ATOM     15  C   UNL     1      28.499  12.090  30.790  1.00  0.00     0.000 C 
BRANCH  15  16
ATOM     16  C   UNL     1      28.351  12.099  29.261  1.00  0.00    -0.000 C 
BRANCH  16  17
ATOM     17  C   UNL     1      29.488  11.314  28.595  1.00  0.00    -0.003 C 
ATOM     18  C   UNL     1      29.089  10.845  27.199  1.00  0.00     0.004 C 
ENDBRANCH  16  17
ENDBRANCH  15  16
ENDBRANCH  14  15
ENDBRANCH  13  14
ENDBRANCH  12  13
ENDBRANCH  10  11
ENDBRANCH   1  10
TORSDOF 13
ENDMDL
MODEL 3
REMARK VINA RESULT:    -4.102      2.992      5.370
REMARK INTER + INTRA:          -9.372
REMARK INTER:                  -6.990
REMARK INTRA:                  -2.382
REMARK UNBOUND:                -2.152
REMARK SMILES CCCCCCC=CCCCCCCCC(=O)[O-]
REMARK SMILES IDX 10 1 11 2 12 3 13 4 14 5 15 6 16 7 17 8 18 9 9 10 8 11 7 12
REMARK SMILES IDX 6 13 5 14 4 15 3 16 2 17 1 18
REMARK H PARENT
REMARK Flexibility Score: inf
ROOT
ATOM      1  C   UNL     1      32.759   9.460  32.937  1.00  0.00     0.004 C 
ENDROOT
BRANCH   1   2
ATOM      2  C   UNL     1      31.996  10.526  33.749  1.00  0.00     0.000 C 
BRANCH   2   3
ATOM      3  C   UNL     1      31.377  11.665  32.916  1.00  0.00     0.000 C 
BRANCH   3   4
ATOM      4  C   UNL     1      31.842  11.731  31.450  1.00  0.00     0.000 C 
BRANCH   4   5
ATOM      5  C   UNL     1      30.672  11.732  30.453  1.00  0.00     0.006 C 
BRANCH   5   6
ATOM      6  C   UNL     1      29.407  11.092  31.042  1.00  0.00     0.053 C 
BRANCH   6   7
ATOM      7  C   UNL     1      28.162  11.649  30.420  1.00  0.00     0.041 C 
ATOM      8  O   UNL     1      27.824  11.301  29.258  1.00  0.00    -0.550 OA
ATOM      9  O   UNL     1      27.391  12.573  31.114  1.00  0.00    -0.550 OA
ENDBRANCH   6   7
ENDBRANCH   5   6
ENDBRANCH   4   5
ENDBRANCH   3   4
ENDBRANCH   2   3
ENDBRANCH   1   2
BRANCH   1  10
ATOM     10  C   UNL     1      32.114   8.066  32.963  1.00  0.00     0.027 C 
BRANCH  10  11
ATOM     11  C   UNL     1      31.020   7.942  31.937  1.00  0.00    -0.031 C 
ATOM     12  C   UNL     1      30.968   6.911  31.081  1.00  0.00    -0.031 C 
BRANCH  12  13
ATOM     13  C   UNL     1      29.848   6.770  30.088  1.00  0.00     0.027 C 
BRANCH  13  14
ATOM     14  C   UNL     1      30.309   7.158  28.675  1.00  0.00     0.004 C 
BRANCH  14  15
ATOM     15  C   UNL     1      30.241   8.672  28.425  1.00  0.00     0.000 C 
BRANCH  15  16
ATOM     16  C   UNL     1      31.578   9.251  27.939  1.00  0.00    -0.000 C 
BRANCH  16  17
ATOM     17  C   UNL     1      32.732   8.283  28.228  1.00  0.00    -0.003 C 
ATOM     18  C   UNL     1      33.622   8.806  29.352  1.00  0.00     0.004 C 
ENDBRANCH  16  17
ENDBRANCH  15  16
ENDBRANCH  14  15
ENDBRANCH  13  14
ENDBRANCH  12  13
ENDBRANCH  10  11
ENDBRANCH   1  10
TORSDOF 13
ENDMDL
MODEL 4
REMARK VINA RESULT:    -3.997      3.562      5.962
REMARK INTER + INTRA:          -9.186
REMARK INTER:                  -7.222
REMARK INTRA:                  -1.963
REMARK UNBOUND:                -2.152
REMARK SMILES CCCCCCC=CCCCCCCCC(=O)[O-]
REMARK SMILES IDX 10 1 11 2 12 3 13 4 14 5 15 6 16 7 17 8 18 9 9 10 8 11 7 12
REMARK SMILES IDX 6 13 5 14 4 15 3 16 2 17 1 18
REMARK H PARENT
REMARK Flexibility Score: inf
ROOT
ATOM      1  C   UNL     1      30.853   7.364  31.846  1.00  0.00     0.004 C 
ENDROOT
BRANCH   1   2
ATOM      2  C   UNL     1      30.616   6.634  30.509  1.00  0.00     0.000 C 
BRANCH   2   3
ATOM      3  C   UNL     1      30.201   7.539  29.332  1.00  0.00     0.000 C 
BRANCH   3   4
ATOM      4  C   UNL     1      31.364   8.081  28.482  1.00  0.00     0.000 C 
BRANCH   4   5
ATOM      5  C   UNL     1      31.309   9.608  28.301  1.00  0.00     0.006 C 
BRANCH   5   6
ATOM      6  C   UNL     1      30.248  10.260  29.198  1.00  0.00     0.053 C 
BRANCH   6   7
ATOM      7  C   UNL     1      29.149  10.886  28.393  1.00  0.00     0.041 C 
ATOM      8  O   UNL     1      28.134  11.361  28.966  1.00  0.00    -0.550 OA
ATOM      9  O   UNL     1      29.235  10.918  27.007  1.00  0.00    -0.550 OA
ENDBRANCH   6   7
ENDBRANCH   5   6
ENDBRANCH   4   5
ENDBRANCH   3   4
ENDBRANCH   2   3
ENDBRANCH   1   2
BRANCH   1  10
ATOM     10  C   UNL     1      32.254   7.152  32.440  1.00  0.00     0.027 C 
BRANCH  10  11
ATOM     11  C   UNL     1      33.267   8.069  31.809  1.00  0.00    -0.031 C 
ATOM     12  C   UNL     1      32.992   9.356  31.552  1.00  0.00    -0.031 C 
BRANCH  12  13
ATOM     13  C   UNL     1      34.024  10.278  30.963  1.00  0.00     0.027 C 
BRANCH  13  14
ATOM     14  C   UNL     1      35.077   9.493  30.166  1.00  0.00     0.004 C 
BRANCH  14  15
ATOM     15  C   UNL     1      36.493  10.064  30.335  1.00  0.00     0.000 C 
BRANCH  15  16
ATOM     16  C   UNL     1      37.509   9.003  30.781  1.00  0.00    -0.000 C 
BRANCH  16  17
ATOM     17  C   UNL     1      36.808   7.681  31.120  1.00  0.00    -0.003 C 
ATOM     18  C   UNL     1      37.485   6.984  32.297  1.00  0.00     0.004 C 
ENDBRANCH  16  17
ENDBRANCH  15  16
ENDBRANCH  14  15
ENDBRANCH  13  14
ENDBRANCH  12  13
ENDBRANCH  10  11
ENDBRANCH   1  10
TORSDOF 13
ENDMDL
MODEL 5
REMARK VINA RESULT:    -3.993      3.356      4.728
REMARK INTER + INTRA:          -9.180
REMARK INTER:                  -6.886
REMARK INTRA:                  -2.293
REMARK UNBOUND:                -2.152
REMARK SMILES CCCCCCC=CCCCCCCCC(=O)[O-]
REMARK SMILES IDX 10 1 11 2 12 3 13 4 14 5 15 6 16 7 17 8 18 9 9 10 8 11 7 12
REMARK SMILES IDX 6 13 5 14 4 15 3 16 2 17 1 18
REMARK H PARENT
REMARK Flexibility Score: inf
ROOT
ATOM      1  C   UNL     1      31.000   6.724  31.680  1.00  0.00     0.004 C 
ENDROOT
BRANCH   1   2
ATOM      2  C   UNL     1      31.215   8.163  32.189  1.00  0.00     0.000 C 
BRANCH   2   3
ATOM      3  C   UNL     1      32.483   8.376  33.040  1.00  0.00     0.000 C 
BRANCH   3   4
ATOM      4  C   UNL     1      33.569   9.249  32.388  1.00  0.00     0.000 C 
BRANCH   4   5
ATOM      5  C   UNL     1      33.230   9.641  30.940  1.00  0.00     0.006 C 
BRANCH   5   6
ATOM      6  C   UNL     1      34.119   8.915  29.920  1.00  0.00     0.053 C 
BRANCH   6   7
ATOM      7  C   UNL     1      35.568   8.989  30.295  1.00  0.00     0.041 C 
ATOM      8  O   UNL     1      36.177  10.091  30.262  1.00  0.00    -0.550 OA
ATOM      9  O   UNL     1      36.252   7.835  30.655  1.00  0.00    -0.550 OA
ENDBRANCH   6   7
ENDBRANCH   5   6
ENDBRANCH   4   5
ENDBRANCH   3   4
ENDBRANCH   2   3
ENDBRANCH   1   2
BRANCH   1  10
ATOM     10  C   UNL     1      30.255   6.633  30.339  1.00  0.00     0.027 C 
BRANCH  10  11
ATOM     11  C   UNL     1      30.290   7.942  29.598  1.00  0.00    -0.031 C 
ATOM     12  C   UNL     1      30.925   8.074  28.424  1.00  0.00    -0.031 C 
BRANCH  12  13
ATOM     13  C   UNL     1      30.917   9.372  27.667  1.00  0.00     0.027 C 
BRANCH  13  14
ATOM     14  C   UNL     1      29.507   9.980  27.626  1.00  0.00     0.004 C 
BRANCH  14  15
ATOM     15  C   UNL     1      29.453  11.391  28.233  1.00  0.00     0.000 C 
BRANCH  15  16
ATOM     16  C   UNL     1      30.661  11.693  29.132  1.00  0.00    -0.000 C 
BRANCH  16  17
ATOM     17  C   UNL     1      30.210  12.243  30.491  1.00  0.00    -0.003 C 
ATOM     18  C   UNL     1      29.441  11.191  31.284  1.00  0.00     0.004 C 
ENDBRANCH  16  17
ENDBRANCH  15  16
ENDBRANCH  14  15
ENDBRANCH  13  14
ENDBRANCH  12  13
ENDBRANCH  10  11
ENDBRANCH   1  10
TORSDOF 13
ENDMDL
MODEL 6
REMARK VINA RESULT:    -3.990      3.219      5.125
REMARK INTER + INTRA:          -9.173
REMARK INTER:                  -6.599
REMARK INTRA:                  -2.574
REMARK UNBOUND:                -2.152
REMARK SMILES CCCCCCC=CCCCCCCCC(=O)[O-]
REMARK SMILES IDX 10 1 11 2 12 3 13 4 14 5 15 6 16 7 17 8 18 9 9 10 8 11 7 12
REMARK SMILES IDX 6 13 5 14 4 15 3 16 2 17 1 18
REMARK H PARENT
REMARK Flexibility Score: inf
ROOT
ATOM      1  C   UNL     1      30.526   6.703  30.002  1.00  0.00     0.004 C 
ENDROOT
BRANCH   1   2
ATOM      2  C   UNL     1      30.365   7.879  29.019  1.00  0.00     0.000 C 
BRANCH   2   3
ATOM      3  C   UNL     1      31.597   8.171  28.138  1.00  0.00     0.000 C 
BRANCH   3   4
ATOM      4  C   UNL     1      32.601   9.175  28.730  1.00  0.00     0.000 C 
BRANCH   4   5
ATOM      5  C   UNL     1      33.774   8.491  29.452  1.00  0.00     0.006 C 
BRANCH   5   6
ATOM      6  C   UNL     1      34.504   9.447  30.405  1.00  0.00     0.053 C 
BRANCH   6   7
ATOM      7  C   UNL     1      35.085   8.722  31.581  1.00  0.00     0.041 C 
ATOM      8  O   UNL     1      34.605   7.615  31.944  1.00  0.00    -0.550 OA
ATOM      9  O   UNL     1      36.137   9.282  32.294  1.00  0.00    -0.550 OA
ENDBRANCH   6   7
ENDBRANCH   5   6
ENDBRANCH   4   5
ENDBRANCH   3   4
ENDBRANCH   2   3
ENDBRANCH   1   2
BRANCH   1  10
ATOM     10  C   UNL     1      30.912   7.122  31.429  1.00  0.00     0.027 C 
BRANCH  10  11
ATOM     11  C   UNL     1      30.582   8.567  31.689  1.00  0.00    -0.031 C 
ATOM     12  C   UNL     1      31.411   9.370  32.373  1.00  0.00    -0.031 C 
BRANCH  12  13
ATOM     13  C   UNL     1      31.096  10.823  32.590  1.00  0.00     0.027 C 
BRANCH  13  14
ATOM     14  C   UNL     1      30.192  11.367  31.473  1.00  0.00     0.004 C 
BRANCH  14  15
ATOM     15  C   UNL     1      30.949  12.267  30.485  1.00  0.00     0.000 C 
BRANCH  15  16
ATOM     16  C   UNL     1      30.560  11.998  29.024  1.00  0.00    -0.000 C 
BRANCH  16  17
ATOM     17  C   UNL     1      29.174  11.349  28.936  1.00  0.00    -0.003 C 
ATOM     18  C   UNL     1      28.847  10.938  27.503  1.00  0.00     0.004 C 
ENDBRANCH  16  17
ENDBRANCH  15  16
ENDBRANCH  14  15
ENDBRANCH  13  14
ENDBRANCH  12  13
ENDBRANCH  10  11
ENDBRANCH   1  10
TORSDOF 13
ENDMDL
MODEL 7
REMARK VINA RESULT:    -3.979      3.344      5.761
REMARK INTER + INTRA:          -9.155
REMARK INTER:                  -6.940
REMARK INTRA:                  -2.215
REMARK UNBOUND:                -2.152
REMARK SMILES CCCCCCC=CCCCCCCCC(=O)[O-]
REMARK SMILES IDX 10 1 11 2 12 3 13 4 14 5 15 6 16 7 17 8 18 9 9 10 8 11 7 12
REMARK SMILES IDX 6 13 5 14 4 15 3 16 2 17 1 18
REMARK H PARENT
REMARK Flexibility Score: inf
ROOT
ATOM      1  C   UNL     1      30.530   7.346  28.711  1.00  0.00     0.004 C 
ENDROOT
BRANCH   1   2
ATOM      2  C   UNL     1      31.736   8.297  28.852  1.00  0.00     0.000 C 
BRANCH   2   3
ATOM      3  C   UNL     1      31.380   9.792  28.976  1.00  0.00     0.000 C 
BRANCH   3   4
ATOM      4  C   UNL     1      31.697  10.429  30.341  1.00  0.00     0.000 C 
BRANCH   4   5
ATOM      5  C   UNL     1      30.434  10.837  31.117  1.00  0.00     0.006 C 
BRANCH   5   6
ATOM      6  C   UNL     1      29.147  10.417  30.391  1.00  0.00     0.053 C 
BRANCH   6   7
ATOM      7  C   UNL     1      28.377  11.604  29.897  1.00  0.00     0.041 C 
ATOM      8  O   UNL     1      27.773  12.352  30.710  1.00  0.00    -0.550 OA
ATOM      9  O   UNL     1      28.304  11.868  28.535  1.00  0.00    -0.550 OA
ENDBRANCH   6   7
ENDBRANCH   5   6
ENDBRANCH   4   5
ENDBRANCH   3   4
ENDBRANCH   2   3
ENDBRANCH   1   2
BRANCH   1  10
ATOM     10  C   UNL     1      29.958   6.852  30.049  1.00  0.00     0.027 C 
BRANCH  10  11
ATOM     11  C   UNL     1      31.032   6.720  31.095  1.00  0.00    -0.031 C 
ATOM     12  C   UNL     1      30.980   7.398  32.251  1.00  0.00    -0.031 C 
BRANCH  12  13
ATOM     13  C   UNL     1      32.032   7.226  33.311  1.00  0.00     0.027 C 
BRANCH  13  14
ATOM     14  C   UNL     1      33.017   8.405  33.309  1.00  0.00     0.004 C 
BRANCH  14  15
ATOM     15  C   UNL     1      34.476   7.956  33.138  1.00  0.00     0.000 C 
BRANCH  15  16
ATOM     16  C   UNL     1      34.755   7.371  31.746  1.00  0.00    -0.000 C 
BRANCH  16  17
ATOM     17  C   UNL     1      35.816   8.195  31.007  1.00  0.00    -0.003 C 
ATOM     18  C   UNL     1      35.171   9.241  30.103  1.00  0.00     0.004 C 
ENDBRANCH  16  17
ENDBRANCH  15  16
ENDBRANCH  14  15
ENDBRANCH  13  14
ENDBRANCH  12  13
ENDBRANCH  10  11
ENDBRANCH   1  10
TORSDOF 13
ENDMDL
MODEL 8
REMARK VINA RESULT:    -3.966      3.033      3.871
REMARK INTER + INTRA:          -9.133
REMARK INTER:                  -7.013
REMARK INTRA:                  -2.120
REMARK UNBOUND:                -2.152
REMARK SMILES CCCCCCC=CCCCCCCCC(=O)[O-]
REMARK SMILES IDX 10 1 11 2 12 3 13 4 14 5 15 6 16 7 17 8 18 9 9 10 8 11 7 12
REMARK SMILES IDX 6 13 5 14 4 15 3 16 2 17 1 18
REMARK H PARENT
REMARK Flexibility Score: inf
ROOT
ATOM      1  C   UNL     1      30.389   7.094  28.551  1.00  0.00     0.004 C 
ENDROOT
BRANCH   1   2
ATOM      2  C   UNL     1      30.135   6.666  30.010  1.00  0.00     0.000 C 
BRANCH   2   3
ATOM      3  C   UNL     1      30.618   7.666  31.080  1.00  0.00     0.000 C 
BRANCH   3   4
ATOM      4  C   UNL     1      31.708   7.134  32.028  1.00  0.00     0.000 C 
BRANCH   4   5
ATOM      5  C   UNL     1      32.784   8.184  32.347  1.00  0.00     0.006 C 
BRANCH   5   6
ATOM      6  C   UNL     1      33.970   8.114  31.375  1.00  0.00     0.053 C 
BRANCH   6   7
ATOM      7  C   UNL     1      35.122   7.354  31.958  1.00  0.00     0.041 C 
ATOM      8  O   UNL     1      36.102   7.034  31.235  1.00  0.00    -0.550 OA
ATOM      9  O   UNL     1      35.099   6.973  33.294  1.00  0.00    -0.550 OA
ENDBRANCH   6   7
ENDBRANCH   5   6
ENDBRANCH   4   5
ENDBRANCH   3   4
ENDBRANCH   2   3
ENDBRANCH   1   2
BRANCH   1  10
ATOM     10  C   UNL     1      31.504   8.138  28.385  1.00  0.00     0.027 C 
BRANCH  10  11
ATOM     11  C   UNL     1      30.954   9.474  27.962  1.00  0.00    -0.031 C 
ATOM     12  C   UNL     1      29.640   9.671  27.777  1.00  0.00    -0.031 C 
BRANCH  12  13
ATOM     13  C   UNL     1      29.094  11.019  27.398  1.00  0.00     0.027 C 
BRANCH  13  14
ATOM     14  C   UNL     1      28.768  11.854  28.646  1.00  0.00     0.004 C 
BRANCH  14  15
ATOM     15  C   UNL     1      28.321  10.990  29.836  1.00  0.00     0.000 C 
BRANCH  15  16
ATOM     16  C   UNL     1      29.214  11.180  31.071  1.00  0.00    -0.000 C 
BRANCH  16  17
ATOM     17  C   UNL     1      30.381  12.127  30.764  1.00  0.00    -0.003 C 
ATOM     18  C   UNL     1      31.724  11.428  30.957  1.00  0.00     0.004 C 
ENDBRANCH  16  17
ENDBRANCH  15  16
ENDBRANCH  14  15
ENDBRANCH  13  14
ENDBRANCH  12  13
ENDBRANCH  10  11
ENDBRANCH   1  10
TORSDOF 13
ENDMDL
MODEL 9
REMARK VINA RESULT:    -3.892      3.708      5.364
REMARK INTER + INTRA:          -9.001
REMARK INTER:                  -6.476
REMARK INTRA:                  -2.525
REMARK UNBOUND:                -2.152
REMARK SMILES CCCCCCC=CCCCCCCCC(=O)[O-]
REMARK SMILES IDX 10 1 11 2 12 3 13 4 14 5 15 6 16 7 17 8 18 9 9 10 8 11 7 12
REMARK SMILES IDX 6 13 5 14 4 15 3 16 2 17 1 18
REMARK H PARENT
REMARK Flexibility Score: inf
ROOT
ATOM      1  C   UNL     1      32.100   8.762  33.615  1.00  0.00     0.004 C 
ENDROOT
BRANCH   1   2
ATOM      2  C   UNL     1      32.328   9.918  32.620  1.00  0.00     0.000 C 
BRANCH   2   3
ATOM      3  C   UNL     1      33.775  10.071  32.113  1.00  0.00     0.000 C 
BRANCH   3   4
ATOM      4  C   UNL     1      33.956   9.921  30.592  1.00  0.00     0.000 C 
BRANCH   4   5
ATOM      5  C   UNL     1      34.346   8.493  30.176  1.00  0.00     0.006 C 
BRANCH   5   6
ATOM      6  C   UNL     1      35.053   7.732  31.306  1.00  0.00     0.053 C 
BRANCH   6   7
ATOM      7  C   UNL     1      36.543   7.752  31.141  1.00  0.00     0.041 C 
ATOM      8  O   UNL     1      37.073   8.475  30.257  1.00  0.00    -0.550 OA
ATOM      9  O   UNL     1      37.342   6.952  31.946  1.00  0.00    -0.550 OA
ENDBRANCH   6   7
ENDBRANCH   5   6
ENDBRANCH   4   5
ENDBRANCH   3   4
ENDBRANCH   2   3
ENDBRANCH   1   2
BRANCH   1  10
ATOM     10  C   UNL     1      31.488   7.501  32.987  1.00  0.00     0.027 C 
BRANCH  10  11
ATOM     11  C   UNL     1      30.919   7.782  31.623  1.00  0.00    -0.031 C 
ATOM     12  C   UNL     1      30.937   6.862  30.646  1.00  0.00    -0.031 C 
BRANCH  12  13
ATOM     13  C   UNL     1      30.327   7.134  29.300  1.00  0.00     0.027 C 
BRANCH  13  14
ATOM     14  C   UNL     1      31.213   8.077  28.471  1.00  0.00     0.004 C 
BRANCH  14  15
ATOM     15  C   UNL     1      30.480   9.362  28.055  1.00  0.00     0.000 C 
BRANCH  15  16
ATOM     16  C   UNL     1      30.499  10.435  29.154  1.00  0.00    -0.000 C 
BRANCH  16  17
ATOM     17  C   UNL     1      29.128  10.551  29.830  1.00  0.00    -0.003 C 
ATOM     18  C   UNL     1      29.238  11.244  31.185  1.00  0.00     0.004 C 
ENDBRANCH  16  17
ENDBRANCH  15  16
ENDBRANCH  14  15
ENDBRANCH  13  14
ENDBRANCH  12  13
ENDBRANCH  10  11
ENDBRANCH   1  10
TORSDOF 13
ENDMDL
