MODEL 1
REMARK VINA RESULT:    -4.606      0.000      0.000
REMARK INTER + INTRA:          -7.964
REMARK INTER:                  -7.299
REMARK INTRA:                  -0.664
REMARK UNBOUND:                -0.664
REMARK SMILES CCCCCCCCCCCC(=O)[O-]
REMARK SMILES IDX 7 1 8 2 9 3 10 4 11 5 12 6 13 7 14 8 6 9 5 10 4 11 3 12 2 13
REMARK SMILES IDX 1 14
REMARK H PARENT
REMARK Flexibility Score: inf
ROOT
ATOM      1  C   UNL     1       6.489   3.009  -0.337  1.00  0.00     0.000 C 
ENDROOT
BRANCH   1   2
ATOM      2  C   UNL     1       6.009   1.640   0.173  1.00  0.00     0.000 C 
BRANCH   2   3
ATOM      3  C   UNL     1       6.563   0.473  -0.661  1.00  0.00     0.000 C 
BRANCH   3   4
ATOM      4  C   UNL     1       7.884   0.825  -1.371  1.00  0.00     0.006 C 
BRANCH   4   5
ATOM      5  C   UNL     1       8.371  -0.237  -2.371  1.00  0.00     0.053 C 
BRANCH   5   6
ATOM      6  C   UNL     1       7.774  -0.042  -3.730  1.00  0.00     0.041 C 
ATOM      7  O   UNL     1       7.284   1.073  -4.053  1.00  0.00    -0.550 OA
ATOM      8  O   UNL     1       7.729  -1.099  -4.629  1.00  0.00    -0.550 OA
ENDBRANCH   5   6
ENDBRANCH   4   5
ENDBRANCH   3   4
ENDBRANCH   2   3
ENDBRANCH   1   2
BRANCH   1   9
ATOM      9  C   UNL     1       7.033   3.902   0.793  1.00  0.00     0.000 C 
BRANCH   9  10
ATOM     10  C   UNL     1       8.534   4.192   0.643  1.00  0.00    -0.000 C 
BRANCH  10  11
ATOM     11  C   UNL     1       8.859   5.695   0.711  1.00  0.00    -0.000 C 
BRANCH  11  12
ATOM     12  C   UNL     1       7.598   6.569   0.787  1.00  0.00    -0.000 C 
BRANCH  12  13
ATOM     13  C   UNL     1       7.724   7.698   1.820  1.00  0.00    -0.003 C 
ATOM     14  C   UNL     1       8.669   7.303   2.952  1.00  0.00     0.004 C 
ENDBRANCH  12  13
ENDBRANCH  11  12
ENDBRANCH  10  11
ENDBRANCH   9  10
ENDBRANCH   1   9
TORSDOF 10
ENDMDL
MODEL 2
REMARK VINA RESULT:    -4.515      4.916      8.454
REMARK INTER + INTRA:          -7.819
REMARK INTER:                  -7.356
REMARK INTRA:                  -0.463
REMARK UNBOUND:                -0.664
REMARK SMILES CCCCCCCCCCCC(=O)[O-]
REMARK SMILES IDX 7 1 8 2 9 3 10 4 11 5 12 6 13 7 14 8 6 9 5 10 4 11 3 12 2 13
REMARK SMILES IDX 1 14
REMARK H PARENT
REMARK Flexibility Score: inf
ROOT
ATOM      1  C   UNL     1       7.188   6.012   0.501  1.00  0.00     0.000 C 
ENDROOT
BRANCH   1   2
ATOM      2  C   UNL     1       7.703   7.446   0.717  1.00  0.00     0.000 C 
BRANCH   2   3
ATOM      3  C   UNL     1       8.155   7.696   2.167  1.00  0.00     0.000 C 
BRANCH   3   4
ATOM      4  C   UNL     1       7.691   9.062   2.706  1.00  0.00     0.006 C 
BRANCH   4   5
ATOM      5  C   UNL     1       7.476   9.105   4.227  1.00  0.00     0.053 C 
BRANCH   5   6
ATOM      6  C   UNL     1       6.030   9.267   4.584  1.00  0.00     0.041 C 
ATOM      7  O   UNL     1       5.156   9.320   3.678  1.00  0.00    -0.550 OA
ATOM      8  O   UNL     1       5.651   9.392   5.914  1.00  0.00    -0.550 OA
ENDBRANCH   5   6
ENDBRANCH   4   5
ENDBRANCH   3   4
ENDBRANCH   2   3
ENDBRANCH   1   2
BRANCH   1   9
ATOM      9  C   UNL     1       7.972   4.974   1.321  1.00  0.00     0.000 C 
BRANCH   9  10
ATOM     10  C   UNL     1       7.951   3.578   0.679  1.00  0.00    -0.000 C 
BRANCH  10  11
ATOM     11  C   UNL     1       6.618   3.267  -0.025  1.00  0.00    -0.000 C 
BRANCH  11  12
ATOM     12  C   UNL     1       6.044   1.899   0.375  1.00  0.00    -0.000 C 
BRANCH  12  13
ATOM     13  C   UNL     1       6.173   0.856  -0.745  1.00  0.00    -0.003 C 
ATOM     14  C   UNL     1       6.539   1.517  -2.072  1.00  0.00     0.004 C 
ENDBRANCH  12  13
ENDBRANCH  11  12
ENDBRANCH  10  11
ENDBRANCH   9  10
ENDBRANCH   1   9
TORSDOF 10
ENDMDL
MODEL 3
REMARK VINA RESULT:    -4.129     11.880     13.739
REMARK INTER + INTRA:          -7.208
REMARK INTER:                  -6.236
REMARK INTRA:                  -0.972
REMARK UNBOUND:                -0.664
REMARK SMILES CCCCCCCCCCCC(=O)[O-]
REMARK SMILES IDX 7 1 8 2 9 3 10 4 11 5 12 6 13 7 14 8 6 9 5 10 4 11 3 12 2 13
REMARK SMILES IDX 1 14
REMARK H PARENT
REMARK Flexibility Score: inf
ROOT
ATOM      1  C   UNL     1       1.203   5.980   9.887  1.00  0.00     0.000 C 
ENDROOT
BRANCH   1   2
ATOM      2  C   UNL     1       1.106   6.964  11.065  1.00  0.00     0.000 C 
BRANCH   2   3
ATOM      3  C   UNL     1       0.452   8.298  10.666  1.00  0.00     0.000 C 
BRANCH   3   4
ATOM      4  C   UNL     1       0.815   8.734   9.234  1.00  0.00     0.006 C 
BRANCH   4   5
ATOM      5  C   UNL     1       2.149   9.489   9.119  1.00  0.00     0.053 C 
BRANCH   5   6
ATOM      6  C   UNL     1       3.153   8.731   8.306  1.00  0.00     0.041 C 
ATOM      7  O   UNL     1       2.776   7.821   7.522  1.00  0.00    -0.550 OA
ATOM      8  O   UNL     1       4.508   9.008   8.437  1.00  0.00    -0.550 OA
ENDBRANCH   5   6
ENDBRANCH   4   5
ENDBRANCH   3   4
ENDBRANCH   2   3
ENDBRANCH   1   2
BRANCH   1   9
ATOM      9  C   UNL     1       2.513   5.174   9.898  1.00  0.00     0.000 C 
BRANCH   9  10
ATOM     10  C   UNL     1       3.016   4.887  11.321  1.00  0.00    -0.000 C 
BRANCH  10  11
ATOM     11  C   UNL     1       2.581   3.504  11.839  1.00  0.00    -0.000 C 
BRANCH  11  12
ATOM     12  C   UNL     1       2.564   2.438  10.733  1.00  0.00    -0.000 C 
BRANCH  12  13
ATOM     13  C   UNL     1       1.166   1.845  10.506  1.00  0.00    -0.003 C 
ATOM     14  C   UNL     1       0.265   2.086  11.715  1.00  0.00     0.004 C 
ENDBRANCH  12  13
ENDBRANCH  11  12
ENDBRANCH  10  11
ENDBRANCH   9  10
ENDBRANCH   1   9
TORSDOF 10
ENDMDL
MODEL 4
REMARK VINA RESULT:    -4.114      1.427      2.184
REMARK INTER + INTRA:          -7.184
REMARK INTER:                  -6.670
REMARK INTRA:                  -0.514
REMARK UNBOUND:                -0.664
REMARK SMILES CCCCCCCCCCCC(=O)[O-]
REMARK SMILES IDX 7 1 8 2 9 3 10 4 11 5 12 6 13 7 14 8 6 9 5 10 4 11 3 12 2 13
REMARK SMILES IDX 1 14
REMARK H PARENT
REMARK Flexibility Score: inf
ROOT
ATOM      1  C   UNL     1       7.756   4.050   0.662  1.00  0.00     0.000 C 
ENDROOT
BRANCH   1   2
ATOM      2  C   UNL     1       8.998   3.602  -0.126  1.00  0.00     0.000 C 
BRANCH   2   3
ATOM      3  C   UNL     1       8.701   2.428  -1.075  1.00  0.00     0.000 C 
BRANCH   3   4
ATOM      4  C   UNL     1       7.205   2.068  -1.125  1.00  0.00     0.006 C 
BRANCH   4   5
ATOM      5  C   UNL     1       6.908   0.660  -1.667  1.00  0.00     0.053 C 
BRANCH   5   6
ATOM      6  C   UNL     1       6.738   0.657  -3.155  1.00  0.00     0.041 C 
ATOM      7  O   UNL     1       6.163   1.618  -3.729  1.00  0.00    -0.550 OA
ATOM      8  O   UNL     1       7.186  -0.424  -3.904  1.00  0.00    -0.550 OA
ENDBRANCH   5   6
ENDBRANCH   4   5
ENDBRANCH   3   4
ENDBRANCH   2   3
ENDBRANCH   1   2
BRANCH   1   9
ATOM      9  C   UNL     1       8.029   5.282   1.543  1.00  0.00     0.000 C 
BRANCH   9  10
ATOM     10  C   UNL     1       7.467   6.577   0.935  1.00  0.00    -0.000 C 
BRANCH  10  11
ATOM     11  C   UNL     1       8.547   7.429   0.246  1.00  0.00    -0.000 C 
BRANCH  11  12
ATOM     12  C   UNL     1       8.722   8.806   0.905  1.00  0.00    -0.000 C 
BRANCH  12  13
ATOM     13  C   UNL     1       8.223   8.833   2.357  1.00  0.00    -0.003 C 
ATOM     14  C   UNL     1       7.688  10.213   2.729  1.00  0.00     0.004 C 
ENDBRANCH  12  13
ENDBRANCH  11  12
ENDBRANCH  10  11
ENDBRANCH   9  10
ENDBRANCH   1   9
TORSDOF 10
ENDMDL
MODEL 5
REMARK VINA RESULT:    -4.065     12.128     13.939
REMARK INTER + INTRA:          -7.106
REMARK INTER:                  -5.899
REMARK INTRA:                  -1.207
REMARK UNBOUND:                -0.664
REMARK SMILES CCCCCCCCCCCC(=O)[O-]
REMARK SMILES IDX 7 1 8 2 9 3 10 4 11 5 12 6 13 7 14 8 6 9 5 10 4 11 3 12 2 13
REMARK SMILES IDX 1 14
REMARK H PARENT
REMARK Flexibility Score: inf
ROOT
ATOM      1  C   UNL     1       3.947   5.049  12.662  1.00  0.00     0.000 C 
ENDROOT
BRANCH   1   2
ATOM      2  C   UNL     1       3.145   6.017  11.776  1.00  0.00     0.000 C 
BRANCH   2   3
ATOM      3  C   UNL     1       1.750   5.472  11.421  1.00  0.00     0.000 C 
BRANCH   3   4
ATOM      4  C   UNL     1       1.337   5.794   9.973  1.00  0.00     0.006 C 
BRANCH   4   5
ATOM      5  C   UNL     1       1.070   7.283   9.705  1.00  0.00     0.053 C 
BRANCH   5   6
ATOM      6  C   UNL     1       1.886   7.802   8.561  1.00  0.00     0.041 C 
ATOM      7  O   UNL     1       2.951   7.219   8.227  1.00  0.00    -0.550 OA
ATOM      8  O   UNL     1       1.489   8.949   7.886  1.00  0.00    -0.550 OA
ENDBRANCH   5   6
ENDBRANCH   4   5
ENDBRANCH   3   4
ENDBRANCH   2   3
ENDBRANCH   1   2
BRANCH   1   9
ATOM      9  C   UNL     1       3.155   3.778  13.015  1.00  0.00     0.000 C 
BRANCH   9  10
ATOM     10  C   UNL     1       3.882   2.493  12.590  1.00  0.00    -0.000 C 
BRANCH  10  11
ATOM     11  C   UNL     1       2.961   1.505  11.852  1.00  0.00    -0.000 C 
BRANCH  11  12
ATOM     12  C   UNL     1       2.416   2.078  10.534  1.00  0.00    -0.000 C 
BRANCH  12  13
ATOM     13  C   UNL     1       0.890   1.945  10.421  1.00  0.00    -0.003 C 
ATOM     14  C   UNL     1       0.229   2.024  11.794  1.00  0.00     0.004 C 
ENDBRANCH  12  13
ENDBRANCH  11  12
ENDBRANCH  10  11
ENDBRANCH   9  10
ENDBRANCH   1   9
TORSDOF 10
ENDMDL
MODEL 6
REMARK VINA RESULT:    -3.966     13.252     15.795
REMARK INTER + INTRA:          -6.949
REMARK INTER:                  -6.342
REMARK INTRA:                  -0.608
REMARK UNBOUND:                -0.664
REMARK SMILES CCCCCCCCCCCC(=O)[O-]
REMARK SMILES IDX 7 1 8 2 9 3 10 4 11 5 12 6 13 7 14 8 6 9 5 10 4 11 3 12 2 13
REMARK SMILES IDX 1 14
REMARK H PARENT
REMARK Flexibility Score: inf
ROOT
ATOM      1  C   UNL     1      -2.185  -6.539  -5.315  1.00  0.00     0.000 C 
ENDROOT
BRANCH   1   2
ATOM      2  C   UNL     1      -1.922  -5.395  -6.309  1.00  0.00     0.000 C 
BRANCH   2   3
ATOM      3  C   UNL     1      -3.202  -4.931  -7.026  1.00  0.00     0.000 C 
BRANCH   3   4
ATOM      4  C   UNL     1      -4.483  -5.313  -6.261  1.00  0.00     0.006 C 
BRANCH   4   5
ATOM      5  C   UNL     1      -5.755  -5.336  -7.124  1.00  0.00     0.053 C 
BRANCH   5   6
ATOM      6  C   UNL     1      -6.749  -4.306  -6.684  1.00  0.00     0.041 C 
ATOM      7  O   UNL     1      -6.422  -3.091  -6.635  1.00  0.00    -0.550 OA
ATOM      8  O   UNL     1      -8.025  -4.691  -6.297  1.00  0.00    -0.550 OA
ENDBRANCH   5   6
ENDBRANCH   4   5
ENDBRANCH   3   4
ENDBRANCH   2   3
ENDBRANCH   1   2
BRANCH   1   9
ATOM      9  C   UNL     1      -2.022  -7.927  -5.958  1.00  0.00     0.000 C 
BRANCH   9  10
ATOM     10  C   UNL     1      -0.927  -7.953  -7.035  1.00  0.00    -0.000 C 
BRANCH  10  11
ATOM     11  C   UNL     1       0.461  -8.296  -6.465  1.00  0.00    -0.000 C 
BRANCH  11  12
ATOM     12  C   UNL     1       1.502  -7.202  -6.746  1.00  0.00    -0.000 C 
BRANCH  12  13
ATOM     13  C   UNL     1       2.943  -7.722  -6.647  1.00  0.00    -0.003 C 
ATOM     14  C   UNL     1       3.948  -6.577  -6.747  1.00  0.00     0.004 C 
ENDBRANCH  12  13
ENDBRANCH  11  12
ENDBRANCH  10  11
ENDBRANCH   9  10
ENDBRANCH   1   9
TORSDOF 10
ENDMDL
MODEL 7
REMARK VINA RESULT:    -3.946     13.106     14.937
REMARK INTER + INTRA:          -6.917
REMARK INTER:                  -6.080
REMARK INTRA:                  -0.837
REMARK UNBOUND:                -0.664
REMARK SMILES CCCCCCCCCCCC(=O)[O-]
REMARK SMILES IDX 7 1 8 2 9 3 10 4 11 5 12 6 13 7 14 8 6 9 5 10 4 11 3 12 2 13
REMARK SMILES IDX 1 14
REMARK H PARENT
REMARK Flexibility Score: inf
ROOT
ATOM      1  C   UNL     1       1.247   5.991   9.756  1.00  0.00     0.000 C 
ENDROOT
BRANCH   1   2
ATOM      2  C   UNL     1       2.155   6.966   8.988  1.00  0.00     0.000 C 
BRANCH   2   3
ATOM      3  C   UNL     1       1.364   8.100   8.313  1.00  0.00     0.000 C 
BRANCH   3   4
ATOM      4  C   UNL     1       1.779   9.495   8.817  1.00  0.00     0.006 C 
BRANCH   4   5
ATOM      5  C   UNL     1       1.512   9.736  10.312  1.00  0.00     0.053 C 
BRANCH   5   6
ATOM      6  C   UNL     1       0.057   9.611  10.648  1.00  0.00     0.041 C 
ATOM      7  O   UNL     1      -0.779  10.409  10.148  1.00  0.00    -0.550 OA
ATOM      8  O   UNL     1      -0.370   8.635  11.538  1.00  0.00    -0.550 OA
ENDBRANCH   5   6
ENDBRANCH   4   5
ENDBRANCH   3   4
ENDBRANCH   2   3
ENDBRANCH   1   2
BRANCH   1   9
ATOM      9  C   UNL     1       1.679   5.815  11.223  1.00  0.00     0.000 C 
BRANCH   9  10
ATOM     10  C   UNL     1       1.966   4.349  11.580  1.00  0.00    -0.000 C 
BRANCH  10  11
ATOM     11  C   UNL     1       1.546   3.372  10.468  1.00  0.00    -0.000 C 
BRANCH  11  12
ATOM     12  C   UNL     1       1.002   2.046  11.021  1.00  0.00    -0.000 C 
BRANCH  12  13
ATOM     13  C   UNL     1       0.673   2.123  12.519  1.00  0.00    -0.003 C 
ATOM     14  C   UNL     1      -0.731   1.595  12.801  1.00  0.00     0.004 C 
ENDBRANCH  12  13
ENDBRANCH  11  12
ENDBRANCH  10  11
ENDBRANCH   9  10
ENDBRANCH   1   9
TORSDOF 10
ENDMDL
MODEL 8
REMARK VINA RESULT:    -3.841     12.203     13.391
REMARK INTER + INTRA:          -6.751
REMARK INTER:                  -5.679
REMARK INTRA:                  -1.072
REMARK UNBOUND:                -0.664
REMARK SMILES CCCCCCCCCCCC(=O)[O-]
REMARK SMILES IDX 7 1 8 2 9 3 10 4 11 5 12 6 13 7 14 8 6 9 5 10 4 11 3 12 2 13
REMARK SMILES IDX 1 14
REMARK H PARENT
REMARK Flexibility Score: inf
ROOT
ATOM      1  C   UNL     1       2.032   6.991   8.780  1.00  0.00     0.000 C 
ENDROOT
BRANCH   1   2
ATOM      2  C   UNL     1       1.277   6.137   9.813  1.00  0.00     0.000 C 
BRANCH   2   3
ATOM      3  C   UNL     1       2.067   5.959  11.121  1.00  0.00     0.000 C 
BRANCH   3   4
ATOM      4  C   UNL     1       2.144   4.489  11.574  1.00  0.00     0.006 C 
BRANCH   4   5
ATOM      5  C   UNL     1       2.880   3.561  10.595  1.00  0.00     0.053 C 
BRANCH   5   6
ATOM      6  C   UNL     1       2.270   2.194  10.554  1.00  0.00     0.041 C 
ATOM      7  O   UNL     1       1.234   1.982   9.870  1.00  0.00    -0.550 OA
ATOM      8  O   UNL     1       2.827   1.161  11.297  1.00  0.00    -0.550 OA
ENDBRANCH   5   6
ENDBRANCH   4   5
ENDBRANCH   3   4
ENDBRANCH   2   3
ENDBRANCH   1   2
BRANCH   1   9
ATOM      9  C   UNL     1       1.229   8.225   8.334  1.00  0.00     0.000 C 
BRANCH   9  10
ATOM     10  C   UNL     1       1.916   9.545   8.716  1.00  0.00    -0.000 C 
BRANCH  10  11
ATOM     11  C   UNL     1       1.395  10.126  10.042  1.00  0.00    -0.000 C 
BRANCH  11  12
ATOM     12  C   UNL     1      -0.113   9.904  10.232  1.00  0.00    -0.000 C 
BRANCH  12  13
ATOM     13  C   UNL     1      -0.442   9.184  11.548  1.00  0.00    -0.003 C 
ATOM     14  C   UNL     1       0.804   9.031  12.416  1.00  0.00     0.004 C 
ENDBRANCH  12  13
ENDBRANCH  11  12
ENDBRANCH  10  11
ENDBRANCH   9  10
ENDBRANCH   1   9
TORSDOF 10
ENDMDL
MODEL 9
REMARK VINA RESULT:    -3.830     14.933     17.065
REMARK INTER + INTRA:          -6.733
REMARK INTER:                  -6.138
REMARK INTRA:                  -0.595
REMARK UNBOUND:                -0.664
REMARK SMILES CCCCCCCCCCCC(=O)[O-]
REMARK SMILES IDX 7 1 8 2 9 3 10 4 11 5 12 6 13 7 14 8 6 9 5 10 4 11 3 12 2 13
REMARK SMILES IDX 1 14
REMARK H PARENT
REMARK Flexibility Score: inf
ROOT
ATOM      1  C   UNL     1      -4.275  -6.474  -5.281  1.00  0.00     0.000 C 
ENDROOT
BRANCH   1   2
ATOM      2  C   UNL     1      -4.826  -6.302  -6.707  1.00  0.00     0.000 C 
BRANCH   2   3
ATOM      3  C   UNL     1      -5.445  -4.913  -6.937  1.00  0.00     0.000 C 
BRANCH   3   4
ATOM      4  C   UNL     1      -6.973  -4.966  -7.124  1.00  0.00     0.006 C 
BRANCH   4   5
ATOM      5  C   UNL     1      -7.654  -6.169  -6.452  1.00  0.00     0.053 C 
BRANCH   5   6
ATOM      6  C   UNL     1      -8.279  -5.798  -5.142  1.00  0.00     0.041 C 
ATOM      7  O   UNL     1      -8.114  -6.531  -4.131  1.00  0.00    -0.550 OA
ATOM      8  O   UNL     1      -9.070  -4.661  -5.045  1.00  0.00    -0.550 OA
ENDBRANCH   5   6
ENDBRANCH   4   5
ENDBRANCH   3   4
ENDBRANCH   2   3
ENDBRANCH   1   2
BRANCH   1   9
ATOM      9  C   UNL     1      -2.742  -6.600  -5.253  1.00  0.00     0.000 C 
BRANCH   9  10
ATOM     10  C   UNL     1      -2.259  -8.004  -5.647  1.00  0.00    -0.000 C 
BRANCH  10  11
ATOM     11  C   UNL     1      -1.246  -7.981  -6.805  1.00  0.00    -0.000 C 
BRANCH  11  12
ATOM     12  C   UNL     1      -0.259  -6.808  -6.703  1.00  0.00    -0.000 C 
BRANCH  12  13
ATOM     13  C   UNL     1       1.206  -7.261  -6.783  1.00  0.00    -0.003 C 
ATOM     14  C   UNL     1       1.350  -8.726  -6.381  1.00  0.00     0.004 C 
ENDBRANCH  12  13
ENDBRANCH  11  12
ENDBRANCH  10  11
ENDBRANCH   9  10
ENDBRANCH   1   9
TORSDOF 10
ENDMDL
