MODEL 1
REMARK VINA RESULT:    -4.531      0.000      0.000
REMARK INTER + INTRA:          -5.490
REMARK INTER:                  -5.458
REMARK INTRA:                  -0.032
REMARK UNBOUND:                -0.032
REMARK SMILES O=c1c(O)c(-c2ccc(O)c(O)c2)oc2cc(O)cc(O)c12
REMARK SMILES IDX 5 1 3 2 2 3 1 4 22 5 20 6 19 7 17 8 16 9 15 10 14 11 6 12
REMARK SMILES IDX 7 13 8 14 9 15 13 16 11 17 10 18 12 20 4 22 21 24 18 26
REMARK H PARENT 10 19 12 21 4 23 21 25 18 27
REMARK Flexibility Score: inf
ROOT
ATOM      1  C   UNL     1       9.474 -15.460 -23.379  1.00  0.00     0.180 A 
ATOM      2  C   UNL     1       9.781 -14.134 -23.729  1.00  0.00     0.208 A 
ATOM      3  C   UNL     1      11.122 -13.718 -23.710  1.00  0.00     0.238 A 
ATOM      4  O   UNL     1      11.396 -12.545 -24.077  1.00  0.00    -0.285 OA
ATOM      5  C   UNL     1      12.136 -14.628 -23.327  1.00  0.00     0.111 A 
ATOM      6  C   UNL     1      13.523 -14.304 -23.235  1.00  0.00     0.134 A 
ATOM      7  C   UNL     1      14.454 -15.318 -22.972  1.00  0.00     0.093 A 
ATOM      8  C   UNL     1      14.040 -16.630 -22.734  1.00  0.00     0.123 A 
ATOM      9  C   UNL     1      12.683 -16.945 -22.763  1.00  0.00     0.094 A 
ATOM     10  C   UNL     1      11.735 -15.963 -23.059  1.00  0.00     0.146 A 
ATOM     11  O   UNL     1      10.453 -16.307 -23.088  1.00  0.00    -0.452 OA
ENDROOT
BRANCH   1  12
ATOM     12  C   UNL     1       8.081 -15.965 -23.351  1.00  0.00     0.025 A 
ATOM     13  C   UNL     1       7.694 -17.082 -24.107  1.00  0.00     0.016 A 
ATOM     14  C   UNL     1       6.370 -17.524 -24.083  1.00  0.00     0.051 A 
ATOM     15  C   UNL     1       5.407 -16.858 -23.320  1.00  0.00     0.157 A 
ATOM     16  C   UNL     1       7.113 -15.280 -22.601  1.00  0.00     0.062 A 
ATOM     17  C   UNL     1       5.782 -15.717 -22.571  1.00  0.00     0.158 A 
BRANCH  15  18
ATOM     18  O   UNL     1       4.101 -17.354 -23.336  1.00  0.00    -0.504 OA
ATOM     19  H   UNL     1       3.812 -18.163 -23.865  1.00  0.00     0.293 HD
ENDBRANCH  15  18
BRANCH  17  20
ATOM     20  O   UNL     1       4.875 -14.994 -21.793  1.00  0.00    -0.504 OA
ATOM     21  H   UNL     1       5.122 -14.509 -20.943  1.00  0.00     0.293 HD
ENDBRANCH  17  20
ENDBRANCH   1  12
BRANCH   2  22
ATOM     22  O   UNL     1       8.767 -13.258 -24.125  1.00  0.00    -0.502 OA
ATOM     23  H   UNL     1       8.954 -12.399 -24.628  1.00  0.00     0.293 HD
ENDBRANCH   2  22
BRANCH   6  24
ATOM     24  O   UNL     1      14.032 -13.008 -23.363  1.00  0.00    -0.507 OA
ATOM     25  H   UNL     1      14.466 -12.642 -24.197  1.00  0.00     0.293 HD
ENDBRANCH   6  24
BRANCH   8  26
ATOM     26  O   UNL     1      14.971 -17.630 -22.458  1.00  0.00    -0.508 OA
ATOM     27  H   UNL     1      14.682 -18.567 -22.204  1.00  0.00     0.293 HD
ENDBRANCH   8  26
TORSDOF 6
ENDMDL
MODEL 2
REMARK VINA RESULT:    -4.074      1.566      7.288
REMARK INTER + INTRA:          -4.939
REMARK INTER:                  -5.154
REMARK INTRA:                   0.215
REMARK UNBOUND:                -0.032
REMARK SMILES O=c1c(O)c(-c2ccc(O)c(O)c2)oc2cc(O)cc(O)c12
REMARK SMILES IDX 5 1 3 2 2 3 1 4 22 5 20 6 19 7 17 8 16 9 15 10 14 11 6 12
REMARK SMILES IDX 7 13 8 14 9 15 13 16 11 17 10 18 12 20 4 22 21 24 18 26
REMARK H PARENT 10 19 12 21 4 23 21 25 18 27
REMARK Flexibility Score: inf
ROOT
ATOM      1  C   UNL     1      10.514 -15.096 -23.565  1.00  0.00     0.180 A 
ATOM      2  C   UNL     1      10.248 -16.466 -23.728  1.00  0.00     0.208 A 
ATOM      3  C   UNL     1       8.913 -16.903 -23.750  1.00  0.00     0.238 A 
ATOM      4  O   UNL     1       8.680 -18.124 -23.951  1.00  0.00    -0.285 OA
ATOM      5  C   UNL     1       7.864 -15.966 -23.593  1.00  0.00     0.111 A 
ATOM      6  C   UNL     1       6.477 -16.302 -23.560  1.00  0.00     0.134 A 
ATOM      7  C   UNL     1       5.519 -15.279 -23.532  1.00  0.00     0.093 A 
ATOM      8  C   UNL     1       5.901 -13.937 -23.469  1.00  0.00     0.123 A 
ATOM      9  C   UNL     1       7.252 -13.602 -23.441  1.00  0.00     0.094 A 
ATOM     10  C   UNL     1       8.231 -14.598 -23.505  1.00  0.00     0.146 A 
ATOM     11  O   UNL     1       9.507 -14.235 -23.487  1.00  0.00    -0.452 OA
ENDROOT
BRANCH   1  12
ATOM     12  C   UNL     1      11.895 -14.563 -23.507  1.00  0.00     0.025 A 
ATOM     13  C   UNL     1      12.237 -13.350 -24.125  1.00  0.00     0.016 A 
ATOM     14  C   UNL     1      13.550 -12.880 -24.077  1.00  0.00     0.051 A 
ATOM     15  C   UNL     1      14.549 -13.613 -23.428  1.00  0.00     0.157 A 
ATOM     16  C   UNL     1      12.899 -15.312 -22.874  1.00  0.00     0.062 A 
ATOM     17  C   UNL     1      14.220 -14.849 -22.822  1.00  0.00     0.158 A 
BRANCH  15  18
ATOM     18  O   UNL     1      15.843 -13.086 -23.413  1.00  0.00    -0.504 OA
ATOM     19  H   UNL     1      16.074 -12.151 -23.713  1.00  0.00     0.293 HD
ENDBRANCH  15  18
BRANCH  17  20
ATOM     20  O   UNL     1      15.163 -15.641 -22.163  1.00  0.00    -0.504 OA
ATOM     21  H   UNL     1      16.084 -15.321 -21.900  1.00  0.00     0.293 HD
ENDBRANCH  17  20
ENDBRANCH   1  12
BRANCH   2  22
ATOM     22  O   UNL     1      11.298 -17.371 -23.902  1.00  0.00    -0.502 OA
ATOM     23  H   UNL     1      11.453 -18.153 -23.278  1.00  0.00     0.293 HD
ENDBRANCH   2  22
BRANCH   6  24
ATOM     24  O   UNL     1       5.991 -17.612 -23.525  1.00  0.00    -0.507 OA
ATOM     25  H   UNL     1       5.533 -18.076 -24.295  1.00  0.00     0.293 HD
ENDBRANCH   6  24
BRANCH   8  26
ATOM     26  O   UNL     1       4.942 -12.927 -23.426  1.00  0.00    -0.508 OA
ATOM     27  H   UNL     1       5.104 -12.065 -22.919  1.00  0.00     0.293 HD
ENDBRANCH   8  26
TORSDOF 6
ENDMDL
MODEL 3
REMARK VINA RESULT:    -3.677      1.383      1.620
REMARK INTER + INTRA:          -4.462
REMARK INTER:                  -4.173
REMARK INTRA:                  -0.289
REMARK UNBOUND:                -0.032
REMARK SMILES O=c1c(O)c(-c2ccc(O)c(O)c2)oc2cc(O)cc(O)c12
REMARK SMILES IDX 5 1 3 2 2 3 1 4 22 5 20 6 19 7 17 8 16 9 15 10 14 11 6 12
REMARK SMILES IDX 7 13 8 14 9 15 13 16 11 17 10 18 12 20 4 22 21 24 18 26
REMARK H PARENT 10 19 12 21 4 23 21 25 18 27
REMARK Flexibility Score: inf
ROOT
ATOM      1  C   UNL     1      10.399 -14.561 -23.145  1.00  0.00     0.180 A 
ATOM      2  C   UNL     1      11.028 -13.384 -23.586  1.00  0.00     0.208 A 
ATOM      3  C   UNL     1      12.429 -13.353 -23.676  1.00  0.00     0.238 A 
ATOM      4  O   UNL     1      12.983 -12.315 -24.124  1.00  0.00    -0.285 OA
ATOM      5  C   UNL     1      13.183 -14.492 -23.308  1.00  0.00     0.111 A 
ATOM      6  C   UNL     1      14.609 -14.559 -23.322  1.00  0.00     0.134 A 
ATOM      7  C   UNL     1      15.246 -15.780 -23.063  1.00  0.00     0.093 A 
ATOM      8  C   UNL     1      14.511 -16.919 -22.727  1.00  0.00     0.123 A 
ATOM      9  C   UNL     1      13.121 -16.849 -22.653  1.00  0.00     0.094 A 
ATOM     10  C   UNL     1      12.456 -15.655 -22.941  1.00  0.00     0.146 A 
ATOM     11  O   UNL     1      11.130 -15.634 -22.870  1.00  0.00    -0.452 OA
ENDROOT
BRANCH   1  12
ATOM     12  C   UNL     1       8.928 -14.662 -23.000  1.00  0.00     0.025 A 
ATOM     13  C   UNL     1       8.098 -14.878 -24.112  1.00  0.00     0.016 A 
ATOM     14  C   UNL     1       6.713 -14.945 -23.954  1.00  0.00     0.051 A 
ATOM     15  C   UNL     1       6.128 -14.786 -22.694  1.00  0.00     0.157 A 
ATOM     16  C   UNL     1       8.343 -14.480 -21.739  1.00  0.00     0.062 A 
ATOM     17  C   UNL     1       6.954 -14.546 -21.571  1.00  0.00     0.158 A 
BRANCH  15  18
ATOM     18  O   UNL     1       4.736 -14.868 -22.604  1.00  0.00    -0.504 OA
ATOM     19  H   UNL     1       4.112 -14.736 -23.385  1.00  0.00     0.293 HD
ENDBRANCH  15  18
BRANCH  17  20
ATOM     20  O   UNL     1       6.443 -14.367 -20.283  1.00  0.00    -0.504 OA
ATOM     21  H   UNL     1       6.839 -14.788 -19.455  1.00  0.00     0.293 HD
ENDBRANCH  17  20
ENDBRANCH   1  12
BRANCH   2  22
ATOM     22  O   UNL     1      10.263 -12.278 -23.965  1.00  0.00    -0.502 OA
ATOM     23  H   UNL     1      10.632 -11.533 -24.544  1.00  0.00     0.293 HD
ENDBRANCH   2  22
BRANCH   6  24
ATOM     24  O   UNL     1      15.440 -13.460 -23.554  1.00  0.00    -0.507 OA
ATOM     25  H   UNL     1      16.448 -13.486 -23.528  1.00  0.00     0.293 HD
ENDBRANCH   6  24
BRANCH   8  26
ATOM     26  O   UNL     1      15.153 -18.125 -22.455  1.00  0.00    -0.508 OA
ATOM     27  H   UNL     1      14.632 -18.985 -22.327  1.00  0.00     0.293 HD
ENDBRANCH   8  26
TORSDOF 6
ENDMDL
MODEL 4
REMARK VINA RESULT:    -3.155      1.303      6.649
REMARK INTER + INTRA:          -3.832
REMARK INTER:                  -4.247
REMARK INTRA:                   0.415
REMARK UNBOUND:                -0.032
REMARK SMILES O=c1c(O)c(-c2ccc(O)c(O)c2)oc2cc(O)cc(O)c12
REMARK SMILES IDX 5 1 3 2 2 3 1 4 22 5 20 6 19 7 17 8 16 9 15 10 14 11 6 12
REMARK SMILES IDX 7 13 8 14 9 15 13 16 11 17 10 18 12 20 4 22 21 24 18 26
REMARK H PARENT 10 19 12 21 4 23 21 25 18 27
REMARK Flexibility Score: inf
ROOT
ATOM      1  C   UNL     1      10.324 -15.900 -23.367  1.00  0.00     0.180 A 
ATOM      2  C   UNL     1      10.047 -14.538 -23.159  1.00  0.00     0.208 A 
ATOM      3  C   UNL     1       8.708 -14.115 -23.114  1.00  0.00     0.238 A 
ATOM      4  O   UNL     1       8.465 -12.904 -22.873  1.00  0.00    -0.285 OA
ATOM      5  C   UNL     1       7.666 -15.056 -23.295  1.00  0.00     0.111 A 
ATOM      6  C   UNL     1       6.276 -14.732 -23.309  1.00  0.00     0.134 A 
ATOM      7  C   UNL     1       5.327 -15.762 -23.365  1.00  0.00     0.093 A 
ATOM      8  C   UNL     1       5.721 -17.098 -23.473  1.00  0.00     0.123 A 
ATOM      9  C   UNL     1       7.075 -17.419 -23.520  1.00  0.00     0.094 A 
ATOM     10  C   UNL     1       8.045 -16.417 -23.430  1.00  0.00     0.146 A 
ATOM     11  O   UNL     1       9.325 -16.768 -23.467  1.00  0.00    -0.452 OA
ENDROOT
BRANCH   1  12
ATOM     12  C   UNL     1      11.710 -16.418 -23.451  1.00  0.00     0.025 A 
ATOM     13  C   UNL     1      11.997 -17.639 -24.080  1.00  0.00     0.016 A 
ATOM     14  C   UNL     1      13.307 -18.118 -24.125  1.00  0.00     0.051 A 
ATOM     15  C   UNL     1      14.352 -17.400 -23.535  1.00  0.00     0.157 A 
ATOM     16  C   UNL     1      12.752 -15.706 -22.839  1.00  0.00     0.062 A 
ATOM     17  C   UNL     1      14.070 -16.178 -22.878  1.00  0.00     0.158 A 
BRANCH  15  18
ATOM     18  O   UNL     1      15.641 -17.932 -23.619  1.00  0.00    -0.504 OA
ATOM     19  H   UNL     1      15.940 -18.576 -24.336  1.00  0.00     0.293 HD
ENDBRANCH  15  18
BRANCH  17  20
ATOM     20  O   UNL     1      15.058 -15.410 -22.258  1.00  0.00    -0.504 OA
ATOM     21  H   UNL     1      15.025 -15.122 -21.291  1.00  0.00     0.293 HD
ENDBRANCH  17  20
ENDBRANCH   1  12
BRANCH   2  22
ATOM     22  O   UNL     1      11.090 -13.630 -22.961  1.00  0.00    -0.502 OA
ATOM     23  H   UNL     1      11.805 -13.461 -23.659  1.00  0.00     0.293 HD
ENDBRANCH   2  22
BRANCH   6  24
ATOM     24  O   UNL     1       5.778 -13.426 -23.298  1.00  0.00    -0.507 OA
ATOM     25  H   UNL     1       4.813 -13.181 -23.139  1.00  0.00     0.293 HD
ENDBRANCH   6  24
BRANCH   8  26
ATOM     26  O   UNL     1       4.771 -18.115 -23.543  1.00  0.00    -0.508 OA
ATOM     27  H   UNL     1       3.843 -18.001 -23.152  1.00  0.00     0.293 HD
ENDBRANCH   8  26
TORSDOF 6
ENDMDL
MODEL 5
REMARK VINA RESULT:    -1.891      1.585      6.845
REMARK INTER + INTRA:          -2.310
REMARK INTER:                  -2.287
REMARK INTRA:                  -0.023
REMARK UNBOUND:                -0.032
REMARK SMILES O=c1c(O)c(-c2ccc(O)c(O)c2)oc2cc(O)cc(O)c12
REMARK SMILES IDX 5 1 3 2 2 3 1 4 22 5 20 6 19 7 17 8 16 9 15 10 14 11 6 12
REMARK SMILES IDX 7 13 8 14 9 15 13 16 11 17 10 18 12 20 4 22 21 24 18 26
REMARK H PARENT 10 19 12 21 4 23 21 25 18 27
REMARK Flexibility Score: inf
ROOT
ATOM      1  C   UNL     1       9.350 -14.876 -23.011  1.00  0.00     0.180 A 
ATOM      2  C   UNL     1       8.684 -13.789 -23.603  1.00  0.00     0.208 A 
ATOM      3  C   UNL     1       7.281 -13.790 -23.643  1.00  0.00     0.238 A 
ATOM      4  O   UNL     1       6.689 -12.788 -24.125  1.00  0.00    -0.285 OA
ATOM      5  C   UNL     1       6.562 -14.885 -23.107  1.00  0.00     0.111 A 
ATOM      6  C   UNL     1       5.140 -15.010 -23.130  1.00  0.00     0.134 A 
ATOM      7  C   UNL     1       4.529 -16.074 -22.453  1.00  0.00     0.093 A 
ATOM      8  C   UNL     1       5.293 -17.052 -21.811  1.00  0.00     0.123 A 
ATOM      9  C   UNL     1       6.683 -16.971 -21.835  1.00  0.00     0.094 A 
ATOM     10  C   UNL     1       7.320 -15.902 -22.470  1.00  0.00     0.146 A 
ATOM     11  O   UNL     1       8.647 -15.856 -22.459  1.00  0.00    -0.452 OA
ENDROOT
BRANCH   1  12
ATOM     12  C   UNL     1      10.828 -14.957 -22.953  1.00  0.00     0.025 A 
ATOM     13  C   UNL     1      11.597 -13.912 -22.419  1.00  0.00     0.016 A 
ATOM     14  C   UNL     1      12.990 -14.001 -22.397  1.00  0.00     0.051 A 
ATOM     15  C   UNL     1      13.643 -15.123 -22.917  1.00  0.00     0.157 A 
ATOM     16  C   UNL     1      11.480 -16.074 -23.496  1.00  0.00     0.062 A 
ATOM     17  C   UNL     1      12.878 -16.173 -23.479  1.00  0.00     0.158 A 
BRANCH  15  18
ATOM     18  O   UNL     1      15.038 -15.152 -22.861  1.00  0.00    -0.504 OA
ATOM     19  H   UNL     1      15.564 -15.529 -22.087  1.00  0.00     0.293 HD
ENDBRANCH  15  18
BRANCH  17  20
ATOM     20  O   UNL     1      13.458 -17.319 -24.025  1.00  0.00    -0.504 OA
ATOM     21  H   UNL     1      13.431 -17.553 -25.007  1.00  0.00     0.293 HD
ENDBRANCH  17  20
ENDBRANCH   1  12
BRANCH   2  22
ATOM     22  O   UNL     1       9.412 -12.708 -24.107  1.00  0.00    -0.502 OA
ATOM     23  H   UNL     1       9.354 -12.415 -25.075  1.00  0.00     0.293 HD
ENDBRANCH   2  22
BRANCH   6  24
ATOM     24  O   UNL     1       4.290 -14.140 -23.819  1.00  0.00    -0.507 OA
ATOM     25  H   UNL     1       4.424 -13.843 -24.774  1.00  0.00     0.293 HD
ENDBRANCH   6  24
BRANCH   8  26
ATOM     26  O   UNL     1       4.678 -18.116 -21.154  1.00  0.00    -0.508 OA
ATOM     27  H   UNL     1       4.128 -17.973 -20.315  1.00  0.00     0.293 HD
ENDBRANCH   8  26
TORSDOF 6
ENDMDL
MODEL 6
REMARK VINA RESULT:    -1.710      1.649      7.006
REMARK INTER + INTRA:          -2.092
REMARK INTER:                  -1.771
REMARK INTRA:                  -0.321
REMARK UNBOUND:                -0.032
REMARK SMILES O=c1c(O)c(-c2ccc(O)c(O)c2)oc2cc(O)cc(O)c12
REMARK SMILES IDX 5 1 3 2 2 3 1 4 22 5 20 6 19 7 17 8 16 9 15 10 14 11 6 12
REMARK SMILES IDX 7 13 8 14 9 15 13 16 11 17 10 18 12 20 4 22 21 24 18 26
REMARK H PARENT 10 19 12 21 4 23 21 25 18 27
REMARK Flexibility Score: inf
ROOT
ATOM      1  C   UNL     1       9.410 -14.802 -22.335  1.00  0.00     0.180 A 
ATOM      2  C   UNL     1       8.873 -14.215 -21.177  1.00  0.00     0.208 A 
ATOM      3  C   UNL     1       7.539 -14.488 -20.830  1.00  0.00     0.238 A 
ATOM      4  O   UNL     1       7.081 -14.003 -19.762  1.00  0.00    -0.285 OA
ATOM      5  C   UNL     1       6.757 -15.332 -21.654  1.00  0.00     0.111 A 
ATOM      6  C   UNL     1       5.384 -15.645 -21.421  1.00  0.00     0.134 A 
ATOM      7  C   UNL     1       4.745 -16.595 -22.229  1.00  0.00     0.093 A 
ATOM      8  C   UNL     1       5.411 -17.193 -23.301  1.00  0.00     0.123 A 
ATOM      9  C   UNL     1       6.733 -16.849 -23.573  1.00  0.00     0.094 A 
ATOM     10  C   UNL     1       7.408 -15.932 -22.763  1.00  0.00     0.146 A 
ATOM     11  O   UNL     1       8.671 -15.641 -23.051  1.00  0.00    -0.452 OA
ENDROOT
BRANCH   1  12
ATOM     12  C   UNL     1      10.799 -14.542 -22.778  1.00  0.00     0.025 A 
ATOM     13  C   UNL     1      11.128 -13.392 -23.514  1.00  0.00     0.016 A 
ATOM     14  C   UNL     1      12.440 -13.181 -23.941  1.00  0.00     0.051 A 
ATOM     15  C   UNL     1      13.443 -14.112 -23.658  1.00  0.00     0.157 A 
ATOM     16  C   UNL     1      11.799 -15.489 -22.511  1.00  0.00     0.062 A 
ATOM     17  C   UNL     1      13.118 -15.285 -22.936  1.00  0.00     0.158 A 
BRANCH  15  18
ATOM     18  O   UNL     1      14.736 -13.839 -24.111  1.00  0.00    -0.504 OA
ATOM     19  H   UNL     1      14.943 -13.395 -24.992  1.00  0.00     0.293 HD
ENDBRANCH  15  18
BRANCH  17  20
ATOM     20  O   UNL     1      14.063 -16.265 -22.624  1.00  0.00    -0.504 OA
ATOM     21  H   UNL     1      14.752 -16.172 -21.892  1.00  0.00     0.293 HD
ENDBRANCH  17  20
ENDBRANCH   1  12
BRANCH   2  22
ATOM     22  O   UNL     1       9.669 -13.403 -20.366  1.00  0.00    -0.502 OA
ATOM     23  H   UNL     1      10.679 -13.379 -20.442  1.00  0.00     0.293 HD
ENDBRANCH   2  22
BRANCH   6  24
ATOM     24  O   UNL     1       4.601 -15.038 -20.435  1.00  0.00    -0.507 OA
ATOM     25  H   UNL     1       4.884 -14.240 -19.887  1.00  0.00     0.293 HD
ENDBRANCH   6  24
BRANCH   8  26
ATOM     26  O   UNL     1       4.764 -18.125 -24.110  1.00  0.00    -0.508 OA
ATOM     27  H   UNL     1       5.275 -18.857 -24.588  1.00  0.00     0.293 HD
ENDBRANCH   8  26
TORSDOF 6
ENDMDL
