MODEL 1
REMARK VINA RESULT:    -2.009      0.000      0.000
REMARK INTER + INTRA:          -2.458
REMARK INTER:                  -2.244
REMARK INTRA:                  -0.215
REMARK UNBOUND:                -0.215
REMARK SMILES CC(C)c1ccc(C(=O)[O-])cc1
REMARK SMILES IDX 7 1 6 2 11 3 5 4 12 5 4 6 8 7 9 8 10 9 2 10 1 11 3 12
REMARK H PARENT
REMARK Flexibility Score: inf
ROOT
ATOM      1  C   UNL     1      -5.564  38.137  21.456  1.00  0.00    -0.003 A 
ATOM      2  C   UNL     1      -5.143  38.299  20.125  1.00  0.00     0.010 A 
ATOM      3  C   UNL     1      -5.745  36.837  21.958  1.00  0.00     0.010 A 
ATOM      4  C   UNL     1      -4.910  37.187  19.313  1.00  0.00     0.004 A 
ATOM      5  C   UNL     1      -5.511  35.724  21.146  1.00  0.00     0.004 A 
ATOM      6  C   UNL     1      -5.091  35.885  19.815  1.00  0.00    -0.045 A 
ENDROOT
BRANCH   1   7
ATOM      7  C   UNL     1      -5.811  39.318  22.311  1.00  0.00     0.071 C 
ATOM      8  O   UNL     1      -5.747  39.225  23.566  1.00  0.00    -0.545 OA
ATOM      9  O   UNL     1      -6.115  40.550  21.742  1.00  0.00    -0.545 OA
ENDBRANCH   1   7
BRANCH   6  10
ATOM     10  C   UNL     1      -4.840  34.667  18.945  1.00  0.00     0.013 C 
ATOM     11  C   UNL     1      -6.125  33.854  18.750  1.00  0.00     0.012 C 
ATOM     12  C   UNL     1      -4.230  35.067  17.597  1.00  0.00     0.012 C 
ENDBRANCH   6  10
TORSDOF 2
ENDMDL
MODEL 2
REMARK VINA RESULT:    -2.005      0.073      1.680
REMARK INTER + INTRA:          -2.454
REMARK INTER:                  -2.239
REMARK INTRA:                  -0.215
REMARK UNBOUND:                -0.215
REMARK SMILES CC(C)c1ccc(C(=O)[O-])cc1
REMARK SMILES IDX 7 1 6 2 11 3 5 4 12 5 4 6 8 7 9 8 10 9 2 10 1 11 3 12
REMARK H PARENT
REMARK Flexibility Score: inf
ROOT
ATOM      1  C   UNL     1      -5.531  38.165  21.454  1.00  0.00    -0.003 A 
ATOM      2  C   UNL     1      -5.667  36.872  21.986  1.00  0.00     0.010 A 
ATOM      3  C   UNL     1      -5.169  38.310  20.103  1.00  0.00     0.010 A 
ATOM      4  C   UNL     1      -5.445  35.748  21.187  1.00  0.00     0.004 A 
ATOM      5  C   UNL     1      -4.947  37.186  19.304  1.00  0.00     0.004 A 
ATOM      6  C   UNL     1      -5.082  35.892  19.836  1.00  0.00    -0.045 A 
ENDROOT
BRANCH   1   7
ATOM      7  C   UNL     1      -5.767  39.352  22.304  1.00  0.00     0.071 C 
ATOM      8  O   UNL     1      -6.092  40.455  21.789  1.00  0.00    -0.545 OA
ATOM      9  O   UNL     1      -5.635  39.268  23.686  1.00  0.00    -0.545 OA
ENDBRANCH   1   7
BRANCH   6  10
ATOM     10  C   UNL     1      -4.838  34.680  18.955  1.00  0.00     0.013 C 
ATOM     11  C   UNL     1      -6.125  33.868  18.765  1.00  0.00     0.012 C 
ATOM     12  C   UNL     1      -4.242  35.091  17.604  1.00  0.00     0.012 C 
ENDBRANCH   6  10
TORSDOF 2
ENDMDL
MODEL 3
REMARK VINA RESULT:    -0.986      3.210      5.020
REMARK INTER + INTRA:          -1.315
REMARK INTER:                  -1.096
REMARK INTRA:                  -0.220
REMARK UNBOUND:                -0.215
REMARK SMILES CC(C)c1ccc(C(=O)[O-])cc1
REMARK SMILES IDX 7 1 6 2 11 3 5 4 12 5 4 6 8 7 9 8 10 9 2 10 1 11 3 12
REMARK H PARENT
REMARK Flexibility Score: inf
ROOT
ATOM      1  C   UNL     1      -5.261  35.863  20.665  1.00  0.00    -0.003 A 
ATOM      2  C   UNL     1      -5.416  37.128  21.256  1.00  0.00     0.010 A 
ATOM      3  C   UNL     1      -5.391  34.716  21.468  1.00  0.00     0.010 A 
ATOM      4  C   UNL     1      -5.693  37.245  22.620  1.00  0.00     0.004 A 
ATOM      5  C   UNL     1      -5.668  34.834  22.832  1.00  0.00     0.004 A 
ATOM      6  C   UNL     1      -5.823  36.098  23.425  1.00  0.00    -0.045 A 
ENDROOT
BRANCH   1   7
ATOM      7  C   UNL     1      -4.967  35.744  19.220  1.00  0.00     0.071 C 
ATOM      8  O   UNL     1      -4.871  36.774  18.499  1.00  0.00    -0.545 OA
ATOM      9  O   UNL     1      -4.791  34.495  18.637  1.00  0.00    -0.545 OA
ENDBRANCH   1   7
BRANCH   6  10
ATOM     10  C   UNL     1      -6.125  36.210  24.908  1.00  0.00     0.013 C 
ATOM     11  C   UNL     1      -6.101  34.832  25.581  1.00  0.00     0.012 C 
ATOM     12  C   UNL     1      -5.156  37.176  25.598  1.00  0.00     0.012 C 
ENDBRANCH   6  10
TORSDOF 2
ENDMDL
MODEL 4
REMARK VINA RESULT:    -0.884      0.968      1.800
REMARK INTER + INTRA:          -1.202
REMARK INTER:                  -0.987
REMARK INTRA:                  -0.215
REMARK UNBOUND:                -0.215
REMARK SMILES CC(C)c1ccc(C(=O)[O-])cc1
REMARK SMILES IDX 7 1 6 2 11 3 5 4 12 5 4 6 8 7 9 8 10 9 2 10 1 11 3 12
REMARK H PARENT
REMARK Flexibility Score: inf
ROOT
ATOM      1  C   UNL     1      -5.670  37.428  22.277  1.00  0.00    -0.003 A 
ATOM      2  C   UNL     1      -5.390  38.087  21.068  1.00  0.00     0.010 A 
ATOM      3  C   UNL     1      -5.898  36.041  22.258  1.00  0.00     0.010 A 
ATOM      4  C   UNL     1      -5.340  37.376  19.866  1.00  0.00     0.004 A 
ATOM      5  C   UNL     1      -5.848  35.330  21.057  1.00  0.00     0.004 A 
ATOM      6  C   UNL     1      -5.568  35.987  19.847  1.00  0.00    -0.045 A 
ENDROOT
BRANCH   1   7
ATOM      7  C   UNL     1      -5.724  38.186  23.546  1.00  0.00     0.071 C 
ATOM      8  O   UNL     1      -5.689  39.446  23.542  1.00  0.00    -0.545 OA
ATOM      9  O   UNL     1      -5.814  37.519  24.762  1.00  0.00    -0.545 OA
ENDBRANCH   1   7
BRANCH   6  10
ATOM     10  C   UNL     1      -5.515  35.201  18.550  1.00  0.00     0.013 C 
ATOM     11  C   UNL     1      -4.081  35.113  18.016  1.00  0.00     0.012 C 
ATOM     12  C   UNL     1      -6.125  33.806  18.725  1.00  0.00     0.012 C 
ENDBRANCH   6  10
TORSDOF 2
ENDMDL
MODEL 5
REMARK VINA RESULT:    -0.781      2.342      3.444
REMARK INTER + INTRA:          -1.086
REMARK INTER:                  -0.865
REMARK INTRA:                  -0.221
REMARK UNBOUND:                -0.215
REMARK SMILES CC(C)c1ccc(C(=O)[O-])cc1
REMARK SMILES IDX 7 1 6 2 11 3 5 4 12 5 4 6 8 7 9 8 10 9 2 10 1 11 3 12
REMARK H PARENT
REMARK Flexibility Score: inf
ROOT
ATOM      1  C   UNL     1      -5.934  35.913  23.913  1.00  0.00    -0.003 A 
ATOM      2  C   UNL     1      -5.804  37.178  23.316  1.00  0.00     0.010 A 
ATOM      3  C   UNL     1      -5.937  34.771  23.093  1.00  0.00     0.010 A 
ATOM      4  C   UNL     1      -5.682  37.300  21.930  1.00  0.00     0.004 A 
ATOM      5  C   UNL     1      -5.814  34.893  21.707  1.00  0.00     0.004 A 
ATOM      6  C   UNL     1      -5.685  36.157  21.108  1.00  0.00    -0.045 A 
ENDROOT
BRANCH   1   7
ATOM      7  C   UNL     1      -6.064  35.790  25.381  1.00  0.00     0.071 C 
ATOM      8  O   UNL     1      -6.120  34.655  25.927  1.00  0.00    -0.545 OA
ATOM      9  O   UNL     1      -6.125  36.925  26.182  1.00  0.00    -0.545 OA
ENDBRANCH   1   7
BRANCH   6  10
ATOM     10  C   UNL     1      -5.552  36.273  19.601  1.00  0.00     0.013 C 
ATOM     11  C   UNL     1      -5.034  37.659  19.198  1.00  0.00     0.012 C 
ATOM     12  C   UNL     1      -4.655  35.165  19.039  1.00  0.00     0.012 C 
ENDBRANCH   6  10
TORSDOF 2
ENDMDL
MODEL 6
REMARK VINA RESULT:    -0.236      3.172      5.004
REMARK INTER + INTRA:          -0.479
REMARK INTER:                  -0.262
REMARK INTRA:                  -0.217
REMARK UNBOUND:                -0.215
REMARK SMILES CC(C)c1ccc(C(=O)[O-])cc1
REMARK SMILES IDX 7 1 6 2 11 3 5 4 12 5 4 6 8 7 9 8 10 9 2 10 1 11 3 12
REMARK H PARENT
REMARK Flexibility Score: inf
ROOT
ATOM      1  C   UNL     1      -5.470  35.599  19.888  1.00  0.00    -0.003 A 
ATOM      2  C   UNL     1      -5.218  36.981  19.838  1.00  0.00     0.010 A 
ATOM      3  C   UNL     1      -5.926  35.035  21.092  1.00  0.00     0.010 A 
ATOM      4  C   UNL     1      -5.417  37.781  20.965  1.00  0.00     0.004 A 
ATOM      5  C   UNL     1      -6.125  35.835  22.220  1.00  0.00     0.004 A 
ATOM      6  C   UNL     1      -5.873  37.216  22.171  1.00  0.00    -0.045 A 
ENDROOT
BRANCH   1   7
ATOM      7  C   UNL     1      -5.257  34.757  18.692  1.00  0.00     0.071 C 
ATOM      8  O   UNL     1      -6.066  33.832  18.407  1.00  0.00    -0.545 OA
ATOM      9  O   UNL     1      -4.163  34.973  17.862  1.00  0.00    -0.545 OA
ENDBRANCH   1   7
BRANCH   6  10
ATOM     10  C   UNL     1      -6.095  38.073  23.404  1.00  0.00     0.013 C 
ATOM     11  C   UNL     1      -5.674  37.328  24.676  1.00  0.00     0.012 C 
ATOM     12  C   UNL     1      -5.363  39.414  23.284  1.00  0.00     0.012 C 
ENDBRANCH   6  10
TORSDOF 2
ENDMDL
MODEL 7
REMARK VINA RESULT:     0.027      1.724      2.814
REMARK INTER + INTRA:          -0.185
REMARK INTER:                   0.024
REMARK INTRA:                  -0.209
REMARK UNBOUND:                -0.215
REMARK SMILES CC(C)c1ccc(C(=O)[O-])cc1
REMARK SMILES IDX 7 1 6 2 11 3 5 4 12 5 4 6 8 7 9 8 10 9 2 10 1 11 3 12
REMARK H PARENT
REMARK Flexibility Score: inf
ROOT
ATOM      1  C   UNL     1      -5.762  36.402  23.199  1.00  0.00    -0.003 A 
ATOM      2  C   UNL     1      -5.537  35.064  22.833  1.00  0.00     0.010 A 
ATOM      3  C   UNL     1      -5.849  37.377  22.190  1.00  0.00     0.010 A 
ATOM      4  C   UNL     1      -5.402  34.708  21.489  1.00  0.00     0.004 A 
ATOM      5  C   UNL     1      -5.714  37.021  20.846  1.00  0.00     0.004 A 
ATOM      6  C   UNL     1      -5.489  35.683  20.479  1.00  0.00    -0.045 A 
ENDROOT
BRANCH   1   7
ATOM      7  C   UNL     1      -5.903  36.773  24.623  1.00  0.00     0.071 C 
ATOM      8  O   UNL     1      -6.113  35.890  25.498  1.00  0.00    -0.545 OA
ATOM      9  O   UNL     1      -5.806  38.102  25.019  1.00  0.00    -0.545 OA
ENDBRANCH   1   7
BRANCH   6  10
ATOM     10  C   UNL     1      -5.345  35.312  19.014  1.00  0.00     0.013 C 
ATOM     11  C   UNL     1      -3.869  35.173  18.623  1.00  0.00     0.012 C 
ATOM     12  C   UNL     1      -6.124  34.032  18.690  1.00  0.00     0.012 C 
ENDBRANCH   6  10
TORSDOF 2
ENDMDL
