MODEL 1
REMARK VINA RESULT:     0.854      0.000      0.000
REMARK INTER + INTRA:           1.324
REMARK INTER:                   1.054
REMARK INTRA:                   0.270
REMARK UNBOUND:                 0.270
REMARK SMILES C=C1[C@@H]2CC[C@H]3[C@H]2C(C)(C)CCC[C@@]13C
REMARK SMILES IDX 14 1 6 2 7 3 3 4 2 5 1 6 4 7 5 8 15 9 8 10 9 11 10 12 11 13
REMARK SMILES IDX 13 15 12 16
REMARK H PARENT
REMARK Flexibility Score: 80.00
ROOT
ATOM      1  C   UNL     1       7.356   7.288  12.033  1.00  0.00    -0.008 C 
ATOM      2  C   UNL     1       6.278   6.245  12.315  1.00  0.00     0.003 C 
ATOM      3  C   UNL     1       5.549   6.999  13.438  1.00  0.00     0.006 C 
ATOM      4  C   UNL     1       6.712   6.894  14.412  1.00  0.00     0.019 C 
ATOM      5  C   UNL     1       7.789   7.520  13.494  1.00  0.00    -0.068 C 
ATOM      6  C   UNL     1       8.859   8.205  13.907  1.00  0.00     0.009 C 
ATOM      7  C   UNL     1       6.992   5.401  14.476  1.00  0.00     0.008 C 
ATOM      8  C   UNL     1       6.762   4.957  13.031  1.00  0.00     0.005 C 
ATOM      9  C   UNL     1       8.501   6.753  11.151  1.00  0.00     0.016 C 
ENDROOT
BRANCH   3  10
ATOM     10  C   UNL     1       4.044   7.166  13.135  1.00  0.00    -0.032 C 
ATOM     11  C   UNL     1       3.320   7.700  14.395  1.00  0.00     0.011 C 
ATOM     12  C   UNL     1       3.359   5.833  12.745  1.00  0.00     0.011 C 
BRANCH  10  13
ATOM     13  C   UNL     1       3.934   8.235  11.944  1.00  0.00     0.007 CG0
ATOM     14  G   UNL     1       5.113   8.352  10.878  1.00  0.00     0.000 G0
ENDBRANCH  10  13
ENDBRANCH   3  10
BRANCH   1  15
ATOM     15  C   UNL     1       6.629   8.548  11.360  1.00  0.00     0.011 C 
BRANCH  15  16
ATOM     16  C   UNL     1       5.116   8.363  10.881  1.00  0.00     0.001 CG0
ATOM     17  G   UNL     1       3.933   8.228  11.940  1.00  0.00     0.000 G0
ENDBRANCH  15  16
ENDBRANCH   1  15
TORSDOF 0
ENDMDL
MODEL 2
REMARK VINA RESULT:     1.934      1.278      3.033
REMARK INTER + INTRA:           2.656
REMARK INTER:                   2.357
REMARK INTRA:                   0.299
REMARK UNBOUND:                 0.270
REMARK SMILES C=C1[C@@H]2CC[C@H]3[C@H]2C(C)(C)CCC[C@@]13C
REMARK SMILES IDX 14 1 6 2 7 3 3 4 2 5 1 6 4 7 5 8 15 9 8 10 9 11 10 12 11 13
REMARK SMILES IDX 13 15 12 16
REMARK H PARENT
REMARK Flexibility Score: 80.00
ROOT
ATOM      1  C   UNL     1       6.590   5.739  13.589  1.00  0.00    -0.008 C 
ATOM      2  C   UNL     1       6.456   7.224  13.918  1.00  0.00     0.003 C 
ATOM      3  C   UNL     1       6.386   7.749  12.476  1.00  0.00     0.006 C 
ATOM      4  C   UNL     1       7.821   7.366  12.151  1.00  0.00     0.019 C 
ATOM      5  C   UNL     1       7.714   5.872  12.543  1.00  0.00    -0.068 C 
ATOM      6  C   UNL     1       8.423   4.875  12.005  1.00  0.00     0.009 C 
ATOM      7  C   UNL     1       8.631   8.056  13.236  1.00  0.00     0.008 C 
ATOM      8  C   UNL     1       7.736   7.907  14.466  1.00  0.00     0.005 C 
ATOM      9  C   UNL     1       7.005   4.884  14.802  1.00  0.00     0.016 C 
ENDROOT
BRANCH   3  10
ATOM     10  C   UNL     1       5.123   8.606  12.239  1.00  0.00    -0.032 C 
ATOM     11  C   UNL     1       5.241   9.332  10.875  1.00  0.00     0.011 C 
ATOM     12  C   UNL     1       4.925   9.696  13.321  1.00  0.00     0.011 C 
BRANCH  10  13
ATOM     13  C   UNL     1       3.881   7.593  12.216  1.00  0.00     0.007 CG0
ATOM     14  G   UNL     1       3.948   6.243  13.061  1.00  0.00     0.000 G0
ENDBRANCH  10  13
ENDBRANCH   3  10
BRANCH   1  15
ATOM     15  C   UNL     1       5.186   5.262  12.981  1.00  0.00     0.011 C 
BRANCH  15  16
ATOM     16  C   UNL     1       3.952   6.272  13.080  1.00  0.00     0.001 CG0
ATOM     17  G   UNL     1       3.907   7.598  12.196  1.00  0.00     0.000 G0
ENDBRANCH  15  16
ENDBRANCH   1  15
TORSDOF 0
ENDMDL
MODEL 3
REMARK VINA RESULT:     2.059      0.889      3.744
REMARK INTER + INTRA:           2.811
REMARK INTER:                   2.529
REMARK INTRA:                   0.281
REMARK UNBOUND:                 0.270
REMARK SMILES C=C1[C@@H]2CC[C@H]3[C@H]2C(C)(C)CCC[C@@]13C
REMARK SMILES IDX 14 1 6 2 7 3 3 4 2 5 1 6 4 7 5 8 15 9 8 10 9 11 10 12 11 13
REMARK SMILES IDX 13 15 12 16
REMARK H PARENT
REMARK Flexibility Score: 80.00
ROOT
ATOM      1  C   UNL     1       4.468   7.125  13.100  1.00  0.00    -0.008 C 
ATOM      2  C   UNL     1       5.895   7.217  13.634  1.00  0.00     0.003 C 
ATOM      3  C   UNL     1       6.600   6.522  12.458  1.00  0.00     0.006 C 
ATOM      4  C   UNL     1       5.973   5.167  12.741  1.00  0.00     0.019 C 
ATOM      5  C   UNL     1       4.496   5.630  12.724  1.00  0.00    -0.068 C 
ATOM      6  C   UNL     1       3.450   4.879  12.369  1.00  0.00     0.009 C 
ATOM      7  C   UNL     1       6.340   4.898  14.191  1.00  0.00     0.008 C 
ATOM      8  C   UNL     1       6.226   6.283  14.827  1.00  0.00     0.005 C 
ATOM      9  C   UNL     1       3.400   7.450  14.163  1.00  0.00     0.016 C 
ENDROOT
BRANCH   3  10
ATOM     10  C   UNL     1       7.721   7.401  11.862  1.00  0.00    -0.032 C 
ATOM     11  C   UNL     1       8.567   6.559  10.875  1.00  0.00     0.011 C 
ATOM     12  C   UNL     1       8.689   7.952  12.939  1.00  0.00     0.011 C 
BRANCH  10  13
ATOM     13  C   UNL     1       6.996   8.599  11.081  1.00  0.00     0.007 CG0
ATOM     14  G   UNL     1       5.580   9.129  11.586  1.00  0.00     0.000 G0
ENDBRANCH  10  13
ENDBRANCH   3  10
BRANCH   1  15
ATOM     15  C   UNL     1       4.370   8.113  11.842  1.00  0.00     0.011 C 
BRANCH  15  16
ATOM     16  C   UNL     1       5.580   9.126  11.597  1.00  0.00     0.001 CG0
ATOM     17  G   UNL     1       6.994   8.602  11.081  1.00  0.00     0.000 G0
ENDBRANCH  15  16
ENDBRANCH   1  15
TORSDOF 0
ENDMDL
MODEL 4
REMARK VINA RESULT:     3.467      1.867      4.341
REMARK INTER + INTRA:           4.548
REMARK INTER:                   4.282
REMARK INTRA:                   0.266
REMARK UNBOUND:                 0.270
REMARK SMILES C=C1[C@@H]2CC[C@H]3[C@H]2C(C)(C)CCC[C@@]13C
REMARK SMILES IDX 14 1 6 2 7 3 3 4 2 5 1 6 4 7 5 8 15 9 8 10 9 11 10 12 11 13
REMARK SMILES IDX 13 15 12 16
REMARK H PARENT
REMARK Flexibility Score: 80.00
ROOT
ATOM      1  C   UNL     1       4.637   6.121  12.756  1.00  0.00    -0.008 C 
ATOM      2  C   UNL     1       5.622   6.829  11.828  1.00  0.00     0.003 C 
ATOM      3  C   UNL     1       6.319   7.694  12.889  1.00  0.00     0.006 C 
ATOM      4  C   UNL     1       5.088   8.542  13.165  1.00  0.00     0.019 C 
ATOM      5  C   UNL     1       4.120   7.377  13.485  1.00  0.00    -0.068 C 
ATOM      6  C   UNL     1       3.072   7.442  14.311  1.00  0.00     0.009 C 
ATOM      7  C   UNL     1       4.705   9.075  11.794  1.00  0.00     0.008 C 
ATOM      8  C   UNL     1       5.005   7.888  10.879  1.00  0.00     0.005 C 
ATOM      9  C   UNL     1       3.523   5.371  12.000  1.00  0.00     0.016 C 
ENDROOT
BRANCH   3  10
ATOM     10  C   UNL     1       7.849   7.486  12.884  1.00  0.00    -0.032 C 
ATOM     11  C   UNL     1       8.518   8.545  13.795  1.00  0.00     0.011 C 
ATOM     12  C   UNL     1       8.472   7.638  11.474  1.00  0.00     0.011 C 
BRANCH  10  13
ATOM     13  C   UNL     1       8.112   6.015  13.467  1.00  0.00     0.007 CG0
ATOM     14  G   UNL     1       7.003   4.885  13.285  1.00  0.00     0.000 G0
ENDBRANCH  10  13
ENDBRANCH   3  10
BRANCH   1  15
ATOM     15  C   UNL     1       5.492   5.132  13.684  1.00  0.00     0.011 C 
BRANCH  15  16
ATOM     16  C   UNL     1       7.019   4.880  13.292  1.00  0.00     0.001 CG0
ATOM     17  G   UNL     1       8.112   6.025  13.482  1.00  0.00     0.000 G0
ENDBRANCH  15  16
ENDBRANCH   1  15
TORSDOF 0
ENDMDL
