MODEL 1
REMARK VINA RESULT:    -3.949      0.000      0.000
REMARK INTER + INTRA:          -4.977
REMARK INTER:                  -4.757
REMARK INTRA:                  -0.220
REMARK UNBOUND:                -0.220
REMARK SMILES OCC(O)CO
REMARK SMILES IDX 3 1 5 2 6 3 2 5 1 6 4 8
REMARK H PARENT 6 4 1 7 4 9
REMARK Flexibility Score: inf
ROOT
ATOM      1  C   UNL     1       7.606   1.908  20.583  1.00  0.00     0.165 C 
ENDROOT
BRANCH   1   2
ATOM      2  C   UNL     1       8.054   2.258  19.156  1.00  0.00     0.190 C 
BRANCH   2   3
ATOM      3  O   UNL     1       7.986   1.135  18.319  1.00  0.00    -0.394 OA
ATOM      4  H   UNL     1       7.067   0.769  18.407  1.00  0.00     0.210 HD
ENDBRANCH   2   3
ENDBRANCH   1   2
BRANCH   1   5
ATOM      5  C   UNL     1       8.724   1.191  21.353  1.00  0.00     0.190 C 
BRANCH   5   6
ATOM      6  O   UNL     1       9.037  -0.018  20.718  1.00  0.00    -0.394 OA
ATOM      7  H   UNL     1       8.200  -0.324  20.279  1.00  0.00     0.210 HD
ENDBRANCH   5   6
ENDBRANCH   1   5
BRANCH   1   8
ATOM      8  O   UNL     1       6.473   1.081  20.508  1.00  0.00    -0.388 OA
ATOM      9  H   UNL     1       6.770   0.163  20.742  1.00  0.00     0.211 HD
ENDBRANCH   1   8
TORSDOF 5
ENDMDL
MODEL 2
REMARK VINA RESULT:    -3.907      0.634      2.442
REMARK INTER + INTRA:          -4.926
REMARK INTER:                  -4.707
REMARK INTRA:                  -0.219
REMARK UNBOUND:                -0.220
REMARK SMILES OCC(O)CO
REMARK SMILES IDX 3 1 5 2 6 3 2 5 1 6 4 8
REMARK H PARENT 6 4 1 7 4 9
REMARK Flexibility Score: inf
ROOT
ATOM      1  C   UNL     1       8.150   2.092  19.484  1.00  0.00     0.165 C 
ENDROOT
BRANCH   1   2
ATOM      2  C   UNL     1       9.069   1.546  20.586  1.00  0.00     0.190 C 
BRANCH   2   3
ATOM      3  O   UNL     1       9.043   0.144  20.613  1.00  0.00    -0.394 OA
ATOM      4  H   UNL     1       9.974  -0.161  20.448  1.00  0.00     0.210 HD
ENDBRANCH   2   3
ENDBRANCH   1   2
BRANCH   1   5
ATOM      5  C   UNL     1       6.744   2.377  20.028  1.00  0.00     0.190 C 
BRANCH   5   6
ATOM      6  O   UNL     1       6.241   1.236  20.666  1.00  0.00    -0.394 OA
ATOM      7  H   UNL     1       7.010   0.825  21.142  1.00  0.00     0.210 HD
ENDBRANCH   5   6
ENDBRANCH   1   5
BRANCH   1   8
ATOM      8  O   UNL     1       8.077   1.145  18.449  1.00  0.00    -0.388 OA
ATOM      9  H   UNL     1       8.827   0.509  18.586  1.00  0.00     0.211 HD
ENDBRANCH   1   8
TORSDOF 5
ENDMDL
MODEL 3
REMARK VINA RESULT:    -3.847      7.817      8.188
REMARK INTER + INTRA:          -4.854
REMARK INTER:                  -4.631
REMARK INTRA:                  -0.223
REMARK UNBOUND:                -0.220
REMARK SMILES OCC(O)CO
REMARK SMILES IDX 3 1 5 2 6 3 2 5 1 6 4 8
REMARK H PARENT 6 4 1 7 4 9
REMARK Flexibility Score: inf
ROOT
ATOM      1  C   UNL     1      10.253   6.141  24.957  1.00  0.00     0.165 C 
ENDROOT
BRANCH   1   2
ATOM      2  C   UNL     1      10.793   7.243  24.035  1.00  0.00     0.190 C 
BRANCH   2   3
ATOM      3  O   UNL     1      11.005   8.434  24.746  1.00  0.00    -0.394 OA
ATOM      4  H   UNL     1      11.388   8.176  25.625  1.00  0.00     0.210 HD
ENDBRANCH   2   3
ENDBRANCH   1   2
BRANCH   1   5
ATOM      5  C   UNL     1       8.726   6.231  25.091  1.00  0.00     0.190 C 
BRANCH   5   6
ATOM      6  O   UNL     1       8.360   7.522  25.492  1.00  0.00    -0.394 OA
ATOM      7  H   UNL     1       8.400   8.086  24.676  1.00  0.00     0.210 HD
ENDBRANCH   5   6
ENDBRANCH   1   5
BRANCH   1   8
ATOM      8  O   UNL     1      10.850   6.280  26.221  1.00  0.00    -0.388 OA
ATOM      9  H   UNL     1      11.757   6.653  26.073  1.00  0.00     0.211 HD
ENDBRANCH   1   8
TORSDOF 5
ENDMDL
MODEL 4
REMARK VINA RESULT:    -3.802      0.607      2.511
REMARK INTER + INTRA:          -4.800
REMARK INTER:                  -4.576
REMARK INTRA:                  -0.224
REMARK UNBOUND:                -0.220
REMARK SMILES OCC(O)CO
REMARK SMILES IDX 3 1 5 2 6 3 2 5 1 6 4 8
REMARK H PARENT 6 4 1 7 4 9
REMARK Flexibility Score: inf
ROOT
ATOM      1  C   UNL     1       8.614   1.702  20.528  1.00  0.00     0.165 C 
ENDROOT
BRANCH   1   2
ATOM      2  C   UNL     1       7.356   1.640  21.406  1.00  0.00     0.190 C 
BRANCH   2   3
ATOM      3  O   UNL     1       6.235   1.259  20.654  1.00  0.00    -0.394 OA
ATOM      4  H   UNL     1       6.131   0.279  20.774  1.00  0.00     0.210 HD
ENDBRANCH   2   3
ENDBRANCH   1   2
BRANCH   1   5
ATOM      5  C   UNL     1       8.279   2.211  19.118  1.00  0.00     0.190 C 
BRANCH   5   6
ATOM      6  O   UNL     1       7.978   1.128  18.282  1.00  0.00    -0.394 OA
ATOM      7  H   UNL     1       8.682   1.117  17.582  1.00  0.00     0.210 HD
ENDBRANCH   5   6
ENDBRANCH   1   5
BRANCH   1   8
ATOM      8  O   UNL     1       9.171   0.415  20.449  1.00  0.00    -0.388 OA
ATOM      9  H   UNL     1       9.000  -0.027  21.320  1.00  0.00     0.211 HD
ENDBRANCH   1   8
TORSDOF 5
ENDMDL
MODEL 5
REMARK VINA RESULT:    -3.777      7.707      8.144
REMARK INTER + INTRA:          -4.770
REMARK INTER:                  -4.547
REMARK INTRA:                  -0.223
REMARK UNBOUND:                -0.220
REMARK SMILES OCC(O)CO
REMARK SMILES IDX 3 1 5 2 6 3 2 5 1 6 4 8
REMARK H PARENT 6 4 1 7 4 9
REMARK Flexibility Score: inf
ROOT
ATOM      1  C   UNL     1       9.484   6.681  24.373  1.00  0.00     0.165 C 
ENDROOT
BRANCH   1   2
ATOM      2  C   UNL     1       9.937   5.591  25.355  1.00  0.00     0.190 C 
BRANCH   2   3
ATOM      3  O   UNL     1      10.924   6.077  26.225  1.00  0.00    -0.394 OA
ATOM      4  H   UNL     1      10.651   6.997  26.479  1.00  0.00     0.210 HD
ENDBRANCH   2   3
ENDBRANCH   1   2
BRANCH   1   5
ATOM      5  C   UNL     1      10.686   7.452  23.810  1.00  0.00     0.190 C 
BRANCH   5   6
ATOM      6  O   UNL     1      11.011   8.514  24.663  1.00  0.00    -0.394 OA
ATOM      7  H   UNL     1      10.180   9.049  24.764  1.00  0.00     0.210 HD
ENDBRANCH   5   6
ENDBRANCH   1   5
BRANCH   1   8
ATOM      8  O   UNL     1       8.626   7.565  25.047  1.00  0.00    -0.388 OA
ATOM      9  H   UNL     1       8.920   7.588  25.994  1.00  0.00     0.211 HD
ENDBRANCH   1   8
TORSDOF 5
ENDMDL
MODEL 6
REMARK VINA RESULT:    -3.751     11.074     11.781
REMARK INTER + INTRA:          -4.738
REMARK INTER:                  -4.711
REMARK INTRA:                  -0.027
REMARK UNBOUND:                -0.220
REMARK SMILES OCC(O)CO
REMARK SMILES IDX 3 1 5 2 6 3 2 5 1 6 4 8
REMARK H PARENT 6 4 1 7 4 9
REMARK Flexibility Score: inf
ROOT
ATOM      1  C   UNL     1       4.292  12.219  20.993  1.00  0.00     0.165 C 
ENDROOT
BRANCH   1   2
ATOM      2  C   UNL     1       3.974  13.231  22.103  1.00  0.00     0.190 C 
BRANCH   2   3
ATOM      3  O   UNL     1       4.131  12.653  23.371  1.00  0.00    -0.394 OA
ATOM      4  H   UNL     1       3.249  12.269  23.619  1.00  0.00     0.210 HD
ENDBRANCH   2   3
ENDBRANCH   1   2
BRANCH   1   5
ATOM      5  C   UNL     1       3.006  11.681  20.351  1.00  0.00     0.190 C 
BRANCH   5   6
ATOM      6  O   UNL     1       2.737  10.393  20.831  1.00  0.00    -0.394 OA
ATOM      7  H   UNL     1       2.319  10.514  21.724  1.00  0.00     0.210 HD
ENDBRANCH   5   6
ENDBRANCH   1   5
BRANCH   1   8
ATOM      8  O   UNL     1       5.025  11.157  21.550  1.00  0.00    -0.388 OA
ATOM      9  H   UNL     1       4.911  11.212  22.534  1.00  0.00     0.211 HD
ENDBRANCH   1   8
TORSDOF 5
ENDMDL
MODEL 7
REMARK VINA RESULT:    -3.707      7.699      8.725
REMARK INTER + INTRA:          -4.686
REMARK INTER:                  -4.483
REMARK INTRA:                  -0.203
REMARK UNBOUND:                -0.220
REMARK SMILES OCC(O)CO
REMARK SMILES IDX 3 1 5 2 6 3 2 5 1 6 4 8
REMARK H PARENT 6 4 1 7 4 9
REMARK Flexibility Score: inf
ROOT
ATOM      1  C   UNL     1      16.477  -0.535  18.758  1.00  0.00     0.165 C 
ENDROOT
BRANCH   1   2
ATOM      2  C   UNL     1      17.509   0.038  19.740  1.00  0.00     0.190 C 
BRANCH   2   3
ATOM      3  O   UNL     1      16.929   0.282  20.993  1.00  0.00    -0.394 OA
ATOM      4  H   UNL     1      16.125   0.842  20.830  1.00  0.00     0.210 HD
ENDBRANCH   2   3
ENDBRANCH   1   2
BRANCH   1   5
ATOM      5  C   UNL     1      15.665   0.586  18.094  1.00  0.00     0.190 C 
BRANCH   5   6
ATOM      6  O   UNL     1      14.705   1.072  18.990  1.00  0.00    -0.394 OA
ATOM      7  H   UNL     1      14.383   1.931  18.610  1.00  0.00     0.210 HD
ENDBRANCH   5   6
ENDBRANCH   1   5
BRANCH   1   8
ATOM      8  O   UNL     1      15.615  -1.394  19.461  1.00  0.00    -0.388 OA
ATOM      9  H   UNL     1      14.689  -1.135  19.218  1.00  0.00     0.211 HD
ENDBRANCH   1   8
TORSDOF 5
ENDMDL
MODEL 8
REMARK VINA RESULT:    -3.641      1.712      2.181
REMARK INTER + INTRA:          -4.606
REMARK INTER:                  -4.386
REMARK INTRA:                  -0.220
REMARK UNBOUND:                -0.220
REMARK SMILES OCC(O)CO
REMARK SMILES IDX 3 1 5 2 6 3 2 5 1 6 4 8
REMARK H PARENT 6 4 1 7 4 9
REMARK Flexibility Score: inf
ROOT
ATOM      1  C   UNL     1       6.941   2.898  19.755  1.00  0.00     0.165 C 
ENDROOT
BRANCH   1   2
ATOM      2  C   UNL     1       6.771   3.506  18.356  1.00  0.00     0.190 C 
BRANCH   2   3
ATOM      3  O   UNL     1       5.763   2.845  17.639  1.00  0.00    -0.394 OA
ATOM      4  H   UNL     1       6.218   2.301  16.944  1.00  0.00     0.210 HD
ENDBRANCH   2   3
ENDBRANCH   1   2
BRANCH   1   5
ATOM      5  C   UNL     1       7.884   1.687  19.720  1.00  0.00     0.190 C 
BRANCH   5   6
ATOM      6  O   UNL     1       7.969   1.189  18.414  1.00  0.00    -0.394 OA
ATOM      7  H   UNL     1       7.765   0.219  18.475  1.00  0.00     0.210 HD
ENDBRANCH   5   6
ENDBRANCH   1   5
BRANCH   1   8
ATOM      8  O   UNL     1       5.679   2.503  20.231  1.00  0.00    -0.388 OA
ATOM      9  H   UNL     1       5.250   1.976  19.508  1.00  0.00     0.211 HD
ENDBRANCH   1   8
TORSDOF 5
ENDMDL
MODEL 9
REMARK VINA RESULT:    -3.634     10.955     11.550
REMARK INTER + INTRA:          -4.598
REMARK INTER:                  -4.387
REMARK INTRA:                  -0.211
REMARK UNBOUND:                -0.220
REMARK SMILES OCC(O)CO
REMARK SMILES IDX 3 1 5 2 6 3 2 5 1 6 4 8
REMARK H PARENT 6 4 1 7 4 9
REMARK Flexibility Score: inf
ROOT
ATOM      1  C   UNL     1       3.955  12.340  20.860  1.00  0.00     0.165 C 
ENDROOT
BRANCH   1   2
ATOM      2  C   UNL     1       5.380  11.890  20.507  1.00  0.00     0.190 C 
BRANCH   2   3
ATOM      3  O   UNL     1       5.758  10.775  21.268  1.00  0.00    -0.394 OA
ATOM      4  H   UNL     1       5.483   9.972  20.752  1.00  0.00     0.210 HD
ENDBRANCH   2   3
ENDBRANCH   1   2
BRANCH   1   5
ATOM      5  C   UNL     1       3.956  13.268  22.083  1.00  0.00     0.190 C 
BRANCH   5   6
ATOM      6  O   UNL     1       4.205  12.524  23.243  1.00  0.00    -0.394 OA
ATOM      7  H   UNL     1       4.759  13.104  23.829  1.00  0.00     0.210 HD
ENDBRANCH   5   6
ENDBRANCH   1   5
BRANCH   1   8
ATOM      8  O   UNL     1       3.177  11.202  21.128  1.00  0.00    -0.388 OA
ATOM      9  H   UNL     1       2.241  11.429  20.890  1.00  0.00     0.211 HD
ENDBRANCH   1   8
TORSDOF 5
ENDMDL
