MODEL 1
REMARK VINA RESULT:    -9.038      0.000      0.000
REMARK INTER + INTRA:          -9.894
REMARK INTER:                  -9.831
REMARK INTRA:                  -0.063
REMARK UNBOUND:                -0.063
REMARK SMILES CC(=O)[C@@H]1CC[C@@H]2[C@H]3CC=C4C[C@@H](O)CC[C@]4(C)[C@@H]3CC[C@]21C
REMARK SMILES IDX 4 1 5 2 6 3 7 4 22 5 21 6 20 7 19 8 8 9 9 10 10 11 11 12
REMARK SMILES IDX 17 13 16 14 15 15 13 16 12 17 18 18 23 19 2 20 1 21 3 22
REMARK SMILES IDX 14 23
REMARK H PARENT 14 24
REMARK Flexibility Score: inf
ROOT
ATOM      1  C   UNL     1      16.205  -2.314  19.046  1.00  0.00     0.062 C 
ATOM      2  C   UNL     1      16.113  -0.907  18.404  1.00  0.00     0.012 C 
ATOM      3  C   UNL     1      17.279  -0.087  18.988  1.00  0.00     0.005 C 
ATOM      4  C   UNL     1      17.854  -0.981  20.081  1.00  0.00    -0.001 C 
ATOM      5  C   UNL     1      17.662  -2.409  19.557  1.00  0.00    -0.020 C 
ATOM      6  C   UNL     1      17.862  -3.372  20.747  1.00  0.00     0.008 C 
ATOM      7  C   UNL     1      19.268  -3.197  21.367  1.00  0.00     0.005 C 
ATOM      8  C   UNL     1      19.604  -1.714  21.748  1.00  0.00     0.003 C 
ATOM      9  C   UNL     1      19.285  -0.713  20.596  1.00  0.00     0.000 C 
ATOM     10  C   UNL     1      19.389   0.711  21.156  1.00  0.00     0.031 C 
ATOM     11  C   UNL     1      20.742   0.953  21.750  1.00  0.00    -0.027 C 
ATOM     12  C   UNL     1      21.485  -0.020  22.319  1.00  0.00    -0.065 C 
ATOM     13  C   UNL     1      21.063  -1.504  22.330  1.00  0.00    -0.008 C 
ATOM     14  C   UNL     1      22.129  -2.291  21.504  1.00  0.00     0.014 C 
ATOM     15  C   UNL     1      23.590  -1.966  21.886  1.00  0.00     0.033 C 
ATOM     16  C   UNL     1      23.881  -0.460  21.835  1.00  0.00     0.118 C 
ATOM     17  C   UNL     1      22.904   0.310  22.732  1.00  0.00     0.063 C 
ATOM     18  C   UNL     1      21.066  -2.008  23.798  1.00  0.00     0.016 C 
ATOM     19  C   UNL     1      18.630  -2.778  18.387  1.00  0.00     0.012 C 
ENDROOT
BRANCH   1  20
ATOM     20  C   UNL     1      15.767  -3.444  18.130  1.00  0.00     0.133 C 
ATOM     21  C   UNL     1      15.733  -4.860  18.623  1.00  0.00     0.088 C 
ATOM     22  O   UNL     1      15.449  -3.216  16.972  1.00  0.00    -0.300 OA
ENDBRANCH   1  20
BRANCH  16  23
ATOM     23  O   UNL     1      25.200  -0.234  22.258  1.00  0.00    -0.393 OA
ATOM     24  H   UNL     1      25.601  -1.127  22.430  1.00  0.00     0.210 HD
ENDBRANCH  16  23
TORSDOF 2
ENDMDL
MODEL 2
REMARK VINA RESULT:    -8.035      1.364      6.832
REMARK INTER + INTRA:          -8.803
REMARK INTER:                  -8.991
REMARK INTRA:                   0.188
REMARK UNBOUND:                -0.063
REMARK SMILES CC(=O)[C@@H]1CC[C@@H]2[C@H]3CC=C4C[C@@H](O)CC[C@]4(C)[C@@H]3CC[C@]21C
REMARK SMILES IDX 4 1 5 2 6 3 7 4 22 5 21 6 20 7 19 8 8 9 9 10 10 11 11 12
REMARK SMILES IDX 17 13 16 14 15 15 13 16 12 17 18 18 23 19 2 20 1 21 3 22
REMARK SMILES IDX 14 23
REMARK H PARENT 14 24
REMARK Flexibility Score: inf
ROOT
ATOM      1  C   UNL     1      21.709   0.287  21.870  1.00  0.00     0.062 C 
ATOM      2  C   UNL     1      20.682   1.119  22.677  1.00  0.00     0.012 C 
ATOM      3  C   UNL     1      19.297   0.787  22.089  1.00  0.00     0.005 C 
ATOM      4  C   UNL     1      19.607  -0.050  20.853  1.00  0.00    -0.001 C 
ATOM      5  C   UNL     1      20.868  -0.839  21.222  1.00  0.00    -0.020 C 
ATOM      6  C   UNL     1      21.459  -1.410  19.915  1.00  0.00     0.008 C 
ATOM      7  C   UNL     1      20.433  -2.316  19.196  1.00  0.00     0.005 C 
ATOM      8  C   UNL     1      19.046  -1.627  18.962  1.00  0.00     0.003 C 
ATOM      9  C   UNL     1      18.496  -0.934  20.246  1.00  0.00     0.000 C 
ATOM     10  C   UNL     1      17.291  -0.074  19.847  1.00  0.00     0.031 C 
ATOM     11  C   UNL     1      16.246  -0.901  19.167  1.00  0.00    -0.027 C 
ATOM     12  C   UNL     1      16.534  -1.992  18.424  1.00  0.00    -0.065 C 
ATOM     13  C   UNL     1      17.961  -2.559  18.279  1.00  0.00    -0.008 C 
ATOM     14  C   UNL     1      17.953  -3.988  18.909  1.00  0.00     0.014 C 
ATOM     15  C   UNL     1      16.785  -4.880  18.438  1.00  0.00     0.033 C 
ATOM     16  C   UNL     1      15.422  -4.203  18.637  1.00  0.00     0.118 C 
ATOM     17  C   UNL     1      15.384  -2.844  17.926  1.00  0.00     0.063 C 
ATOM     18  C   UNL     1      18.302  -2.657  16.769  1.00  0.00     0.016 C 
ATOM     19  C   UNL     1      20.605  -1.987  22.250  1.00  0.00     0.012 C 
ENDROOT
BRANCH   1  20
ATOM     20  C   UNL     1      22.902  -0.185  22.684  1.00  0.00     0.133 C 
ATOM     21  C   UNL     1      24.301   0.017  22.181  1.00  0.00     0.088 C 
ATOM     22  O   UNL     1      22.737  -0.751  23.755  1.00  0.00    -0.300 OA
ENDBRANCH   1  20
BRANCH  16  23
ATOM     23  O   UNL     1      14.417  -5.038  18.126  1.00  0.00    -0.393 OA
ATOM     24  H   UNL     1      13.881  -4.488  17.496  1.00  0.00     0.210 HD
ENDBRANCH  16  23
TORSDOF 2
ENDMDL
MODEL 3
REMARK VINA RESULT:    -7.771      1.533      2.302
REMARK INTER + INTRA:          -8.516
REMARK INTER:                  -8.501
REMARK INTRA:                  -0.015
REMARK UNBOUND:                -0.063
REMARK SMILES CC(=O)[C@@H]1CC[C@@H]2[C@H]3CC=C4C[C@@H](O)CC[C@]4(C)[C@@H]3CC[C@]21C
REMARK SMILES IDX 4 1 5 2 6 3 7 4 22 5 21 6 20 7 19 8 8 9 9 10 10 11 11 12
REMARK SMILES IDX 17 13 16 14 15 15 13 16 12 17 18 18 23 19 2 20 1 21 3 22
REMARK SMILES IDX 14 23
REMARK H PARENT 14 24
REMARK Flexibility Score: inf
ROOT
ATOM      1  C   UNL     1      16.397  -3.537  17.743  1.00  0.00     0.062 C 
ATOM      2  C   UNL     1      17.419  -3.652  16.584  1.00  0.00     0.012 C 
ATOM      3  C   UNL     1      18.700  -2.943  17.064  1.00  0.00     0.005 C 
ATOM      4  C   UNL     1      18.292  -2.281  18.376  1.00  0.00    -0.001 C 
ATOM      5  C   UNL     1      17.262  -3.236  18.990  1.00  0.00    -0.020 C 
ATOM      6  C   UNL     1      16.526  -2.470  20.110  1.00  0.00     0.008 C 
ATOM      7  C   UNL     1      17.523  -1.971  21.182  1.00  0.00     0.005 C 
ATOM      8  C   UNL     1      18.716  -1.145  20.590  1.00  0.00     0.003 C 
ATOM      9  C   UNL     1      19.389  -1.851  19.374  1.00  0.00     0.000 C 
ATOM     10  C   UNL     1      20.348  -0.855  18.711  1.00  0.00     0.031 C 
ATOM     11  C   UNL     1      21.358  -0.352  19.695  1.00  0.00    -0.027 C 
ATOM     12  C   UNL     1      21.105  -0.224  21.015  1.00  0.00    -0.065 C 
ATOM     13  C   UNL     1      19.781  -0.675  21.666  1.00  0.00    -0.008 C 
ATOM     14  C   UNL     1      20.130  -1.820  22.668  1.00  0.00     0.014 C 
ATOM     15  C   UNL     1      21.310  -1.499  23.610  1.00  0.00     0.033 C 
ATOM     16  C   UNL     1      22.564  -1.065  22.840  1.00  0.00     0.118 C 
ATOM     17  C   UNL     1      22.255   0.134  21.934  1.00  0.00     0.063 C 
ATOM     18  C   UNL     1      19.176   0.527  22.439  1.00  0.00     0.016 C 
ATOM     19  C   UNL     1      17.891  -4.553  19.551  1.00  0.00     0.012 C 
ENDROOT
BRANCH   1  20
ATOM     20  C   UNL     1      15.470  -4.733  17.873  1.00  0.00     0.133 C 
ATOM     21  C   UNL     1      15.398  -5.769  16.790  1.00  0.00     0.088 C 
ATOM     22  O   UNL     1      14.757  -4.862  18.858  1.00  0.00    -0.300 OA
ENDBRANCH   1  20
BRANCH  16  23
ATOM     23  O   UNL     1      23.570  -0.723  23.759  1.00  0.00    -0.393 OA
ATOM     24  H   UNL     1      23.240   0.067  24.262  1.00  0.00     0.210 HD
ENDBRANCH  16  23
TORSDOF 2
ENDMDL
MODEL 4
REMARK VINA RESULT:    -7.156     17.362     19.395
REMARK INTER + INTRA:          -7.847
REMARK INTER:                  -7.661
REMARK INTRA:                  -0.185
REMARK UNBOUND:                -0.063
REMARK SMILES CC(=O)[C@@H]1CC[C@@H]2[C@H]3CC=C4C[C@@H](O)CC[C@]4(C)[C@@H]3CC[C@]21C
REMARK SMILES IDX 4 1 5 2 6 3 7 4 22 5 21 6 20 7 19 8 8 9 9 10 10 11 11 12
REMARK SMILES IDX 17 13 16 14 15 15 13 16 12 17 18 18 23 19 2 20 1 21 3 22
REMARK SMILES IDX 14 23
REMARK H PARENT 14 24
REMARK Flexibility Score: inf
ROOT
ATOM      1  C   UNL     1      19.947 -13.807   5.597  1.00  0.00     0.062 C 
ATOM      2  C   UNL     1      19.434 -14.839   4.562  1.00  0.00     0.012 C 
ATOM      3  C   UNL     1      18.774 -15.973   5.369  1.00  0.00     0.005 C 
ATOM      4  C   UNL     1      19.117 -15.648   6.819  1.00  0.00    -0.001 C 
ATOM      5  C   UNL     1      19.139 -14.117   6.880  1.00  0.00    -0.020 C 
ATOM      6  C   UNL     1      19.843 -13.714   8.193  1.00  0.00     0.008 C 
ATOM      7  C   UNL     1      19.105 -14.304   9.418  1.00  0.00     0.005 C 
ATOM      8  C   UNL     1      18.876 -15.851   9.324  1.00  0.00     0.003 C 
ATOM      9  C   UNL     1      18.282 -16.288   7.950  1.00  0.00     0.000 C 
ATOM     10  C   UNL     1      18.352 -17.817   7.861  1.00  0.00     0.031 C 
ATOM     11  C   UNL     1      17.631 -18.451   9.009  1.00  0.00    -0.027 C 
ATOM     12  C   UNL     1      17.533 -17.879  10.228  1.00  0.00    -0.065 C 
ATOM     13  C   UNL     1      18.069 -16.467  10.541  1.00  0.00    -0.008 C 
ATOM     14  C   UNL     1      16.839 -15.583  10.920  1.00  0.00     0.014 C 
ATOM     15  C   UNL     1      15.892 -16.227  11.956  1.00  0.00     0.033 C 
ATOM     16  C   UNL     1      15.430 -17.627  11.526  1.00  0.00     0.118 C 
ATOM     17  C   UNL     1      16.637 -18.535  11.259  1.00  0.00     0.063 C 
ATOM     18  C   UNL     1      19.035 -16.562  11.752  1.00  0.00     0.016 C 
ATOM     19  C   UNL     1      17.717 -13.470   6.801  1.00  0.00     0.012 C 
ENDROOT
BRANCH   1  20
ATOM     20  C   UNL     1      19.879 -12.366   5.123  1.00  0.00     0.133 C 
ATOM     21  C   UNL     1      19.130 -12.004   3.875  1.00  0.00     0.088 C 
ATOM     22  O   UNL     1      20.448 -11.481   5.746  1.00  0.00    -0.300 OA
ENDBRANCH   1  20
BRANCH  16  23
ATOM     23  O   UNL     1      14.633 -18.177  12.542  1.00  0.00    -0.393 OA
ATOM     24  H   UNL     1      13.772 -18.437  12.120  1.00  0.00     0.210 HD
ENDBRANCH  16  23
TORSDOF 2
ENDMDL
MODEL 5
REMARK VINA RESULT:    -6.890      2.034      3.651
REMARK INTER + INTRA:          -7.557
REMARK INTER:                  -8.060
REMARK INTRA:                   0.503
REMARK UNBOUND:                -0.063
REMARK SMILES CC(=O)[C@@H]1CC[C@@H]2[C@H]3CC=C4C[C@@H](O)CC[C@]4(C)[C@@H]3CC[C@]21C
REMARK SMILES IDX 4 1 5 2 6 3 7 4 22 5 21 6 20 7 19 8 8 9 9 10 10 11 11 12
REMARK SMILES IDX 17 13 16 14 15 15 13 16 12 17 18 18 23 19 2 20 1 21 3 22
REMARK SMILES IDX 14 23
REMARK H PARENT 14 24
REMARK Flexibility Score: inf
ROOT
ATOM      1  C   UNL     1      15.674  -0.820  17.873  1.00  0.00     0.062 C 
ATOM      2  C   UNL     1      15.383  -2.262  17.387  1.00  0.00     0.012 C 
ATOM      3  C   UNL     1      16.524  -3.141  17.932  1.00  0.00     0.005 C 
ATOM      4  C   UNL     1      17.515  -2.145  18.522  1.00  0.00    -0.001 C 
ATOM      5  C   UNL     1      16.646  -1.004  19.063  1.00  0.00    -0.020 C 
ATOM      6  C   UNL     1      17.572   0.203  19.326  1.00  0.00     0.008 C 
ATOM      7  C   UNL     1      18.685  -0.167  20.334  1.00  0.00     0.005 C 
ATOM      8  C   UNL     1      19.490  -1.450  19.933  1.00  0.00     0.003 C 
ATOM      9  C   UNL     1      18.564  -2.641  19.541  1.00  0.00     0.000 C 
ATOM     10  C   UNL     1      19.434  -3.739  18.915  1.00  0.00     0.031 C 
ATOM     11  C   UNL     1      20.519  -4.160  19.856  1.00  0.00    -0.027 C 
ATOM     12  C   UNL     1      21.081  -3.327  20.758  1.00  0.00    -0.065 C 
ATOM     13  C   UNL     1      20.597  -1.880  20.983  1.00  0.00    -0.008 C 
ATOM     14  C   UNL     1      20.062  -1.798  22.448  1.00  0.00     0.014 C 
ATOM     15  C   UNL     1      21.014  -2.400  23.504  1.00  0.00     0.033 C 
ATOM     16  C   UNL     1      21.419  -3.841  23.164  1.00  0.00     0.118 C 
ATOM     17  C   UNL     1      22.049  -3.911  21.767  1.00  0.00     0.063 C 
ATOM     18  C   UNL     1      21.807  -0.923  20.817  1.00  0.00     0.016 C 
ATOM     19  C   UNL     1      15.859  -1.382  20.360  1.00  0.00     0.012 C 
ENDROOT
BRANCH   1  20
ATOM     20  C   UNL     1      14.428  -0.004  18.177  1.00  0.00     0.133 C 
ATOM     21  C   UNL     1      14.015   1.125  17.280  1.00  0.00     0.088 C 
ATOM     22  O   UNL     1      13.753  -0.247  19.167  1.00  0.00    -0.300 OA
ENDBRANCH   1  20
BRANCH  16  23
ATOM     23  O   UNL     1      22.335  -4.297  24.125  1.00  0.00    -0.393 OA
ATOM     24  H   UNL     1      23.120  -4.648  23.627  1.00  0.00     0.210 HD
ENDBRANCH  16  23
TORSDOF 2
ENDMDL
MODEL 6
REMARK VINA RESULT:    -6.865      1.737      3.192
REMARK INTER + INTRA:          -7.530
REMARK INTER:                  -8.023
REMARK INTRA:                   0.493
REMARK UNBOUND:                -0.063
REMARK SMILES CC(=O)[C@@H]1CC[C@@H]2[C@H]3CC=C4C[C@@H](O)CC[C@]4(C)[C@@H]3CC[C@]21C
REMARK SMILES IDX 4 1 5 2 6 3 7 4 22 5 21 6 20 7 19 8 8 9 9 10 10 11 11 12
REMARK SMILES IDX 17 13 16 14 15 15 13 16 12 17 18 18 23 19 2 20 1 21 3 22
REMARK SMILES IDX 14 23
REMARK H PARENT 14 24
REMARK Flexibility Score: inf
ROOT
ATOM      1  C   UNL     1      16.186  -1.503  19.702  1.00  0.00     0.062 C 
ATOM      2  C   UNL     1      16.218  -3.019  20.023  1.00  0.00     0.012 C 
ATOM      3  C   UNL     1      17.664  -3.341  20.445  1.00  0.00     0.005 C 
ATOM      4  C   UNL     1      18.435  -2.059  20.152  1.00  0.00    -0.001 C 
ATOM      5  C   UNL     1      17.431  -0.932  20.420  1.00  0.00    -0.020 C 
ATOM      6  C   UNL     1      18.000   0.357  19.788  1.00  0.00     0.008 C 
ATOM      7  C   UNL     1      19.385   0.699  20.385  1.00  0.00     0.005 C 
ATOM      8  C   UNL     1      20.405  -0.489  20.317  1.00  0.00     0.003 C 
ATOM      9  C   UNL     1      19.800  -1.829  20.835  1.00  0.00     0.000 C 
ATOM     10  C   UNL     1      20.770  -2.963  20.477  1.00  0.00     0.031 C 
ATOM     11  C   UNL     1      22.128  -2.703  21.050  1.00  0.00    -0.027 C 
ATOM     12  C   UNL     1      22.627  -1.463  21.239  1.00  0.00    -0.065 C 
ATOM     13  C   UNL     1      21.812  -0.179  20.977  1.00  0.00    -0.008 C 
ATOM     14  C   UNL     1      21.655   0.553  22.347  1.00  0.00     0.014 C 
ATOM     15  C   UNL     1      22.971   0.698  23.141  1.00  0.00     0.033 C 
ATOM     16  C   UNL     1      23.683  -0.648  23.334  1.00  0.00     0.118 C 
ATOM     17  C   UNL     1      23.940  -1.323  21.981  1.00  0.00     0.063 C 
ATOM     18  C   UNL     1      22.610   0.720  19.995  1.00  0.00     0.016 C 
ATOM     19  C   UNL     1      17.135  -0.711  21.939  1.00  0.00     0.012 C 
ENDROOT
BRANCH   1  20
ATOM     20  C   UNL     1      14.872  -0.824  20.048  1.00  0.00     0.133 C 
ATOM     21  C   UNL     1      13.942  -0.358  18.967  1.00  0.00     0.088 C 
ATOM     22  O   UNL     1      14.560  -0.633  21.214  1.00  0.00    -0.300 OA
ENDBRANCH   1  20
BRANCH  16  23
ATOM     23  O   UNL     1      24.900  -0.431  24.000  1.00  0.00    -0.393 OA
ATOM     24  H   UNL     1      25.116  -1.273  24.482  1.00  0.00     0.210 HD
ENDBRANCH  16  23
TORSDOF 2
ENDMDL
MODEL 7
REMARK VINA RESULT:    -6.862      3.097      5.865
REMARK INTER + INTRA:          -7.528
REMARK INTER:                  -8.178
REMARK INTRA:                   0.650
REMARK UNBOUND:                -0.063
REMARK SMILES CC(=O)[C@@H]1CC[C@@H]2[C@H]3CC=C4C[C@@H](O)CC[C@]4(C)[C@@H]3CC[C@]21C
REMARK SMILES IDX 4 1 5 2 6 3 7 4 22 5 21 6 20 7 19 8 8 9 9 10 10 11 11 12
REMARK SMILES IDX 17 13 16 14 15 15 13 16 12 17 18 18 23 19 2 20 1 21 3 22
REMARK SMILES IDX 14 23
REMARK H PARENT 14 24
REMARK Flexibility Score: inf
ROOT
ATOM      1  C   UNL     1      21.349  -3.941  18.424  1.00  0.00     0.062 C 
ATOM      2  C   UNL     1      21.906  -4.267  19.833  1.00  0.00     0.012 C 
ATOM      3  C   UNL     1      21.063  -3.453  20.832  1.00  0.00     0.005 C 
ATOM      4  C   UNL     1      20.208  -2.548  19.950  1.00  0.00    -0.001 C 
ATOM      5  C   UNL     1      19.932  -3.379  18.692  1.00  0.00    -0.020 C 
ATOM      6  C   UNL     1      19.409  -2.417  17.604  1.00  0.00     0.008 C 
ATOM      7  C   UNL     1      18.127  -1.694  18.079  1.00  0.00     0.005 C 
ATOM      8  C   UNL     1      18.288  -0.982  19.466  1.00  0.00     0.003 C 
ATOM      9  C   UNL     1      18.935  -1.906  20.543  1.00  0.00     0.000 C 
ATOM     10  C   UNL     1      19.292  -1.045  21.760  1.00  0.00     0.031 C 
ATOM     11  C   UNL     1      18.083  -0.336  22.286  1.00  0.00    -0.027 C 
ATOM     12  C   UNL     1      17.054   0.050  21.502  1.00  0.00    -0.065 C 
ATOM     13  C   UNL     1      16.968  -0.285  19.999  1.00  0.00    -0.008 C 
ATOM     14  C   UNL     1      15.717  -1.199  19.803  1.00  0.00     0.014 C 
ATOM     15  C   UNL     1      14.436  -0.673  20.487  1.00  0.00     0.033 C 
ATOM     16  C   UNL     1      14.654  -0.379  21.978  1.00  0.00     0.118 C 
ATOM     17  C   UNL     1      15.813   0.606  22.171  1.00  0.00     0.063 C 
ATOM     18  C   UNL     1      16.776   1.036  19.208  1.00  0.00     0.016 C 
ATOM     19  C   UNL     1      18.916  -4.544  18.926  1.00  0.00     0.012 C 
ENDROOT
BRANCH   1  20
ATOM     20  C   UNL     1      21.409  -5.104  17.448  1.00  0.00     0.133 C 
ATOM     21  C   UNL     1      22.588  -5.279  16.537  1.00  0.00     0.088 C 
ATOM     22  O   UNL     1      20.489  -5.906  17.382  1.00  0.00    -0.300 OA
ENDBRANCH   1  20
BRANCH  16  23
ATOM     23  O   UNL     1      13.474   0.159  22.515  1.00  0.00    -0.393 OA
ATOM     24  H   UNL     1      12.756  -0.005  21.849  1.00  0.00     0.210 HD
ENDBRANCH  16  23
TORSDOF 2
ENDMDL
MODEL 8
REMARK VINA RESULT:    -6.624     14.420     16.973
REMARK INTER + INTRA:          -7.269
REMARK INTER:                  -7.081
REMARK INTRA:                  -0.188
REMARK UNBOUND:                -0.063
REMARK SMILES CC(=O)[C@@H]1CC[C@@H]2[C@H]3CC=C4C[C@@H](O)CC[C@]4(C)[C@@H]3CC[C@]21C
REMARK SMILES IDX 4 1 5 2 6 3 7 4 22 5 21 6 20 7 19 8 8 9 9 10 10 11 11 12
REMARK SMILES IDX 17 13 16 14 15 15 13 16 12 17 18 18 23 19 2 20 1 21 3 22
REMARK SMILES IDX 14 23
REMARK H PARENT 14 24
REMARK Flexibility Score: inf
ROOT
ATOM      1  C   UNL     1       9.068 -12.326  15.669  1.00  0.00     0.062 C 
ATOM      2  C   UNL     1       7.875 -12.430  16.651  1.00  0.00     0.012 C 
ATOM      3  C   UNL     1       8.110 -13.703  17.485  1.00  0.00     0.005 C 
ATOM      4  C   UNL     1       9.301 -14.377  16.812  1.00  0.00    -0.001 C 
ATOM      5  C   UNL     1      10.163 -13.219  16.298  1.00  0.00    -0.020 C 
ATOM      6  C   UNL     1      11.173 -13.803  15.287  1.00  0.00     0.008 C 
ATOM      7  C   UNL     1      12.050 -14.891  15.951  1.00  0.00     0.005 C 
ATOM      8  C   UNL     1      11.220 -16.011  16.668  1.00  0.00     0.003 C 
ATOM      9  C   UNL     1      10.110 -15.432  17.597  1.00  0.00     0.000 C 
ATOM     10  C   UNL     1       9.197 -16.587  18.029  1.00  0.00     0.031 C 
ATOM     11  C   UNL     1       9.985 -17.665  18.704  1.00  0.00    -0.027 C 
ATOM     12  C   UNL     1      11.273 -17.939  18.404  1.00  0.00    -0.065 C 
ATOM     13  C   UNL     1      12.100 -17.104  17.405  1.00  0.00    -0.008 C 
ATOM     14  C   UNL     1      13.270 -16.453  18.209  1.00  0.00     0.014 C 
ATOM     15  C   UNL     1      14.039 -17.437  19.116  1.00  0.00     0.033 C 
ATOM     16  C   UNL     1      13.104 -18.203  20.062  1.00  0.00     0.118 C 
ATOM     17  C   UNL     1      12.015 -18.937  19.270  1.00  0.00     0.063 C 
ATOM     18  C   UNL     1      12.678 -18.056  16.325  1.00  0.00     0.016 C 
ATOM     19  C   UNL     1      10.912 -12.448  17.435  1.00  0.00     0.012 C 
ENDROOT
BRANCH   1  20
ATOM     20  C   UNL     1       9.495 -10.901  15.359  1.00  0.00     0.133 C 
ATOM     21  C   UNL     1       8.933  -9.747  16.135  1.00  0.00     0.088 C 
ATOM     22  O   UNL     1      10.293 -10.674  14.461  1.00  0.00    -0.300 OA
ENDBRANCH   1  20
BRANCH  16  23
ATOM     23  O   UNL     1      13.858 -19.125  20.805  1.00  0.00    -0.393 OA
ATOM     24  H   UNL     1      13.687 -20.020  20.408  1.00  0.00     0.210 HD
ENDBRANCH  16  23
TORSDOF 2
ENDMDL
MODEL 9
REMARK VINA RESULT:    -6.615     16.045     18.854
REMARK INTER + INTRA:          -7.258
REMARK INTER:                  -7.083
REMARK INTRA:                  -0.175
REMARK UNBOUND:                -0.063
REMARK SMILES CC(=O)[C@@H]1CC[C@@H]2[C@H]3CC=C4C[C@@H](O)CC[C@]4(C)[C@@H]3CC[C@]21C
REMARK SMILES IDX 4 1 5 2 6 3 7 4 22 5 21 6 20 7 19 8 8 9 9 10 10 11 11 12
REMARK SMILES IDX 17 13 16 14 15 15 13 16 12 17 18 18 23 19 2 20 1 21 3 22
REMARK SMILES IDX 14 23
REMARK H PARENT 14 24
REMARK Flexibility Score: inf
ROOT
ATOM      1  C   UNL     1      24.979  -8.627   5.468  1.00  0.00     0.062 C 
ATOM      2  C   UNL     1      24.142  -7.545   4.740  1.00  0.00     0.012 C 
ATOM      3  C   UNL     1      22.768  -8.180   4.455  1.00  0.00     0.005 C 
ATOM      4  C   UNL     1      22.946  -9.645   4.839  1.00  0.00    -0.001 C 
ATOM      5  C   UNL     1      23.929  -9.623   6.014  1.00  0.00    -0.020 C 
ATOM      6  C   UNL     1      24.452 -11.062   6.211  1.00  0.00     0.008 C 
ATOM      7  C   UNL     1      23.286 -12.039   6.486  1.00  0.00     0.005 C 
ATOM      8  C   UNL     1      22.145 -11.969   5.415  1.00  0.00     0.003 C 
ATOM      9  C   UNL     1      21.694 -10.508   5.112  1.00  0.00     0.000 C 
ATOM     10  C   UNL     1      20.786 -10.531   3.877  1.00  0.00     0.031 C 
ATOM     11  C   UNL     1      19.618 -11.443   4.091  1.00  0.00    -0.027 C 
ATOM     12  C   UNL     1      19.672 -12.542   4.874  1.00  0.00    -0.065 C 
ATOM     13  C   UNL     1      20.912 -12.921   5.710  1.00  0.00    -0.008 C 
ATOM     14  C   UNL     1      20.488 -12.861   7.212  1.00  0.00     0.014 C 
ATOM     15  C   UNL     1      19.169 -13.599   7.526  1.00  0.00     0.033 C 
ATOM     16  C   UNL     1      18.015 -13.131   6.628  1.00  0.00     0.118 C 
ATOM     17  C   UNL     1      18.384 -13.291   5.148  1.00  0.00     0.063 C 
ATOM     18  C   UNL     1      21.331 -14.369   5.345  1.00  0.00     0.016 C 
ATOM     19  C   UNL     1      23.301  -9.084   7.341  1.00  0.00     0.012 C 
ENDROOT
BRANCH   1  20
ATOM     20  C   UNL     1      25.944  -8.073   6.503  1.00  0.00     0.133 C 
ATOM     21  C   UNL     1      25.817  -6.660   6.990  1.00  0.00     0.088 C 
ATOM     22  O   UNL     1      26.849  -8.768   6.943  1.00  0.00    -0.300 OA
ENDBRANCH   1  20
BRANCH  16  23
ATOM     23  O   UNL     1      16.871 -13.890   6.921  1.00  0.00    -0.393 OA
ATOM     24  H   UNL     1      16.363 -13.386   7.611  1.00  0.00     0.210 HD
ENDBRANCH  16  23
TORSDOF 2
ENDMDL
