MODEL 1
REMARK VINA RESULT:     3.047      0.000      0.000
REMARK INTER + INTRA:           4.245
REMARK INTER:                   4.739
REMARK INTRA:                  -0.494
REMARK UNBOUND:                -0.494
REMARK SMILES COc1cc(CNC(=O)CCCCC=CC(C)C)ccc1O
REMARK SMILES IDX 11 1 12 2 13 3 14 4 15 5 16 6 17 7 18 8 10 9 8 10 9 11 7 12
REMARK SMILES IDX 6 14 5 15 4 16 19 17 3 18 20 19 21 20 2 21 1 22 22 23
REMARK H PARENT 7 13 22 24
REMARK Flexibility Score: inf
ROOT
ATOM      1  C   UNL     1      -1.243   4.682 -10.568  1.00  0.00     0.010 C 
ENDROOT
BRANCH   1   2
ATOM      2  C   UNL     1      -0.405   4.797 -11.850  1.00  0.00     0.005 C 
BRANCH   2   3
ATOM      3  C   UNL     1       1.041   5.183 -11.526  1.00  0.00     0.027 C 
BRANCH   3   4
ATOM      4  C   UNL     1       1.443   6.411 -12.300  1.00  0.00    -0.031 C 
ATOM      5  C   UNL     1       2.267   6.461 -13.369  1.00  0.00    -0.028 C 
BRANCH   5   6
ATOM      6  C   UNL     1       2.922   5.306 -14.107  1.00  0.00     0.005 C 
ATOM      7  C   UNL     1       4.350   5.630 -14.564  1.00  0.00     0.012 C 
ATOM      8  C   UNL     1       2.058   4.728 -15.236  1.00  0.00     0.012 C 
ENDBRANCH   5   6
ENDBRANCH   3   4
ENDBRANCH   2   3
ENDBRANCH   1   2
BRANCH   1   9
ATOM      9  C   UNL     1      -2.737   4.489 -10.862  1.00  0.00     0.100 C 
BRANCH   9  10
ATOM     10  C   UNL     1      -3.491   4.055  -9.639  1.00  0.00     0.220 C 
ATOM     11  O   UNL     1      -3.082   4.414  -8.501  1.00  0.00    -0.275 OA
ATOM     12  N   UNL     1      -4.640   3.205  -9.762  1.00  0.00    -0.352 N 
ATOM     13  H   UNL     1      -4.939   2.889 -10.712  1.00  0.00     0.163 HD
BRANCH  12  14
ATOM     14  C   UNL     1      -5.378   2.710  -8.603  1.00  0.00     0.151 C 
BRANCH  14  15
ATOM     15  C   UNL     1      -6.338   1.628  -9.015  1.00  0.00    -0.025 A 
ATOM     16  C   UNL     1      -6.511   0.484  -8.220  1.00  0.00     0.056 A 
ATOM     17  C   UNL     1      -7.087   1.769 -10.192  1.00  0.00     0.009 A 
ATOM     18  C   UNL     1      -7.421  -0.522  -8.603  1.00  0.00     0.160 A 
ATOM     19  C   UNL     1      -7.991   0.777 -10.575  1.00  0.00     0.050 A 
ATOM     20  C   UNL     1      -8.159  -0.368  -9.786  1.00  0.00     0.157 A 
BRANCH  18  21
ATOM     21  O   UNL     1      -7.617  -1.684  -7.839  1.00  0.00    -0.493 OA
ATOM     22  C   UNL     1      -8.690  -1.872  -6.919  1.00  0.00     0.278 C 
ENDBRANCH  18  21
BRANCH  20  23
ATOM     23  O   UNL     1      -9.062  -1.359 -10.169  1.00  0.00    -0.504 OA
ATOM     24  H   UNL     1      -9.100  -2.254  -9.696  1.00  0.00     0.293 HD
ENDBRANCH  20  23
ENDBRANCH  14  15
ENDBRANCH  12  14
ENDBRANCH   9  10
ENDBRANCH   1   9
TORSDOF 10
ENDMDL
MODEL 2
REMARK VINA RESULT:     3.299      1.839      3.452
REMARK INTER + INTRA:           4.637
REMARK INTER:                   5.262
REMARK INTRA:                  -0.624
REMARK UNBOUND:                -0.494
REMARK SMILES COc1cc(CNC(=O)CCCCC=CC(C)C)ccc1O
REMARK SMILES IDX 11 1 12 2 13 3 14 4 15 5 16 6 17 7 18 8 10 9 8 10 9 11 7 12
REMARK SMILES IDX 6 14 5 15 4 16 19 17 3 18 20 19 21 20 2 21 1 22 22 23
REMARK H PARENT 7 13 22 24
REMARK Flexibility Score: inf
ROOT
ATOM      1  C   UNL     1      -4.079   4.114  -9.528  1.00  0.00     0.010 C 
ENDROOT
BRANCH   1   2
ATOM      2  C   UNL     1      -2.603   4.508  -9.368  1.00  0.00     0.005 C 
BRANCH   2   3
ATOM      3  C   UNL     1      -1.985   4.875 -10.721  1.00  0.00     0.027 C 
BRANCH   3   4
ATOM      4  C   UNL     1      -0.742   4.060 -10.968  1.00  0.00    -0.031 C 
ATOM      5  C   UNL     1       0.465   4.523 -11.357  1.00  0.00    -0.028 C 
BRANCH   5   6
ATOM      6  C   UNL     1       0.900   5.964 -11.559  1.00  0.00     0.005 C 
ATOM      7  C   UNL     1       1.045   6.336 -13.041  1.00  0.00     0.012 C 
ATOM      8  C   UNL     1       2.129   6.359 -10.729  1.00  0.00     0.012 C 
ENDBRANCH   5   6
ENDBRANCH   3   4
ENDBRANCH   2   3
ENDBRANCH   1   2
BRANCH   1   9
ATOM      9  C   UNL     1      -4.359   2.688  -9.036  1.00  0.00     0.100 C 
BRANCH   9  10
ATOM     10  C   UNL     1      -5.833   2.410  -8.953  1.00  0.00     0.220 C 
ATOM     11  O   UNL     1      -6.486   2.830  -7.959  1.00  0.00    -0.275 OA
ATOM     12  N   UNL     1      -6.481   1.639  -9.975  1.00  0.00    -0.352 N 
ATOM     13  H   UNL     1      -5.913   1.270 -10.770  1.00  0.00     0.163 HD
BRANCH  12  14
ATOM     14  C   UNL     1      -7.899   1.295  -9.917  1.00  0.00     0.151 C 
BRANCH  14  15
ATOM     15  C   UNL     1      -8.075  -0.129  -9.465  1.00  0.00    -0.025 A 
ATOM     16  C   UNL     1      -8.201  -1.167 -10.402  1.00  0.00     0.056 A 
ATOM     17  C   UNL     1      -8.093  -0.431  -8.095  1.00  0.00     0.009 A 
ATOM     18  C   UNL     1      -8.354  -2.501  -9.975  1.00  0.00     0.160 A 
ATOM     19  C   UNL     1      -8.241  -1.750  -7.667  1.00  0.00     0.050 A 
ATOM     20  C   UNL     1      -8.374  -2.786  -8.601  1.00  0.00     0.157 A 
BRANCH  18  21
ATOM     21  O   UNL     1      -8.488  -3.566 -10.881  1.00  0.00    -0.493 OA
ATOM     22  C   UNL     1      -8.267  -3.463 -12.285  1.00  0.00     0.278 C 
ENDBRANCH  18  21
BRANCH  20  23
ATOM     23  O   UNL     1      -8.522  -4.104  -8.173  1.00  0.00    -0.504 OA
ATOM     24  H   UNL     1      -8.597  -4.871  -8.831  1.00  0.00     0.293 HD
ENDBRANCH  20  23
ENDBRANCH  14  15
ENDBRANCH  12  14
ENDBRANCH   9  10
ENDBRANCH   1   9
TORSDOF 10
ENDMDL
MODEL 3
REMARK VINA RESULT:     3.500      0.930      2.069
REMARK INTER + INTRA:           4.950
REMARK INTER:                   5.528
REMARK INTRA:                  -0.577
REMARK UNBOUND:                -0.494
REMARK SMILES COc1cc(CNC(=O)CCCCC=CC(C)C)ccc1O
REMARK SMILES IDX 11 1 12 2 13 3 14 4 15 5 16 6 17 7 18 8 10 9 8 10 9 11 7 12
REMARK SMILES IDX 6 14 5 15 4 16 19 17 3 18 20 19 21 20 2 21 1 22 22 23
REMARK H PARENT 7 13 22 24
REMARK Flexibility Score: inf
ROOT
ATOM      1  C   UNL     1      -0.896   4.488 -10.726  1.00  0.00     0.010 C 
ENDROOT
BRANCH   1   2
ATOM      2  C   UNL     1      -0.098   4.863 -11.984  1.00  0.00     0.005 C 
BRANCH   2   3
ATOM      3  C   UNL     1       1.196   5.594 -11.613  1.00  0.00     0.027 C 
BRANCH   3   4
ATOM      4  C   UNL     1       1.524   6.639 -12.648  1.00  0.00    -0.031 C 
ATOM      5  C   UNL     1       2.388   6.516 -13.678  1.00  0.00    -0.028 C 
BRANCH   5   6
ATOM      6  C   UNL     1       3.175   5.289 -14.103  1.00  0.00     0.005 C 
ATOM      7  C   UNL     1       4.555   5.640 -14.677  1.00  0.00     0.012 C 
ATOM      8  C   UNL     1       2.386   4.334 -15.010  1.00  0.00     0.012 C 
ENDBRANCH   5   6
ENDBRANCH   3   4
ENDBRANCH   2   3
ENDBRANCH   1   2
BRANCH   1   9
ATOM      9  C   UNL     1      -2.412   4.548 -10.957  1.00  0.00     0.100 C 
BRANCH   9  10
ATOM     10  C   UNL     1      -3.176   4.254  -9.699  1.00  0.00     0.220 C 
ATOM     11  O   UNL     1      -2.780   4.744  -8.606  1.00  0.00    -0.275 OA
ATOM     12  N   UNL     1      -4.321   3.389  -9.734  1.00  0.00    -0.352 N 
ATOM     13  H   UNL     1      -4.609   2.965 -10.645  1.00  0.00     0.163 HD
BRANCH  12  14
ATOM     14  C   UNL     1      -5.068   3.028  -8.533  1.00  0.00     0.151 C 
BRANCH  14  15
ATOM     15  C   UNL     1      -6.097   1.978  -8.851  1.00  0.00    -0.025 A 
ATOM     16  C   UNL     1      -7.086   2.215  -9.819  1.00  0.00     0.056 A 
ATOM     17  C   UNL     1      -6.059   0.740  -8.193  1.00  0.00     0.009 A 
ATOM     18  C   UNL     1      -8.041   1.224 -10.123  1.00  0.00     0.160 A 
ATOM     19  C   UNL     1      -7.000  -0.245  -8.492  1.00  0.00     0.050 A 
ATOM     20  C   UNL     1      -7.992  -0.007  -9.452  1.00  0.00     0.157 A 
BRANCH  18  21
ATOM     21  O   UNL     1      -9.049   1.425 -11.079  1.00  0.00    -0.493 OA
ATOM     22  C   UNL     1      -9.124   2.554 -11.946  1.00  0.00     0.278 C 
ENDBRANCH  18  21
BRANCH  20  23
ATOM     23  O   UNL     1      -8.933  -0.992  -9.750  1.00  0.00    -0.504 OA
ATOM     24  H   UNL     1      -9.711  -0.812 -10.374  1.00  0.00     0.293 HD
ENDBRANCH  20  23
ENDBRANCH  14  15
ENDBRANCH  12  14
ENDBRANCH   9  10
ENDBRANCH   1   9
TORSDOF 10
ENDMDL
MODEL 4
REMARK VINA RESULT:     5.332      6.095      7.679
REMARK INTER + INTRA:           7.799
REMARK INTER:                   5.337
REMARK INTRA:                   2.463
REMARK UNBOUND:                -0.494
REMARK SMILES COc1cc(CNC(=O)CCCCC=CC(C)C)ccc1O
REMARK SMILES IDX 11 1 12 2 13 3 14 4 15 5 16 6 17 7 18 8 10 9 8 10 9 11 7 12
REMARK SMILES IDX 6 14 5 15 4 16 19 17 3 18 20 19 21 20 2 21 1 22 22 23
REMARK H PARENT 7 13 22 24
REMARK Flexibility Score: inf
ROOT
ATOM      1  C   UNL     1      -4.353   0.089  -7.079  1.00  0.00     0.010 C 
ENDROOT
BRANCH   1   2
ATOM      2  C   UNL     1      -5.731   0.207  -7.749  1.00  0.00     0.005 C 
BRANCH   2   3
ATOM      3  C   UNL     1      -5.990   1.640  -8.221  1.00  0.00     0.027 C 
BRANCH   3   4
ATOM      4  C   UNL     1      -5.794   1.745  -9.712  1.00  0.00    -0.031 C 
ATOM      5  C   UNL     1      -6.749   1.665 -10.662  1.00  0.00    -0.028 C 
BRANCH   5   6
ATOM      6  C   UNL     1      -8.251   1.536 -10.478  1.00  0.00     0.005 C 
ATOM      7  C   UNL     1      -9.045   2.425 -11.444  1.00  0.00     0.012 C 
ATOM      8  C   UNL     1      -8.709   1.694  -9.021  1.00  0.00     0.012 C 
ENDBRANCH   5   6
ENDBRANCH   3   4
ENDBRANCH   2   3
ENDBRANCH   1   2
BRANCH   1   9
ATOM      9  C   UNL     1      -4.351  -0.916  -5.921  1.00  0.00     0.100 C 
BRANCH   9  10
ATOM     10  C   UNL     1      -5.586  -1.770  -5.926  1.00  0.00     0.220 C 
ATOM     11  O   UNL     1      -5.469  -3.026  -5.951  1.00  0.00    -0.275 OA
ATOM     12  N   UNL     1      -6.885  -1.161  -5.944  1.00  0.00    -0.352 N 
ATOM     13  H   UNL     1      -6.957  -0.119  -5.960  1.00  0.00     0.163 HD
BRANCH  12  14
ATOM     14  C   UNL     1      -8.117  -1.944  -6.002  1.00  0.00     0.151 C 
BRANCH  14  15
ATOM     15  C   UNL     1      -8.381  -2.401  -7.411  1.00  0.00    -0.025 A 
ATOM     16  C   UNL     1      -8.102  -1.561  -8.500  1.00  0.00     0.056 A 
ATOM     17  C   UNL     1      -8.890  -3.687  -7.644  1.00  0.00     0.009 A 
ATOM     18  C   UNL     1      -8.339  -1.997  -9.819  1.00  0.00     0.160 A 
ATOM     19  C   UNL     1      -9.125  -4.125  -8.948  1.00  0.00     0.050 A 
ATOM     20  C   UNL     1      -8.853  -3.285 -10.035  1.00  0.00     0.157 A 
BRANCH  18  21
ATOM     21  O   UNL     1      -8.080  -1.185 -10.934  1.00  0.00    -0.493 OA
ATOM     22  C   UNL     1      -7.801  -1.677 -12.242  1.00  0.00     0.278 C 
ENDBRANCH  18  21
BRANCH  20  23
ATOM     23  O   UNL     1      -9.089  -3.723 -11.338  1.00  0.00    -0.504 OA
ATOM     24  H   UNL     1      -9.680  -3.203 -11.974  1.00  0.00     0.293 HD
ENDBRANCH  20  23
ENDBRANCH  14  15
ENDBRANCH  12  14
ENDBRANCH   9  10
ENDBRANCH   1   9
TORSDOF 10
ENDMDL
MODEL 5
REMARK VINA RESULT:     5.698      3.233     10.670
REMARK INTER + INTRA:           8.369
REMARK INTER:                   8.808
REMARK INTRA:                  -0.440
REMARK UNBOUND:                -0.494
REMARK SMILES COc1cc(CNC(=O)CCCCC=CC(C)C)ccc1O
REMARK SMILES IDX 11 1 12 2 13 3 14 4 15 5 16 6 17 7 18 8 10 9 8 10 9 11 7 12
REMARK SMILES IDX 6 14 5 15 4 16 19 17 3 18 20 19 21 20 2 21 1 22 22 23
REMARK H PARENT 7 13 22 24
REMARK Flexibility Score: inf
ROOT
ATOM      1  C   UNL     1      -4.024   4.115  -9.242  1.00  0.00     0.010 C 
ENDROOT
BRANCH   1   2
ATOM      2  C   UNL     1      -4.853   2.873  -9.602  1.00  0.00     0.005 C 
BRANCH   2   3
ATOM      3  C   UNL     1      -5.781   2.480  -8.449  1.00  0.00     0.027 C 
BRANCH   3   4
ATOM      4  C   UNL     1      -6.010   0.991  -8.442  1.00  0.00    -0.031 C 
ATOM      5  C   UNL     1      -7.130   0.341  -8.823  1.00  0.00    -0.028 C 
BRANCH   5   6
ATOM      6  C   UNL     1      -8.397   0.925  -9.426  1.00  0.00     0.005 C 
ATOM      7  C   UNL     1      -8.175   1.488 -10.837  1.00  0.00     0.012 C 
ATOM      8  C   UNL     1      -9.118   1.916  -8.503  1.00  0.00     0.012 C 
ENDBRANCH   5   6
ENDBRANCH   3   4
ENDBRANCH   2   3
ENDBRANCH   1   2
BRANCH   1   9
ATOM      9  C   UNL     1      -3.223   4.648 -10.436  1.00  0.00     0.100 C 
BRANCH   9  10
ATOM     10  C   UNL     1      -1.746   4.624 -10.168  1.00  0.00     0.220 C 
ATOM     11  O   UNL     1      -1.336   4.484  -8.983  1.00  0.00    -0.275 OA
ATOM     12  N   UNL     1      -0.813   4.801 -11.243  1.00  0.00    -0.352 N 
ATOM     13  H   UNL     1      -1.176   4.952 -12.211  1.00  0.00     0.163 HD
BRANCH  12  14
ATOM     14  C   UNL     1       0.632   4.839 -11.030  1.00  0.00     0.151 C 
BRANCH  14  15
ATOM     15  C   UNL     1       1.324   5.423 -12.231  1.00  0.00    -0.025 A 
ATOM     16  C   UNL     1       2.233   4.655 -12.977  1.00  0.00     0.056 A 
ATOM     17  C   UNL     1       1.046   6.739 -12.627  1.00  0.00     0.009 A 
ATOM     18  C   UNL     1       2.871   5.201 -14.108  1.00  0.00     0.160 A 
ATOM     19  C   UNL     1       1.672   7.284 -13.748  1.00  0.00     0.050 A 
ATOM     20  C   UNL     1       2.585   6.521 -14.488  1.00  0.00     0.157 A 
BRANCH  18  21
ATOM     21  O   UNL     1       3.790   4.469 -14.876  1.00  0.00    -0.493 OA
ATOM     22  C   UNL     1       5.109   4.134 -14.452  1.00  0.00     0.278 C 
ENDBRANCH  18  21
BRANCH  20  23
ATOM     23  O   UNL     1       3.211   7.067 -15.608  1.00  0.00    -0.504 OA
ATOM     24  H   UNL     1       4.098   7.551 -15.537  1.00  0.00     0.293 HD
ENDBRANCH  20  23
ENDBRANCH  14  15
ENDBRANCH  12  14
ENDBRANCH   9  10
ENDBRANCH   1   9
TORSDOF 10
ENDMDL
