MODEL 1
REMARK VINA RESULT:    -3.972      0.000      0.000
REMARK INTER + INTRA:         -10.119
REMARK INTER:                  -8.616
REMARK INTRA:                  -1.503
REMARK UNBOUND:                -1.503
REMARK SMILES CCCCCCCCCCCCCCCCCCCCCC(=O)[O-]
REMARK SMILES IDX 12 1 11 2 10 3 9 4 8 5 7 6 6 7 5 8 4 9 3 10 2 11 1 12 13 13
REMARK SMILES IDX 14 14 15 15 16 16 17 17 18 18 19 19 20 20 21 21 22 22 23 23
REMARK SMILES IDX 24 24
REMARK H PARENT
REMARK Flexibility Score: inf
ROOT
ATOM      1  C   UNL     1       6.125 -35.025  23.354  1.00  0.00     0.000 C 
ENDROOT
BRANCH   1   2
ATOM      2  C   UNL     1       5.553 -33.695  22.843  1.00  0.00     0.000 C 
BRANCH   2   3
ATOM      3  C   UNL     1       4.176 -33.899  22.202  1.00  0.00     0.000 C 
BRANCH   3   4
ATOM      4  C   UNL     1       4.244 -33.724  20.679  1.00  0.00    -0.000 C 
BRANCH   4   5
ATOM      5  C   UNL     1       5.392 -34.552  20.083  1.00  0.00    -0.000 C 
BRANCH   5   6
ATOM      6  C   UNL     1       5.603 -34.280  18.585  1.00  0.00    -0.000 C 
BRANCH   6   7
ATOM      7  C   UNL     1       4.284 -34.231  17.800  1.00  0.00    -0.000 C 
BRANCH   7   8
ATOM      8  C   UNL     1       3.934 -35.608  17.224  1.00  0.00    -0.000 C 
BRANCH   8   9
ATOM      9  C   UNL     1       2.747 -35.513  16.254  1.00  0.00    -0.000 C 
BRANCH   9  10
ATOM     10  C   UNL     1       2.565 -36.788  15.414  1.00  0.00    -0.000 C 
BRANCH  10  11
ATOM     11  C   UNL     1       3.583 -36.892  14.270  1.00  0.00    -0.003 C 
ATOM     12  C   UNL     1       4.151 -38.305  14.166  1.00  0.00     0.004 C 
ENDBRANCH  10  11
ENDBRANCH   9  10
ENDBRANCH   8   9
ENDBRANCH   7   8
ENDBRANCH   6   7
ENDBRANCH   5   6
ENDBRANCH   4   5
ENDBRANCH   3   4
ENDBRANCH   2   3
ENDBRANCH   1   2
BRANCH   1  13
ATOM     13  C   UNL     1       5.669 -35.362  24.785  1.00  0.00     0.000 C 
BRANCH  13  14
ATOM     14  C   UNL     1       5.509 -36.867  25.079  1.00  0.00     0.000 C 
BRANCH  14  15
ATOM     15  C   UNL     1       4.361 -37.561  24.320  1.00  0.00     0.000 C 
BRANCH  15  16
ATOM     16  C   UNL     1       4.643 -39.017  23.896  1.00  0.00     0.000 C 
BRANCH  16  17
ATOM     17  C   UNL     1       4.997 -39.208  22.410  1.00  0.00     0.000 C 
BRANCH  17  18
ATOM     18  C   UNL     1       4.814 -37.925  21.583  1.00  0.00     0.000 C 
BRANCH  18  19
ATOM     19  C   UNL     1       5.144 -38.131  20.095  1.00  0.00     0.000 C 
BRANCH  19  20
ATOM     20  C   UNL     1       4.034 -37.615  19.164  1.00  0.00     0.006 C 
BRANCH  20  21
ATOM     21  C   UNL     1       2.685 -37.491  19.886  1.00  0.00     0.053 C 
BRANCH  21  22
ATOM     22  C   UNL     1       1.535 -37.730  18.955  1.00  0.00     0.041 C 
ATOM     23  O   UNL     1       1.724 -38.294  17.845  1.00  0.00    -0.550 OA
ATOM     24  O   UNL     1       0.261 -37.298  19.299  1.00  0.00    -0.550 OA
ENDBRANCH  21  22
ENDBRANCH  20  21
ENDBRANCH  19  20
ENDBRANCH  18  19
ENDBRANCH  17  18
ENDBRANCH  16  17
ENDBRANCH  15  16
ENDBRANCH  14  15
ENDBRANCH  13  14
ENDBRANCH   1  13
TORSDOF 20
ENDMDL
MODEL 2
REMARK VINA RESULT:    -3.890      1.695      4.810
REMARK INTER + INTRA:          -9.941
REMARK INTER:                  -8.622
REMARK INTRA:                  -1.319
REMARK UNBOUND:                -1.503
REMARK SMILES CCCCCCCCCCCCCCCCCCCCCC(=O)[O-]
REMARK SMILES IDX 12 1 11 2 10 3 9 4 8 5 7 6 6 7 5 8 4 9 3 10 2 11 1 12 13 13
REMARK SMILES IDX 14 14 15 15 16 16 17 17 18 18 19 19 20 20 21 21 22 22 23 23
REMARK SMILES IDX 24 24
REMARK H PARENT
REMARK Flexibility Score: inf
ROOT
ATOM      1  C   UNL     1       6.125 -35.026  24.951  1.00  0.00     0.000 C 
ENDROOT
BRANCH   1   2
ATOM      2  C   UNL     1       5.922 -36.470  24.470  1.00  0.00     0.000 C 
BRANCH   2   3
ATOM      3  C   UNL     1       4.873 -37.191  25.325  1.00  0.00     0.000 C 
BRANCH   3   4
ATOM      4  C   UNL     1       4.044 -38.164  24.477  1.00  0.00    -0.000 C 
BRANCH   4   5
ATOM      5  C   UNL     1       4.949 -39.194  23.784  1.00  0.00    -0.000 C 
BRANCH   5   6
ATOM      6  C   UNL     1       4.819 -39.163  22.253  1.00  0.00    -0.000 C 
BRANCH   6   7
ATOM      7  C   UNL     1       4.676 -37.736  21.700  1.00  0.00    -0.000 C 
BRANCH   7   8
ATOM      8  C   UNL     1       5.218 -37.644  20.269  1.00  0.00    -0.000 C 
BRANCH   8   9
ATOM      9  C   UNL     1       4.141 -38.032  19.246  1.00  0.00    -0.000 C 
BRANCH   9  10
ATOM     10  C   UNL     1       2.736 -37.565  19.659  1.00  0.00    -0.000 C 
BRANCH  10  11
ATOM     11  C   UNL     1       1.640 -38.084  18.717  1.00  0.00    -0.003 C 
ATOM     12  C   UNL     1       0.279 -37.495  19.079  1.00  0.00     0.004 C 
ENDBRANCH  10  11
ENDBRANCH   9  10
ENDBRANCH   8   9
ENDBRANCH   7   8
ENDBRANCH   6   7
ENDBRANCH   5   6
ENDBRANCH   4   5
ENDBRANCH   3   4
ENDBRANCH   2   3
ENDBRANCH   1   2
BRANCH   1  13
ATOM     13  C   UNL     1       6.017 -33.995  23.813  1.00  0.00     0.000 C 
BRANCH  13  14
ATOM     14  C   UNL     1       5.542 -34.565  22.462  1.00  0.00     0.000 C 
BRANCH  14  15
ATOM     15  C   UNL     1       4.538 -33.679  21.697  1.00  0.00     0.000 C 
BRANCH  15  16
ATOM     16  C   UNL     1       4.080 -34.236  20.334  1.00  0.00     0.000 C 
BRANCH  16  17
ATOM     17  C   UNL     1       5.147 -34.206  19.224  1.00  0.00     0.000 C 
BRANCH  17  18
ATOM     18  C   UNL     1       4.545 -34.317  17.814  1.00  0.00     0.000 C 
BRANCH  18  19
ATOM     19  C   UNL     1       3.793 -35.640  17.596  1.00  0.00     0.000 C 
BRANCH  19  20
ATOM     20  C   UNL     1       3.084 -35.703  16.232  1.00  0.00     0.006 C 
BRANCH  20  21
ATOM     21  C   UNL     1       2.904 -37.146  15.740  1.00  0.00     0.053 C 
BRANCH  21  22
ATOM     22  C   UNL     1       3.810 -37.455  14.588  1.00  0.00     0.041 C 
ATOM     23  O   UNL     1       4.016 -38.649  14.246  1.00  0.00    -0.550 OA
ATOM     24  O   UNL     1       4.456 -36.425  13.916  1.00  0.00    -0.550 OA
ENDBRANCH  21  22
ENDBRANCH  20  21
ENDBRANCH  19  20
ENDBRANCH  18  19
ENDBRANCH  17  18
ENDBRANCH  16  17
ENDBRANCH  15  16
ENDBRANCH  14  15
ENDBRANCH  13  14
ENDBRANCH   1  13
TORSDOF 20
ENDMDL
MODEL 3
REMARK VINA RESULT:    -3.848      1.540      3.051
REMARK INTER + INTRA:          -9.850
REMARK INTER:                  -8.110
REMARK INTRA:                  -1.740
REMARK UNBOUND:                -1.503
REMARK SMILES CCCCCCCCCCCCCCCCCCCCCC(=O)[O-]
REMARK SMILES IDX 12 1 11 2 10 3 9 4 8 5 7 6 6 7 5 8 4 9 3 10 2 11 1 12 13 13
REMARK SMILES IDX 14 14 15 15 16 16 17 17 18 18 19 19 20 20 21 21 22 22 23 23
REMARK SMILES IDX 24 24
REMARK H PARENT
REMARK Flexibility Score: inf
ROOT
ATOM      1  C   UNL     1       4.316 -33.885  22.441  1.00  0.00     0.000 C 
ENDROOT
BRANCH   1   2
ATOM      2  C   UNL     1       4.492 -33.875  20.915  1.00  0.00     0.000 C 
BRANCH   2   3
ATOM      3  C   UNL     1       5.933 -34.226  20.526  1.00  0.00     0.000 C 
BRANCH   3   4
ATOM      4  C   UNL     1       5.978 -34.949  19.174  1.00  0.00    -0.000 C 
BRANCH   4   5
ATOM      5  C   UNL     1       5.159 -34.190  18.119  1.00  0.00    -0.000 C 
BRANCH   5   6
ATOM      6  C   UNL     1       4.075 -35.065  17.469  1.00  0.00    -0.000 C 
BRANCH   6   7
ATOM      7  C   UNL     1       3.559 -36.165  18.409  1.00  0.00    -0.000 C 
BRANCH   7   8
ATOM      8  C   UNL     1       2.348 -36.884  17.803  1.00  0.00    -0.000 C 
BRANCH   8   9
ATOM      9  C   UNL     1       2.677 -37.434  16.408  1.00  0.00    -0.000 C 
BRANCH   9  10
ATOM     10  C   UNL     1       2.052 -36.600  15.278  1.00  0.00    -0.000 C 
BRANCH  10  11
ATOM     11  C   UNL     1       2.882 -36.636  13.988  1.00  0.00    -0.003 C 
ATOM     12  C   UNL     1       4.085 -37.565  14.134  1.00  0.00     0.004 C 
ENDBRANCH  10  11
ENDBRANCH   9  10
ENDBRANCH   8   9
ENDBRANCH   7   8
ENDBRANCH   6   7
ENDBRANCH   5   6
ENDBRANCH   4   5
ENDBRANCH   3   4
ENDBRANCH   2   3
ENDBRANCH   1   2
BRANCH   1  13
ATOM     13  C   UNL     1       5.441 -33.136  23.178  1.00  0.00     0.000 C 
BRANCH  13  14
ATOM     14  C   UNL     1       6.125 -33.935  24.305  1.00  0.00     0.000 C 
BRANCH  14  15
ATOM     15  C   UNL     1       6.110 -35.466  24.121  1.00  0.00     0.000 C 
BRANCH  15  16
ATOM     16  C   UNL     1       5.987 -36.280  25.425  1.00  0.00     0.000 C 
BRANCH  16  17
ATOM     17  C   UNL     1       4.656 -37.034  25.602  1.00  0.00     0.000 C 
BRANCH  17  18
ATOM     18  C   UNL     1       4.184 -37.723  24.311  1.00  0.00     0.000 C 
BRANCH  18  19
ATOM     19  C   UNL     1       4.581 -39.207  24.255  1.00  0.00     0.000 C 
BRANCH  19  20
ATOM     20  C   UNL     1       4.791 -39.712  22.817  1.00  0.00     0.006 C 
BRANCH  20  21
ATOM     21  C   UNL     1       5.815 -38.864  22.050  1.00  0.00     0.053 C 
BRANCH  21  22
ATOM     22  C   UNL     1       5.207 -38.220  20.841  1.00  0.00     0.041 C 
ATOM     23  O   UNL     1       4.238 -37.426  20.966  1.00  0.00    -0.550 OA
ATOM     24  O   UNL     1       5.687 -38.527  19.575  1.00  0.00    -0.550 OA
ENDBRANCH  21  22
ENDBRANCH  20  21
ENDBRANCH  19  20
ENDBRANCH  18  19
ENDBRANCH  17  18
ENDBRANCH  16  17
ENDBRANCH  15  16
ENDBRANCH  14  15
ENDBRANCH  13  14
ENDBRANCH   1  13
TORSDOF 20
ENDMDL
MODEL 4
REMARK VINA RESULT:    -3.440      1.944      4.120
REMARK INTER + INTRA:          -8.964
REMARK INTER:                  -8.213
REMARK INTRA:                  -0.751
REMARK UNBOUND:                -1.503
REMARK SMILES CCCCCCCCCCCCCCCCCCCCCC(=O)[O-]
REMARK SMILES IDX 12 1 11 2 10 3 9 4 8 5 7 6 6 7 5 8 4 9 3 10 2 11 1 12 13 13
REMARK SMILES IDX 14 14 15 15 16 16 17 17 18 18 19 19 20 20 21 21 22 22 23 23
REMARK SMILES IDX 24 24
REMARK H PARENT
REMARK Flexibility Score: inf
ROOT
ATOM      1  C   UNL     1       5.750 -39.454  21.610  1.00  0.00     0.000 C 
ENDROOT
BRANCH   1   2
ATOM      2  C   UNL     1       5.490 -38.120  20.895  1.00  0.00     0.000 C 
BRANCH   2   3
ATOM      3  C   UNL     1       4.770 -38.344  19.560  1.00  0.00     0.000 C 
BRANCH   3   4
ATOM      4  C   UNL     1       3.744 -37.235  19.294  1.00  0.00    -0.000 C 
BRANCH   4   5
ATOM      5  C   UNL     1       2.805 -37.622  18.141  1.00  0.00    -0.000 C 
BRANCH   5   6
ATOM      6  C   UNL     1       2.748 -36.553  17.039  1.00  0.00    -0.000 C 
BRANCH   6   7
ATOM      7  C   UNL     1       2.347 -37.130  15.672  1.00  0.00    -0.000 C 
BRANCH   7   8
ATOM      8  C   UNL     1       3.066 -36.399  14.533  1.00  0.00    -0.000 C 
BRANCH   8   9
ATOM      9  C   UNL     1       4.212 -37.251  13.968  1.00  0.00    -0.000 C 
BRANCH   9  10
ATOM     10  C   UNL     1       4.051 -38.746  14.286  1.00  0.00    -0.000 C 
BRANCH  10  11
ATOM     11  C   UNL     1       5.278 -39.573  13.876  1.00  0.00    -0.003 C 
ATOM     12  C   UNL     1       4.984 -41.069  13.951  1.00  0.00     0.004 C 
ENDBRANCH  10  11
ENDBRANCH   9  10
ENDBRANCH   8   9
ENDBRANCH   7   8
ENDBRANCH   6   7
ENDBRANCH   5   6
ENDBRANCH   4   5
ENDBRANCH   3   4
ENDBRANCH   2   3
ENDBRANCH   1   2
BRANCH   1  13
ATOM     13  C   UNL     1       4.722 -39.752  22.715  1.00  0.00     0.000 C 
BRANCH  13  14
ATOM     14  C   UNL     1       4.287 -38.529  23.546  1.00  0.00     0.000 C 
BRANCH  14  15
ATOM     15  C   UNL     1       5.443 -37.706  24.148  1.00  0.00     0.000 C 
BRANCH  15  16
ATOM     16  C   UNL     1       5.010 -36.508  25.018  1.00  0.00     0.000 C 
BRANCH  16  17
ATOM     17  C   UNL     1       5.983 -35.315  25.019  1.00  0.00     0.000 C 
BRANCH  17  18
ATOM     18  C   UNL     1       5.736 -34.342  23.854  1.00  0.00     0.000 C 
BRANCH  18  19
ATOM     19  C   UNL     1       5.965 -34.996  22.481  1.00  0.00     0.000 C 
BRANCH  19  20
ATOM     20  C   UNL     1       4.685 -35.053  21.630  1.00  0.00     0.006 C 
BRANCH  20  21
ATOM     21  C   UNL     1       4.613 -33.903  20.616  1.00  0.00     0.053 C 
BRANCH  21  22
ATOM     22  C   UNL     1       5.265 -34.269  19.318  1.00  0.00     0.041 C 
ATOM     23  O   UNL     1       6.122 -35.190  19.276  1.00  0.00    -0.550 OA
ATOM     24  O   UNL     1       4.952 -33.566  18.161  1.00  0.00    -0.550 OA
ENDBRANCH  21  22
ENDBRANCH  20  21
ENDBRANCH  19  20
ENDBRANCH  18  19
ENDBRANCH  17  18
ENDBRANCH  16  17
ENDBRANCH  15  16
ENDBRANCH  14  15
ENDBRANCH  13  14
ENDBRANCH   1  13
TORSDOF 20
ENDMDL
MODEL 5
REMARK VINA RESULT:    -3.329      1.413      4.604
REMARK INTER + INTRA:          -8.725
REMARK INTER:                  -7.096
REMARK INTRA:                  -1.629
REMARK UNBOUND:                -1.503
REMARK SMILES CCCCCCCCCCCCCCCCCCCCCC(=O)[O-]
REMARK SMILES IDX 12 1 11 2 10 3 9 4 8 5 7 6 6 7 5 8 4 9 3 10 2 11 1 12 13 13
REMARK SMILES IDX 14 14 15 15 16 16 17 17 18 18 19 19 20 20 21 21 22 22 23 23
REMARK SMILES IDX 24 24
REMARK H PARENT
REMARK Flexibility Score: inf
ROOT
ATOM      1  C   UNL     1       6.055 -35.728  24.453  1.00  0.00     0.000 C 
ENDROOT
BRANCH   1   2
ATOM      2  C   UNL     1       4.648 -36.235  24.802  1.00  0.00     0.000 C 
BRANCH   2   3
ATOM      3  C   UNL     1       4.691 -37.694  25.271  1.00  0.00     0.000 C 
BRANCH   3   4
ATOM      4  C   UNL     1       4.058 -38.627  24.231  1.00  0.00    -0.000 C 
BRANCH   4   5
ATOM      5  C   UNL     1       5.086 -39.640  23.705  1.00  0.00    -0.000 C 
BRANCH   5   6
ATOM      6  C   UNL     1       5.335 -39.501  22.195  1.00  0.00    -0.000 C 
BRANCH   6   7
ATOM      7  C   UNL     1       4.455 -38.422  21.545  1.00  0.00    -0.000 C 
BRANCH   7   8
ATOM      8  C   UNL     1       5.096 -37.891  20.258  1.00  0.00    -0.000 C 
BRANCH   8   9
ATOM      9  C   UNL     1       4.047 -37.730  19.147  1.00  0.00    -0.000 C 
BRANCH   9  10
ATOM     10  C   UNL     1       2.607 -37.862  19.668  1.00  0.00    -0.000 C 
BRANCH  10  11
ATOM     11  C   UNL     1       1.586 -38.052  18.538  1.00  0.00    -0.003 C 
ATOM     12  C   UNL     1       0.278 -37.330  18.850  1.00  0.00     0.004 C 
ENDBRANCH  10  11
ENDBRANCH   9  10
ENDBRANCH   8   9
ENDBRANCH   7   8
ENDBRANCH   6   7
ENDBRANCH   5   6
ENDBRANCH   4   5
ENDBRANCH   3   4
ENDBRANCH   2   3
ENDBRANCH   1   2
BRANCH   1  13
ATOM     13  C   UNL     1       6.106 -34.982  23.108  1.00  0.00     0.000 C 
BRANCH  13  14
ATOM     14  C   UNL     1       5.912 -33.455  23.204  1.00  0.00     0.000 C 
BRANCH  14  15
ATOM     15  C   UNL     1       4.989 -32.847  22.129  1.00  0.00     0.000 C 
BRANCH  15  16
ATOM     16  C   UNL     1       3.793 -33.731  21.719  1.00  0.00     0.000 C 
BRANCH  16  17
ATOM     17  C   UNL     1       4.090 -34.761  20.614  1.00  0.00     0.000 C 
BRANCH  17  18
ATOM     18  C   UNL     1       5.217 -34.314  19.667  1.00  0.00     0.000 C 
BRANCH  18  19
ATOM     19  C   UNL     1       4.726 -34.102  18.226  1.00  0.00     0.000 C 
BRANCH  19  20
ATOM     20  C   UNL     1       4.136 -35.380  17.605  1.00  0.00     0.006 C 
BRANCH  20  21
ATOM     21  C   UNL     1       3.148 -35.070  16.472  1.00  0.00     0.053 C 
BRANCH  21  22
ATOM     22  C   UNL     1       2.688 -36.317  15.782  1.00  0.00     0.041 C 
ATOM     23  O   UNL     1       1.501 -36.416  15.374  1.00  0.00    -0.550 OA
ATOM     24  O   UNL     1       3.562 -37.385  15.622  1.00  0.00    -0.550 OA
ENDBRANCH  21  22
ENDBRANCH  20  21
ENDBRANCH  19  20
ENDBRANCH  18  19
ENDBRANCH  17  18
ENDBRANCH  16  17
ENDBRANCH  15  16
ENDBRANCH  14  15
ENDBRANCH  13  14
ENDBRANCH   1  13
TORSDOF 20
ENDMDL
MODEL 6
REMARK VINA RESULT:    -3.207      2.075      4.193
REMARK INTER + INTRA:          -8.459
REMARK INTER:                  -6.578
REMARK INTRA:                  -1.881
REMARK UNBOUND:                -1.503
REMARK SMILES CCCCCCCCCCCCCCCCCCCCCC(=O)[O-]
REMARK SMILES IDX 12 1 11 2 10 3 9 4 8 5 7 6 6 7 5 8 4 9 3 10 2 11 1 12 13 13
REMARK SMILES IDX 14 14 15 15 16 16 17 17 18 18 19 19 20 20 21 21 22 22 23 23
REMARK SMILES IDX 24 24
REMARK H PARENT
REMARK Flexibility Score: inf
ROOT
ATOM      1  C   UNL     1       4.946 -37.473  21.313  1.00  0.00     0.000 C 
ENDROOT
BRANCH   1   2
ATOM      2  C   UNL     1       5.389 -37.093  19.892  1.00  0.00     0.000 C 
BRANCH   2   3
ATOM      3  C   UNL     1       4.370 -37.573  18.852  1.00  0.00     0.000 C 
BRANCH   3   4
ATOM      4  C   UNL     1       3.022 -36.862  19.030  1.00  0.00    -0.000 C 
BRANCH   4   5
ATOM      5  C   UNL     1       1.875 -37.879  19.129  1.00  0.00    -0.000 C 
BRANCH   5   6
ATOM      6  C   UNL     1       0.779 -37.640  18.078  1.00  0.00    -0.000 C 
BRANCH   6   7
ATOM      7  C   UNL     1       1.049 -36.399  17.212  1.00  0.00    -0.000 C 
BRANCH   7   8
ATOM      8  C   UNL     1       1.483 -36.799  15.797  1.00  0.00    -0.000 C 
BRANCH   8   9
ATOM      9  C   UNL     1       2.834 -36.164  15.436  1.00  0.00    -0.000 C 
BRANCH   9  10
ATOM     10  C   UNL     1       3.247 -36.436  13.981  1.00  0.00    -0.000 C 
BRANCH  10  11
ATOM     11  C   UNL     1       4.448 -37.386  13.876  1.00  0.00    -0.003 C 
ATOM     12  C   UNL     1       4.118 -38.756  14.462  1.00  0.00     0.004 C 
ENDBRANCH  10  11
ENDBRANCH   9  10
ENDBRANCH   8   9
ENDBRANCH   7   8
ENDBRANCH   6   7
ENDBRANCH   5   6
ENDBRANCH   4   5
ENDBRANCH   3   4
ENDBRANCH   2   3
ENDBRANCH   1   2
BRANCH   1  13
ATOM     13  C   UNL     1       5.397 -38.885  21.723  1.00  0.00     0.000 C 
BRANCH  13  14
ATOM     14  C   UNL     1       4.611 -39.505  22.896  1.00  0.00     0.000 C 
BRANCH  14  15
ATOM     15  C   UNL     1       3.915 -38.489  23.823  1.00  0.00     0.000 C 
BRANCH  15  16
ATOM     16  C   UNL     1       4.621 -38.245  25.173  1.00  0.00     0.000 C 
BRANCH  16  17
ATOM     17  C   UNL     1       4.991 -36.779  25.461  1.00  0.00     0.000 C 
BRANCH  17  18
ATOM     18  C   UNL     1       6.109 -36.254  24.545  1.00  0.00     0.000 C 
BRANCH  18  19
ATOM     19  C   UNL     1       6.030 -34.733  24.330  1.00  0.00     0.000 C 
BRANCH  19  20
ATOM     20  C   UNL     1       6.044 -34.343  22.842  1.00  0.00     0.006 C 
BRANCH  20  21
ATOM     21  C   UNL     1       5.135 -33.141  22.551  1.00  0.00     0.053 C 
BRANCH  21  22
ATOM     22  C   UNL     1       4.225 -33.404  21.391  1.00  0.00     0.041 C 
ATOM     23  O   UNL     1       3.034 -32.995  21.413  1.00  0.00    -0.550 OA
ATOM     24  O   UNL     1       4.681 -34.133  20.300  1.00  0.00    -0.550 OA
ENDBRANCH  21  22
ENDBRANCH  20  21
ENDBRANCH  19  20
ENDBRANCH  18  19
ENDBRANCH  17  18
ENDBRANCH  16  17
ENDBRANCH  15  16
ENDBRANCH  14  15
ENDBRANCH  13  14
ENDBRANCH   1  13
TORSDOF 20
ENDMDL
MODEL 7
REMARK VINA RESULT:    -2.916      1.071      6.193
REMARK INTER + INTRA:          -7.829
REMARK INTER:                  -6.607
REMARK INTRA:                  -1.222
REMARK UNBOUND:                -1.503
REMARK SMILES CCCCCCCCCCCCCCCCCCCCCC(=O)[O-]
REMARK SMILES IDX 12 1 11 2 10 3 9 4 8 5 7 6 6 7 5 8 4 9 3 10 2 11 1 12 13 13
REMARK SMILES IDX 14 14 15 15 16 16 17 17 18 18 19 19 20 20 21 21 22 22 23 23
REMARK SMILES IDX 24 24
REMARK H PARENT
REMARK Flexibility Score: inf
ROOT
ATOM      1  C   UNL     1       4.534 -37.544  20.814  1.00  0.00     0.000 C 
ENDROOT
BRANCH   1   2
ATOM      2  C   UNL     1       5.504 -38.212  21.799  1.00  0.00     0.000 C 
BRANCH   2   3
ATOM      3  C   UNL     1       4.841 -39.404  22.500  1.00  0.00     0.000 C 
BRANCH   3   4
ATOM      4  C   UNL     1       4.611 -39.110  23.988  1.00  0.00    -0.000 C 
BRANCH   4   5
ATOM      5  C   UNL     1       4.315 -37.620  24.214  1.00  0.00    -0.000 C 
BRANCH   5   6
ATOM      6  C   UNL     1       4.804 -37.119  25.582  1.00  0.00    -0.000 C 
BRANCH   6   7
ATOM      7  C   UNL     1       5.991 -36.150  25.469  1.00  0.00    -0.000 C 
BRANCH   7   8
ATOM      8  C   UNL     1       6.125 -35.609  24.041  1.00  0.00    -0.000 C 
BRANCH   8   9
ATOM      9  C   UNL     1       6.038 -34.076  24.023  1.00  0.00    -0.000 C 
BRANCH   9  10
ATOM     10  C   UNL     1       5.497 -33.528  22.693  1.00  0.00    -0.000 C 
BRANCH  10  11
ATOM     11  C   UNL     1       4.075 -34.017  22.388  1.00  0.00    -0.003 C 
ATOM     12  C   UNL     1       3.348 -33.051  21.455  1.00  0.00     0.004 C 
ENDBRANCH  10  11
ENDBRANCH   9  10
ENDBRANCH   8   9
ENDBRANCH   7   8
ENDBRANCH   6   7
ENDBRANCH   5   6
ENDBRANCH   4   5
ENDBRANCH   3   4
ENDBRANCH   2   3
ENDBRANCH   1   2
BRANCH   1  13
ATOM     13  C   UNL     1       5.242 -36.967  19.575  1.00  0.00     0.000 C 
BRANCH  13  14
ATOM     14  C   UNL     1       5.521 -35.452  19.632  1.00  0.00     0.000 C 
BRANCH  14  15
ATOM     15  C   UNL     1       4.604 -34.586  18.745  1.00  0.00     0.000 C 
BRANCH  15  16
ATOM     16  C   UNL     1       4.553 -35.000  17.259  1.00  0.00     0.000 C 
BRANCH  16  17
ATOM     17  C   UNL     1       3.141 -35.075  16.651  1.00  0.00     0.000 C 
BRANCH  17  18
ATOM     18  C   UNL     1       3.091 -35.906  15.358  1.00  0.00     0.000 C 
BRANCH  18  19
ATOM     19  C   UNL     1       3.205 -37.416  15.623  1.00  0.00     0.000 C 
BRANCH  19  20
ATOM     20  C   UNL     1       2.744 -37.807  17.038  1.00  0.00     0.006 C 
BRANCH  20  21
ATOM     21  C   UNL     1       1.482 -37.046  17.466  1.00  0.00     0.053 C 
BRANCH  21  22
ATOM     22  C   UNL     1       0.878 -37.629  18.707  1.00  0.00     0.041 C 
ATOM     23  O   UNL     1      -0.272 -37.275  19.079  1.00  0.00    -0.550 OA
ATOM     24  O   UNL     1       1.600 -38.536  19.471  1.00  0.00    -0.550 OA
ENDBRANCH  21  22
ENDBRANCH  20  21
ENDBRANCH  19  20
ENDBRANCH  18  19
ENDBRANCH  17  18
ENDBRANCH  16  17
ENDBRANCH  15  16
ENDBRANCH  14  15
ENDBRANCH  13  14
ENDBRANCH   1  13
TORSDOF 20
ENDMDL
MODEL 8
REMARK VINA RESULT:    -2.851      2.654      6.185
REMARK INTER + INTRA:          -7.687
REMARK INTER:                  -5.228
REMARK INTRA:                  -2.459
REMARK UNBOUND:                -1.503
REMARK SMILES CCCCCCCCCCCCCCCCCCCCCC(=O)[O-]
REMARK SMILES IDX 12 1 11 2 10 3 9 4 8 5 7 6 6 7 5 8 4 9 3 10 2 11 1 12 13 13
REMARK SMILES IDX 14 14 15 15 16 16 17 17 18 18 19 19 20 20 21 21 22 22 23 23
REMARK SMILES IDX 24 24
REMARK H PARENT
REMARK Flexibility Score: inf
ROOT
ATOM      1  C   UNL     1       0.636 -37.328  17.620  1.00  0.00     0.000 C 
ENDROOT
BRANCH   1   2
ATOM      2  C   UNL     1       1.981 -37.390  16.882  1.00  0.00     0.000 C 
BRANCH   2   3
ATOM      3  C   UNL     1       2.036 -36.357  15.751  1.00  0.00     0.000 C 
BRANCH   3   4
ATOM      4  C   UNL     1       2.953 -35.184  16.119  1.00  0.00    -0.000 C 
BRANCH   4   5
ATOM      5  C   UNL     1       3.940 -35.585  17.225  1.00  0.00    -0.000 C 
BRANCH   5   6
ATOM      6  C   UNL     1       4.247 -34.431  18.193  1.00  0.00    -0.000 C 
BRANCH   6   7
ATOM      7  C   UNL     1       5.745 -34.307  18.512  1.00  0.00    -0.000 C 
BRANCH   7   8
ATOM      8  C   UNL     1       5.989 -34.333  20.025  1.00  0.00    -0.000 C 
BRANCH   8   9
ATOM      9  C   UNL     1       4.687 -34.079  20.797  1.00  0.00    -0.000 C 
BRANCH   9  10
ATOM     10  C   UNL     1       4.653 -34.798  22.156  1.00  0.00    -0.000 C 
BRANCH  10  11
ATOM     11  C   UNL     1       5.998 -34.731  22.893  1.00  0.00    -0.003 C 
ATOM     12  C   UNL     1       6.124 -33.436  23.690  1.00  0.00     0.004 C 
ENDBRANCH  10  11
ENDBRANCH   9  10
ENDBRANCH   8   9
ENDBRANCH   7   8
ENDBRANCH   6   7
ENDBRANCH   5   6
ENDBRANCH   4   5
ENDBRANCH   3   4
ENDBRANCH   2   3
ENDBRANCH   1   2
BRANCH   1  13
ATOM     13  C   UNL     1       0.766 -37.614  19.126  1.00  0.00     0.000 C 
BRANCH  13  14
ATOM     14  C   UNL     1       2.095 -38.270  19.553  1.00  0.00     0.000 C 
BRANCH  14  15
ATOM     15  C   UNL     1       3.237 -37.283  19.864  1.00  0.00     0.000 C 
BRANCH  15  16
ATOM     16  C   UNL     1       4.650 -37.781  19.498  1.00  0.00     0.000 C 
BRANCH  16  17
ATOM     17  C   UNL     1       5.593 -38.011  20.693  1.00  0.00     0.000 C 
BRANCH  17  18
ATOM     18  C   UNL     1       5.638 -39.480  21.144  1.00  0.00     0.000 C 
BRANCH  18  19
ATOM     19  C   UNL     1       5.287 -39.652  22.631  1.00  0.00     0.000 C 
BRANCH  19  20
ATOM     20  C   UNL     1       5.204 -38.311  23.380  1.00  0.00     0.006 C 
BRANCH  20  21
ATOM     21  C   UNL     1       4.178 -38.349  24.520  1.00  0.00     0.053 C 
BRANCH  21  22
ATOM     22  C   UNL     1       4.428 -37.267  25.526  1.00  0.00     0.041 C 
ATOM     23  O   UNL     1       5.545 -36.688  25.570  1.00  0.00    -0.550 OA
ATOM     24  O   UNL     1       3.439 -36.924  26.439  1.00  0.00    -0.550 OA
ENDBRANCH  21  22
ENDBRANCH  20  21
ENDBRANCH  19  20
ENDBRANCH  18  19
ENDBRANCH  17  18
ENDBRANCH  16  17
ENDBRANCH  15  16
ENDBRANCH  14  15
ENDBRANCH  13  14
ENDBRANCH   1  13
TORSDOF 20
ENDMDL
