MODEL 1
REMARK VINA RESULT:    -3.164      0.000      0.000
REMARK INTER + INTRA:          -4.294
REMARK INTER:                  -4.089
REMARK INTRA:                  -0.205
REMARK UNBOUND:                -0.205
REMARK SMILES CCCCCCC(=O)[O-]
REMARK SMILES IDX 5 1 6 2 7 3 8 4 9 5 4 6 3 7 2 8 1 9
REMARK H PARENT
REMARK Flexibility Score: inf
ROOT
ATOM      1  C   UNL     1      56.927  28.572  50.554  1.00  0.00     0.006 C 
ENDROOT
BRANCH   1   2
ATOM      2  C   UNL     1      58.059  27.683  50.021  1.00  0.00     0.053 C 
BRANCH   2   3
ATOM      3  C   UNL     1      59.090  28.513  49.324  1.00  0.00     0.041 C 
ATOM      4  O   UNL     1      58.798  29.663  48.902  1.00  0.00    -0.550 OA
ATOM      5  O   UNL     1      60.388  28.038  49.186  1.00  0.00    -0.550 OA
ENDBRANCH   2   3
ENDBRANCH   1   2
BRANCH   1   6
ATOM      6  C   UNL     1      55.537  27.944  50.357  1.00  0.00     0.000 C 
BRANCH   6   7
ATOM      7  C   UNL     1      55.610  26.454  49.985  1.00  0.00    -0.000 C 
BRANCH   7   8
ATOM      8  C   UNL     1      54.350  25.969  49.248  1.00  0.00    -0.003 C 
ATOM      9  C   UNL     1      53.177  26.940  49.379  1.00  0.00     0.004 C 
ENDBRANCH   7   8
ENDBRANCH   6   7
ENDBRANCH   1   6
TORSDOF 5
ENDMDL
MODEL 2
REMARK VINA RESULT:    -3.120      9.367     10.484
REMARK INTER + INTRA:          -4.237
REMARK INTER:                  -3.841
REMARK INTRA:                  -0.395
REMARK UNBOUND:                -0.205
REMARK SMILES CCCCCCC(=O)[O-]
REMARK SMILES IDX 5 1 6 2 7 3 8 4 9 5 4 6 3 7 2 8 1 9
REMARK H PARENT
REMARK Flexibility Score: inf
ROOT
ATOM      1  C   UNL     1      57.961  16.932  49.026  1.00  0.00     0.006 C 
ENDROOT
BRANCH   1   2
ATOM      2  C   UNL     1      57.909  17.257  50.525  1.00  0.00     0.053 C 
BRANCH   2   3
ATOM      3  C   UNL     1      57.088  18.484  50.766  1.00  0.00     0.041 C 
ATOM      4  O   UNL     1      57.612  19.503  51.290  1.00  0.00    -0.550 OA
ATOM      5  O   UNL     1      55.758  18.522  50.366  1.00  0.00    -0.550 OA
ENDBRANCH   2   3
ENDBRANCH   1   2
BRANCH   1   6
ATOM      6  C   UNL     1      59.282  17.366  48.370  1.00  0.00     0.000 C 
BRANCH   6   7
ATOM      7  C   UNL     1      60.370  17.705  49.403  1.00  0.00    -0.000 C 
BRANCH   7   8
ATOM      8  C   UNL     1      60.830  19.169  49.313  1.00  0.00    -0.003 C 
ATOM      9  C   UNL     1      59.880  20.040  48.492  1.00  0.00     0.004 C 
ENDBRANCH   7   8
ENDBRANCH   6   7
ENDBRANCH   1   6
TORSDOF 5
ENDMDL
MODEL 3
REMARK VINA RESULT:    -3.093      1.509      1.707
REMARK INTER + INTRA:          -4.202
REMARK INTER:                  -3.989
REMARK INTRA:                  -0.214
REMARK UNBOUND:                -0.205
REMARK SMILES CCCCCCC(=O)[O-]
REMARK SMILES IDX 5 1 6 2 7 3 8 4 9 5 4 6 3 7 2 8 1 9
REMARK H PARENT
REMARK Flexibility Score: inf
ROOT
ATOM      1  C   UNL     1      58.125  29.357  50.574  1.00  0.00     0.006 C 
ENDROOT
BRANCH   1   2
ATOM      2  C   UNL     1      58.851  29.208  49.230  1.00  0.00     0.053 C 
BRANCH   2   3
ATOM      3  C   UNL     1      59.778  28.033  49.264  1.00  0.00     0.041 C 
ATOM      4  O   UNL     1      59.316  26.861  49.240  1.00  0.00    -0.550 OA
ATOM      5  O   UNL     1      61.152  28.232  49.272  1.00  0.00    -0.550 OA
ENDBRANCH   2   3
ENDBRANCH   1   2
BRANCH   1   6
ATOM      6  C   UNL     1      56.608  29.139  50.457  1.00  0.00     0.000 C 
BRANCH   6   7
ATOM      7  C   UNL     1      56.208  27.665  50.642  1.00  0.00    -0.000 C 
BRANCH   7   8
ATOM      8  C   UNL     1      54.841  27.343  50.017  1.00  0.00    -0.003 C 
ATOM      9  C   UNL     1      53.871  28.523  50.074  1.00  0.00     0.004 C 
ENDBRANCH   7   8
ENDBRANCH   6   7
ENDBRANCH   1   6
TORSDOF 5
ENDMDL
MODEL 4
REMARK VINA RESULT:    -3.081      0.925      1.341
REMARK INTER + INTRA:          -4.186
REMARK INTER:                  -4.001
REMARK INTRA:                  -0.185
REMARK UNBOUND:                -0.205
REMARK SMILES CCCCCCC(=O)[O-]
REMARK SMILES IDX 5 1 6 2 7 3 8 4 9 5 4 6 3 7 2 8 1 9
REMARK H PARENT
REMARK Flexibility Score: inf
ROOT
ATOM      1  C   UNL     1      57.936  26.859  50.602  1.00  0.00     0.006 C 
ENDROOT
BRANCH   1   2
ATOM      2  C   UNL     1      59.016  26.691  49.525  1.00  0.00     0.053 C 
BRANCH   2   3
ATOM      3  C   UNL     1      59.648  28.009  49.209  1.00  0.00     0.041 C 
ATOM      4  O   UNL     1      58.928  29.013  48.960  1.00  0.00    -0.550 OA
ATOM      5  O   UNL     1      61.030  28.143  49.237  1.00  0.00    -0.550 OA
ENDBRANCH   2   3
ENDBRANCH   1   2
BRANCH   1   6
ATOM      6  C   UNL     1      56.535  26.468  50.104  1.00  0.00     0.000 C 
BRANCH   6   7
ATOM      7  C   UNL     1      55.513  27.606  50.265  1.00  0.00    -0.000 C 
BRANCH   7   8
ATOM      8  C   UNL     1      54.110  27.210  49.776  1.00  0.00    -0.003 C 
ATOM      9  C   UNL     1      54.079  25.830  49.119  1.00  0.00     0.004 C 
ENDBRANCH   7   8
ENDBRANCH   6   7
ENDBRANCH   1   6
TORSDOF 5
ENDMDL
MODEL 5
REMARK VINA RESULT:    -3.005      8.930      9.809
REMARK INTER + INTRA:          -4.088
REMARK INTER:                  -3.770
REMARK INTRA:                  -0.318
REMARK UNBOUND:                -0.205
REMARK SMILES CCCCCCC(=O)[O-]
REMARK SMILES IDX 5 1 6 2 7 3 8 4 9 5 4 6 3 7 2 8 1 9
REMARK H PARENT
REMARK Flexibility Score: inf
ROOT
ATOM      1  C   UNL     1      57.988  17.085  49.188  1.00  0.00     0.006 C 
ENDROOT
BRANCH   1   2
ATOM      2  C   UNL     1      59.331  17.295  48.476  1.00  0.00     0.053 C 
BRANCH   2   3
ATOM      3  C   UNL     1      59.922  18.616  48.854  1.00  0.00     0.041 C 
ATOM      4  O   UNL     1      59.317  19.685  48.571  1.00  0.00    -0.550 OA
ATOM      5  O   UNL     1      61.115  18.668  49.563  1.00  0.00    -0.550 OA
ENDBRANCH   2   3
ENDBRANCH   1   2
BRANCH   1   6
ATOM      6  C   UNL     1      58.142  16.903  50.706  1.00  0.00     0.000 C 
BRANCH   6   7
ATOM      7  C   UNL     1      57.437  18.011  51.508  1.00  0.00    -0.000 C 
BRANCH   7   8
ATOM      8  C   UNL     1      56.293  18.670  50.720  1.00  0.00    -0.003 C 
ATOM      9  C   UNL     1      55.278  19.370  51.624  1.00  0.00     0.004 C 
ENDBRANCH   7   8
ENDBRANCH   6   7
ENDBRANCH   1   6
TORSDOF 5
ENDMDL
MODEL 6
REMARK VINA RESULT:    -2.994      2.840      4.915
REMARK INTER + INTRA:          -4.074
REMARK INTER:                  -3.934
REMARK INTRA:                  -0.140
REMARK UNBOUND:                -0.205
REMARK SMILES CCCCCCC(=O)[O-]
REMARK SMILES IDX 5 1 6 2 7 3 8 4 9 5 4 6 3 7 2 8 1 9
REMARK H PARENT
REMARK Flexibility Score: inf
ROOT
ATOM      1  C   UNL     1      56.803  28.328  50.362  1.00  0.00     0.006 C 
ENDROOT
BRANCH   1   2
ATOM      2  C   UNL     1      55.355  28.766  50.616  1.00  0.00     0.053 C 
BRANCH   2   3
ATOM      3  C   UNL     1      54.400  27.830  49.946  1.00  0.00     0.041 C 
ATOM      4  O   UNL     1      53.226  28.202  49.683  1.00  0.00    -0.550 OA
ATOM      5  O   UNL     1      54.821  26.562  49.565  1.00  0.00    -0.550 OA
ENDBRANCH   2   3
ENDBRANCH   1   2
BRANCH   1   6
ATOM      6  C   UNL     1      57.787  29.508  50.342  1.00  0.00     0.000 C 
BRANCH   6   7
ATOM      7  C   UNL     1      58.872  29.354  49.263  1.00  0.00    -0.000 C 
BRANCH   7   8
ATOM      8  C   UNL     1      59.466  27.936  49.224  1.00  0.00    -0.003 C 
ATOM      9  C   UNL     1      60.949  27.905  49.591  1.00  0.00     0.004 C 
ENDBRANCH   7   8
ENDBRANCH   6   7
ENDBRANCH   1   6
TORSDOF 5
ENDMDL
MODEL 7
REMARK VINA RESULT:    -2.841      9.438     10.529
REMARK INTER + INTRA:          -3.877
REMARK INTER:                  -3.575
REMARK INTRA:                  -0.302
REMARK UNBOUND:                -0.205
REMARK SMILES CCCCCCC(=O)[O-]
REMARK SMILES IDX 5 1 6 2 7 3 8 4 9 5 4 6 3 7 2 8 1 9
REMARK H PARENT
REMARK Flexibility Score: inf
ROOT
ATOM      1  C   UNL     1      57.394  17.867  51.621  1.00  0.00     0.006 C 
ENDROOT
BRANCH   1   2
ATOM      2  C   UNL     1      56.851  19.048  50.805  1.00  0.00     0.053 C 
BRANCH   2   3
ATOM      3  C   UNL     1      55.382  19.212  51.037  1.00  0.00     0.041 C 
ATOM      4  O   UNL     1      54.560  18.919  50.129  1.00  0.00    -0.550 OA
ATOM      5  O   UNL     1      54.918  19.641  52.274  1.00  0.00    -0.550 OA
ENDBRANCH   2   3
ENDBRANCH   1   2
BRANCH   1   6
ATOM      6  C   UNL     1      58.273  16.921  50.787  1.00  0.00     0.000 C 
BRANCH   6   7
ATOM      7  C   UNL     1      57.942  16.980  49.286  1.00  0.00    -0.000 C 
BRANCH   7   8
ATOM      8  C   UNL     1      59.182  17.258  48.421  1.00  0.00    -0.003 C 
ATOM      9  C   UNL     1      60.313  17.924  49.203  1.00  0.00     0.004 C 
ENDBRANCH   7   8
ENDBRANCH   6   7
ENDBRANCH   1   6
TORSDOF 5
ENDMDL
MODEL 8
REMARK VINA RESULT:    -2.766      3.003      4.835
REMARK INTER + INTRA:          -3.780
REMARK INTER:                  -3.516
REMARK INTRA:                  -0.264
REMARK UNBOUND:                -0.205
REMARK SMILES CCCCCCC(=O)[O-]
REMARK SMILES IDX 5 1 6 2 7 3 8 4 9 5 4 6 3 7 2 8 1 9
REMARK H PARENT
REMARK Flexibility Score: inf
ROOT
ATOM      1  C   UNL     1      56.967  26.463  50.784  1.00  0.00     0.006 C 
ENDROOT
BRANCH   1   2
ATOM      2  C   UNL     1      55.878  27.419  50.281  1.00  0.00     0.053 C 
BRANCH   2   3
ATOM      3  C   UNL     1      54.621  26.666  49.979  1.00  0.00     0.041 C 
ATOM      4  O   UNL     1      54.572  25.886  48.991  1.00  0.00    -0.550 OA
ATOM      5  O   UNL     1      53.520  26.786  50.817  1.00  0.00    -0.550 OA
ENDBRANCH   2   3
ENDBRANCH   1   2
BRANCH   1   6
ATOM      6  C   UNL     1      58.145  26.335  49.804  1.00  0.00     0.000 C 
BRANCH   6   7
ATOM      7  C   UNL     1      59.302  27.290  50.145  1.00  0.00    -0.000 C 
BRANCH   7   8
ATOM      8  C   UNL     1      59.464  28.412  49.106  1.00  0.00    -0.003 C 
ATOM      9  C   UNL     1      58.655  29.661  49.452  1.00  0.00     0.004 C 
ENDBRANCH   7   8
ENDBRANCH   6   7
ENDBRANCH   1   6
TORSDOF 5
ENDMDL
MODEL 9
REMARK VINA RESULT:    -2.661     13.998     14.865
REMARK INTER + INTRA:          -3.644
REMARK INTER:                  -3.500
REMARK INTRA:                  -0.143
REMARK UNBOUND:                -0.205
REMARK SMILES CCCCCCC(=O)[O-]
REMARK SMILES IDX 5 1 6 2 7 3 8 4 9 5 4 6 3 7 2 8 1 9
REMARK H PARENT
REMARK Flexibility Score: inf
ROOT
ATOM      1  C   UNL     1      64.419  32.397  60.105  1.00  0.00     0.006 C 
ENDROOT
BRANCH   1   2
ATOM      2  C   UNL     1      64.162  31.189  61.016  1.00  0.00     0.053 C 
BRANCH   2   3
ATOM      3  C   UNL     1      65.052  30.049  60.635  1.00  0.00     0.041 C 
ATOM      4  O   UNL     1      66.164  30.269  60.086  1.00  0.00    -0.550 OA
ATOM      5  O   UNL     1      64.677  28.745  60.930  1.00  0.00    -0.550 OA
ENDBRANCH   2   3
ENDBRANCH   1   2
BRANCH   1   6
ATOM      6  C   UNL     1      64.427  33.729  60.872  1.00  0.00     0.000 C 
BRANCH   6   7
ATOM      7  C   UNL     1      63.473  34.769  60.260  1.00  0.00    -0.000 C 
BRANCH   7   8
ATOM      8  C   UNL     1      63.207  35.952  61.205  1.00  0.00    -0.003 C 
ATOM      9  C   UNL     1      64.251  36.071  62.314  1.00  0.00     0.004 C 
ENDBRANCH   7   8
ENDBRANCH   6   7
ENDBRANCH   1   6
TORSDOF 5
ENDMDL
