MODEL 1
REMARK VINA RESULT:    -3.664      0.000      0.000
REMARK INTER + INTRA:          -4.944
REMARK INTER:                  -4.520
REMARK INTRA:                  -0.424
REMARK UNBOUND:                -0.424
REMARK SMILES CCCCC=CC(C)=O
REMARK SMILES IDX 4 1 3 2 2 3 1 4 5 5 6 6 7 7 9 8 8 9
REMARK H PARENT
REMARK Flexibility Score: inf
ROOT
ATOM      1  C   UNL     1       0.926   8.399 -10.640  1.00  0.00     0.027 C 
ENDROOT
BRANCH   1   2
ATOM      2  C   UNL     1       2.102   8.078  -9.704  1.00  0.00     0.004 C 
BRANCH   2   3
ATOM      3  C   UNL     1       1.639   7.373  -8.420  1.00  0.00    -0.003 C 
ATOM      4  C   UNL     1       0.576   8.193  -7.695  1.00  0.00     0.004 C 
ENDBRANCH   2   3
ENDBRANCH   1   2
BRANCH   1   5
ATOM      5  C   UNL     1       0.501   7.208 -11.460  1.00  0.00    -0.023 C 
ATOM      6  C   UNL     1      -0.694   6.598 -11.404  1.00  0.00     0.042 C 
BRANCH   6   7
ATOM      7  C   UNL     1      -1.850   7.001 -10.571  1.00  0.00     0.152 C 
ATOM      8  O   UNL     1      -2.172   6.365  -9.533  1.00  0.00    -0.295 OA
ATOM      9  C   UNL     1      -2.613   8.236 -10.929  1.00  0.00     0.093 C 
ENDBRANCH   6   7
ENDBRANCH   1   5
TORSDOF 4
ENDMDL
MODEL 2
REMARK VINA RESULT:    -3.657      2.032      3.915
REMARK INTER + INTRA:          -4.936
REMARK INTER:                  -4.380
REMARK INTRA:                  -0.556
REMARK UNBOUND:                -0.424
REMARK SMILES CCCCC=CC(C)=O
REMARK SMILES IDX 4 1 3 2 2 3 1 4 5 5 6 6 7 7 9 8 8 9
REMARK H PARENT
REMARK Flexibility Score: inf
ROOT
ATOM      1  C   UNL     1      -0.271   6.641  -9.007  1.00  0.00     0.027 C 
ENDROOT
BRANCH   1   2
ATOM      2  C   UNL     1      -1.479   7.591  -8.987  1.00  0.00     0.004 C 
BRANCH   2   3
ATOM      3  C   UNL     1      -2.422   7.349 -10.175  1.00  0.00    -0.003 C 
ATOM      4  C   UNL     1      -1.691   6.664 -11.326  1.00  0.00     0.004 C 
ENDBRANCH   2   3
ENDBRANCH   1   2
BRANCH   1   5
ATOM      5  C   UNL     1       0.997   7.313  -8.548  1.00  0.00    -0.023 C 
ATOM      6  C   UNL     1       1.929   7.866  -9.341  1.00  0.00     0.042 C 
BRANCH   6   7
ATOM      7  C   UNL     1       1.876   7.977 -10.818  1.00  0.00     0.152 C 
ATOM      8  O   UNL     1       2.375   7.096 -11.566  1.00  0.00    -0.295 OA
ATOM      9  C   UNL     1       1.148   9.127 -11.438  1.00  0.00     0.093 C 
ENDBRANCH   6   7
ENDBRANCH   1   5
TORSDOF 4
ENDMDL
MODEL 3
REMARK VINA RESULT:    -3.604      1.233      2.658
REMARK INTER + INTRA:          -4.871
REMARK INTER:                  -4.246
REMARK INTRA:                  -0.625
REMARK UNBOUND:                -0.424
REMARK SMILES CCCCC=CC(C)=O
REMARK SMILES IDX 4 1 3 2 2 3 1 4 5 5 6 6 7 7 9 8 8 9
REMARK H PARENT
REMARK Flexibility Score: inf
ROOT
ATOM      1  C   UNL     1       1.905   7.710  -9.047  1.00  0.00     0.027 C 
ENDROOT
BRANCH   1   2
ATOM      2  C   UNL     1       2.303   8.931  -9.892  1.00  0.00     0.004 C 
BRANCH   2   3
ATOM      3  C   UNL     1       1.757   8.842 -11.325  1.00  0.00    -0.003 C 
ATOM      4  C   UNL     1       1.598   7.389 -11.764  1.00  0.00     0.004 C 
ENDBRANCH   2   3
ENDBRANCH   1   2
BRANCH   1   5
ATOM      5  C   UNL     1       0.894   8.052  -7.983  1.00  0.00    -0.023 C 
ATOM      6  C   UNL     1      -0.441   7.968  -8.107  1.00  0.00     0.042 C 
BRANCH   6   7
ATOM      7  C   UNL     1      -1.186   7.473  -9.288  1.00  0.00     0.152 C 
ATOM      8  O   UNL     1      -1.355   6.243  -9.496  1.00  0.00    -0.295 OA
ATOM      9  C   UNL     1      -1.815   8.458 -10.220  1.00  0.00     0.093 C 
ENDBRANCH   6   7
ENDBRANCH   1   5
TORSDOF 4
ENDMDL
MODEL 4
REMARK VINA RESULT:    -3.405      2.292      3.495
REMARK INTER + INTRA:          -4.625
REMARK INTER:                  -4.098
REMARK INTRA:                  -0.526
REMARK UNBOUND:                -0.424
REMARK SMILES CCCCC=CC(C)=O
REMARK SMILES IDX 4 1 3 2 2 3 1 4 5 5 6 6 7 7 9 8 8 9
REMARK H PARENT
REMARK Flexibility Score: inf
ROOT
ATOM      1  C   UNL     1      -0.235   7.057 -10.054  1.00  0.00     0.027 C 
ENDROOT
BRANCH   1   2
ATOM      2  C   UNL     1      -0.635   7.595  -8.671  1.00  0.00     0.004 C 
BRANCH   2   3
ATOM      3  C   UNL     1       0.565   8.177  -7.910  1.00  0.00    -0.003 C 
ATOM      4  C   UNL     1       1.760   7.229  -7.960  1.00  0.00     0.004 C 
ENDBRANCH   2   3
ENDBRANCH   1   2
BRANCH   1   5
ATOM      5  C   UNL     1      -0.156   8.145 -11.094  1.00  0.00    -0.023 C 
ATOM      6  C   UNL     1       0.958   8.559 -11.720  1.00  0.00     0.042 C 
BRANCH   6   7
ATOM      7  C   UNL     1       2.319   7.997 -11.558  1.00  0.00     0.152 C 
ATOM      8  O   UNL     1       2.634   6.877 -12.039  1.00  0.00    -0.295 OA
ATOM      9  C   UNL     1       3.367   8.811 -10.868  1.00  0.00     0.093 C 
ENDBRANCH   6   7
ENDBRANCH   1   5
TORSDOF 4
ENDMDL
MODEL 5
REMARK VINA RESULT:    -3.321      1.957      2.709
REMARK INTER + INTRA:          -4.522
REMARK INTER:                  -4.315
REMARK INTRA:                  -0.207
REMARK UNBOUND:                -0.424
REMARK SMILES CCCCC=CC(C)=O
REMARK SMILES IDX 4 1 3 2 2 3 1 4 5 5 6 6 7 7 9 8 8 9
REMARK H PARENT
REMARK Flexibility Score: inf
ROOT
ATOM      1  C   UNL     1      -1.897   7.230  -9.472  1.00  0.00     0.027 C 
ENDROOT
BRANCH   1   2
ATOM      2  C   UNL     1      -0.481   6.699  -9.197  1.00  0.00     0.004 C 
BRANCH   2   3
ATOM      3  C   UNL     1       0.558   7.829  -9.142  1.00  0.00    -0.003 C 
ATOM      4  C   UNL     1       0.861   8.227  -7.700  1.00  0.00     0.004 C 
ENDBRANCH   2   3
ENDBRANCH   1   2
BRANCH   1   5
ATOM      5  C   UNL     1      -2.420   6.802 -10.819  1.00  0.00    -0.023 C 
ATOM      6  C   UNL     1      -3.319   7.467 -11.563  1.00  0.00     0.042 C 
BRANCH   6   7
ATOM      7  C   UNL     1      -3.935   8.775 -11.240  1.00  0.00     0.152 C 
ATOM      8  O   UNL     1      -5.073   8.857 -10.709  1.00  0.00    -0.295 OA
ATOM      9  C   UNL     1      -3.157  10.029 -11.485  1.00  0.00     0.093 C 
ENDBRANCH   6   7
ENDBRANCH   1   5
TORSDOF 4
ENDMDL
MODEL 6
REMARK VINA RESULT:    -3.296      1.912      2.828
REMARK INTER + INTRA:          -4.490
REMARK INTER:                  -4.088
REMARK INTRA:                  -0.402
REMARK UNBOUND:                -0.424
REMARK SMILES CCCCC=CC(C)=O
REMARK SMILES IDX 4 1 3 2 2 3 1 4 5 5 6 6 7 7 9 8 8 9
REMARK H PARENT
REMARK Flexibility Score: inf
ROOT
ATOM      1  C   UNL     1       2.216   7.993 -10.281  1.00  0.00     0.027 C 
ENDROOT
BRANCH   1   2
ATOM      2  C   UNL     1       2.628   9.444 -10.574  1.00  0.00     0.004 C 
BRANCH   2   3
ATOM      3  C   UNL     1       1.698  10.457  -9.889  1.00  0.00    -0.003 C 
ATOM      4  C   UNL     1       2.499  11.521  -9.144  1.00  0.00     0.004 C 
ENDBRANCH   2   3
ENDBRANCH   1   2
BRANCH   1   5
ATOM      5  C   UNL     1       2.102   7.714  -8.804  1.00  0.00    -0.023 C 
ATOM      6  C   UNL     1       0.993   7.319  -8.159  1.00  0.00     0.042 C 
BRANCH   6   7
ATOM      7  C   UNL     1      -0.324   7.026  -8.771  1.00  0.00     0.152 C 
ATOM      8  O   UNL     1      -0.576   5.910  -9.297  1.00  0.00    -0.295 OA
ATOM      9  C   UNL     1      -1.407   8.055  -8.700  1.00  0.00     0.093 C 
ENDBRANCH   6   7
ENDBRANCH   1   5
TORSDOF 4
ENDMDL
MODEL 7
REMARK VINA RESULT:    -3.280      1.915      4.438
REMARK INTER + INTRA:          -4.471
REMARK INTER:                  -4.188
REMARK INTRA:                  -0.282
REMARK UNBOUND:                -0.424
REMARK SMILES CCCCC=CC(C)=O
REMARK SMILES IDX 4 1 3 2 2 3 1 4 5 5 6 6 7 7 9 8 8 9
REMARK H PARENT
REMARK Flexibility Score: inf
ROOT
ATOM      1  C   UNL     1      -1.278   6.984  -9.977  1.00  0.00     0.027 C 
ENDROOT
BRANCH   1   2
ATOM      2  C   UNL     1      -2.672   7.183 -10.593  1.00  0.00     0.004 C 
BRANCH   2   3
ATOM      3  C   UNL     1      -2.971   8.663 -10.875  1.00  0.00    -0.003 C 
ATOM      4  C   UNL     1      -4.460   8.961 -10.723  1.00  0.00     0.004 C 
ENDBRANCH   2   3
ENDBRANCH   1   2
BRANCH   1   5
ATOM      5  C   UNL     1      -1.126   7.693  -8.656  1.00  0.00    -0.023 C 
ATOM      6  C   UNL     1       0.030   8.100  -8.107  1.00  0.00     0.042 C 
BRANCH   6   7
ATOM      7  C   UNL     1       1.379   7.986  -8.710  1.00  0.00     0.152 C 
ATOM      8  O   UNL     1       2.085   6.954  -8.561  1.00  0.00    -0.295 OA
ATOM      9  C   UNL     1       1.888   9.094  -9.575  1.00  0.00     0.093 C 
ENDBRANCH   6   7
ENDBRANCH   1   5
TORSDOF 4
ENDMDL
MODEL 8
REMARK VINA RESULT:    -3.237      1.344      2.427
REMARK INTER + INTRA:          -4.417
REMARK INTER:                  -3.863
REMARK INTRA:                  -0.554
REMARK UNBOUND:                -0.424
REMARK SMILES CCCCC=CC(C)=O
REMARK SMILES IDX 4 1 3 2 2 3 1 4 5 5 6 6 7 7 9 8 8 9
REMARK H PARENT
REMARK Flexibility Score: inf
ROOT
ATOM      1  C   UNL     1      -0.503   9.316 -11.037  1.00  0.00     0.027 C 
ENDROOT
BRANCH   1   2
ATOM      2  C   UNL     1       0.388   8.850  -9.876  1.00  0.00     0.004 C 
BRANCH   2   3
ATOM      3  C   UNL     1       1.168   7.573 -10.225  1.00  0.00    -0.003 C 
ATOM      4  C   UNL     1       1.140   7.306 -11.727  1.00  0.00     0.004 C 
ENDBRANCH   2   3
ENDBRANCH   1   2
BRANCH   1   5
ATOM      5  C   UNL     1      -1.951   9.441 -10.637  1.00  0.00    -0.023 C 
ATOM      6  C   UNL     1      -2.814   8.425 -10.474  1.00  0.00     0.042 C 
BRANCH   6   7
ATOM      7  C   UNL     1      -2.509   6.981 -10.600  1.00  0.00     0.152 C 
ATOM      8  O   UNL     1      -2.197   6.281  -9.601  1.00  0.00    -0.295 OA
ATOM      9  C   UNL     1      -2.644   6.320 -11.934  1.00  0.00     0.093 C 
ENDBRANCH   6   7
ENDBRANCH   1   5
TORSDOF 4
ENDMDL
MODEL 9
REMARK VINA RESULT:    -3.206      1.735      2.850
REMARK INTER + INTRA:          -4.380
REMARK INTER:                  -3.831
REMARK INTRA:                  -0.549
REMARK UNBOUND:                -0.424
REMARK SMILES CCCCC=CC(C)=O
REMARK SMILES IDX 4 1 3 2 2 3 1 4 5 5 6 6 7 7 9 8 8 9
REMARK H PARENT
REMARK Flexibility Score: inf
ROOT
ATOM      1  C   UNL     1       0.192   9.298 -11.093  1.00  0.00     0.027 C 
ENDROOT
BRANCH   1   2
ATOM      2  C   UNL     1       1.601   9.728 -11.532  1.00  0.00     0.004 C 
BRANCH   2   3
ATOM      3  C   UNL     1       2.593   9.735 -10.359  1.00  0.00    -0.003 C 
ATOM      4  C   UNL     1       2.219  10.798  -9.329  1.00  0.00     0.004 C 
ENDBRANCH   2   3
ENDBRANCH   1   2
BRANCH   1   5
ATOM      5  C   UNL     1       0.037   7.799 -11.047  1.00  0.00    -0.023 C 
ATOM      6  C   UNL     1      -0.035   7.047  -9.937  1.00  0.00     0.042 C 
BRANCH   6   7
ATOM      7  C   UNL     1      -0.031   7.538  -8.539  1.00  0.00     0.152 C 
ATOM      8  O   UNL     1      -1.084   7.932  -7.973  1.00  0.00    -0.295 OA
ATOM      9  C   UNL     1       1.242   7.498  -7.755  1.00  0.00     0.093 C 
ENDBRANCH   6   7
ENDBRANCH   1   5
TORSDOF 4
ENDMDL
