MODEL 1
REMARK VINA RESULT:    -3.026      0.000      0.000
REMARK INTER + INTRA:         -11.143
REMARK INTER:                  -6.917
REMARK INTRA:                  -4.227
REMARK UNBOUND:                -4.227
REMARK SMILES CCCCCCCCCCCCCCCCCCCCCCCC(=O)[O-]
REMARK SMILES IDX 13 1 14 2 15 3 16 4 17 5 18 6 19 7 20 8 21 9 22 10 23 11
REMARK SMILES IDX 24 12 25 13 26 14 12 15 11 16 10 17 9 18 8 19 7 20 6 21 5 22
REMARK SMILES IDX 4 23 3 24 2 25 1 26
REMARK H PARENT
REMARK Flexibility Score: inf
ROOT
ATOM      1  C   UNL     1       5.202   3.999  -6.038  1.00  0.00     0.000 C 
ENDROOT
BRANCH   1   2
ATOM      2  C   UNL     1       4.262   3.400  -7.105  1.00  0.00     0.000 C 
BRANCH   2   3
ATOM      3  C   UNL     1       4.452   4.061  -8.483  1.00  0.00     0.000 C 
BRANCH   3   4
ATOM      4  C   UNL     1       5.081   3.101  -9.515  1.00  0.00     0.000 C 
BRANCH   4   5
ATOM      5  C   UNL     1       6.436   3.581 -10.073  1.00  0.00     0.000 C 
BRANCH   5   6
ATOM      6  C   UNL     1       7.671   2.900  -9.460  1.00  0.00     0.000 C 
BRANCH   6   7
ATOM      7  C   UNL     1       7.317   1.640  -8.651  1.00  0.00     0.000 C 
BRANCH   7   8
ATOM      8  C   UNL     1       7.854   1.693  -7.211  1.00  0.00     0.000 C 
BRANCH   8   9
ATOM      9  C   UNL     1       7.398   0.497  -6.363  1.00  0.00     0.000 C 
BRANCH   9  10
ATOM     10  C   UNL     1       5.924   0.159  -6.640  1.00  0.00     0.006 C 
BRANCH  10  11
ATOM     11  C   UNL     1       5.705  -1.344  -6.860  1.00  0.00     0.053 C 
BRANCH  11  12
ATOM     12  C   UNL     1       5.487  -1.669  -8.306  1.00  0.00     0.041 C 
ATOM     13  O   UNL     1       4.326  -1.645  -8.792  1.00  0.00    -0.550 OA
ATOM     14  O   UNL     1       6.561  -2.030  -9.109  1.00  0.00    -0.550 OA
ENDBRANCH  11  12
ENDBRANCH  10  11
ENDBRANCH   9  10
ENDBRANCH   8   9
ENDBRANCH   7   8
ENDBRANCH   6   7
ENDBRANCH   5   6
ENDBRANCH   4   5
ENDBRANCH   3   4
ENDBRANCH   2   3
ENDBRANCH   1   2
BRANCH   1  15
ATOM     15  C   UNL     1       5.906   5.296  -6.487  1.00  0.00     0.000 C 
BRANCH  15  16
ATOM     16  C   UNL     1       7.436   5.198  -6.604  1.00  0.00     0.000 C 
BRANCH  16  17
ATOM     17  C   UNL     1       8.014   6.149  -7.667  1.00  0.00     0.000 C 
BRANCH  17  18
ATOM     18  C   UNL     1       6.938   7.024  -8.329  1.00  0.00    -0.000 C 
BRANCH  18  19
ATOM     19  C   UNL     1       7.170   8.528  -8.101  1.00  0.00    -0.000 C 
BRANCH  19  20
ATOM     20  C   UNL     1       7.279   8.888  -6.610  1.00  0.00    -0.000 C 
BRANCH  20  21
ATOM     21  C   UNL     1       5.905   9.056  -5.937  1.00  0.00    -0.000 C 
BRANCH  21  22
ATOM     22  C   UNL     1       6.026   9.579  -4.490  1.00  0.00    -0.000 C 
BRANCH  22  23
ATOM     23  C   UNL     1       5.249   8.736  -3.464  1.00  0.00    -0.000 C 
BRANCH  23  24
ATOM     24  C   UNL     1       6.169   7.929  -2.534  1.00  0.00    -0.000 C 
BRANCH  24  25
ATOM     25  C   UNL     1       6.803   6.719  -3.238  1.00  0.00    -0.003 C 
ATOM     26  C   UNL     1       8.306   6.886  -3.460  1.00  0.00     0.004 C 
ENDBRANCH  24  25
ENDBRANCH  23  24
ENDBRANCH  22  23
ENDBRANCH  21  22
ENDBRANCH  20  21
ENDBRANCH  19  20
ENDBRANCH  18  19
ENDBRANCH  17  18
ENDBRANCH  16  17
ENDBRANCH  15  16
ENDBRANCH   1  15
TORSDOF 22
ENDMDL
MODEL 2
REMARK VINA RESULT:    -3.024      1.763      3.114
REMARK INTER + INTRA:         -11.141
REMARK INTER:                  -7.969
REMARK INTRA:                  -3.172
REMARK UNBOUND:                -4.227
REMARK SMILES CCCCCCCCCCCCCCCCCCCCCCCC(=O)[O-]
REMARK SMILES IDX 13 1 14 2 15 3 16 4 17 5 18 6 19 7 20 8 21 9 22 10 23 11
REMARK SMILES IDX 24 12 25 13 26 14 12 15 11 16 10 17 9 18 8 19 7 20 6 21 5 22
REMARK SMILES IDX 4 23 3 24 2 25 1 26
REMARK H PARENT
REMARK Flexibility Score: inf
ROOT
ATOM      1  C   UNL     1       7.461   5.250  -7.741  1.00  0.00     0.000 C 
ENDROOT
BRANCH   1   2
ATOM      2  C   UNL     1       6.088   5.546  -7.103  1.00  0.00     0.000 C 
BRANCH   2   3
ATOM      3  C   UNL     1       5.577   4.368  -6.253  1.00  0.00     0.000 C 
BRANCH   3   4
ATOM      4  C   UNL     1       4.358   3.667  -6.891  1.00  0.00     0.000 C 
BRANCH   4   5
ATOM      5  C   UNL     1       4.212   3.922  -8.404  1.00  0.00     0.000 C 
BRANCH   5   6
ATOM      6  C   UNL     1       4.518   2.710  -9.301  1.00  0.00     0.000 C 
BRANCH   6   7
ATOM      7  C   UNL     1       5.356   1.635  -8.585  1.00  0.00     0.000 C 
BRANCH   7   8
ATOM      8  C   UNL     1       6.819   1.618  -9.055  1.00  0.00     0.000 C 
BRANCH   8   9
ATOM      9  C   UNL     1       7.782   1.093  -7.980  1.00  0.00     0.000 C 
BRANCH   9  10
ATOM     10  C   UNL     1       7.076   0.981  -6.619  1.00  0.00     0.006 C 
BRANCH  10  11
ATOM     11  C   UNL     1       7.583  -0.212  -5.799  1.00  0.00     0.053 C 
BRANCH  11  12
ATOM     12  C   UNL     1       6.656  -1.385  -5.889  1.00  0.00     0.041 C 
ATOM     13  O   UNL     1       6.785  -2.356  -5.098  1.00  0.00    -0.550 OA
ATOM     14  O   UNL     1       5.670  -1.421  -6.867  1.00  0.00    -0.550 OA
ENDBRANCH  11  12
ENDBRANCH  10  11
ENDBRANCH   9  10
ENDBRANCH   8   9
ENDBRANCH   7   8
ENDBRANCH   6   7
ENDBRANCH   5   6
ENDBRANCH   4   5
ENDBRANCH   3   4
ENDBRANCH   2   3
ENDBRANCH   1   2
BRANCH   1  15
ATOM     15  C   UNL     1       8.616   5.170  -6.722  1.00  0.00     0.000 C 
BRANCH  15  16
ATOM     16  C   UNL     1       9.428   6.465  -6.557  1.00  0.00     0.000 C 
BRANCH  16  17
ATOM     17  C   UNL     1       9.004   7.282  -5.324  1.00  0.00     0.000 C 
BRANCH  17  18
ATOM     18  C   UNL     1       8.782   6.407  -4.080  1.00  0.00    -0.000 C 
BRANCH  18  19
ATOM     19  C   UNL     1       7.762   7.013  -3.100  1.00  0.00    -0.000 C 
BRANCH  19  20
ATOM     20  C   UNL     1       6.374   7.201  -3.736  1.00  0.00    -0.000 C 
BRANCH  20  21
ATOM     21  C   UNL     1       5.612   8.405  -3.154  1.00  0.00    -0.000 C 
BRANCH  21  22
ATOM     22  C   UNL     1       6.498   9.665  -3.060  1.00  0.00    -0.000 C 
BRANCH  22  23
ATOM     23  C   UNL     1       6.870  10.052  -1.618  1.00  0.00    -0.000 C 
BRANCH  23  24
ATOM     24  C   UNL     1       5.660  10.057  -0.670  1.00  0.00    -0.000 C 
BRANCH  24  25
ATOM     25  C   UNL     1       5.929   9.286   0.632  1.00  0.00    -0.003 C 
ATOM     26  C   UNL     1       6.878   8.105   0.433  1.00  0.00     0.004 C 
ENDBRANCH  24  25
ENDBRANCH  23  24
ENDBRANCH  22  23
ENDBRANCH  21  22
ENDBRANCH  20  21
ENDBRANCH  19  20
ENDBRANCH  18  19
ENDBRANCH  17  18
ENDBRANCH  16  17
ENDBRANCH  15  16
ENDBRANCH   1  15
TORSDOF 22
ENDMDL
MODEL 3
REMARK VINA RESULT:    -2.950      1.470      2.282
REMARK INTER + INTRA:         -10.970
REMARK INTER:                  -7.586
REMARK INTRA:                  -3.384
REMARK UNBOUND:                -4.227
REMARK SMILES CCCCCCCCCCCCCCCCCCCCCCCC(=O)[O-]
REMARK SMILES IDX 13 1 14 2 15 3 16 4 17 5 18 6 19 7 20 8 21 9 22 10 23 11
REMARK SMILES IDX 24 12 25 13 26 14 12 15 11 16 10 17 9 18 8 19 7 20 6 21 5 22
REMARK SMILES IDX 4 23 3 24 2 25 1 26
REMARK H PARENT
REMARK Flexibility Score: inf
ROOT
ATOM      1  C   UNL     1       4.813   3.750  -6.683  1.00  0.00     0.000 C 
ENDROOT
BRANCH   1   2
ATOM      2  C   UNL     1       4.609   3.650  -8.210  1.00  0.00     0.000 C 
BRANCH   2   3
ATOM      3  C   UNL     1       4.863   2.225  -8.737  1.00  0.00     0.000 C 
BRANCH   3   4
ATOM      4  C   UNL     1       6.056   2.165  -9.715  1.00  0.00     0.000 C 
BRANCH   4   5
ATOM      5  C   UNL     1       7.404   2.568  -9.084  1.00  0.00     0.000 C 
BRANCH   5   6
ATOM      6  C   UNL     1       8.326   1.394  -8.712  1.00  0.00     0.000 C 
BRANCH   6   7
ATOM      7  C   UNL     1       8.652   1.345  -7.209  1.00  0.00     0.000 C 
BRANCH   7   8
ATOM      8  C   UNL     1       7.422   1.013  -6.349  1.00  0.00     0.000 C 
BRANCH   8   9
ATOM      9  C   UNL     1       7.566  -0.317  -5.595  1.00  0.00     0.000 C 
BRANCH   9  10
ATOM     10  C   UNL     1       6.887  -1.460  -6.366  1.00  0.00     0.006 C 
BRANCH  10  11
ATOM     11  C   UNL     1       5.602  -1.004  -7.069  1.00  0.00     0.053 C 
BRANCH  11  12
ATOM     12  C   UNL     1       5.403  -1.706  -8.377  1.00  0.00     0.041 C 
ATOM     13  O   UNL     1       4.476  -2.549  -8.508  1.00  0.00    -0.550 OA
ATOM     14  O   UNL     1       6.258  -1.453  -9.441  1.00  0.00    -0.550 OA
ENDBRANCH  11  12
ENDBRANCH  10  11
ENDBRANCH   9  10
ENDBRANCH   8   9
ENDBRANCH   7   8
ENDBRANCH   6   7
ENDBRANCH   5   6
ENDBRANCH   4   5
ENDBRANCH   3   4
ENDBRANCH   2   3
ENDBRANCH   1   2
BRANCH   1  15
ATOM     15  C   UNL     1       5.893   4.768  -6.266  1.00  0.00     0.000 C 
BRANCH  15  16
ATOM     16  C   UNL     1       6.305   5.765  -7.362  1.00  0.00     0.000 C 
BRANCH  16  17
ATOM     17  C   UNL     1       7.823   5.777  -7.615  1.00  0.00     0.000 C 
BRANCH  17  18
ATOM     18  C   UNL     1       8.624   5.170  -6.453  1.00  0.00    -0.000 C 
BRANCH  18  19
ATOM     19  C   UNL     1       9.384   6.230  -5.636  1.00  0.00    -0.000 C 
BRANCH  19  20
ATOM     20  C   UNL     1       8.843   6.369  -4.203  1.00  0.00    -0.000 C 
BRANCH  20  21
ATOM     21  C   UNL     1       7.722   7.417  -4.089  1.00  0.00    -0.000 C 
BRANCH  21  22
ATOM     22  C   UNL     1       6.537   6.912  -3.238  1.00  0.00    -0.000 C 
BRANCH  22  23
ATOM     23  C   UNL     1       6.596   7.365  -1.770  1.00  0.00    -0.000 C 
BRANCH  23  24
ATOM     24  C   UNL     1       6.028   8.777  -1.557  1.00  0.00    -0.000 C 
BRANCH  24  25
ATOM     25  C   UNL     1       5.903   9.143  -0.069  1.00  0.00    -0.003 C 
ATOM     26  C   UNL     1       7.251   9.159   0.650  1.00  0.00     0.004 C 
ENDBRANCH  24  25
ENDBRANCH  23  24
ENDBRANCH  22  23
ENDBRANCH  21  22
ENDBRANCH  20  21
ENDBRANCH  19  20
ENDBRANCH  18  19
ENDBRANCH  17  18
ENDBRANCH  16  17
ENDBRANCH  15  16
ENDBRANCH   1  15
TORSDOF 22
ENDMDL
MODEL 4
REMARK VINA RESULT:    -2.882      1.346      3.328
REMARK INTER + INTRA:         -10.816
REMARK INTER:                  -6.997
REMARK INTRA:                  -3.819
REMARK UNBOUND:                -4.227
REMARK SMILES CCCCCCCCCCCCCCCCCCCCCCCC(=O)[O-]
REMARK SMILES IDX 13 1 14 2 15 3 16 4 17 5 18 6 19 7 20 8 21 9 22 10 23 11
REMARK SMILES IDX 24 12 25 13 26 14 12 15 11 16 10 17 9 18 8 19 7 20 6 21 5 22
REMARK SMILES IDX 4 23 3 24 2 25 1 26
REMARK H PARENT
REMARK Flexibility Score: inf
ROOT
ATOM      1  C   UNL     1       7.591   5.005  -7.376  1.00  0.00     0.000 C 
ENDROOT
BRANCH   1   2
ATOM      2  C   UNL     1       6.173   5.410  -6.919  1.00  0.00     0.000 C 
BRANCH   2   3
ATOM      3  C   UNL     1       5.516   4.328  -6.042  1.00  0.00     0.000 C 
BRANCH   3   4
ATOM      4  C   UNL     1       4.467   3.501  -6.816  1.00  0.00     0.000 C 
BRANCH   4   5
ATOM      5  C   UNL     1       4.291   3.931  -8.286  1.00  0.00     0.000 C 
BRANCH   5   6
ATOM      6  C   UNL     1       4.511   2.816  -9.322  1.00  0.00     0.000 C 
BRANCH   6   7
ATOM      7  C   UNL     1       5.389   1.670  -8.787  1.00  0.00     0.000 C 
BRANCH   7   8
ATOM      8  C   UNL     1       6.886   1.906  -9.042  1.00  0.00     0.000 C 
BRANCH   8   9
ATOM      9  C   UNL     1       7.784   1.010  -8.176  1.00  0.00     0.000 C 
BRANCH   9  10
ATOM     10  C   UNL     1       7.292   0.984  -6.720  1.00  0.00     0.006 C 
BRANCH  10  11
ATOM     11  C   UNL     1       7.772  -0.263  -5.967  1.00  0.00     0.053 C 
BRANCH  11  12
ATOM     12  C   UNL     1       6.704  -1.310  -5.885  1.00  0.00     0.041 C 
ATOM     13  O   UNL     1       6.724  -2.163  -4.957  1.00  0.00    -0.550 OA
ATOM     14  O   UNL     1       5.706  -1.366  -6.849  1.00  0.00    -0.550 OA
ENDBRANCH  11  12
ENDBRANCH  10  11
ENDBRANCH   9  10
ENDBRANCH   8   9
ENDBRANCH   7   8
ENDBRANCH   6   7
ENDBRANCH   5   6
ENDBRANCH   4   5
ENDBRANCH   3   4
ENDBRANCH   2   3
ENDBRANCH   1   2
BRANCH   1  15
ATOM     15  C   UNL     1       8.681   5.254  -6.315  1.00  0.00     0.000 C 
BRANCH  15  16
ATOM     16  C   UNL     1       9.319   6.653  -6.354  1.00  0.00     0.000 C 
BRANCH  16  17
ATOM     17  C   UNL     1       9.632   7.205  -4.952  1.00  0.00     0.000 C 
BRANCH  17  18
ATOM     18  C   UNL     1       8.970   6.388  -3.832  1.00  0.00    -0.000 C 
BRANCH  18  19
ATOM     19  C   UNL     1       7.922   7.195  -3.045  1.00  0.00    -0.000 C 
BRANCH  19  20
ATOM     20  C   UNL     1       6.484   6.902  -3.508  1.00  0.00    -0.000 C 
BRANCH  20  21
ATOM     21  C   UNL     1       5.582   8.148  -3.470  1.00  0.00    -0.000 C 
BRANCH  21  22
ATOM     22  C   UNL     1       6.273   9.386  -4.080  1.00  0.00    -0.000 C 
BRANCH  22  23
ATOM     23  C   UNL     1       6.177   9.453  -5.614  1.00  0.00    -0.000 C 
BRANCH  23  24
ATOM     24  C   UNL     1       7.498   9.873  -6.277  1.00  0.00    -0.000 C 
BRANCH  24  25
ATOM     25  C   UNL     1       7.493   9.643  -7.797  1.00  0.00    -0.003 C 
ATOM     26  C   UNL     1       6.397   8.676  -8.244  1.00  0.00     0.004 C 
ENDBRANCH  24  25
ENDBRANCH  23  24
ENDBRANCH  22  23
ENDBRANCH  21  22
ENDBRANCH  20  21
ENDBRANCH  19  20
ENDBRANCH  18  19
ENDBRANCH  17  18
ENDBRANCH  16  17
ENDBRANCH  15  16
ENDBRANCH   1  15
TORSDOF 22
ENDMDL
MODEL 5
REMARK VINA RESULT:    -2.877      4.047      8.658
REMARK INTER + INTRA:         -10.804
REMARK INTER:                  -7.972
REMARK INTRA:                  -2.832
REMARK UNBOUND:                -4.227
REMARK SMILES CCCCCCCCCCCCCCCCCCCCCCCC(=O)[O-]
REMARK SMILES IDX 13 1 14 2 15 3 16 4 17 5 18 6 19 7 20 8 21 9 22 10 23 11
REMARK SMILES IDX 24 12 25 13 26 14 12 15 11 16 10 17 9 18 8 19 7 20 6 21 5 22
REMARK SMILES IDX 4 23 3 24 2 25 1 26
REMARK H PARENT
REMARK Flexibility Score: inf
ROOT
ATOM      1  C   UNL     1       9.488   2.458  -7.073  1.00  0.00     0.000 C 
ENDROOT
BRANCH   1   2
ATOM      2  C   UNL     1       9.721   3.816  -6.378  1.00  0.00     0.000 C 
BRANCH   2   3
ATOM      3  C   UNL     1       8.588   4.818  -6.669  1.00  0.00     0.000 C 
BRANCH   3   4
ATOM      4  C   UNL     1       8.549   5.974  -5.647  1.00  0.00     0.000 C 
BRANCH   4   5
ATOM      5  C   UNL     1       7.125   6.380  -5.216  1.00  0.00     0.000 C 
BRANCH   5   6
ATOM      6  C   UNL     1       6.868   6.344  -3.700  1.00  0.00     0.000 C 
BRANCH   6   7
ATOM      7  C   UNL     1       6.023   7.533  -3.210  1.00  0.00     0.000 C 
BRANCH   7   8
ATOM      8  C   UNL     1       6.755   8.876  -3.355  1.00  0.00     0.000 C 
BRANCH   8   9
ATOM      9  C   UNL     1       6.758   9.694  -2.054  1.00  0.00     0.000 C 
BRANCH   9  10
ATOM     10  C   UNL     1       5.873   9.030  -0.988  1.00  0.00     0.006 C 
BRANCH  10  11
ATOM     11  C   UNL     1       6.596   8.883   0.357  1.00  0.00     0.053 C 
BRANCH  11  12
ATOM     12  C   UNL     1       7.399   7.620   0.423  1.00  0.00     0.041 C 
ATOM     13  O   UNL     1       6.928   6.601   0.995  1.00  0.00    -0.550 OA
ATOM     14  O   UNL     1       8.678   7.577  -0.117  1.00  0.00    -0.550 OA
ENDBRANCH  11  12
ENDBRANCH  10  11
ENDBRANCH   9  10
ENDBRANCH   8   9
ENDBRANCH   7   8
ENDBRANCH   6   7
ENDBRANCH   5   6
ENDBRANCH   4   5
ENDBRANCH   3   4
ENDBRANCH   2   3
ENDBRANCH   1   2
BRANCH   1  15
ATOM     15  C   UNL     1       9.346   1.275  -6.093  1.00  0.00     0.000 C 
BRANCH  15  16
ATOM     16  C   UNL     1       8.543   0.079  -6.631  1.00  0.00     0.000 C 
BRANCH  16  17
ATOM     17  C   UNL     1       7.511  -0.449  -5.619  1.00  0.00     0.000 C 
BRANCH  17  18
ATOM     18  C   UNL     1       6.086  -0.490  -6.192  1.00  0.00    -0.000 C 
BRANCH  18  19
ATOM     19  C   UNL     1       5.957  -1.427  -7.405  1.00  0.00    -0.000 C 
BRANCH  19  20
ATOM     20  C   UNL     1       5.303  -0.738  -8.615  1.00  0.00    -0.000 C 
BRANCH  20  21
ATOM     21  C   UNL     1       6.333  -0.095  -9.561  1.00  0.00    -0.000 C 
BRANCH  21  22
ATOM     22  C   UNL     1       6.409   1.436  -9.384  1.00  0.00    -0.000 C 
BRANCH  22  23
ATOM     23  C   UNL     1       5.080   2.072  -8.942  1.00  0.00    -0.000 C 
BRANCH  23  24
ATOM     24  C   UNL     1       5.275   3.306  -8.048  1.00  0.00    -0.000 C 
BRANCH  24  25
ATOM     25  C   UNL     1       5.506   2.936  -6.575  1.00  0.00    -0.003 C 
ATOM     26  C   UNL     1       4.282   3.207  -5.700  1.00  0.00     0.004 C 
ENDBRANCH  24  25
ENDBRANCH  23  24
ENDBRANCH  22  23
ENDBRANCH  21  22
ENDBRANCH  20  21
ENDBRANCH  19  20
ENDBRANCH  18  19
ENDBRANCH  17  18
ENDBRANCH  16  17
ENDBRANCH  15  16
ENDBRANCH   1  15
TORSDOF 22
ENDMDL
MODEL 6
REMARK VINA RESULT:    -2.872      3.560      7.300
REMARK INTER + INTRA:         -10.792
REMARK INTER:                  -6.992
REMARK INTRA:                  -3.800
REMARK UNBOUND:                -4.227
REMARK SMILES CCCCCCCCCCCCCCCCCCCCCCCC(=O)[O-]
REMARK SMILES IDX 13 1 14 2 15 3 16 4 17 5 18 6 19 7 20 8 21 9 22 10 23 11
REMARK SMILES IDX 24 12 25 13 26 14 12 15 11 16 10 17 9 18 8 19 7 20 6 21 5 22
REMARK SMILES IDX 4 23 3 24 2 25 1 26
REMARK H PARENT
REMARK Flexibility Score: inf
ROOT
ATOM      1  C   UNL     1       6.757  -0.841  -6.043  1.00  0.00     0.000 C 
ENDROOT
BRANCH   1   2
ATOM      2  C   UNL     1       8.292  -0.730  -6.151  1.00  0.00     0.000 C 
BRANCH   2   3
ATOM      3  C   UNL     1       8.739  -0.187  -7.521  1.00  0.00     0.000 C 
BRANCH   3   4
ATOM      4  C   UNL     1       9.892   0.832  -7.403  1.00  0.00     0.000 C 
BRANCH   4   5
ATOM      5  C   UNL     1       9.498   2.143  -6.694  1.00  0.00     0.000 C 
BRANCH   5   6
ATOM      6  C   UNL     1       8.616   3.091  -7.524  1.00  0.00     0.000 C 
BRANCH   6   7
ATOM      7  C   UNL     1       9.091   4.554  -7.464  1.00  0.00     0.000 C 
BRANCH   7   8
ATOM      8  C   UNL     1       9.296   5.048  -6.023  1.00  0.00     0.000 C 
BRANCH   8   9
ATOM      9  C   UNL     1       8.642   6.413  -5.765  1.00  0.00     0.000 C 
BRANCH   9  10
ATOM     10  C   UNL     1       7.734   6.361  -4.526  1.00  0.00     0.006 C 
BRANCH  10  11
ATOM     11  C   UNL     1       6.524   7.296  -4.654  1.00  0.00     0.053 C 
BRANCH  11  12
ATOM     12  C   UNL     1       5.999   7.714  -3.314  1.00  0.00     0.041 C 
ATOM     13  O   UNL     1       5.162   8.651  -3.227  1.00  0.00    -0.550 OA
ATOM     14  O   UNL     1       6.457   7.091  -2.160  1.00  0.00    -0.550 OA
ENDBRANCH  11  12
ENDBRANCH  10  11
ENDBRANCH   9  10
ENDBRANCH   8   9
ENDBRANCH   7   8
ENDBRANCH   6   7
ENDBRANCH   5   6
ENDBRANCH   4   5
ENDBRANCH   3   4
ENDBRANCH   2   3
ENDBRANCH   1   2
BRANCH   1  15
ATOM     15  C   UNL     1       6.096   0.354  -5.327  1.00  0.00     0.000 C 
BRANCH  15  16
ATOM     16  C   UNL     1       5.614   1.483  -6.254  1.00  0.00     0.000 C 
BRANCH  16  17
ATOM     17  C   UNL     1       4.599   2.419  -5.576  1.00  0.00     0.000 C 
BRANCH  17  18
ATOM     18  C   UNL     1       4.236   3.632  -6.447  1.00  0.00    -0.000 C 
BRANCH  18  19
ATOM     19  C   UNL     1       5.453   4.514  -6.778  1.00  0.00    -0.000 C 
BRANCH  19  20
ATOM     20  C   UNL     1       5.458   4.986  -8.242  1.00  0.00    -0.000 C 
BRANCH  20  21
ATOM     21  C   UNL     1       4.473   4.198  -9.124  1.00  0.00    -0.000 C 
BRANCH  21  22
ATOM     22  C   UNL     1       5.187   3.137  -9.989  1.00  0.00    -0.000 C 
BRANCH  22  23
ATOM     23  C   UNL     1       4.614   1.719  -9.822  1.00  0.00    -0.000 C 
BRANCH  23  24
ATOM     24  C   UNL     1       5.704   0.652  -9.636  1.00  0.00    -0.000 C 
BRANCH  24  25
ATOM     25  C   UNL     1       5.122  -0.739  -9.343  1.00  0.00    -0.003 C 
ATOM     26  C   UNL     1       6.119  -1.865  -9.614  1.00  0.00     0.004 C 
ENDBRANCH  24  25
ENDBRANCH  23  24
ENDBRANCH  22  23
ENDBRANCH  21  22
ENDBRANCH  20  21
ENDBRANCH  19  20
ENDBRANCH  18  19
ENDBRANCH  17  18
ENDBRANCH  16  17
ENDBRANCH  15  16
ENDBRANCH   1  15
TORSDOF 22
ENDMDL
MODEL 7
REMARK VINA RESULT:    -2.863      1.838      2.972
REMARK INTER + INTRA:         -10.771
REMARK INTER:                  -7.533
REMARK INTRA:                  -3.238
REMARK UNBOUND:                -4.227
REMARK SMILES CCCCCCCCCCCCCCCCCCCCCCCC(=O)[O-]
REMARK SMILES IDX 13 1 14 2 15 3 16 4 17 5 18 6 19 7 20 8 21 9 22 10 23 11
REMARK SMILES IDX 24 12 25 13 26 14 12 15 11 16 10 17 9 18 8 19 7 20 6 21 5 22
REMARK SMILES IDX 4 23 3 24 2 25 1 26
REMARK H PARENT
REMARK Flexibility Score: inf
ROOT
ATOM      1  C   UNL     1       4.272   3.376  -6.519  1.00  0.00     0.000 C 
ENDROOT
BRANCH   1   2
ATOM      2  C   UNL     1       4.258   3.685  -8.031  1.00  0.00     0.000 C 
BRANCH   2   3
ATOM      3  C   UNL     1       4.856   2.536  -8.864  1.00  0.00     0.000 C 
BRANCH   3   4
ATOM      4  C   UNL     1       5.604   3.044 -10.115  1.00  0.00     0.000 C 
BRANCH   4   5
ATOM      5  C   UNL     1       6.764   4.010  -9.800  1.00  0.00     0.000 C 
BRANCH   5   6
ATOM      6  C   UNL     1       8.112   3.333  -9.499  1.00  0.00     0.000 C 
BRANCH   6   7
ATOM      7  C   UNL     1       8.761   3.847  -8.202  1.00  0.00     0.000 C 
BRANCH   7   8
ATOM      8  C   UNL     1       8.656   2.836  -7.049  1.00  0.00     0.000 C 
BRANCH   8   9
ATOM      9  C   UNL     1       8.090   1.480  -7.498  1.00  0.00     0.000 C 
BRANCH   9  10
ATOM     10  C   UNL     1       7.652   0.641  -6.288  1.00  0.00     0.006 C 
BRANCH  10  11
ATOM     11  C   UNL     1       6.191   0.184  -6.396  1.00  0.00     0.053 C 
BRANCH  11  12
ATOM     12  C   UNL     1       6.070  -1.308  -6.360  1.00  0.00     0.041 C 
ATOM     13  O   UNL     1       5.284  -1.898  -7.148  1.00  0.00    -0.550 OA
ATOM     14  O   UNL     1       6.798  -2.046  -5.436  1.00  0.00    -0.550 OA
ENDBRANCH  11  12
ENDBRANCH  10  11
ENDBRANCH   9  10
ENDBRANCH   8   9
ENDBRANCH   7   8
ENDBRANCH   6   7
ENDBRANCH   5   6
ENDBRANCH   4   5
ENDBRANCH   3   4
ENDBRANCH   2   3
ENDBRANCH   1   2
BRANCH   1  15
ATOM     15  C   UNL     1       5.321   4.186  -5.730  1.00  0.00     0.000 C 
BRANCH  15  16
ATOM     16  C   UNL     1       5.940   5.368  -6.494  1.00  0.00     0.000 C 
BRANCH  16  17
ATOM     17  C   UNL     1       6.891   6.207  -5.624  1.00  0.00     0.000 C 
BRANCH  17  18
ATOM     18  C   UNL     1       6.344   6.447  -4.208  1.00  0.00    -0.000 C 
BRANCH  18  19
ATOM     19  C   UNL     1       7.252   7.360  -3.365  1.00  0.00    -0.000 C 
BRANCH  19  20
ATOM     20  C   UNL     1       8.721   6.904  -3.377  1.00  0.00    -0.000 C 
BRANCH  20  21
ATOM     21  C   UNL     1       9.553   7.545  -2.252  1.00  0.00    -0.000 C 
BRANCH  21  22
ATOM     22  C   UNL     1       9.155   9.014  -1.998  1.00  0.00    -0.000 C 
BRANCH  22  23
ATOM     23  C   UNL     1       8.848   9.323  -0.523  1.00  0.00    -0.000 C 
BRANCH  23  24
ATOM     24  C   UNL     1       7.384   9.728  -0.290  1.00  0.00    -0.000 C 
BRANCH  24  25
ATOM     25  C   UNL     1       6.680   8.826   0.736  1.00  0.00    -0.003 C 
ATOM     26  C   UNL     1       7.120   7.366   0.638  1.00  0.00     0.004 C 
ENDBRANCH  24  25
ENDBRANCH  23  24
ENDBRANCH  22  23
ENDBRANCH  21  22
ENDBRANCH  20  21
ENDBRANCH  19  20
ENDBRANCH  18  19
ENDBRANCH  17  18
ENDBRANCH  16  17
ENDBRANCH  15  16
ENDBRANCH   1  15
TORSDOF 22
ENDMDL
MODEL 8
REMARK VINA RESULT:    -2.817      4.210      7.856
REMARK INTER + INTRA:         -10.666
REMARK INTER:                  -7.166
REMARK INTRA:                  -3.501
REMARK UNBOUND:                -4.227
REMARK SMILES CCCCCCCCCCCCCCCCCCCCCCCC(=O)[O-]
REMARK SMILES IDX 13 1 14 2 15 3 16 4 17 5 18 6 19 7 20 8 21 9 22 10 23 11
REMARK SMILES IDX 24 12 25 13 26 14 12 15 11 16 10 17 9 18 8 19 7 20 6 21 5 22
REMARK SMILES IDX 4 23 3 24 2 25 1 26
REMARK H PARENT
REMARK Flexibility Score: inf
ROOT
ATOM      1  C   UNL     1       5.245   1.894  -8.251  1.00  0.00     0.000 C 
ENDROOT
BRANCH   1   2
ATOM      2  C   UNL     1       5.491   2.235  -6.766  1.00  0.00     0.000 C 
BRANCH   2   3
ATOM      3  C   UNL     1       5.373   3.745  -6.490  1.00  0.00     0.000 C 
BRANCH   3   4
ATOM      4  C   UNL     1       5.587   4.594  -7.761  1.00  0.00     0.000 C 
BRANCH   4   5
ATOM      5  C   UNL     1       6.361   5.905  -7.516  1.00  0.00     0.000 C 
BRANCH   5   6
ATOM      6  C   UNL     1       6.396   6.376  -6.052  1.00  0.00     0.000 C 
BRANCH   6   7
ATOM      7  C   UNL     1       6.763   7.864  -5.913  1.00  0.00     0.000 C 
BRANCH   7   8
ATOM      8  C   UNL     1       6.803   8.327  -4.448  1.00  0.00     0.000 C 
BRANCH   8   9
ATOM      9  C   UNL     1       5.970   7.432  -3.520  1.00  0.00     0.000 C 
BRANCH   9  10
ATOM     10  C   UNL     1       6.663   7.257  -2.159  1.00  0.00     0.006 C 
BRANCH  10  11
ATOM     11  C   UNL     1       6.577   8.524  -1.297  1.00  0.00     0.053 C 
BRANCH  11  12
ATOM     12  C   UNL     1       6.710   8.216   0.162  1.00  0.00     0.041 C 
ATOM     13  O   UNL     1       7.369   7.210   0.539  1.00  0.00    -0.550 OA
ATOM     14  O   UNL     1       6.082   9.018   1.105  1.00  0.00    -0.550 OA
ENDBRANCH  11  12
ENDBRANCH  10  11
ENDBRANCH   9  10
ENDBRANCH   8   9
ENDBRANCH   7   8
ENDBRANCH   6   7
ENDBRANCH   5   6
ENDBRANCH   4   5
ENDBRANCH   3   4
ENDBRANCH   2   3
ENDBRANCH   1   2
BRANCH   1  15
ATOM     15  C   UNL     1       5.977   0.623  -8.727  1.00  0.00     0.000 C 
BRANCH  15  16
ATOM     16  C   UNL     1       5.638  -0.655  -7.940  1.00  0.00     0.000 C 
BRANCH  16  17
ATOM     17  C   UNL     1       6.883  -1.335  -7.344  1.00  0.00     0.000 C 
BRANCH  17  18
ATOM     18  C   UNL     1       7.232  -0.811  -5.942  1.00  0.00    -0.000 C 
BRANCH  18  19
ATOM     19  C   UNL     1       8.486   0.081  -5.933  1.00  0.00    -0.000 C 
BRANCH  19  20
ATOM     20  C   UNL     1       9.245   0.042  -7.270  1.00  0.00    -0.000 C 
BRANCH  20  21
ATOM     21  C   UNL     1       9.960   1.367  -7.587  1.00  0.00    -0.000 C 
BRANCH  21  22
ATOM     22  C   UNL     1       8.966   2.526  -7.813  1.00  0.00    -0.000 C 
BRANCH  22  23
ATOM     23  C   UNL     1       9.555   3.913  -7.506  1.00  0.00    -0.000 C 
BRANCH  23  24
ATOM     24  C   UNL     1       9.623   4.214  -6.000  1.00  0.00    -0.000 C 
BRANCH  24  25
ATOM     25  C   UNL     1       9.867   5.703  -5.708  1.00  0.00    -0.003 C 
ATOM     26  C   UNL     1       9.758   6.037  -4.220  1.00  0.00     0.004 C 
ENDBRANCH  24  25
ENDBRANCH  23  24
ENDBRANCH  22  23
ENDBRANCH  21  22
ENDBRANCH  20  21
ENDBRANCH  19  20
ENDBRANCH  18  19
ENDBRANCH  17  18
ENDBRANCH  16  17
ENDBRANCH  15  16
ENDBRANCH   1  15
TORSDOF 22
ENDMDL
MODEL 9
REMARK VINA RESULT:    -2.788      2.182      3.817
REMARK INTER + INTRA:         -10.600
REMARK INTER:                  -7.278
REMARK INTRA:                  -3.322
REMARK UNBOUND:                -4.227
REMARK SMILES CCCCCCCCCCCCCCCCCCCCCCCC(=O)[O-]
REMARK SMILES IDX 13 1 14 2 15 3 16 4 17 5 18 6 19 7 20 8 21 9 22 10 23 11
REMARK SMILES IDX 24 12 25 13 26 14 12 15 11 16 10 17 9 18 8 19 7 20 6 21 5 22
REMARK SMILES IDX 4 23 3 24 2 25 1 26
REMARK H PARENT
REMARK Flexibility Score: inf
ROOT
ATOM      1  C   UNL     1       9.305   3.502  -7.407  1.00  0.00     0.000 C 
ENDROOT
BRANCH   1   2
ATOM      2  C   UNL     1       9.469   2.145  -6.691  1.00  0.00     0.000 C 
BRANCH   2   3
ATOM      3  C   UNL     1       9.638   0.981  -7.686  1.00  0.00     0.000 C 
BRANCH   3   4
ATOM      4  C   UNL     1       9.278  -0.383  -7.060  1.00  0.00     0.000 C 
BRANCH   4   5
ATOM      5  C   UNL     1       8.292  -0.289  -5.879  1.00  0.00     0.000 C 
BRANCH   5   6
ATOM      6  C   UNL     1       7.063  -1.209  -5.981  1.00  0.00     0.000 C 
BRANCH   6   7
ATOM      7  C   UNL     1       6.636  -1.473  -7.436  1.00  0.00     0.000 C 
BRANCH   7   8
ATOM      8  C   UNL     1       5.592  -0.462  -7.937  1.00  0.00     0.000 C 
BRANCH   8   9
ATOM      9  C   UNL     1       6.191   0.587  -8.886  1.00  0.00     0.000 C 
BRANCH   9  10
ATOM     10  C   UNL     1       5.992   2.006  -8.331  1.00  0.00     0.006 C 
BRANCH  10  11
ATOM     11  C   UNL     1       5.595   1.999  -6.848  1.00  0.00     0.053 C 
BRANCH  11  12
ATOM     12  C   UNL     1       4.563   3.040  -6.542  1.00  0.00     0.041 C 
ATOM     13  O   UNL     1       4.056   3.110  -5.391  1.00  0.00    -0.550 OA
ATOM     14  O   UNL     1       4.137   3.913  -7.535  1.00  0.00    -0.550 OA
ENDBRANCH  11  12
ENDBRANCH  10  11
ENDBRANCH   9  10
ENDBRANCH   8   9
ENDBRANCH   7   8
ENDBRANCH   6   7
ENDBRANCH   5   6
ENDBRANCH   4   5
ENDBRANCH   3   4
ENDBRANCH   2   3
ENDBRANCH   1   2
BRANCH   1  15
ATOM     15  C   UNL     1       9.838   4.701  -6.596  1.00  0.00     0.000 C 
BRANCH  15  16
ATOM     16  C   UNL     1       8.755   5.606  -5.986  1.00  0.00     0.000 C 
BRANCH  16  17
ATOM     17  C   UNL     1       7.357   5.341  -6.572  1.00  0.00     0.000 C 
BRANCH  17  18
ATOM     18  C   UNL     1       6.373   6.490  -6.303  1.00  0.00    -0.000 C 
BRANCH  18  19
ATOM     19  C   UNL     1       6.479   7.622  -7.340  1.00  0.00    -0.000 C 
BRANCH  19  20
ATOM     20  C   UNL     1       6.067   8.988  -6.766  1.00  0.00    -0.000 C 
BRANCH  20  21
ATOM     21  C   UNL     1       7.139   9.593  -5.843  1.00  0.00    -0.000 C 
BRANCH  21  22
ATOM     22  C   UNL     1       6.547  10.076  -4.502  1.00  0.00    -0.000 C 
BRANCH  22  23
ATOM     23  C   UNL     1       5.318   9.271  -4.045  1.00  0.00    -0.000 C 
BRANCH  23  24
ATOM     24  C   UNL     1       5.241   9.113  -2.519  1.00  0.00    -0.000 C 
BRANCH  24  25
ATOM     25  C   UNL     1       6.410   8.292  -1.952  1.00  0.00    -0.003 C 
ATOM     26  C   UNL     1       6.593   6.954  -2.668  1.00  0.00     0.004 C 
ENDBRANCH  24  25
ENDBRANCH  23  24
ENDBRANCH  22  23
ENDBRANCH  21  22
ENDBRANCH  20  21
ENDBRANCH  19  20
ENDBRANCH  18  19
ENDBRANCH  17  18
ENDBRANCH  16  17
ENDBRANCH  15  16
ENDBRANCH   1  15
TORSDOF 22
ENDMDL
