MODEL 1
REMARK VINA RESULT:    -5.429      0.000      0.000
REMARK INTER + INTRA:          -5.764
REMARK INTER:                  -5.747
REMARK INTRA:                  -0.017
REMARK UNBOUND:                -0.017
REMARK SMILES O=C([O-])c1cccnc1
REMARK SMILES IDX 4 1 5 2 9 3 6 4 8 5 7 6 2 7 1 8 3 9
REMARK H PARENT
REMARK Flexibility Score: inf
ROOT
ATOM      1  C   UNL     1     -21.318 -23.028 -44.328  1.00  0.00     0.016 A 
ATOM      2  C   UNL     1     -21.526 -22.269 -43.164  1.00  0.00     0.013 A 
ATOM      3  C   UNL     1     -21.836 -24.334 -44.377  1.00  0.00     0.120 A 
ATOM      4  C   UNL     1     -22.233 -22.813 -42.091  1.00  0.00     0.021 A 
ATOM      5  N   UNL     1     -22.522 -24.839 -43.316  1.00  0.00    -0.264 NA
ATOM      6  C   UNL     1     -22.729 -24.114 -42.187  1.00  0.00     0.111 A 
ENDROOT
BRANCH   1   7
ATOM      7  C   UNL     1     -20.570 -22.463 -45.472  1.00  0.00     0.073 C 
ATOM      8  O   UNL     1     -21.023 -21.476 -46.110  1.00  0.00    -0.545 OA
ATOM      9  O   UNL     1     -19.355 -23.016 -45.861  1.00  0.00    -0.545 OA
ENDBRANCH   1   7
TORSDOF 1
ENDMDL
MODEL 2
REMARK VINA RESULT:    -5.178      0.930      1.602
REMARK INTER + INTRA:          -5.498
REMARK INTER:                  -5.481
REMARK INTRA:                  -0.017
REMARK UNBOUND:                -0.017
REMARK SMILES O=C([O-])c1cccnc1
REMARK SMILES IDX 4 1 5 2 9 3 6 4 8 5 7 6 2 7 1 8 3 9
REMARK H PARENT
REMARK Flexibility Score: inf
ROOT
ATOM      1  C   UNL     1     -21.344 -23.012 -44.273  1.00  0.00     0.016 A 
ATOM      2  C   UNL     1     -21.865 -24.316 -44.299  1.00  0.00     0.013 A 
ATOM      3  C   UNL     1     -21.529 -22.241 -43.112  1.00  0.00     0.120 A 
ATOM      4  C   UNL     1     -22.546 -24.821 -43.191  1.00  0.00     0.021 A 
ATOM      5  N   UNL     1     -22.197 -22.757 -42.046  1.00  0.00    -0.264 NA
ATOM      6  C   UNL     1     -22.704 -24.017 -42.060  1.00  0.00     0.111 A 
ENDROOT
BRANCH   1   7
ATOM      7  C   UNL     1     -20.620 -22.465 -45.442  1.00  0.00     0.073 C 
ATOM      8  O   UNL     1     -21.090 -21.493 -46.090  1.00  0.00    -0.545 OA
ATOM      9  O   UNL     1     -19.409 -23.020 -45.841  1.00  0.00    -0.545 OA
ENDBRANCH   1   7
TORSDOF 1
ENDMDL
MODEL 3
REMARK VINA RESULT:    -4.925      2.754      3.422
REMARK INTER + INTRA:          -5.231
REMARK INTER:                  -5.207
REMARK INTRA:                  -0.023
REMARK UNBOUND:                -0.017
REMARK SMILES O=C([O-])c1cccnc1
REMARK SMILES IDX 4 1 5 2 9 3 6 4 8 5 7 6 2 7 1 8 3 9
REMARK H PARENT
REMARK Flexibility Score: inf
ROOT
ATOM      1  C   UNL     1     -22.536 -24.081 -44.063  1.00  0.00     0.016 A 
ATOM      2  C   UNL     1     -21.499 -23.530 -44.832  1.00  0.00     0.013 A 
ATOM      3  C   UNL     1     -22.830 -23.495 -42.819  1.00  0.00     0.120 A 
ATOM      4  C   UNL     1     -20.786 -22.427 -44.360  1.00  0.00     0.021 A 
ATOM      5  N   UNL     1     -22.120 -22.420 -42.383  1.00  0.00    -0.264 NA
ATOM      6  C   UNL     1     -21.115 -21.879 -43.119  1.00  0.00     0.111 A 
ENDROOT
BRANCH   1   7
ATOM      7  C   UNL     1     -23.299 -25.250 -44.552  1.00  0.00     0.073 C 
ATOM      8  O   UNL     1     -24.120 -25.840 -43.801  1.00  0.00    -0.545 OA
ATOM      9  O   UNL     1     -23.117 -25.715 -45.850  1.00  0.00    -0.545 OA
ENDBRANCH   1   7
TORSDOF 1
ENDMDL
MODEL 4
REMARK VINA RESULT:    -4.702      1.775      2.358
REMARK INTER + INTRA:          -4.994
REMARK INTER:                  -4.971
REMARK INTRA:                  -0.023
REMARK UNBOUND:                -0.017
REMARK SMILES O=C([O-])c1cccnc1
REMARK SMILES IDX 4 1 5 2 9 3 6 4 8 5 7 6 2 7 1 8 3 9
REMARK H PARENT
REMARK Flexibility Score: inf
ROOT
ATOM      1  C   UNL     1     -22.344 -23.468 -43.051  1.00  0.00     0.016 A 
ATOM      2  C   UNL     1     -22.384 -24.067 -41.781  1.00  0.00     0.013 A 
ATOM      3  C   UNL     1     -23.110 -24.038 -44.083  1.00  0.00     0.120 A 
ATOM      4  C   UNL     1     -23.170 -25.200 -41.564  1.00  0.00     0.021 A 
ATOM      5  N   UNL     1     -23.867 -25.143 -43.845  1.00  0.00    -0.264 NA
ATOM      6  C   UNL     1     -23.913 -25.729 -42.621  1.00  0.00     0.111 A 
ENDROOT
BRANCH   1   7
ATOM      7  C   UNL     1     -21.515 -22.267 -43.293  1.00  0.00     0.073 C 
ATOM      8  O   UNL     1     -21.089 -21.577 -42.329  1.00  0.00    -0.545 OA
ATOM      9  O   UNL     1     -21.196 -21.883 -44.591  1.00  0.00    -0.545 OA
ENDBRANCH   1   7
TORSDOF 1
ENDMDL
MODEL 5
REMARK VINA RESULT:    -4.553      2.587      3.395
REMARK INTER + INTRA:          -4.837
REMARK INTER:                  -4.813
REMARK INTRA:                  -0.024
REMARK UNBOUND:                -0.017
REMARK SMILES O=C([O-])c1cccnc1
REMARK SMILES IDX 4 1 5 2 9 3 6 4 8 5 7 6 2 7 1 8 3 9
REMARK H PARENT
REMARK Flexibility Score: inf
ROOT
ATOM      1  C   UNL     1     -22.825 -23.863 -43.705  1.00  0.00     0.016 A 
ATOM      2  C   UNL     1     -22.806 -23.510 -45.064  1.00  0.00     0.013 A 
ATOM      3  C   UNL     1     -23.504 -25.035 -43.328  1.00  0.00     0.120 A 
ATOM      4  C   UNL     1     -23.451 -24.314 -46.006  1.00  0.00     0.021 A 
ATOM      5  N   UNL     1     -24.124 -25.800 -44.266  1.00  0.00    -0.264 NA
ATOM      6  C   UNL     1     -24.112 -25.468 -45.583  1.00  0.00     0.111 A 
ENDROOT
BRANCH   1   7
ATOM      7  C   UNL     1     -22.146 -23.019 -42.698  1.00  0.00     0.073 C 
ATOM      8  O   UNL     1     -22.124 -23.361 -41.486  1.00  0.00    -0.545 OA
ATOM      9  O   UNL     1     -21.523 -21.835 -43.076  1.00  0.00    -0.545 OA
ENDBRANCH   1   7
TORSDOF 1
ENDMDL
MODEL 6
REMARK VINA RESULT:    -4.407      1.902      2.380
REMARK INTER + INTRA:          -4.682
REMARK INTER:                  -4.660
REMARK INTRA:                  -0.022
REMARK UNBOUND:                -0.017
REMARK SMILES O=C([O-])c1cccnc1
REMARK SMILES IDX 4 1 5 2 9 3 6 4 8 5 7 6 2 7 1 8 3 9
REMARK H PARENT
REMARK Flexibility Score: inf
ROOT
ATOM      1  C   UNL     1     -22.162 -23.606 -44.087  1.00  0.00     0.016 A 
ATOM      2  C   UNL     1     -22.671 -24.264 -42.956  1.00  0.00     0.013 A 
ATOM      3  C   UNL     1     -22.666 -23.960 -45.351  1.00  0.00     0.120 A 
ATOM      4  C   UNL     1     -23.655 -25.244 -43.100  1.00  0.00     0.021 A 
ATOM      5  N   UNL     1     -23.625 -24.918 -45.463  1.00  0.00    -0.264 NA
ATOM      6  C   UNL     1     -24.124 -25.561 -44.376  1.00  0.00     0.111 A 
ENDROOT
BRANCH   1   7
ATOM      7  C   UNL     1     -21.120 -22.565 -43.948  1.00  0.00     0.073 C 
ATOM      8  O   UNL     1     -20.306 -22.344 -44.883  1.00  0.00    -0.545 OA
ATOM      9  O   UNL     1     -21.024 -21.817 -42.780  1.00  0.00    -0.545 OA
ENDBRANCH   1   7
TORSDOF 1
ENDMDL
MODEL 7
REMARK VINA RESULT:    -3.234      3.175      4.088
REMARK INTER + INTRA:          -3.440
REMARK INTER:                  -3.419
REMARK INTRA:                  -0.021
REMARK UNBOUND:                -0.017
REMARK SMILES O=C([O-])c1cccnc1
REMARK SMILES IDX 4 1 5 2 9 3 6 4 8 5 7 6 2 7 1 8 3 9
REMARK H PARENT
REMARK Flexibility Score: inf
ROOT
ATOM      1  C   UNL     1     -22.403 -24.023 -43.321  1.00  0.00     0.016 A 
ATOM      2  C   UNL     1     -22.011 -24.276 -44.645  1.00  0.00     0.013 A 
ATOM      3  C   UNL     1     -22.037 -22.798 -42.737  1.00  0.00     0.120 A 
ATOM      4  C   UNL     1     -21.277 -23.324 -45.354  1.00  0.00     0.021 A 
ATOM      5  N   UNL     1     -21.320 -21.886 -43.450  1.00  0.00    -0.264 NA
ATOM      6  C   UNL     1     -20.938 -22.121 -44.731  1.00  0.00     0.111 A 
ENDROOT
BRANCH   1   7
ATOM      7  C   UNL     1     -23.181 -25.025 -42.560  1.00  0.00     0.073 C 
ATOM      8  O   UNL     1     -22.999 -25.173 -41.323  1.00  0.00    -0.545 OA
ATOM      9  O   UNL     1     -24.125 -25.819 -43.203  1.00  0.00    -0.545 OA
ENDBRANCH   1   7
TORSDOF 1
ENDMDL
