MODEL 1
REMARK VINA RESULT:    -4.125      0.000      0.000
REMARK INTER + INTRA:          -4.960
REMARK INTER:                  -4.970
REMARK INTRA:                   0.010
REMARK UNBOUND:                 0.010
REMARK SMILES CC[C@@H](C)[C@@H]([NH3+])C(=O)[O-]
REMARK SMILES IDX 3 1 4 2 5 3 6 4 7 8 8 9 9 10 2 11 1 12
REMARK H PARENT 6 5 6 6 6 7
REMARK Flexibility Score: inf
ROOT
ATOM      1  C   UNL     1      23.683  29.085  17.264  1.00  0.00     0.050 C 
ATOM      2  C   UNL     1      24.501  30.386  17.398  1.00  0.00     0.014 C 
ENDROOT
BRANCH   1   3
ATOM      3  C   UNL     1      23.083  28.602  18.621  1.00  0.00     0.230 C 
BRANCH   3   4
ATOM      4  N   UNL     1      21.761  27.982  18.449  1.00  0.00    -0.350 N 
ATOM      5  H   UNL     1      21.018  28.711  18.559  1.00  0.00     0.345 HD
ATOM      6  H   UNL     1      21.592  27.232  19.157  1.00  0.00     0.345 HD
ATOM      7  H   UNL     1      21.676  27.576  17.489  1.00  0.00     0.345 HD
ENDBRANCH   3   4
BRANCH   3   8
ATOM      8  C   UNL     1      24.014  27.677  19.369  1.00  0.00     0.099 C 
ATOM      9  O   UNL     1      23.554  26.670  19.967  1.00  0.00    -0.544 OA
ATOM     10  O   UNL     1      25.377  27.944  19.434  1.00  0.00    -0.544 OA
ENDBRANCH   3   8
ENDBRANCH   1   3
BRANCH   1  11
ATOM     11  C   UNL     1      22.570  29.232  16.195  1.00  0.00     0.006 C 
ATOM     12  C   UNL     1      22.582  30.594  15.499  1.00  0.00     0.004 C 
ENDBRANCH   1  11
TORSDOF 4
ENDMDL
MODEL 2
REMARK VINA RESULT:    -3.491      2.855      4.256
REMARK INTER + INTRA:          -4.196
REMARK INTER:                  -4.183
REMARK INTRA:                  -0.013
REMARK UNBOUND:                 0.010
REMARK SMILES CC[C@@H](C)[C@@H]([NH3+])C(=O)[O-]
REMARK SMILES IDX 3 1 4 2 5 3 6 4 7 8 8 9 9 10 2 11 1 12
REMARK H PARENT 6 5 6 6 6 7
REMARK Flexibility Score: inf
ROOT
ATOM      1  C   UNL     1      23.588  28.409  18.287  1.00  0.00     0.050 C 
ATOM      2  C   UNL     1      22.337  27.972  19.075  1.00  0.00     0.014 C 
ENDROOT
BRANCH   1   3
ATOM      3  C   UNL     1      23.430  29.815  17.628  1.00  0.00     0.230 C 
BRANCH   3   4
ATOM      4  N   UNL     1      24.673  30.596  17.691  1.00  0.00    -0.350 N 
ATOM      5  H   UNL     1      24.457  31.607  17.528  1.00  0.00     0.345 HD
ATOM      6  H   UNL     1      25.361  30.288  16.967  1.00  0.00     0.345 HD
ATOM      7  H   UNL     1      25.107  30.507  18.638  1.00  0.00     0.345 HD
ENDBRANCH   3   4
BRANCH   3   8
ATOM      8  C   UNL     1      22.922  29.733  16.207  1.00  0.00     0.099 C 
ATOM      9  O   UNL     1      23.189  30.653  15.390  1.00  0.00    -0.544 OA
ATOM     10  O   UNL     1      22.131  28.666  15.798  1.00  0.00    -0.544 OA
ENDBRANCH   3   8
ENDBRANCH   1   3
BRANCH   1  11
ATOM     11  C   UNL     1      24.855  28.364  19.179  1.00  0.00     0.006 C 
ATOM     12  C   UNL     1      25.005  27.048  19.943  1.00  0.00     0.004 C 
ENDBRANCH   1  11
TORSDOF 4
ENDMDL
MODEL 3
REMARK VINA RESULT:    -3.412     10.028     10.584
REMARK INTER + INTRA:          -4.100
REMARK INTER:                  -4.016
REMARK INTRA:                  -0.084
REMARK UNBOUND:                 0.010
REMARK SMILES CC[C@@H](C)[C@@H]([NH3+])C(=O)[O-]
REMARK SMILES IDX 3 1 4 2 5 3 6 4 7 8 8 9 9 10 2 11 1 12
REMARK H PARENT 6 5 6 6 6 7
REMARK Flexibility Score: inf
ROOT
ATOM      1  C   UNL     1      15.616  33.506  22.680  1.00  0.00     0.050 C 
ATOM      2  C   UNL     1      15.355  34.608  23.728  1.00  0.00     0.014 C 
ENDROOT
BRANCH   1   3
ATOM      3  C   UNL     1      14.302  32.924  22.072  1.00  0.00     0.230 C 
BRANCH   3   4
ATOM      4  N   UNL     1      14.112  33.339  20.674  1.00  0.00    -0.350 N 
ATOM      5  H   UNL     1      14.233  34.376  20.599  1.00  0.00     0.345 HD
ATOM      6  H   UNL     1      13.158  33.093  20.324  1.00  0.00     0.345 HD
ATOM      7  H   UNL     1      14.830  32.886  20.063  1.00  0.00     0.345 HD
ENDBRANCH   3   4
BRANCH   3   8
ATOM      8  C   UNL     1      14.222  31.421  22.199  1.00  0.00     0.099 C 
ATOM      9  O   UNL     1      15.276  30.742  22.315  1.00  0.00    -0.544 OA
ATOM     10  O   UNL     1      12.994  30.771  22.154  1.00  0.00    -0.544 OA
ENDBRANCH   3   8
ENDBRANCH   1   3
BRANCH   1  11
ATOM     11  C   UNL     1      16.561  34.012  21.560  1.00  0.00     0.006 C 
ATOM     12  C   UNL     1      17.581  35.039  22.053  1.00  0.00     0.004 C 
ENDBRANCH   1  11
TORSDOF 4
ENDMDL
MODEL 4
REMARK VINA RESULT:    -3.243      9.940     10.574
REMARK INTER + INTRA:          -3.897
REMARK INTER:                  -3.801
REMARK INTRA:                  -0.096
REMARK UNBOUND:                 0.010
REMARK SMILES CC[C@@H](C)[C@@H]([NH3+])C(=O)[O-]
REMARK SMILES IDX 3 1 4 2 5 3 6 4 7 8 8 9 9 10 2 11 1 12
REMARK H PARENT 6 5 6 6 6 7
REMARK Flexibility Score: inf
ROOT
ATOM      1  C   UNL     1      14.662  32.117  22.108  1.00  0.00     0.050 C 
ATOM      2  C   UNL     1      15.700  32.620  21.084  1.00  0.00     0.014 C 
ENDROOT
BRANCH   1   3
ATOM      3  C   UNL     1      14.997  30.698  22.663  1.00  0.00     0.230 C 
BRANCH   3   4
ATOM      4  N   UNL     1      15.176  30.706  24.123  1.00  0.00    -0.350 N 
ATOM      5  H   UNL     1      16.049  30.183  24.369  1.00  0.00     0.345 HD
ATOM      6  H   UNL     1      14.372  30.250  24.613  1.00  0.00     0.345 HD
ATOM      7  H   UNL     1      15.279  31.687  24.468  1.00  0.00     0.345 HD
ENDBRANCH   3   4
BRANCH   3   8
ATOM      8  C   UNL     1      13.975  29.662  22.256  1.00  0.00     0.099 C 
ATOM      9  O   UNL     1      12.749  29.943  22.283  1.00  0.00    -0.544 OA
ATOM     10  O   UNL     1      14.374  28.383  21.882  1.00  0.00    -0.544 OA
ENDBRANCH   3   8
ENDBRANCH   1   3
BRANCH   1  11
ATOM     11  C   UNL     1      14.484  33.130  23.268  1.00  0.00     0.006 C 
ATOM     12  C   UNL     1      15.500  34.273  23.228  1.00  0.00     0.004 C 
ENDBRANCH   1  11
TORSDOF 4
ENDMDL
MODEL 5
REMARK VINA RESULT:    -3.195      9.939     10.483
REMARK INTER + INTRA:          -3.839
REMARK INTER:                  -3.826
REMARK INTRA:                  -0.013
REMARK UNBOUND:                 0.010
REMARK SMILES CC[C@@H](C)[C@@H]([NH3+])C(=O)[O-]
REMARK SMILES IDX 3 1 4 2 5 3 6 4 7 8 8 9 9 10 2 11 1 12
REMARK H PARENT 6 5 6 6 6 7
REMARK Flexibility Score: inf
ROOT
ATOM      1  C   UNL     1      15.164  33.778  21.973  1.00  0.00     0.050 C 
ATOM      2  C   UNL     1      14.237  33.622  20.750  1.00  0.00     0.014 C 
ENDROOT
BRANCH   1   3
ATOM      3  C   UNL     1      15.004  32.621  23.008  1.00  0.00     0.230 C 
BRANCH   3   4
ATOM      4  N   UNL     1      13.996  32.933  24.032  1.00  0.00    -0.350 N 
ATOM      5  H   UNL     1      14.297  33.780  24.569  1.00  0.00     0.345 HD
ATOM      6  H   UNL     1      13.873  32.144  24.706  1.00  0.00     0.345 HD
ATOM      7  H   UNL     1      13.078  33.147  23.581  1.00  0.00     0.345 HD
ENDBRANCH   3   4
BRANCH   3   8
ATOM      8  C   UNL     1      14.704  31.295  22.350  1.00  0.00     0.099 C 
ATOM      9  O   UNL     1      15.627  30.645  21.794  1.00  0.00    -0.544 OA
ATOM     10  O   UNL     1      13.406  30.796  22.322  1.00  0.00    -0.544 OA
ENDBRANCH   3   8
ENDBRANCH   1   3
BRANCH   1  11
ATOM     11  C   UNL     1      16.645  33.922  21.538  1.00  0.00     0.006 C 
ATOM     12  C   UNL     1      17.344  35.125  22.173  1.00  0.00     0.004 C 
ENDBRANCH   1  11
TORSDOF 4
ENDMDL
MODEL 6
REMARK VINA RESULT:    -3.193      2.376      3.509
REMARK INTER + INTRA:          -3.837
REMARK INTER:                  -3.901
REMARK INTRA:                   0.065
REMARK UNBOUND:                 0.010
REMARK SMILES CC[C@@H](C)[C@@H]([NH3+])C(=O)[O-]
REMARK SMILES IDX 3 1 4 2 5 3 6 4 7 8 8 9 9 10 2 11 1 12
REMARK H PARENT 6 5 6 6 6 7
REMARK Flexibility Score: inf
ROOT
ATOM      1  C   UNL     1      21.690  28.001  18.876  1.00  0.00     0.050 C 
ATOM      2  C   UNL     1      22.251  26.881  19.775  1.00  0.00     0.014 C 
ENDROOT
BRANCH   1   3
ATOM      3  C   UNL     1      22.585  28.284  17.629  1.00  0.00     0.230 C 
BRANCH   3   4
ATOM      4  N   UNL     1      21.821  28.887  16.528  1.00  0.00    -0.350 N 
ATOM      5  H   UNL     1      20.800  28.708  16.674  1.00  0.00     0.345 HD
ATOM      6  H   UNL     1      22.095  28.486  15.602  1.00  0.00     0.345 HD
ATOM      7  H   UNL     1      21.968  29.922  16.511  1.00  0.00     0.345 HD
ENDBRANCH   3   4
BRANCH   3   8
ATOM      8  C   UNL     1      23.793  29.126  17.965  1.00  0.00     0.099 C 
ATOM      9  O   UNL     1      23.934  30.262  17.440  1.00  0.00    -0.544 OA
ATOM     10  O   UNL     1      24.775  28.646  18.824  1.00  0.00    -0.544 OA
ENDBRANCH   3   8
ENDBRANCH   1   3
BRANCH   1  11
ATOM     11  C   UNL     1      20.232  27.694  18.444  1.00  0.00     0.006 C 
ATOM     12  C   UNL     1      19.249  27.682  19.615  1.00  0.00     0.004 C 
ENDBRANCH   1  11
TORSDOF 4
ENDMDL
MODEL 7
REMARK VINA RESULT:    -3.132     10.271     10.873
REMARK INTER + INTRA:          -3.763
REMARK INTER:                  -3.661
REMARK INTRA:                  -0.102
REMARK UNBOUND:                 0.010
REMARK SMILES CC[C@@H](C)[C@@H]([NH3+])C(=O)[O-]
REMARK SMILES IDX 3 1 4 2 5 3 6 4 7 8 8 9 9 10 2 11 1 12
REMARK H PARENT 6 5 6 6 6 7
REMARK Flexibility Score: inf
ROOT
ATOM      1  C   UNL     1      14.867  31.792  22.675  1.00  0.00     0.050 C 
ATOM      2  C   UNL     1      15.097  32.684  23.912  1.00  0.00     0.014 C 
ENDROOT
BRANCH   1   3
ATOM      3  C   UNL     1      13.363  31.434  22.456  1.00  0.00     0.230 C 
BRANCH   3   4
ATOM      4  N   UNL     1      12.756  32.239  21.387  1.00  0.00    -0.350 N 
ATOM      5  H   UNL     1      11.745  31.984  21.292  1.00  0.00     0.345 HD
ATOM      6  H   UNL     1      13.223  32.075  20.466  1.00  0.00     0.345 HD
ATOM      7  H   UNL     1      12.811  33.256  21.625  1.00  0.00     0.345 HD
ENDBRANCH   3   4
BRANCH   3   8
ATOM      8  C   UNL     1      13.151  29.960  22.201  1.00  0.00     0.099 C 
ATOM      9  O   UNL     1      12.019  29.539  21.846  1.00  0.00    -0.544 OA
ATOM     10  O   UNL     1      14.188  29.052  22.387  1.00  0.00    -0.544 OA
ENDBRANCH   3   8
ENDBRANCH   1   3
BRANCH   1  11
ATOM     11  C   UNL     1      15.466  32.437  21.400  1.00  0.00     0.006 C 
ATOM     12  C   UNL     1      16.162  33.772  21.672  1.00  0.00     0.004 C 
ENDBRANCH   1  11
TORSDOF 4
ENDMDL
MODEL 8
REMARK VINA RESULT:    -3.094     10.383     11.049
REMARK INTER + INTRA:          -3.717
REMARK INTER:                  -3.663
REMARK INTRA:                  -0.054
REMARK UNBOUND:                 0.010
REMARK SMILES CC[C@@H](C)[C@@H]([NH3+])C(=O)[O-]
REMARK SMILES IDX 3 1 4 2 5 3 6 4 7 8 8 9 9 10 2 11 1 12
REMARK H PARENT 6 5 6 6 6 7
REMARK Flexibility Score: inf
ROOT
ATOM      1  C   UNL     1      15.072  30.540  22.683  1.00  0.00     0.050 C 
ATOM      2  C   UNL     1      14.673  31.420  23.886  1.00  0.00     0.014 C 
ENDROOT
BRANCH   1   3
ATOM      3  C   UNL     1      13.869  29.742  22.090  1.00  0.00     0.230 C 
BRANCH   3   4
ATOM      4  N   UNL     1      13.885  28.332  22.503  1.00  0.00    -0.350 N 
ATOM      5  H   UNL     1      12.923  28.044  22.796  1.00  0.00     0.345 HD
ATOM      6  H   UNL     1      14.534  28.172  23.308  1.00  0.00     0.345 HD
ATOM      7  H   UNL     1      14.175  27.725  21.702  1.00  0.00     0.345 HD
ENDBRANCH   3   4
BRANCH   3   8
ATOM      8  C   UNL     1      12.537  30.378  22.414  1.00  0.00     0.099 C 
ATOM      9  O   UNL     1      11.803  29.880  23.307  1.00  0.00    -0.544 OA
ATOM     10  O   UNL     1      12.094  31.492  21.710  1.00  0.00    -0.544 OA
ENDBRANCH   3   8
ENDBRANCH   1   3
BRANCH   1  11
ATOM     11  C   UNL     1      15.767  31.380  21.582  1.00  0.00     0.006 C 
ATOM     12  C   UNL     1      15.364  32.855  21.607  1.00  0.00     0.004 C 
ENDBRANCH   1  11
TORSDOF 4
ENDMDL
