MODEL 1
REMARK VINA RESULT:    -4.334      0.000      0.000
REMARK INTER + INTRA:          -5.159
REMARK INTER:                  -4.967
REMARK INTRA:                  -0.192
REMARK UNBOUND:                -0.192
REMARK SMILES COc1ccc(C(C)=O)c(O)c1
REMARK SMILES IDX 6 1 10 2 12 3 3 4 4 5 5 6 7 7 8 8 9 9 11 10 2 12 1 13
REMARK H PARENT 11 11
REMARK Flexibility Score: inf
ROOT
ATOM      1  C   UNL     1     177.093 171.949 172.897  1.00  0.00     0.059 A 
ATOM      2  C   UNL     1     178.003 171.360 171.989  1.00  0.00     0.130 A 
ATOM      3  C   UNL     1     177.582 170.312 171.156  1.00  0.00     0.093 A 
ATOM      4  C   UNL     1     176.274 169.824 171.219  1.00  0.00     0.122 A 
ATOM      5  C   UNL     1     175.374 170.395 172.135  1.00  0.00     0.047 A 
ATOM      6  C   UNL     1     175.783 171.442 172.965  1.00  0.00     0.019 A 
ENDROOT
BRANCH   1   7
ATOM      7  C   UNL     1     177.473 173.073 173.794  1.00  0.00     0.163 C 
ATOM      8  C   UNL     1     176.520 173.667 174.788  1.00  0.00     0.093 C 
ATOM      9  O   UNL     1     178.638 173.551 173.726  1.00  0.00    -0.294 OA
ENDBRANCH   1   7
BRANCH   2  10
ATOM     10  O   UNL     1     179.328 171.791 171.922  1.00  0.00    -0.507 OA
ATOM     11  H   UNL     1     179.609 172.706 172.256  1.00  0.00     0.293 HD
ENDBRANCH   2  10
BRANCH   4  12
ATOM     12  O   UNL     1     175.912 168.774 170.363  1.00  0.00    -0.497 OA
ATOM     13  C   UNL     1     176.801 168.139 169.449  1.00  0.00     0.278 C 
ENDBRANCH   4  12
TORSDOF 3
ENDMDL
MODEL 2
REMARK VINA RESULT:    -4.331      1.661      3.066
REMARK INTER + INTRA:          -5.156
REMARK INTER:                  -4.941
REMARK INTRA:                  -0.216
REMARK UNBOUND:                -0.192
REMARK SMILES COc1ccc(C(C)=O)c(O)c1
REMARK SMILES IDX 6 1 10 2 12 3 3 4 4 5 5 6 7 7 8 8 9 9 11 10 2 12 1 13
REMARK H PARENT 11 11
REMARK Flexibility Score: inf
ROOT
ATOM      1  C   UNL     1     177.417 171.706 172.628  1.00  0.00     0.059 A 
ATOM      2  C   UNL     1     176.303 172.087 173.412  1.00  0.00     0.130 A 
ATOM      3  C   UNL     1     175.104 171.364 173.322  1.00  0.00     0.093 A 
ATOM      4  C   UNL     1     174.983 170.275 172.453  1.00  0.00     0.122 A 
ATOM      5  C   UNL     1     176.083 169.908 171.660  1.00  0.00     0.047 A 
ATOM      6  C   UNL     1     177.282 170.619 171.746  1.00  0.00     0.019 A 
ENDROOT
BRANCH   1   7
ATOM      7  C   UNL     1     178.720 172.421 172.690  1.00  0.00     0.163 C 
ATOM      8  C   UNL     1     179.826 172.165 171.710  1.00  0.00     0.093 C 
ATOM      9  O   UNL     1     178.913 173.277 173.596  1.00  0.00    -0.294 OA
ENDBRANCH   1   7
BRANCH   2  10
ATOM     10  O   UNL     1     176.369 173.190 174.262  1.00  0.00    -0.507 OA
ATOM     11  H   UNL     1     176.328 173.091 175.270  1.00  0.00     0.293 HD
ENDBRANCH   2  10
BRANCH   4  12
ATOM     12  O   UNL     1     173.759 169.592 172.406  1.00  0.00    -0.497 OA
ATOM     13  C   UNL     1     172.663 169.846 173.279  1.00  0.00     0.278 C 
ENDBRANCH   4  12
TORSDOF 3
ENDMDL
MODEL 3
REMARK VINA RESULT:    -4.142      1.663      1.868
REMARK INTER + INTRA:          -4.940
REMARK INTER:                  -4.641
REMARK INTRA:                  -0.299
REMARK UNBOUND:                -0.192
REMARK SMILES COc1ccc(C(C)=O)c(O)c1
REMARK SMILES IDX 6 1 10 2 12 3 3 4 4 5 5 6 7 7 8 8 9 9 11 10 2 12 1 13
REMARK H PARENT 11 11
REMARK Flexibility Score: inf
ROOT
ATOM      1  C   UNL     1     176.546 171.564 172.515  1.00  0.00     0.059 A 
ATOM      2  C   UNL     1     177.008 170.527 171.672  1.00  0.00     0.130 A 
ATOM      3  C   UNL     1     176.240 169.364 171.509  1.00  0.00     0.093 A 
ATOM      4  C   UNL     1     175.025 169.203 172.182  1.00  0.00     0.122 A 
ATOM      5  C   UNL     1     174.575 170.225 173.035  1.00  0.00     0.047 A 
ATOM      6  C   UNL     1     175.331 171.389 173.200  1.00  0.00     0.019 A 
ENDROOT
BRANCH   1   7
ATOM      7  C   UNL     1     177.305 172.828 172.717  1.00  0.00     0.163 C 
ATOM      8  C   UNL     1     177.904 173.205 174.039  1.00  0.00     0.093 C 
ATOM      9  O   UNL     1     177.458 173.618 171.746  1.00  0.00    -0.294 OA
ENDBRANCH   1   7
BRANCH   2  10
ATOM     10  O   UNL     1     178.232 170.631 171.013  1.00  0.00    -0.507 OA
ATOM     11  H   UNL     1     178.988 169.978 171.185  1.00  0.00     0.293 HD
ENDBRANCH   2  10
BRANCH   4  12
ATOM     12  O   UNL     1     174.303 168.018 171.981  1.00  0.00    -0.497 OA
ATOM     13  C   UNL     1     174.818 166.712 172.219  1.00  0.00     0.278 C 
ENDBRANCH   4  12
TORSDOF 3
ENDMDL
MODEL 4
REMARK VINA RESULT:    -4.133      1.831      2.800
REMARK INTER + INTRA:          -4.930
REMARK INTER:                  -4.592
REMARK INTRA:                  -0.337
REMARK UNBOUND:                -0.192
REMARK SMILES COc1ccc(C(C)=O)c(O)c1
REMARK SMILES IDX 6 1 10 2 12 3 3 4 4 5 5 6 7 7 8 8 9 9 11 10 2 12 1 13
REMARK H PARENT 11 11
REMARK Flexibility Score: inf
ROOT
ATOM      1  C   UNL     1     177.054 171.075 172.470  1.00  0.00     0.059 A 
ATOM      2  C   UNL     1     175.736 171.257 172.949  1.00  0.00     0.130 A 
ATOM      3  C   UNL     1     174.671 170.572 172.345  1.00  0.00     0.093 A 
ATOM      4  C   UNL     1     174.888 169.719 171.259  1.00  0.00     0.122 A 
ATOM      5  C   UNL     1     176.194 169.552 170.770  1.00  0.00     0.047 A 
ATOM      6  C   UNL     1     177.262 170.226 171.368  1.00  0.00     0.019 A 
ENDROOT
BRANCH   1   7
ATOM      7  C   UNL     1     178.228 171.759 173.078  1.00  0.00     0.163 C 
ATOM      8  C   UNL     1     179.237 172.505 172.258  1.00  0.00     0.093 C 
ATOM      9  O   UNL     1     178.388 171.716 174.328  1.00  0.00    -0.294 OA
ENDBRANCH   1   7
BRANCH   2  10
ATOM     10  O   UNL     1     175.472 172.128 174.005  1.00  0.00    -0.507 OA
ATOM     11  H   UNL     1     175.786 171.935 174.949  1.00  0.00     0.293 HD
ENDBRANCH   2  10
BRANCH   4  12
ATOM     12  O   UNL     1     173.784 169.063 170.696  1.00  0.00    -0.497 OA
ATOM     13  C   UNL     1     172.674 169.726 170.096  1.00  0.00     0.278 C 
ENDBRANCH   4  12
TORSDOF 3
ENDMDL
MODEL 5
REMARK VINA RESULT:    -4.058      1.639      2.409
REMARK INTER + INTRA:          -4.843
REMARK INTER:                  -4.670
REMARK INTRA:                  -0.173
REMARK UNBOUND:                -0.192
REMARK SMILES COc1ccc(C(C)=O)c(O)c1
REMARK SMILES IDX 6 1 10 2 12 3 3 4 4 5 5 6 7 7 8 8 9 9 11 10 2 12 1 13
REMARK H PARENT 11 11
REMARK Flexibility Score: inf
ROOT
ATOM      1  C   UNL     1     176.953 171.465 172.363  1.00  0.00     0.059 A 
ATOM      2  C   UNL     1     175.721 171.232 173.017  1.00  0.00     0.130 A 
ATOM      3  C   UNL     1     174.934 170.129 172.655  1.00  0.00     0.093 A 
ATOM      4  C   UNL     1     175.339 169.257 171.641  1.00  0.00     0.122 A 
ATOM      5  C   UNL     1     176.554 169.498 170.976  1.00  0.00     0.047 A 
ATOM      6  C   UNL     1     177.346 170.592 171.333  1.00  0.00     0.019 A 
ENDROOT
BRANCH   1   7
ATOM      7  C   UNL     1     177.840 172.607 172.712  1.00  0.00     0.163 C 
ATOM      8  C   UNL     1     178.875 172.521 173.794  1.00  0.00     0.093 C 
ATOM      9  O   UNL     1     177.728 173.692 172.079  1.00  0.00    -0.294 OA
ENDBRANCH   1   7
BRANCH   2  10
ATOM     10  O   UNL     1     175.261 172.099 174.008  1.00  0.00    -0.507 OA
ATOM     11  H   UNL     1     175.896 172.674 174.550  1.00  0.00     0.293 HD
ENDBRANCH   2  10
BRANCH   4  12
ATOM     12  O   UNL     1     174.509 168.172 171.322  1.00  0.00    -0.497 OA
ATOM     13  C   UNL     1     174.799 167.207 170.315  1.00  0.00     0.278 C 
ENDBRANCH   4  12
TORSDOF 3
ENDMDL
MODEL 6
REMARK VINA RESULT:    -4.007      2.040      3.439
REMARK INTER + INTRA:          -4.785
REMARK INTER:                  -4.600
REMARK INTRA:                  -0.185
REMARK UNBOUND:                -0.192
REMARK SMILES COc1ccc(C(C)=O)c(O)c1
REMARK SMILES IDX 6 1 10 2 12 3 3 4 4 5 5 6 7 7 8 8 9 9 11 10 2 12 1 13
REMARK H PARENT 11 11
REMARK Flexibility Score: inf
ROOT
ATOM      1  C   UNL     1     176.657 171.157 172.447  1.00  0.00     0.059 A 
ATOM      2  C   UNL     1     176.020 170.099 171.757  1.00  0.00     0.130 A 
ATOM      3  C   UNL     1     174.719 169.715 172.113  1.00  0.00     0.093 A 
ATOM      4  C   UNL     1     174.040 170.352 173.155  1.00  0.00     0.122 A 
ATOM      5  C   UNL     1     174.679 171.391 173.854  1.00  0.00     0.047 A 
ATOM      6  C   UNL     1     175.973 171.783 173.503  1.00  0.00     0.019 A 
ENDROOT
BRANCH   1   7
ATOM      7  C   UNL     1     178.029 171.622 172.107  1.00  0.00     0.163 C 
ATOM      8  C   UNL     1     178.684 172.775 172.806  1.00  0.00     0.093 C 
ATOM      9  O   UNL     1     178.674 171.031 171.199  1.00  0.00    -0.294 OA
ENDBRANCH   1   7
BRANCH   2  10
ATOM     10  O   UNL     1     176.677 169.411 170.738  1.00  0.00    -0.507 OA
ATOM     11  H   UNL     1     176.937 169.864 169.869  1.00  0.00     0.293 HD
ENDBRANCH   2  10
BRANCH   4  12
ATOM     12  O   UNL     1     172.741 169.923 173.466  1.00  0.00    -0.497 OA
ATOM     13  C   UNL     1     171.581 170.746 173.381  1.00  0.00     0.278 C 
ENDBRANCH   4  12
TORSDOF 3
ENDMDL
MODEL 7
REMARK VINA RESULT:    -3.904      2.051      4.420
REMARK INTER + INTRA:          -4.667
REMARK INTER:                  -4.326
REMARK INTRA:                  -0.342
REMARK UNBOUND:                -0.192
REMARK SMILES COc1ccc(C(C)=O)c(O)c1
REMARK SMILES IDX 6 1 10 2 12 3 3 4 4 5 5 6 7 7 8 8 9 9 11 10 2 12 1 13
REMARK H PARENT 11 11
REMARK Flexibility Score: inf
ROOT
ATOM      1  C   UNL     1     174.478 170.115 172.871  1.00  0.00     0.059 A 
ATOM      2  C   UNL     1     175.249 169.424 171.908  1.00  0.00     0.130 A 
ATOM      3  C   UNL     1     176.543 169.869 171.598  1.00  0.00     0.093 A 
ATOM      4  C   UNL     1     177.083 171.000 172.217  1.00  0.00     0.122 A 
ATOM      5  C   UNL     1     176.311 171.698 173.160  1.00  0.00     0.047 A 
ATOM      6  C   UNL     1     175.023 171.260 173.478  1.00  0.00     0.019 A 
ENDROOT
BRANCH   1   7
ATOM      7  C   UNL     1     173.106 169.685 173.256  1.00  0.00     0.163 C 
ATOM      8  C   UNL     1     171.944 170.631 173.279  1.00  0.00     0.093 C 
ATOM      9  O   UNL     1     172.903 168.482 173.574  1.00  0.00    -0.294 OA
ENDBRANCH   1   7
BRANCH   2  10
ATOM     10  O   UNL     1     174.733 168.315 171.239  1.00  0.00    -0.507 OA
ATOM     11  H   UNL     1     173.777 168.007 171.375  1.00  0.00     0.293 HD
ENDBRANCH   2  10
BRANCH   4  12
ATOM     12  O   UNL     1     178.382 171.396 171.865  1.00  0.00    -0.497 OA
ATOM     13  C   UNL     1     179.080 172.485 172.463  1.00  0.00     0.278 C 
ENDBRANCH   4  12
TORSDOF 3
ENDMDL
MODEL 8
REMARK VINA RESULT:    -3.890      1.417      5.220
REMARK INTER + INTRA:          -4.651
REMARK INTER:                  -4.315
REMARK INTRA:                  -0.337
REMARK UNBOUND:                -0.192
REMARK SMILES COc1ccc(C(C)=O)c(O)c1
REMARK SMILES IDX 6 1 10 2 12 3 3 4 4 5 5 6 7 7 8 8 9 9 11 10 2 12 1 13
REMARK H PARENT 11 11
REMARK Flexibility Score: inf
ROOT
ATOM      1  C   UNL     1     176.092 169.521 170.919  1.00  0.00     0.059 A 
ATOM      2  C   UNL     1     175.073 169.846 171.845  1.00  0.00     0.130 A 
ATOM      3  C   UNL     1     175.279 170.871 172.780  1.00  0.00     0.093 A 
ATOM      4  C   UNL     1     176.487 171.574 172.824  1.00  0.00     0.122 A 
ATOM      5  C   UNL     1     177.506 171.239 171.917  1.00  0.00     0.047 A 
ATOM      6  C   UNL     1     177.309 170.223 170.979  1.00  0.00     0.019 A 
ENDROOT
BRANCH   1   7
ATOM      7  C   UNL     1     175.929 168.456 169.892  1.00  0.00     0.163 C 
ATOM      8  C   UNL     1     177.035 167.509 169.535  1.00  0.00     0.093 C 
ATOM      9  O   UNL     1     174.825 168.337 169.296  1.00  0.00    -0.294 OA
ENDBRANCH   1   7
BRANCH   2  10
ATOM     10  O   UNL     1     173.869 169.144 171.860  1.00  0.00    -0.507 OA
ATOM     11  H   UNL     1     173.795 168.203 171.490  1.00  0.00     0.293 HD
ENDBRANCH   2  10
BRANCH   4  12
ATOM     12  O   UNL     1     176.634 172.587 173.782  1.00  0.00    -0.497 OA
ATOM     13  C   UNL     1     177.826 173.343 173.976  1.00  0.00     0.278 C 
ENDBRANCH   4  12
TORSDOF 3
ENDMDL
MODEL 9
REMARK VINA RESULT:    -3.748     14.942     16.391
REMARK INTER + INTRA:          -4.488
REMARK INTER:                  -4.149
REMARK INTRA:                  -0.339
REMARK UNBOUND:                -0.192
REMARK SMILES COc1ccc(C(C)=O)c(O)c1
REMARK SMILES IDX 6 1 10 2 12 3 3 4 4 5 5 6 7 7 8 8 9 9 11 10 2 12 1 13
REMARK H PARENT 11 11
REMARK Flexibility Score: inf
ROOT
ATOM      1  C   UNL     1     165.785 161.839 179.554  1.00  0.00     0.059 A 
ATOM      2  C   UNL     1     166.963 162.163 178.843  1.00  0.00     0.130 A 
ATOM      3  C   UNL     1     168.063 161.293 178.878  1.00  0.00     0.093 A 
ATOM      4  C   UNL     1     168.022 160.110 179.622  1.00  0.00     0.122 A 
ATOM      5  C   UNL     1     166.859 159.797 180.344  1.00  0.00     0.047 A 
ATOM      6  C   UNL     1     165.757 160.655 180.311  1.00  0.00     0.019 A 
ENDROOT
BRANCH   1   7
ATOM      7  C   UNL     1     164.579 162.711 179.544  1.00  0.00     0.163 C 
ATOM      8  C   UNL     1     163.875 163.125 180.801  1.00  0.00     0.093 C 
ATOM      9  O   UNL     1     164.124 163.123 178.442  1.00  0.00    -0.294 OA
ENDBRANCH   1   7
BRANCH   2  10
ATOM     10  O   UNL     1     167.060 163.352 178.120  1.00  0.00    -0.507 OA
ATOM     11  H   UNL     1     166.334 163.645 177.477  1.00  0.00     0.293 HD
ENDBRANCH   2  10
BRANCH   4  12
ATOM     12  O   UNL     1     169.154 159.281 179.620  1.00  0.00    -0.497 OA
ATOM     13  C   UNL     1     169.615 158.548 180.750  1.00  0.00     0.278 C 
ENDBRANCH   4  12
TORSDOF 3
ENDMDL
