MODEL 1
REMARK VINA RESULT:    -7.774      0.000      0.000
REMARK INTER + INTRA:         -10.525
REMARK INTER:                  -9.819
REMARK INTRA:                  -0.706
REMARK UNBOUND:                -0.706
REMARK SMILES CC(C)[C@H](C)C=C[C@@H](C)[C@H]1CC[C@H]2C3=CC=C4C[C@H](O)CC[C@@]4(C)[C@H]3CC[C@@]12C
REMARK SMILES IDX 8 1 9 2 7 3 6 4 4 5 5 6 2 7 1 8 3 9 10 10 11 11 28 12 12 13
REMARK SMILES IDX 13 14 27 15 29 16 14 17 26 18 25 19 15 20 23 21 16 22 17 23
REMARK SMILES IDX 22 24 24 25 18 26 21 27 19 28 20 29
REMARK H PARENT 20 30
REMARK Flexibility Score: inf
ROOT
ATOM      1  C   UNL     1     118.973 128.389 130.075  1.00  0.00     0.012 C 
ATOM      2  C   UNL     1     117.755 129.176 130.575  1.00  0.00     0.012 C 
ENDROOT
BRANCH   1   3
ATOM      3  C   UNL     1     120.118 129.366 129.902  1.00  0.00    -0.028 C 
ATOM      4  C   UNL     1     119.909 130.659 129.607  1.00  0.00    -0.028 C 
BRANCH   4   5
ATOM      5  C   UNL     1     121.056 131.642 129.506  1.00  0.00     0.011 C 
ATOM      6  C   UNL     1     122.238 131.002 128.755  1.00  0.00     0.012 C 
BRANCH   5   7
ATOM      7  C   UNL     1     120.582 132.991 128.883  1.00  0.00    -0.011 C 
ATOM      8  C   UNL     1     119.312 132.864 128.026  1.00  0.00     0.008 C 
ATOM      9  C   UNL     1     121.700 133.666 128.072  1.00  0.00     0.008 C 
ENDBRANCH   5   7
ENDBRANCH   4   5
ENDBRANCH   1   3
BRANCH   1  10
ATOM     10  C   UNL     1     118.701 127.642 128.727  1.00  0.00     0.002 C 
ATOM     11  C   UNL     1     119.996 127.126 128.087  1.00  0.00     0.005 C 
ATOM     12  C   UNL     1     117.744 126.405 128.765  1.00  0.00    -0.023 C 
ATOM     13  C   UNL     1     119.638 125.875 127.297  1.00  0.00     0.009 C 
ATOM     14  C   UNL     1     118.126 125.643 127.464  1.00  0.00     0.021 C 
ATOM     15  C   UNL     1     118.036 125.489 130.009  1.00  0.00     0.008 C 
ATOM     16  C   UNL     1     116.251 126.865 128.730  1.00  0.00     0.012 C 
ATOM     17  C   UNL     1     117.754 124.163 127.505  1.00  0.00    -0.063 C 
ATOM     18  C   UNL     1     117.435 124.056 129.953  1.00  0.00     0.009 C 
ATOM     19  C   UNL     1     116.809 123.686 128.592  1.00  0.00     0.025 C 
ATOM     20  C   UNL     1     118.389 123.280 126.716  1.00  0.00    -0.000 C 
ATOM     21  C   UNL     1     116.331 122.185 128.407  1.00  0.00    -0.005 C 
ATOM     22  C   UNL     1     118.310 121.834 126.955  1.00  0.00    -0.000 C 
ATOM     23  C   UNL     1     117.443 121.309 127.830  1.00  0.00    -0.061 C 
ATOM     24  C   UNL     1     115.811 121.580 129.750  1.00  0.00     0.014 C 
ATOM     25  C   UNL     1     115.168 122.185 127.376  1.00  0.00     0.017 C 
ATOM     26  C   UNL     1     117.339 119.799 127.912  1.00  0.00     0.063 C 
ATOM     27  C   UNL     1     115.535 120.074 129.676  1.00  0.00     0.033 C 
ATOM     28  C   UNL     1     116.815 119.325 129.277  1.00  0.00     0.118 C 
BRANCH  28  29
ATOM     29  O   UNL     1     116.591 117.936 129.265  1.00  0.00    -0.393 OA
ATOM     30  H   UNL     1     117.243 117.529 128.637  1.00  0.00     0.210 HD
ENDBRANCH  28  29
ENDBRANCH   1  10
TORSDOF 5
ENDMDL
MODEL 2
REMARK VINA RESULT:    -7.233      2.151      2.694
REMARK INTER + INTRA:          -9.842
REMARK INTER:                  -9.213
REMARK INTRA:                  -0.629
REMARK UNBOUND:                -0.706
REMARK SMILES CC(C)[C@H](C)C=C[C@@H](C)[C@H]1CC[C@H]2C3=CC=C4C[C@H](O)CC[C@@]4(C)[C@H]3CC[C@@]12C
REMARK SMILES IDX 8 1 9 2 7 3 6 4 4 5 5 6 2 7 1 8 3 9 10 10 11 11 28 12 12 13
REMARK SMILES IDX 13 14 27 15 29 16 14 17 26 18 25 19 15 20 23 21 16 22 17 23
REMARK SMILES IDX 22 24 24 25 18 26 21 27 19 28 20 29
REMARK H PARENT 20 30
REMARK Flexibility Score: inf
ROOT
ATOM      1  C   UNL     1     119.532 128.473 130.040  1.00  0.00     0.012 C 
ATOM      2  C   UNL     1     118.779 129.259 131.121  1.00  0.00     0.012 C 
ENDROOT
BRANCH   1   3
ATOM      3  C   UNL     1     120.014 129.462 128.998  1.00  0.00    -0.028 C 
ATOM      4  C   UNL     1     119.867 130.788 129.156  1.00  0.00    -0.028 C 
BRANCH   4   5
ATOM      5  C   UNL     1     120.417 131.770 128.143  1.00  0.00     0.011 C 
ATOM      6  C   UNL     1     119.304 132.727 127.676  1.00  0.00     0.012 C 
BRANCH   5   7
ATOM      7  C   UNL     1     121.673 132.505 128.703  1.00  0.00    -0.011 C 
ATOM      8  C   UNL     1     121.819 133.952 128.200  1.00  0.00     0.008 C 
ATOM      9  C   UNL     1     122.963 131.718 128.425  1.00  0.00     0.008 C 
ENDBRANCH   5   7
ENDBRANCH   4   5
ENDBRANCH   1   3
BRANCH   1  10
ATOM     10  C   UNL     1     118.649 127.374 129.362  1.00  0.00     0.002 C 
ATOM     11  C   UNL     1     119.268 126.866 128.053  1.00  0.00     0.005 C 
ATOM     12  C   UNL     1     118.334 126.085 130.190  1.00  0.00    -0.023 C 
ATOM     13  C   UNL     1     118.829 125.420 127.880  1.00  0.00     0.009 C 
ATOM     14  C   UNL     1     117.943 125.061 129.087  1.00  0.00     0.021 C 
ATOM     15  C   UNL     1     119.607 125.566 130.954  1.00  0.00     0.008 C 
ATOM     16  C   UNL     1     117.143 126.339 131.170  1.00  0.00     0.012 C 
ATOM     17  C   UNL     1     118.105 123.609 129.530  1.00  0.00    -0.063 C 
ATOM     18  C   UNL     1     119.531 124.107 131.486  1.00  0.00     0.009 C 
ATOM     19  C   UNL     1     118.291 123.324 131.009  1.00  0.00     0.025 C 
ATOM     20  C   UNL     1     118.262 122.633 128.621  1.00  0.00    -0.000 C 
ATOM     21  C   UNL     1     118.235 121.780 131.371  1.00  0.00    -0.005 C 
ATOM     22  C   UNL     1     118.752 121.301 128.994  1.00  0.00    -0.000 C 
ATOM     23  C   UNL     1     118.865 120.923 130.274  1.00  0.00    -0.061 C 
ATOM     24  C   UNL     1     118.922 121.489 132.743  1.00  0.00     0.014 C 
ATOM     25  C   UNL     1     116.738 121.373 131.467  1.00  0.00     0.017 C 
ATOM     26  C   UNL     1     119.250 119.486 130.561  1.00  0.00     0.063 C 
ATOM     27  C   UNL     1     119.082 119.994 133.042  1.00  0.00     0.033 C 
ATOM     28  C   UNL     1     119.913 119.325 131.938  1.00  0.00     0.118 C 
BRANCH  28  29
ATOM     29  O   UNL     1     120.120 117.964 132.232  1.00  0.00    -0.393 OA
ATOM     30  H   UNL     1     121.042 117.868 132.588  1.00  0.00     0.210 HD
ENDBRANCH  28  29
ENDBRANCH   1  10
TORSDOF 5
ENDMDL
MODEL 3
REMARK VINA RESULT:    -7.112      8.147     11.291
REMARK INTER + INTRA:          -9.689
REMARK INTER:                  -8.758
REMARK INTRA:                  -0.931
REMARK UNBOUND:                -0.706
REMARK SMILES CC(C)[C@H](C)C=C[C@@H](C)[C@H]1CC[C@H]2C3=CC=C4C[C@H](O)CC[C@@]4(C)[C@H]3CC[C@@]12C
REMARK SMILES IDX 8 1 9 2 7 3 6 4 4 5 5 6 2 7 1 8 3 9 10 10 11 11 28 12 12 13
REMARK SMILES IDX 13 14 27 15 29 16 14 17 26 18 25 19 15 20 23 21 16 22 17 23
REMARK SMILES IDX 22 24 24 25 18 26 21 27 19 28 20 29
REMARK H PARENT 20 30
REMARK Flexibility Score: inf
ROOT
ATOM      1  C   UNL     1     121.350 119.951 125.806  1.00  0.00     0.012 C 
ATOM      2  C   UNL     1     120.524 119.190 126.851  1.00  0.00     0.012 C 
ENDROOT
BRANCH   1   3
ATOM      3  C   UNL     1     120.733 121.325 125.637  1.00  0.00    -0.028 C 
ATOM      4  C   UNL     1     119.760 121.770 126.449  1.00  0.00    -0.028 C 
BRANCH   4   5
ATOM      5  C   UNL     1     119.201 123.171 126.317  1.00  0.00     0.011 C 
ATOM      6  C   UNL     1     117.780 123.231 126.906  1.00  0.00     0.012 C 
BRANCH   5   7
ATOM      7  C   UNL     1     120.174 124.221 126.936  1.00  0.00    -0.011 C 
ATOM      8  C   UNL     1     120.685 123.841 128.337  1.00  0.00     0.008 C 
ATOM      9  C   UNL     1     119.551 125.626 126.966  1.00  0.00     0.008 C 
ENDBRANCH   5   7
ENDBRANCH   4   5
ENDBRANCH   1   3
BRANCH   1  10
ATOM     10  C   UNL     1     121.405 119.218 124.424  1.00  0.00     0.002 C 
ATOM     11  C   UNL     1     120.748 120.045 123.310  1.00  0.00     0.005 C 
ATOM     12  C   UNL     1     122.813 118.829 123.866  1.00  0.00    -0.023 C 
ATOM     13  C   UNL     1     121.455 119.687 122.011  1.00  0.00     0.009 C 
ATOM     14  C   UNL     1     122.536 118.644 122.347  1.00  0.00     0.021 C 
ATOM     15  C   UNL     1     123.854 119.991 124.067  1.00  0.00     0.008 C 
ATOM     16  C   UNL     1     123.311 117.497 124.514  1.00  0.00     0.012 C 
ATOM     17  C   UNL     1     123.788 118.789 121.486  1.00  0.00    -0.063 C 
ATOM     18  C   UNL     1     125.157 119.888 123.226  1.00  0.00     0.009 C 
ATOM     19  C   UNL     1     125.141 118.761 122.172  1.00  0.00     0.025 C 
ATOM     20  C   UNL     1     123.687 119.115 120.187  1.00  0.00    -0.000 C 
ATOM     21  C   UNL     1     126.365 118.706 121.163  1.00  0.00    -0.005 C 
ATOM     22  C   UNL     1     124.842 119.590 119.417  1.00  0.00    -0.000 C 
ATOM     23  C   UNL     1     126.089 119.523 119.901  1.00  0.00    -0.061 C 
ATOM     24  C   UNL     1     127.686 119.190 121.840  1.00  0.00     0.014 C 
ATOM     25  C   UNL     1     126.543 117.227 120.720  1.00  0.00     0.017 C 
ATOM     26  C   UNL     1     127.232 119.912 118.984  1.00  0.00     0.063 C 
ATOM     27  C   UNL     1     128.852 119.356 120.857  1.00  0.00     0.033 C 
ATOM     28  C   UNL     1     128.475 120.367 119.764  1.00  0.00     0.118 C 
BRANCH  28  29
ATOM     29  O   UNL     1     129.559 120.574 118.891  1.00  0.00    -0.393 OA
ATOM     30  H   UNL     1     129.350 120.117 118.035  1.00  0.00     0.210 HD
ENDBRANCH  28  29
ENDBRANCH   1  10
TORSDOF 5
ENDMDL
MODEL 4
REMARK VINA RESULT:    -7.074      2.420      3.504
REMARK INTER + INTRA:          -9.641
REMARK INTER:                  -8.685
REMARK INTRA:                  -0.956
REMARK UNBOUND:                -0.706
REMARK SMILES CC(C)[C@H](C)C=C[C@@H](C)[C@H]1CC[C@H]2C3=CC=C4C[C@H](O)CC[C@@]4(C)[C@H]3CC[C@@]12C
REMARK SMILES IDX 8 1 9 2 7 3 6 4 4 5 5 6 2 7 1 8 3 9 10 10 11 11 28 12 12 13
REMARK SMILES IDX 13 14 27 15 29 16 14 17 26 18 25 19 15 20 23 21 16 22 17 23
REMARK SMILES IDX 22 24 24 25 18 26 21 27 19 28 20 29
REMARK H PARENT 20 30
REMARK Flexibility Score: inf
ROOT
ATOM      1  C   UNL     1     117.966 127.895 131.029  1.00  0.00     0.012 C 
ATOM      2  C   UNL     1     117.085 128.330 132.208  1.00  0.00     0.012 C 
ENDROOT
BRANCH   1   3
ATOM      3  C   UNL     1     118.269 129.125 130.198  1.00  0.00    -0.028 C 
ATOM      4  C   UNL     1     119.524 129.571 130.022  1.00  0.00    -0.028 C 
BRANCH   4   5
ATOM      5  C   UNL     1     119.823 130.758 129.131  1.00  0.00     0.011 C 
ATOM      6  C   UNL     1     118.642 131.747 129.152  1.00  0.00     0.012 C 
BRANCH   5   7
ATOM      7  C   UNL     1     121.187 131.413 129.512  1.00  0.00    -0.011 C 
ATOM      8  C   UNL     1     121.162 132.951 129.491  1.00  0.00     0.008 C 
ATOM      9  C   UNL     1     122.333 130.892 128.630  1.00  0.00     0.008 C 
ENDBRANCH   5   7
ENDBRANCH   4   5
ENDBRANCH   1   3
BRANCH   1  10
ATOM     10  C   UNL     1     117.290 126.802 130.137  1.00  0.00     0.002 C 
ATOM     11  C   UNL     1     117.105 127.278 128.689  1.00  0.00     0.005 C 
ATOM     12  C   UNL     1     118.006 125.417 130.022  1.00  0.00    -0.023 C 
ATOM     13  C   UNL     1     117.173 126.044 127.801  1.00  0.00     0.009 C 
ATOM     14  C   UNL     1     117.398 124.828 128.718  1.00  0.00     0.021 C 
ATOM     15  C   UNL     1     119.559 125.584 129.842  1.00  0.00     0.008 C 
ATOM     16  C   UNL     1     117.667 124.520 131.256  1.00  0.00     0.012 C 
ATOM     17  C   UNL     1     118.275 123.756 128.076  1.00  0.00    -0.063 C 
ATOM     18  C   UNL     1     120.323 124.329 129.334  1.00  0.00     0.009 C 
ATOM     19  C   UNL     1     119.408 123.167 128.895  1.00  0.00     0.025 C 
ATOM     20  C   UNL     1     118.161 123.477 126.767  1.00  0.00    -0.000 C 
ATOM     21  C   UNL     1     120.110 121.922 128.206  1.00  0.00    -0.005 C 
ATOM     22  C   UNL     1     119.189 122.717 126.047  1.00  0.00    -0.000 C 
ATOM     23  C   UNL     1     120.180 122.085 126.689  1.00  0.00    -0.061 C 
ATOM     24  C   UNL     1     121.539 121.678 128.788  1.00  0.00     0.014 C 
ATOM     25  C   UNL     1     119.235 120.670 128.492  1.00  0.00     0.017 C 
ATOM     26  C   UNL     1     121.117 121.216 125.874  1.00  0.00     0.063 C 
ATOM     27  C   UNL     1     122.341 120.623 128.016  1.00  0.00     0.033 C 
ATOM     28  C   UNL     1     122.487 121.046 126.548  1.00  0.00     0.118 C 
BRANCH  28  29
ATOM     29  O   UNL     1     123.274 120.117 125.843  1.00  0.00    -0.393 OA
ATOM     30  H   UNL     1     123.840 119.637 126.502  1.00  0.00     0.210 HD
ENDBRANCH  28  29
ENDBRANCH   1  10
TORSDOF 5
ENDMDL
MODEL 5
REMARK VINA RESULT:    -6.978      3.284      8.724
REMARK INTER + INTRA:          -9.519
REMARK INTER:                  -9.237
REMARK INTRA:                  -0.282
REMARK UNBOUND:                -0.706
REMARK SMILES CC(C)[C@H](C)C=C[C@@H](C)[C@H]1CC[C@H]2C3=CC=C4C[C@H](O)CC[C@@]4(C)[C@H]3CC[C@@]12C
REMARK SMILES IDX 8 1 9 2 7 3 6 4 4 5 5 6 2 7 1 8 3 9 10 10 11 11 28 12 12 13
REMARK SMILES IDX 13 14 27 15 29 16 14 17 26 18 25 19 15 20 23 21 16 22 17 23
REMARK SMILES IDX 22 24 24 25 18 26 21 27 19 28 20 29
REMARK H PARENT 20 30
REMARK Flexibility Score: inf
ROOT
ATOM      1  C   UNL     1     116.367 119.616 129.734  1.00  0.00     0.012 C 
ATOM      2  C   UNL     1     115.514 118.368 129.471  1.00  0.00     0.012 C 
ENDROOT
BRANCH   1   3
ATOM      3  C   UNL     1     115.980 120.165 131.093  1.00  0.00    -0.028 C 
ATOM      4  C   UNL     1     116.853 120.211 132.114  1.00  0.00    -0.028 C 
BRANCH   4   5
ATOM      5  C   UNL     1     116.478 120.827 133.445  1.00  0.00     0.011 C 
ATOM      6  C   UNL     1     115.226 120.135 134.015  1.00  0.00     0.012 C 
BRANCH   5   7
ATOM      7  C   UNL     1     117.691 120.820 134.425  1.00  0.00    -0.011 C 
ATOM      8  C   UNL     1     119.019 121.235 133.768  1.00  0.00     0.008 C 
ATOM      9  C   UNL     1     117.851 119.459 135.122  1.00  0.00     0.008 C 
ENDBRANCH   5   7
ENDBRANCH   4   5
ENDBRANCH   1   3
BRANCH   1  10
ATOM     10  C   UNL     1     116.181 120.720 128.642  1.00  0.00     0.002 C 
ATOM     11  C   UNL     1     114.804 121.391 128.732  1.00  0.00     0.005 C 
ATOM     12  C   UNL     1     117.209 121.900 128.623  1.00  0.00    -0.023 C 
ATOM     13  C   UNL     1     114.967 122.817 128.228  1.00  0.00     0.009 C 
ATOM     14  C   UNL     1     116.444 123.001 127.835  1.00  0.00     0.021 C 
ATOM     15  C   UNL     1     117.517 122.418 130.075  1.00  0.00     0.008 C 
ATOM     16  C   UNL     1     118.515 121.478 127.876  1.00  0.00     0.012 C 
ATOM     17  C   UNL     1     116.961 124.410 128.117  1.00  0.00    -0.063 C 
ATOM     18  C   UNL     1     118.203 123.810 130.167  1.00  0.00     0.009 C 
ATOM     19  C   UNL     1     118.296 124.559 128.822  1.00  0.00     0.025 C 
ATOM     20  C   UNL     1     116.173 125.478 127.911  1.00  0.00    -0.000 C 
ATOM     21  C   UNL     1     118.827 126.054 128.869  1.00  0.00    -0.005 C 
ATOM     22  C   UNL     1     116.494 126.795 128.475  1.00  0.00    -0.000 C 
ATOM     23  C   UNL     1     117.682 127.051 129.038  1.00  0.00    -0.061 C 
ATOM     24  C   UNL     1     119.884 126.250 130.002  1.00  0.00     0.014 C 
ATOM     25  C   UNL     1     119.500 126.357 127.501  1.00  0.00     0.017 C 
ATOM     26  C   UNL     1     117.973 128.474 129.470  1.00  0.00     0.063 C 
ATOM     27  C   UNL     1     120.273 127.716 130.228  1.00  0.00     0.033 C 
ATOM     28  C   UNL     1     119.028 128.540 130.586  1.00  0.00     0.118 C 
BRANCH  28  29
ATOM     29  O   UNL     1     119.381 129.875 130.856  1.00  0.00    -0.393 OA
ATOM     30  H   UNL     1     120.012 130.170 130.148  1.00  0.00     0.210 HD
ENDBRANCH  28  29
ENDBRANCH   1  10
TORSDOF 5
ENDMDL
MODEL 6
REMARK VINA RESULT:    -6.921      4.152      7.230
REMARK INTER + INTRA:          -9.448
REMARK INTER:                  -8.459
REMARK INTRA:                  -0.989
REMARK UNBOUND:                -0.706
REMARK SMILES CC(C)[C@H](C)C=C[C@@H](C)[C@H]1CC[C@H]2C3=CC=C4C[C@H](O)CC[C@@]4(C)[C@H]3CC[C@@]12C
REMARK SMILES IDX 8 1 9 2 7 3 6 4 4 5 5 6 2 7 1 8 3 9 10 10 11 11 28 12 12 13
REMARK SMILES IDX 13 14 27 15 29 16 14 17 26 18 25 19 15 20 23 21 16 22 17 23
REMARK SMILES IDX 22 24 24 25 18 26 21 27 19 28 20 29
REMARK H PARENT 20 30
REMARK Flexibility Score: inf
ROOT
ATOM      1  C   UNL     1     114.662 122.395 128.613  1.00  0.00     0.012 C 
ATOM      2  C   UNL     1     113.294 122.251 127.933  1.00  0.00     0.012 C 
ENDROOT
BRANCH   1   3
ATOM      3  C   UNL     1     115.592 123.095 127.643  1.00  0.00    -0.028 C 
ATOM      4  C   UNL     1     116.466 124.031 128.048  1.00  0.00    -0.028 C 
BRANCH   4   5
ATOM      5  C   UNL     1     117.440 124.673 127.083  1.00  0.00     0.011 C 
ATOM      6  C   UNL     1     117.390 126.206 127.221  1.00  0.00     0.012 C 
BRANCH   5   7
ATOM      7  C   UNL     1     118.872 124.080 127.258  1.00  0.00    -0.011 C 
ATOM      8  C   UNL     1     119.996 125.053 126.865  1.00  0.00     0.008 C 
ATOM      9  C   UNL     1     119.034 122.753 126.499  1.00  0.00     0.008 C 
ENDBRANCH   5   7
ENDBRANCH   4   5
ENDBRANCH   1   3
BRANCH   1  10
ATOM     10  C   UNL     1     115.275 121.021 129.041  1.00  0.00     0.002 C 
ATOM     11  C   UNL     1     116.295 120.504 128.018  1.00  0.00     0.005 C 
ATOM     12  C   UNL     1     116.010 120.954 130.419  1.00  0.00    -0.023 C 
ATOM     13  C   UNL     1     117.314 119.672 128.782  1.00  0.00     0.009 C 
ATOM     14  C   UNL     1     116.903 119.689 130.265  1.00  0.00     0.021 C 
ATOM     15  C   UNL     1     116.926 122.212 130.645  1.00  0.00     0.008 C 
ATOM     16  C   UNL     1     114.982 120.778 131.583  1.00  0.00     0.012 C 
ATOM     17  C   UNL     1     118.100 119.680 131.212  1.00  0.00    -0.063 C 
ATOM     18  C   UNL     1     117.989 122.084 131.773  1.00  0.00     0.009 C 
ATOM     19  C   UNL     1     118.114 120.666 132.366  1.00  0.00     0.025 C 
ATOM     20  C   UNL     1     119.189 118.949 130.926  1.00  0.00    -0.000 C 
ATOM     21  C   UNL     1     119.294 120.421 133.398  1.00  0.00    -0.005 C 
ATOM     22  C   UNL     1     120.469 119.166 131.611  1.00  0.00    -0.000 C 
ATOM     23  C   UNL     1     120.566 119.948 132.694  1.00  0.00    -0.061 C 
ATOM     24  C   UNL     1     119.590 121.702 134.241  1.00  0.00     0.014 C 
ATOM     25  C   UNL     1     118.852 119.282 134.358  1.00  0.00     0.017 C 
ATOM     26  C   UNL     1     121.898 120.006 133.415  1.00  0.00     0.063 C 
ATOM     27  C   UNL     1     120.854 121.588 135.103  1.00  0.00     0.033 C 
ATOM     28  C   UNL     1     122.073 121.309 134.211  1.00  0.00     0.118 C 
BRANCH  28  29
ATOM     29  O   UNL     1     123.248 121.263 134.983  1.00  0.00    -0.393 OA
ATOM     30  H   UNL     1     123.971 121.697 134.459  1.00  0.00     0.210 HD
ENDBRANCH  28  29
ENDBRANCH   1  10
TORSDOF 5
ENDMDL
MODEL 7
REMARK VINA RESULT:    -6.880      1.629      3.323
REMARK INTER + INTRA:          -9.396
REMARK INTER:                  -8.701
REMARK INTRA:                  -0.696
REMARK UNBOUND:                -0.706
REMARK SMILES CC(C)[C@H](C)C=C[C@@H](C)[C@H]1CC[C@H]2C3=CC=C4C[C@H](O)CC[C@@]4(C)[C@H]3CC[C@@]12C
REMARK SMILES IDX 8 1 9 2 7 3 6 4 4 5 5 6 2 7 1 8 3 9 10 10 11 11 28 12 12 13
REMARK SMILES IDX 13 14 27 15 29 16 14 17 26 18 25 19 15 20 23 21 16 22 17 23
REMARK SMILES IDX 22 24 24 25 18 26 21 27 19 28 20 29
REMARK H PARENT 20 30
REMARK Flexibility Score: inf
ROOT
ATOM      1  C   UNL     1     119.592 129.404 129.158  1.00  0.00     0.012 C 
ATOM      2  C   UNL     1     121.117 129.575 129.140  1.00  0.00     0.012 C 
ENDROOT
BRANCH   1   3
ATOM      3  C   UNL     1     118.972 130.784 129.246  1.00  0.00    -0.028 C 
ATOM      4  C   UNL     1     119.692 131.900 129.042  1.00  0.00    -0.028 C 
BRANCH   4   5
ATOM      5  C   UNL     1     119.047 133.270 129.061  1.00  0.00     0.011 C 
ATOM      6  C   UNL     1     120.076 134.345 128.664  1.00  0.00     0.012 C 
BRANCH   5   7
ATOM      7  C   UNL     1     117.757 133.292 128.186  1.00  0.00    -0.011 C 
ATOM      8  C   UNL     1     117.957 133.943 126.806  1.00  0.00     0.008 C 
ATOM      9  C   UNL     1     116.584 133.961 128.919  1.00  0.00     0.008 C 
ENDBRANCH   5   7
ENDBRANCH   4   5
ENDBRANCH   1   3
BRANCH   1  10
ATOM     10  C   UNL     1     119.095 128.520 130.349  1.00  0.00     0.002 C 
ATOM     11  C   UNL     1     117.593 128.699 130.609  1.00  0.00     0.005 C 
ATOM     12  C   UNL     1     119.308 126.975 130.242  1.00  0.00    -0.023 C 
ATOM     13  C   UNL     1     117.077 127.386 131.177  1.00  0.00     0.009 C 
ATOM     14  C   UNL     1     118.272 126.419 131.259  1.00  0.00     0.021 C 
ATOM     15  C   UNL     1     118.961 126.444 128.803  1.00  0.00     0.008 C 
ATOM     16  C   UNL     1     120.765 126.591 130.657  1.00  0.00     0.012 C 
ATOM     17  C   UNL     1     117.880 124.969 130.987  1.00  0.00    -0.063 C 
ATOM     18  C   UNL     1     118.758 124.908 128.677  1.00  0.00     0.009 C 
ATOM     19  C   UNL     1     118.734 124.160 130.027  1.00  0.00     0.025 C 
ATOM     20  C   UNL     1     116.713 124.482 131.439  1.00  0.00    -0.000 C 
ATOM     21  C   UNL     1     118.360 122.619 129.987  1.00  0.00    -0.005 C 
ATOM     22  C   UNL     1     116.148 123.228 130.927  1.00  0.00    -0.000 C 
ATOM     23  C   UNL     1     116.856 122.402 130.145  1.00  0.00    -0.061 C 
ATOM     24  C   UNL     1     118.866 121.942 128.673  1.00  0.00     0.014 C 
ATOM     25  C   UNL     1     119.051 121.935 131.199  1.00  0.00     0.017 C 
ATOM     26  C   UNL     1     116.238 121.068 129.775  1.00  0.00     0.063 C 
ATOM     27  C   UNL     1     118.352 120.509 128.487  1.00  0.00     0.033 C 
ATOM     28  C   UNL     1     116.817 120.502 128.469  1.00  0.00     0.118 C 
BRANCH  28  29
ATOM     29  O   UNL     1     116.333 119.201 128.236  1.00  0.00    -0.393 OA
ATOM     30  H   UNL     1     116.818 118.584 128.844  1.00  0.00     0.210 HD
ENDBRANCH  28  29
ENDBRANCH   1  10
TORSDOF 5
ENDMDL
MODEL 8
REMARK VINA RESULT:    -6.836      4.973      9.433
REMARK INTER + INTRA:          -9.340
REMARK INTER:                  -8.505
REMARK INTRA:                  -0.835
REMARK UNBOUND:                -0.706
REMARK SMILES CC(C)[C@H](C)C=C[C@@H](C)[C@H]1CC[C@H]2C3=CC=C4C[C@H](O)CC[C@@]4(C)[C@H]3CC[C@@]12C
REMARK SMILES IDX 8 1 9 2 7 3 6 4 4 5 5 6 2 7 1 8 3 9 10 10 11 11 28 12 12 13
REMARK SMILES IDX 13 14 27 15 29 16 14 17 26 18 25 19 15 20 23 21 16 22 17 23
REMARK SMILES IDX 22 24 24 25 18 26 21 27 19 28 20 29
REMARK H PARENT 20 30
REMARK Flexibility Score: inf
ROOT
ATOM      1  C   UNL     1     120.646 119.910 124.408  1.00  0.00     0.012 C 
ATOM      2  C   UNL     1     119.871 118.631 124.065  1.00  0.00     0.012 C 
ENDROOT
BRANCH   1   3
ATOM      3  C   UNL     1     121.976 119.855 123.684  1.00  0.00    -0.028 C 
ATOM      4  C   UNL     1     122.058 119.585 122.370  1.00  0.00    -0.028 C 
BRANCH   4   5
ATOM      5  C   UNL     1     123.385 119.604 121.642  1.00  0.00     0.011 C 
ATOM      6  C   UNL     1     124.536 119.349 122.632  1.00  0.00     0.012 C 
BRANCH   5   7
ATOM      7  C   UNL     1     123.374 118.615 120.435  1.00  0.00    -0.011 C 
ATOM      8  C   UNL     1     123.901 117.212 120.780  1.00  0.00     0.008 C 
ATOM      9  C   UNL     1     124.137 119.183 119.228  1.00  0.00     0.008 C 
ENDBRANCH   5   7
ENDBRANCH   4   5
ENDBRANCH   1   3
BRANCH   1  10
ATOM     10  C   UNL     1     120.883 120.083 125.945  1.00  0.00     0.002 C 
ATOM     11  C   UNL     1     122.281 120.636 126.251  1.00  0.00     0.005 C 
ATOM     12  C   UNL     1     119.897 121.009 126.729  1.00  0.00    -0.023 C 
ATOM     13  C   UNL     1     122.174 121.436 127.541  1.00  0.00     0.009 C 
ATOM     14  C   UNL     1     120.709 121.361 128.008  1.00  0.00     0.021 C 
ATOM     15  C   UNL     1     119.588 122.329 125.931  1.00  0.00     0.008 C 
ATOM     16  C   UNL     1     118.587 120.238 127.089  1.00  0.00     0.012 C 
ATOM     17  C   UNL     1     120.237 122.644 128.686  1.00  0.00    -0.063 C 
ATOM     18  C   UNL     1     118.949 123.484 126.751  1.00  0.00     0.009 C 
ATOM     19  C   UNL     1     118.899 123.227 128.272  1.00  0.00     0.025 C 
ATOM     20  C   UNL     1     121.063 123.333 129.490  1.00  0.00    -0.000 C 
ATOM     21  C   UNL     1     118.418 124.431 129.187  1.00  0.00    -0.005 C 
ATOM     22  C   UNL     1     120.780 124.718 129.885  1.00  0.00    -0.000 C 
ATOM     23  C   UNL     1     119.595 125.293 129.644  1.00  0.00    -0.061 C 
ATOM     24  C   UNL     1     117.354 125.314 128.460  1.00  0.00     0.014 C 
ATOM     25  C   UNL     1     117.774 123.824 130.464  1.00  0.00     0.017 C 
ATOM     26  C   UNL     1     119.347 126.679 130.206  1.00  0.00     0.063 C 
ATOM     27  C   UNL     1     117.013 126.605 129.213  1.00  0.00     0.033 C 
ATOM     28  C   UNL     1     118.281 127.448 129.410  1.00  0.00     0.118 C 
BRANCH  28  29
ATOM     29  O   UNL     1     117.971 128.664 130.046  1.00  0.00    -0.393 OA
ATOM     30  H   UNL     1     118.459 129.387 129.572  1.00  0.00     0.210 HD
ENDBRANCH  28  29
ENDBRANCH   1  10
TORSDOF 5
ENDMDL
MODEL 9
REMARK VINA RESULT:    -6.788      4.516      7.425
REMARK INTER + INTRA:          -9.279
REMARK INTER:                  -8.679
REMARK INTRA:                  -0.600
REMARK UNBOUND:                -0.706
REMARK SMILES CC(C)[C@H](C)C=C[C@@H](C)[C@H]1CC[C@H]2C3=CC=C4C[C@H](O)CC[C@@]4(C)[C@H]3CC[C@@]12C
REMARK SMILES IDX 8 1 9 2 7 3 6 4 4 5 5 6 2 7 1 8 3 9 10 10 11 11 28 12 12 13
REMARK SMILES IDX 13 14 27 15 29 16 14 17 26 18 25 19 15 20 23 21 16 22 17 23
REMARK SMILES IDX 22 24 24 25 18 26 21 27 19 28 20 29
REMARK H PARENT 20 30
REMARK Flexibility Score: inf
ROOT
ATOM      1  C   UNL     1     117.626 124.079 130.227  1.00  0.00     0.012 C 
ATOM      2  C   UNL     1     117.354 125.376 130.999  1.00  0.00     0.012 C 
ENDROOT
BRANCH   1   3
ATOM      3  C   UNL     1     117.911 122.987 131.240  1.00  0.00    -0.028 C 
ATOM      4  C   UNL     1     116.939 122.192 131.718  1.00  0.00    -0.028 C 
BRANCH   4   5
ATOM      5  C   UNL     1     117.245 121.059 132.674  1.00  0.00     0.011 C 
ATOM      6  C   UNL     1     118.631 121.264 133.312  1.00  0.00     0.012 C 
BRANCH   5   7
ATOM      7  C   UNL     1     116.100 120.885 133.718  1.00  0.00    -0.011 C 
ATOM      8  C   UNL     1     116.442 119.904 134.853  1.00  0.00     0.008 C 
ATOM      9  C   UNL     1     114.778 120.478 133.050  1.00  0.00     0.008 C 
ENDBRANCH   5   7
ENDBRANCH   4   5
ENDBRANCH   1   3
BRANCH   1  10
ATOM     10  C   UNL     1     118.825 124.205 129.230  1.00  0.00     0.002 C 
ATOM     11  C   UNL     1     120.178 124.069 129.939  1.00  0.00     0.005 C 
ATOM     12  C   UNL     1     118.885 123.194 128.038  1.00  0.00    -0.023 C 
ATOM     13  C   UNL     1     121.153 123.473 128.934  1.00  0.00     0.009 C 
ATOM     14  C   UNL     1     120.382 123.253 127.620  1.00  0.00     0.021 C 
ATOM     15  C   UNL     1     118.533 121.734 128.504  1.00  0.00     0.008 C 
ATOM     16  C   UNL     1     117.956 123.662 126.873  1.00  0.00     0.012 C 
ATOM     17  C   UNL     1     120.843 122.011 126.862  1.00  0.00    -0.063 C 
ATOM     18  C   UNL     1     118.929 120.594 127.524  1.00  0.00     0.009 C 
ATOM     19  C   UNL     1     119.789 121.059 126.329  1.00  0.00     0.025 C 
ATOM     20  C   UNL     1     122.144 121.678 126.829  1.00  0.00    -0.000 C 
ATOM     21  C   UNL     1     120.373 119.927 125.384  1.00  0.00    -0.005 C 
ATOM     22  C   UNL     1     122.590 120.343 126.414  1.00  0.00    -0.000 C 
ATOM     23  C   UNL     1     121.753 119.463 125.850  1.00  0.00    -0.061 C 
ATOM     24  C   UNL     1     119.401 118.709 125.281  1.00  0.00     0.014 C 
ATOM     25  C   UNL     1     120.552 120.543 123.968  1.00  0.00     0.017 C 
ATOM     26  C   UNL     1     122.331 118.161 125.331  1.00  0.00     0.063 C 
ATOM     27  C   UNL     1     120.007 117.503 124.552  1.00  0.00     0.033 C 
ATOM     28  C   UNL     1     121.281 117.040 125.273  1.00  0.00     0.118 C 
BRANCH  28  29
ATOM     29  O   UNL     1     121.812 115.896 124.650  1.00  0.00    -0.393 OA
ATOM     30  H   UNL     1     122.683 116.149 124.245  1.00  0.00     0.210 HD
ENDBRANCH  28  29
ENDBRANCH   1  10
TORSDOF 5
ENDMDL
