MODEL 1
REMARK VINA RESULT:    -5.892      0.000      0.000
REMARK INTER + INTRA:          -6.064
REMARK INTER:                  -6.064
REMARK INTRA:                   0.000
REMARK UNBOUND:                 0.000
REMARK SMILES O=c1ccc2ccc(O)cc2o1
REMARK SMILES IDX 6 1 7 2 8 3 10 4 11 5 5 6 4 7 3 8 2 9 1 10 12 11 9 12
REMARK H PARENT 9 13
REMARK Flexibility Score: inf
ROOT
ATOM      1  C   UNL     1      69.977  50.010   4.757  1.00  0.00     0.016 A 
ATOM      2  C   UNL     1      69.878  50.513   3.454  1.00  0.00     0.047 A 
ATOM      3  C   UNL     1      70.527  49.866   2.396  1.00  0.00     0.119 A 
ATOM      4  C   UNL     1      71.282  48.709   2.640  1.00  0.00     0.094 A 
ATOM      5  C   UNL     1      71.387  48.200   3.938  1.00  0.00     0.142 A 
ATOM      6  C   UNL     1      70.731  48.855   5.004  1.00  0.00     0.018 A 
ATOM      7  C   UNL     1      70.853  48.321   6.291  1.00  0.00     0.019 A 
ATOM      8  C   UNL     1      71.614  47.169   6.484  1.00  0.00     0.094 A 
ATOM      9  C   UNL     1      72.237  46.574   5.381  1.00  0.00     0.336 A 
ATOM     10  O   UNL     1      72.928  45.533   5.536  1.00  0.00    -0.246 OA
ATOM     11  O   UNL     1      72.103  47.101   4.167  1.00  0.00    -0.423 OA
ENDROOT
BRANCH   3  12
ATOM     12  O   UNL     1      70.417  50.381   1.106  1.00  0.00    -0.508 OA
ATOM     13  H   UNL     1      69.514  50.569   0.686  1.00  0.00     0.293 HD
ENDBRANCH   3  12
TORSDOF 1
ENDMDL
MODEL 2
REMARK VINA RESULT:    -5.521      2.265      2.958
REMARK INTER + INTRA:          -5.683
REMARK INTER:                  -5.683
REMARK INTRA:                   0.000
REMARK UNBOUND:                 0.000
REMARK SMILES O=c1ccc2ccc(O)cc2o1
REMARK SMILES IDX 6 1 7 2 8 3 10 4 11 5 5 6 4 7 3 8 2 9 1 10 12 11 9 12
REMARK H PARENT 9 13
REMARK Flexibility Score: inf
ROOT
ATOM      1  C   UNL     1      71.835  47.966   4.182  1.00  0.00     0.016 A 
ATOM      2  C   UNL     1      71.528  48.648   2.999  1.00  0.00     0.047 A 
ATOM      3  C   UNL     1      70.580  49.679   3.003  1.00  0.00     0.119 A 
ATOM      4  C   UNL     1      69.934  50.032   4.198  1.00  0.00     0.094 A 
ATOM      5  C   UNL     1      70.236  49.356   5.384  1.00  0.00     0.142 A 
ATOM      6  C   UNL     1      71.192  48.316   5.377  1.00  0.00     0.018 A 
ATOM      7  C   UNL     1      71.472  47.659   6.579  1.00  0.00     0.019 A 
ATOM      8  C   UNL     1      70.805  48.044   7.741  1.00  0.00     0.094 A 
ATOM      9  C   UNL     1      69.869  49.083   7.673  1.00  0.00     0.336 A 
ATOM     10  O   UNL     1      69.257  49.445   8.712  1.00  0.00    -0.246 OA
ATOM     11  O   UNL     1      69.622  49.693   6.516  1.00  0.00    -0.423 OA
ENDROOT
BRANCH   3  12
ATOM     12  O   UNL     1      70.288  50.346   1.816  1.00  0.00    -0.508 OA
ATOM     13  H   UNL     1      69.335  50.450   1.487  1.00  0.00     0.293 HD
ENDBRANCH   3  12
TORSDOF 1
ENDMDL
MODEL 3
REMARK VINA RESULT:    -5.447      2.759      4.617
REMARK INTER + INTRA:          -5.607
REMARK INTER:                  -5.607
REMARK INTRA:                   0.000
REMARK UNBOUND:                 0.000
REMARK SMILES O=c1ccc2ccc(O)cc2o1
REMARK SMILES IDX 6 1 7 2 8 3 10 4 11 5 5 6 4 7 3 8 2 9 1 10 12 11 9 12
REMARK H PARENT 9 13
REMARK Flexibility Score: inf
ROOT
ATOM      1  C   UNL     1      73.296  48.765   8.186  1.00  0.00     0.016 A 
ATOM      2  C   UNL     1      72.407  49.275   9.139  1.00  0.00     0.047 A 
ATOM      3  C   UNL     1      71.070  49.516   8.802  1.00  0.00     0.119 A 
ATOM      4  C   UNL     1      70.616  49.247   7.501  1.00  0.00     0.094 A 
ATOM      5  C   UNL     1      71.497  48.737   6.542  1.00  0.00     0.142 A 
ATOM      6  C   UNL     1      72.846  48.495   6.886  1.00  0.00     0.018 A 
ATOM      7  C   UNL     1      73.703  47.985   5.905  1.00  0.00     0.019 A 
ATOM      8  C   UNL     1      73.206  47.734   4.627  1.00  0.00     0.094 A 
ATOM      9  C   UNL     1      71.859  47.998   4.358  1.00  0.00     0.336 A 
ATOM     10  O   UNL     1      71.393  47.777   3.210  1.00  0.00    -0.246 OA
ATOM     11  O   UNL     1      71.064  48.482   5.309  1.00  0.00    -0.423 OA
ENDROOT
BRANCH   3  12
ATOM     12  O   UNL     1      70.200  50.023   9.765  1.00  0.00    -0.508 OA
ATOM     13  H   UNL     1      70.544  50.446  10.619  1.00  0.00     0.293 HD
ENDBRANCH   3  12
TORSDOF 1
ENDMDL
MODEL 4
REMARK VINA RESULT:    -5.436      2.229      4.687
REMARK INTER + INTRA:          -5.595
REMARK INTER:                  -5.595
REMARK INTRA:                   0.000
REMARK UNBOUND:                 0.000
REMARK SMILES O=c1ccc2ccc(O)cc2o1
REMARK SMILES IDX 6 1 7 2 8 3 10 4 11 5 5 6 4 7 3 8 2 9 1 10 12 11 9 12
REMARK H PARENT 9 13
REMARK Flexibility Score: inf
ROOT
ATOM      1  C   UNL     1      71.670  49.460   8.292  1.00  0.00     0.016 A 
ATOM      2  C   UNL     1      72.785  48.898   8.924  1.00  0.00     0.047 A 
ATOM      3  C   UNL     1      73.677  48.095   8.203  1.00  0.00     0.119 A 
ATOM      4  C   UNL     1      73.453  47.850   6.839  1.00  0.00     0.094 A 
ATOM      5  C   UNL     1      72.341  48.407   6.200  1.00  0.00     0.142 A 
ATOM      6  C   UNL     1      71.443  49.217   6.931  1.00  0.00     0.018 A 
ATOM      7  C   UNL     1      70.340  49.760   6.263  1.00  0.00     0.019 A 
ATOM      8  C   UNL     1      70.159  49.488   4.908  1.00  0.00     0.094 A 
ATOM      9  C   UNL     1      71.089  48.677   4.249  1.00  0.00     0.336 A 
ATOM     10  O   UNL     1      70.942  48.421   3.025  1.00  0.00    -0.246 OA
ATOM     11  O   UNL     1      72.130  48.173   4.906  1.00  0.00    -0.423 OA
ENDROOT
BRANCH   3  12
ATOM     12  O   UNL     1      74.781  47.545   8.849  1.00  0.00    -0.508 OA
ATOM     13  H   UNL     1      75.198  46.675   8.538  1.00  0.00     0.293 HD
ENDBRANCH   3  12
TORSDOF 1
ENDMDL
MODEL 5
REMARK VINA RESULT:    -5.334      0.917      4.252
REMARK INTER + INTRA:          -5.490
REMARK INTER:                  -5.490
REMARK INTRA:                   0.000
REMARK UNBOUND:                 0.000
REMARK SMILES O=c1ccc2ccc(O)cc2o1
REMARK SMILES IDX 6 1 7 2 8 3 10 4 11 5 5 6 4 7 3 8 2 9 1 10 12 11 9 12
REMARK H PARENT 9 13
REMARK Flexibility Score: inf
ROOT
ATOM      1  C   UNL     1      71.292  48.106   6.639  1.00  0.00     0.016 A 
ATOM      2  C   UNL     1      72.257  47.107   6.806  1.00  0.00     0.047 A 
ATOM      3  C   UNL     1      72.985  46.636   5.706  1.00  0.00     0.119 A 
ATOM      4  C   UNL     1      72.746  47.167   4.429  1.00  0.00     0.094 A 
ATOM      5  C   UNL     1      71.783  48.165   4.253  1.00  0.00     0.142 A 
ATOM      6  C   UNL     1      71.050  48.638   5.365  1.00  0.00     0.018 A 
ATOM      7  C   UNL     1      70.094  49.638   5.158  1.00  0.00     0.019 A 
ATOM      8  C   UNL     1      69.892  50.134   3.871  1.00  0.00     0.094 A 
ATOM      9  C   UNL     1      70.654  49.618   2.817  1.00  0.00     0.336 A 
ATOM     10  O   UNL     1      70.485  50.054   1.648  1.00  0.00    -0.246 OA
ATOM     11  O   UNL     1      71.558  48.668   3.041  1.00  0.00    -0.423 OA
ENDROOT
BRANCH   3  12
ATOM     12  O   UNL     1      73.942  45.642   5.892  1.00  0.00    -0.508 OA
ATOM     13  H   UNL     1      73.916  45.025   6.696  1.00  0.00     0.293 HD
ENDBRANCH   3  12
TORSDOF 1
ENDMDL
MODEL 6
REMARK VINA RESULT:    -5.288      2.897      3.916
REMARK INTER + INTRA:          -5.443
REMARK INTER:                  -5.443
REMARK INTRA:                   0.000
REMARK UNBOUND:                 0.000
REMARK SMILES O=c1ccc2ccc(O)cc2o1
REMARK SMILES IDX 6 1 7 2 8 3 10 4 11 5 5 6 4 7 3 8 2 9 1 10 12 11 9 12
REMARK H PARENT 9 13
REMARK Flexibility Score: inf
ROOT
ATOM      1  C   UNL     1      73.636  47.975   5.768  1.00  0.00     0.016 A 
ATOM      2  C   UNL     1      73.068  47.722   4.514  1.00  0.00     0.047 A 
ATOM      3  C   UNL     1      71.716  48.000   4.281  1.00  0.00     0.119 A 
ATOM      4  C   UNL     1      70.923  48.534   5.309  1.00  0.00     0.094 A 
ATOM      5  C   UNL     1      71.482  48.789   6.565  1.00  0.00     0.142 A 
ATOM      6  C   UNL     1      72.847  48.507   6.797  1.00  0.00     0.018 A 
ATOM      7  C   UNL     1      73.377  48.774   8.063  1.00  0.00     0.019 A 
ATOM      8  C   UNL     1      72.551  49.304   9.053  1.00  0.00     0.094 A 
ATOM      9  C   UNL     1      71.208  49.557   8.752  1.00  0.00     0.336 A 
ATOM     10  O   UNL     1      70.447  50.036   9.633  1.00  0.00    -0.246 OA
ATOM     11  O   UNL     1      70.728  49.296   7.539  1.00  0.00    -0.423 OA
ENDROOT
BRANCH   3  12
ATOM     12  O   UNL     1      71.169  47.742   3.026  1.00  0.00    -0.508 OA
ATOM     13  H   UNL     1      70.613  48.435   2.538  1.00  0.00     0.293 HD
ENDBRANCH   3  12
TORSDOF 1
ENDMDL
MODEL 7
REMARK VINA RESULT:    -5.005      2.634      5.166
REMARK INTER + INTRA:          -5.152
REMARK INTER:                  -5.152
REMARK INTRA:                   0.000
REMARK UNBOUND:                 0.000
REMARK SMILES O=c1ccc2ccc(O)cc2o1
REMARK SMILES IDX 6 1 7 2 8 3 10 4 11 5 5 6 4 7 3 8 2 9 1 10 12 11 9 12
REMARK H PARENT 9 13
REMARK Flexibility Score: inf
ROOT
ATOM      1  C   UNL     1      73.748  47.421   6.643  1.00  0.00     0.016 A 
ATOM      2  C   UNL     1      73.916  47.622   8.018  1.00  0.00     0.047 A 
ATOM      3  C   UNL     1      73.018  48.427   8.730  1.00  0.00     0.119 A 
ATOM      4  C   UNL     1      71.944  49.037   8.063  1.00  0.00     0.094 A 
ATOM      5  C   UNL     1      71.769  48.841   6.689  1.00  0.00     0.142 A 
ATOM      6  C   UNL     1      72.677  48.029   5.974  1.00  0.00     0.018 A 
ATOM      7  C   UNL     1      72.475  47.851   4.602  1.00  0.00     0.019 A 
ATOM      8  C   UNL     1      71.394  48.478   3.983  1.00  0.00     0.094 A 
ATOM      9  C   UNL     1      70.536  49.269   4.754  1.00  0.00     0.336 A 
ATOM     10  O   UNL     1      69.554  49.842   4.213  1.00  0.00    -0.246 OA
ATOM     11  O   UNL     1      70.749  49.420   6.059  1.00  0.00    -0.423 OA
ENDROOT
BRANCH   3  12
ATOM     12  O   UNL     1      73.201  48.616  10.097  1.00  0.00    -0.508 OA
ATOM     13  H   UNL     1      72.438  48.505  10.755  1.00  0.00     0.293 HD
ENDBRANCH   3  12
TORSDOF 1
ENDMDL
MODEL 8
REMARK VINA RESULT:    -4.917      2.842      3.863
REMARK INTER + INTRA:          -5.061
REMARK INTER:                  -5.061
REMARK INTRA:                   0.000
REMARK UNBOUND:                 0.000
REMARK SMILES O=c1ccc2ccc(O)cc2o1
REMARK SMILES IDX 6 1 7 2 8 3 10 4 11 5 5 6 4 7 3 8 2 9 1 10 12 11 9 12
REMARK H PARENT 9 13
REMARK Flexibility Score: inf
ROOT
ATOM      1  C   UNL     1      72.224  48.070   4.768  1.00  0.00     0.016 A 
ATOM      2  C   UNL     1      72.110  47.179   3.695  1.00  0.00     0.047 A 
ATOM      3  C   UNL     1      72.676  45.901   3.774  1.00  0.00     0.119 A 
ATOM      4  C   UNL     1      73.363  45.510   4.934  1.00  0.00     0.094 A 
ATOM      5  C   UNL     1      73.481  46.394   6.011  1.00  0.00     0.142 A 
ATOM      6  C   UNL     1      72.909  47.683   5.928  1.00  0.00     0.018 A 
ATOM      7  C   UNL     1      73.043  48.545   7.021  1.00  0.00     0.019 A 
ATOM      8  C   UNL     1      73.734  48.112   8.152  1.00  0.00     0.094 A 
ATOM      9  C   UNL     1      74.275  46.821   8.164  1.00  0.00     0.336 A 
ATOM     10  O   UNL     1      74.902  46.413   9.176  1.00  0.00    -0.246 OA
ATOM     11  O   UNL     1      74.132  46.021   7.111  1.00  0.00    -0.423 OA
ENDROOT
BRANCH   3  12
ATOM     12  O   UNL     1      72.553  45.028   2.696  1.00  0.00    -0.508 OA
ATOM     13  H   UNL     1      72.952  44.096   2.720  1.00  0.00     0.293 HD
ENDBRANCH   3  12
TORSDOF 1
ENDMDL
MODEL 9
REMARK VINA RESULT:    -4.853      2.548      3.336
REMARK INTER + INTRA:          -4.995
REMARK INTER:                  -4.995
REMARK INTRA:                   0.000
REMARK UNBOUND:                 0.000
REMARK SMILES O=c1ccc2ccc(O)cc2o1
REMARK SMILES IDX 6 1 7 2 8 3 10 4 11 5 5 6 4 7 3 8 2 9 1 10 12 11 9 12
REMARK H PARENT 9 13
REMARK Flexibility Score: inf
ROOT
ATOM      1  C   UNL     1      70.741  49.101   4.697  1.00  0.00     0.016 A 
ATOM      2  C   UNL     1      69.737  49.482   5.595  1.00  0.00     0.047 A 
ATOM      3  C   UNL     1      69.649  48.881   6.856  1.00  0.00     0.119 A 
ATOM      4  C   UNL     1      70.572  47.890   7.224  1.00  0.00     0.094 A 
ATOM      5  C   UNL     1      71.579  47.502   6.334  1.00  0.00     0.142 A 
ATOM      6  C   UNL     1      71.664  48.111   5.062  1.00  0.00     0.018 A 
ATOM      7  C   UNL     1      72.682  47.703   4.194  1.00  0.00     0.019 A 
ATOM      8  C   UNL     1      73.575  46.715   4.605  1.00  0.00     0.094 A 
ATOM      9  C   UNL     1      73.430  46.156   5.879  1.00  0.00     0.336 A 
ATOM     10  O   UNL     1      74.227  45.262   6.267  1.00  0.00    -0.246 OA
ATOM     11  O   UNL     1      72.453  46.562   6.686  1.00  0.00    -0.423 OA
ENDROOT
BRANCH   3  12
ATOM     12  O   UNL     1      68.643  49.274   7.735  1.00  0.00    -0.508 OA
ATOM     13  H   UNL     1      68.789  49.283   8.738  1.00  0.00     0.293 HD
ENDBRANCH   3  12
TORSDOF 1
ENDMDL
