MODEL 1
REMARK VINA RESULT:    -5.907      0.000      0.000
REMARK INTER + INTRA:          -9.706
REMARK INTER:                  -8.325
REMARK INTRA:                  -1.381
REMARK UNBOUND:                -1.381
REMARK SMILES COc1c(O[C@H]2O[C@H](C(=O)[O-])[C@H](O)[C@@H](O)[C@@H]2O)cc(O)c2c(=O)cc(-c3ccccc3)oc12
REMARK SMILES IDX 5 1 6 2 8 3 12 4 7 5 14 6 16 7 9 8 10 9 11 10 13 11 15 13
REMARK SMILES IDX 17 15 4 17 3 18 18 19 33 20 19 21 21 22 32 23 22 24 25 25
REMARK SMILES IDX 24 26 23 27 2 28 1 29 20 30 26 32 27 33 31 34 28 35 30 36
REMARK SMILES IDX 29 37
REMARK H PARENT 13 12 15 14 17 16 20 31
REMARK Flexibility Score: inf
ROOT
ATOM      1  O   UNL     1      -6.260 -36.271 -32.154  1.00  0.00    -0.458 OA
ENDROOT
BRANCH   1   2
ATOM      2  C   UNL     1      -7.539 -35.783 -31.728  1.00  0.00     0.339 C 
ATOM      3  C   UNL     1      -6.581 -34.046 -30.470  1.00  0.00     0.199 C 
ATOM      4  C   UNL     1      -7.151 -32.937 -31.377  1.00  0.00     0.180 C 
ATOM      5  O   UNL     1      -7.437 -35.177 -30.447  1.00  0.00    -0.328 OA
ATOM      6  C   UNL     1      -7.365 -33.483 -32.802  1.00  0.00     0.181 C 
ATOM      7  C   UNL     1      -8.154 -34.802 -32.761  1.00  0.00     0.214 C 
BRANCH   3   8
ATOM      8  C   UNL     1      -6.414 -33.520 -29.075  1.00  0.00     0.073 C 
ATOM      9  O   UNL     1      -5.291 -33.098 -28.694  1.00  0.00    -0.547 OA
ATOM     10  O   UNL     1      -7.507 -33.431 -28.221  1.00  0.00    -0.547 OA
ENDBRANCH   3   8
BRANCH   4  11
ATOM     11  O   UNL     1      -8.371 -32.471 -30.855  1.00  0.00    -0.387 OA
ATOM     12  H   UNL     1      -8.452 -32.842 -29.940  1.00  0.00     0.211 HD
ENDBRANCH   4  11
BRANCH   6  13
ATOM     13  O   UNL     1      -6.126 -33.699 -33.431  1.00  0.00    -0.387 OA
ATOM     14  H   UNL     1      -5.749 -34.530 -33.048  1.00  0.00     0.211 HD
ENDBRANCH   6  13
BRANCH   7  15
ATOM     15  O   UNL     1      -9.492 -34.536 -32.428  1.00  0.00    -0.384 OA
ATOM     16  H   UNL     1      -9.484 -33.759 -31.809  1.00  0.00     0.211 HD
ENDBRANCH   7  15
ENDBRANCH   1   2
BRANCH   1  17
ATOM     17  C   UNL     1      -5.478 -37.231 -31.485  1.00  0.00     0.172 A 
ATOM     18  C   UNL     1      -4.086 -37.074 -31.498  1.00  0.00     0.205 A 
ATOM     19  C   UNL     1      -6.046 -38.335 -30.833  1.00  0.00     0.097 A 
ATOM     20  C   UNL     1      -3.261 -38.022 -30.852  1.00  0.00     0.188 A 
ATOM     21  C   UNL     1      -5.243 -39.290 -30.200  1.00  0.00     0.134 A 
ATOM     22  C   UNL     1      -3.840 -39.143 -30.207  1.00  0.00     0.111 A 
ATOM     23  O   UNL     1      -1.940 -37.853 -30.831  1.00  0.00    -0.452 OA
ATOM     24  C   UNL     1      -2.973 -40.068 -29.589  1.00  0.00     0.197 A 
ATOM     25  C   UNL     1      -1.100 -38.695 -30.235  1.00  0.00     0.138 A 
ATOM     26  C   UNL     1      -1.599 -39.838 -29.602  1.00  0.00     0.100 A 
ATOM     27  O   UNL     1      -3.413 -41.106 -29.028  1.00  0.00    -0.289 OA
BRANCH  18  28
ATOM     28  O   UNL     1      -3.563 -35.952 -32.160  1.00  0.00    -0.490 OA
ATOM     29  C   UNL     1      -3.162 -34.750 -31.495  1.00  0.00     0.278 C 
ENDBRANCH  18  28
BRANCH  21  30
ATOM     30  O   UNL     1      -5.850 -40.372 -29.554  1.00  0.00    -0.507 OA
ATOM     31  H   UNL     1      -6.851 -40.518 -29.585  1.00  0.00     0.293 HD
ENDBRANCH  21  30
BRANCH  25  32
ATOM     32  C   UNL     1       0.352 -38.406 -30.255  1.00  0.00     0.017 A 
ATOM     33  C   UNL     1       1.106 -38.522 -29.075  1.00  0.00     0.012 A 
ATOM     34  C   UNL     1       1.001 -38.033 -31.447  1.00  0.00     0.012 A 
ATOM     35  C   UNL     1       2.480 -38.262 -29.087  1.00  0.00     0.001 A 
ATOM     36  C   UNL     1       2.374 -37.771 -31.451  1.00  0.00     0.001 A 
ATOM     37  C   UNL     1       3.113 -37.886 -30.273  1.00  0.00     0.000 A 
ENDBRANCH  25  32
ENDBRANCH   1  17
TORSDOF 9
ENDMDL
MODEL 2
REMARK VINA RESULT:    -5.462      1.686      2.079
REMARK INTER + INTRA:          -9.079
REMARK INTER:                  -7.602
REMARK INTRA:                  -1.477
REMARK UNBOUND:                -1.381
REMARK SMILES COc1c(O[C@H]2O[C@H](C(=O)[O-])[C@H](O)[C@@H](O)[C@@H]2O)cc(O)c2c(=O)cc(-c3ccccc3)oc12
REMARK SMILES IDX 5 1 6 2 8 3 12 4 7 5 14 6 16 7 9 8 10 9 11 10 13 11 15 13
REMARK SMILES IDX 17 15 4 17 3 18 18 19 33 20 19 21 21 22 32 23 22 24 25 25
REMARK SMILES IDX 24 26 23 27 2 28 1 29 20 30 26 32 27 33 31 34 28 35 30 36
REMARK SMILES IDX 29 37
REMARK H PARENT 13 12 15 14 17 16 20 31
REMARK Flexibility Score: inf
ROOT
ATOM      1  O   UNL     1      -6.546 -35.495 -29.601  1.00  0.00    -0.458 OA
ENDROOT
BRANCH   1   2
ATOM      2  C   UNL     1      -7.747 -35.333 -30.368  1.00  0.00     0.339 C 
ATOM      3  C   UNL     1      -7.183 -33.143 -30.997  1.00  0.00     0.199 C 
ATOM      4  C   UNL     1      -7.017 -33.504 -32.487  1.00  0.00     0.180 C 
ATOM      5  O   UNL     1      -8.151 -33.971 -30.375  1.00  0.00    -0.328 OA
ATOM      6  C   UNL     1      -6.629 -34.988 -32.626  1.00  0.00     0.181 C 
ATOM      7  C   UNL     1      -7.585 -35.875 -31.812  1.00  0.00     0.214 C 
BRANCH   3   8
ATOM      8  C   UNL     1      -7.602 -31.707 -30.870  1.00  0.00     0.073 C 
ATOM      9  O   UNL     1      -7.265 -30.875 -31.752  1.00  0.00    -0.547 OA
ATOM     10  O   UNL     1      -8.417 -31.303 -29.820  1.00  0.00    -0.547 OA
ENDBRANCH   3   8
BRANCH   4  11
ATOM     11  O   UNL     1      -8.218 -33.256 -33.176  1.00  0.00    -0.387 OA
ATOM     12  H   UNL     1      -8.546 -32.373 -32.874  1.00  0.00     0.211 HD
ENDBRANCH   4  11
BRANCH   6  13
ATOM     13  O   UNL     1      -5.311 -35.190 -32.179  1.00  0.00    -0.387 OA
ATOM     14  H   UNL     1      -5.024 -36.075 -32.514  1.00  0.00     0.211 HD
ENDBRANCH   6  13
BRANCH   7  15
ATOM     15  O   UNL     1      -8.836 -35.919 -32.448  1.00  0.00    -0.384 OA
ATOM     16  H   UNL     1      -9.081 -34.979 -32.664  1.00  0.00     0.211 HD
ENDBRANCH   7  15
ENDBRANCH   1   2
BRANCH   1  17
ATOM     17  C   UNL     1      -5.940 -36.719 -29.265  1.00  0.00     0.172 A 
ATOM     18  C   UNL     1      -4.545 -36.814 -29.360  1.00  0.00     0.205 A 
ATOM     19  C   UNL     1      -6.686 -37.837 -28.862  1.00  0.00     0.097 A 
ATOM     20  C   UNL     1      -3.896 -38.029 -29.047  1.00  0.00     0.188 A 
ATOM     21  C   UNL     1      -6.060 -39.051 -28.560  1.00  0.00     0.134 A 
ATOM     22  C   UNL     1      -4.655 -39.159 -28.654  1.00  0.00     0.111 A 
ATOM     23  O   UNL     1      -2.567 -38.109 -29.100  1.00  0.00    -0.452 OA
ATOM     24  C   UNL     1      -3.962 -40.352 -28.365  1.00  0.00     0.197 A 
ATOM     25  C   UNL     1      -1.884 -39.212 -28.809  1.00  0.00     0.138 A 
ATOM     26  C   UNL     1      -2.571 -40.375 -28.440  1.00  0.00     0.100 A 
ATOM     27  O   UNL     1      -4.572 -41.405 -28.044  1.00  0.00    -0.289 OA
BRANCH  18  28
ATOM     28  O   UNL     1      -3.841 -35.670 -29.763  1.00  0.00    -0.490 OA
ATOM     29  C   UNL     1      -3.267 -34.725 -28.854  1.00  0.00     0.278 C 
ENDBRANCH  18  28
BRANCH  21  30
ATOM     30  O   UNL     1      -6.839 -40.139 -28.155  1.00  0.00    -0.507 OA
ATOM     31  H   UNL     1      -6.797 -40.501 -27.210  1.00  0.00     0.293 HD
ENDBRANCH  21  30
BRANCH  25  32
ATOM     32  C   UNL     1      -0.405 -39.191 -28.883  1.00  0.00     0.017 A 
ATOM     33  C   UNL     1       0.353 -39.950 -27.977  1.00  0.00     0.012 A 
ATOM     34  C   UNL     1       0.261 -38.434 -29.864  1.00  0.00     0.012 A 
ATOM     35  C   UNL     1       1.750 -39.945 -28.046  1.00  0.00     0.001 A 
ATOM     36  C   UNL     1       1.657 -38.429 -29.926  1.00  0.00     0.001 A 
ATOM     37  C   UNL     1       2.401 -39.184 -29.019  1.00  0.00     0.000 A 
ENDBRANCH  25  32
ENDBRANCH   1  17
TORSDOF 9
ENDMDL
MODEL 3
REMARK VINA RESULT:    -5.421      1.774      2.947
REMARK INTER + INTRA:          -9.021
REMARK INTER:                  -7.673
REMARK INTRA:                  -1.348
REMARK UNBOUND:                -1.381
REMARK SMILES COc1c(O[C@H]2O[C@H](C(=O)[O-])[C@H](O)[C@@H](O)[C@@H]2O)cc(O)c2c(=O)cc(-c3ccccc3)oc12
REMARK SMILES IDX 5 1 6 2 8 3 12 4 7 5 14 6 16 7 9 8 10 9 11 10 13 11 15 13
REMARK SMILES IDX 17 15 4 17 3 18 18 19 33 20 19 21 21 22 32 23 22 24 25 25
REMARK SMILES IDX 24 26 23 27 2 28 1 29 20 30 26 32 27 33 31 34 28 35 30 36
REMARK SMILES IDX 29 37
REMARK H PARENT 13 12 15 14 17 16 20 31
REMARK Flexibility Score: inf
ROOT
ATOM      1  O   UNL     1      -5.959 -36.938 -30.558  1.00  0.00    -0.458 OA
ENDROOT
BRANCH   1   2
ATOM      2  C   UNL     1      -6.703 -35.997 -29.773  1.00  0.00     0.339 C 
ATOM      3  C   UNL     1      -7.377 -34.783 -31.666  1.00  0.00     0.199 C 
ATOM      4  C   UNL     1      -8.865 -35.156 -31.504  1.00  0.00     0.180 C 
ATOM      5  O   UNL     1      -6.723 -34.727 -30.409  1.00  0.00    -0.328 OA
ATOM      6  C   UNL     1      -8.989 -36.505 -30.769  1.00  0.00     0.181 C 
ATOM      7  C   UNL     1      -8.142 -36.500 -29.485  1.00  0.00     0.214 C 
BRANCH   3   8
ATOM      8  C   UNL     1      -7.264 -33.449 -32.346  1.00  0.00     0.073 C 
ATOM      9  O   UNL     1      -7.230 -32.396 -31.658  1.00  0.00    -0.547 OA
ATOM     10  O   UNL     1      -7.128 -33.373 -33.726  1.00  0.00    -0.547 OA
ENDBRANCH   3   8
BRANCH   4  11
ATOM     11  O   UNL     1      -9.534 -34.153 -30.780  1.00  0.00    -0.387 OA
ATOM     12  H   UNL     1      -9.479 -33.325 -31.319  1.00  0.00     0.211 HD
ENDBRANCH   4  11
BRANCH   6  13
ATOM     13  O   UNL     1      -8.564 -37.554 -31.604  1.00  0.00    -0.387 OA
ATOM     14  H   UNL     1      -7.611 -37.391 -31.810  1.00  0.00     0.211 HD
ENDBRANCH   6  13
BRANCH   7  15
ATOM     15  O   UNL     1      -8.753 -35.675 -28.527  1.00  0.00    -0.384 OA
ATOM     16  H   UNL     1      -8.020 -35.223 -28.029  1.00  0.00     0.211 HD
ENDBRANCH   7  15
ENDBRANCH   1   2
BRANCH   1  17
ATOM     17  C   UNL     1      -4.682 -37.443 -30.249  1.00  0.00     0.172 A 
ATOM     18  C   UNL     1      -3.573 -36.866 -30.883  1.00  0.00     0.205 A 
ATOM     19  C   UNL     1      -4.494 -38.505 -29.352  1.00  0.00     0.097 A 
ATOM     20  C   UNL     1      -2.274 -37.352 -30.615  1.00  0.00     0.188 A 
ATOM     21  C   UNL     1      -3.216 -39.006 -29.085  1.00  0.00     0.134 A 
ATOM     22  C   UNL     1      -2.091 -38.435 -29.719  1.00  0.00     0.111 A 
ATOM     23  O   UNL     1      -1.215 -36.780 -31.187  1.00  0.00    -0.452 OA
ATOM     24  C   UNL     1      -0.777 -38.891 -29.494  1.00  0.00     0.197 A 
ATOM     25  C   UNL     1       0.038 -37.172 -30.976  1.00  0.00     0.138 A 
ATOM     26  C   UNL     1       0.290 -38.253 -30.124  1.00  0.00     0.100 A 
ATOM     27  O   UNL     1      -0.541 -39.871 -28.739  1.00  0.00    -0.289 OA
BRANCH  18  28
ATOM     28  O   UNL     1      -3.809 -35.805 -31.769  1.00  0.00    -0.490 OA
ATOM     29  C   UNL     1      -3.517 -34.436 -31.469  1.00  0.00     0.278 C 
ENDBRANCH  18  28
BRANCH  21  30
ATOM     30  O   UNL     1      -3.072 -40.060 -28.178  1.00  0.00    -0.507 OA
ATOM     31  H   UNL     1      -3.564 -40.073 -27.293  1.00  0.00     0.293 HD
ENDBRANCH  21  30
BRANCH  25  32
ATOM     32  C   UNL     1       1.145 -36.457 -31.650  1.00  0.00     0.017 A 
ATOM     33  C   UNL     1       0.861 -35.432 -32.568  1.00  0.00     0.012 A 
ATOM     34  C   UNL     1       2.488 -36.772 -31.372  1.00  0.00     0.012 A 
ATOM     35  C   UNL     1       1.901 -34.744 -33.201  1.00  0.00     0.001 A 
ATOM     36  C   UNL     1       3.522 -36.083 -32.010  1.00  0.00     0.001 A 
ATOM     37  C   UNL     1       3.230 -35.069 -32.924  1.00  0.00     0.000 A 
ENDBRANCH  25  32
ENDBRANCH   1  17
TORSDOF 9
ENDMDL
MODEL 4
REMARK VINA RESULT:    -5.404      2.557      8.099
REMARK INTER + INTRA:          -8.997
REMARK INTER:                  -7.554
REMARK INTRA:                  -1.442
REMARK UNBOUND:                -1.381
REMARK SMILES COc1c(O[C@H]2O[C@H](C(=O)[O-])[C@H](O)[C@@H](O)[C@@H]2O)cc(O)c2c(=O)cc(-c3ccccc3)oc12
REMARK SMILES IDX 5 1 6 2 8 3 12 4 7 5 14 6 16 7 9 8 10 9 11 10 13 11 15 13
REMARK SMILES IDX 17 15 4 17 3 18 18 19 33 20 19 21 21 22 32 23 22 24 25 25
REMARK SMILES IDX 24 26 23 27 2 28 1 29 20 30 26 32 27 33 31 34 28 35 30 36
REMARK SMILES IDX 29 37
REMARK H PARENT 13 12 15 14 17 16 20 31
REMARK Flexibility Score: inf
ROOT
ATOM      1  O   UNL     1       0.273 -38.068 -30.087  1.00  0.00    -0.458 OA
ENDROOT
BRANCH   1   2
ATOM      2  C   UNL     1       1.197 -38.408 -31.129  1.00  0.00     0.339 C 
ATOM      3  C   UNL     1       1.835 -36.171 -31.447  1.00  0.00     0.199 C 
ATOM      4  C   UNL     1       3.274 -36.402 -30.943  1.00  0.00     0.180 C 
ATOM      5  O   UNL     1       1.313 -37.339 -32.058  1.00  0.00    -0.328 OA
ATOM      6  C   UNL     1       3.300 -37.586 -29.958  1.00  0.00     0.181 C 
ATOM      7  C   UNL     1       2.584 -38.806 -30.560  1.00  0.00     0.214 C 
BRANCH   3   8
ATOM      8  C   UNL     1       1.822 -35.043 -32.437  1.00  0.00     0.073 C 
ATOM      9  O   UNL     1       2.741 -34.184 -32.422  1.00  0.00    -0.547 OA
ATOM     10  O   UNL     1       0.839 -34.980 -33.417  1.00  0.00    -0.547 OA
ENDBRANCH   3   8
BRANCH   4  11
ATOM     11  O   UNL     1       4.125 -36.666 -32.032  1.00  0.00    -0.387 OA
ATOM     12  H   UNL     1       4.917 -37.137 -31.670  1.00  0.00     0.211 HD
ENDBRANCH   4  11
BRANCH   6  13
ATOM     13  O   UNL     1       2.675 -37.227 -28.750  1.00  0.00    -0.387 OA
ATOM     14  H   UNL     1       3.382 -36.890 -28.148  1.00  0.00     0.211 HD
ENDBRANCH   6  13
BRANCH   7  15
ATOM     15  O   UNL     1       3.378 -39.356 -31.580  1.00  0.00    -0.384 OA
ATOM     16  H   UNL     1       2.780 -39.930 -32.131  1.00  0.00     0.211 HD
ENDBRANCH   7  15
ENDBRANCH   1   2
BRANCH   1  17
ATOM     17  C   UNL     1      -1.076 -38.463 -30.018  1.00  0.00     0.172 A 
ATOM     18  C   UNL     1      -2.047 -37.591 -30.528  1.00  0.00     0.205 A 
ATOM     19  C   UNL     1      -1.470 -39.681 -29.444  1.00  0.00     0.097 A 
ATOM     20  C   UNL     1      -3.414 -37.940 -30.466  1.00  0.00     0.188 A 
ATOM     21  C   UNL     1      -2.820 -40.036 -29.363  1.00  0.00     0.134 A 
ATOM     22  C   UNL     1      -3.807 -39.165 -29.871  1.00  0.00     0.111 A 
ATOM     23  O   UNL     1      -4.335 -37.128 -30.984  1.00  0.00    -0.452 OA
ATOM     24  C   UNL     1      -5.185 -39.461 -29.822  1.00  0.00     0.197 A 
ATOM     25  C   UNL     1      -5.638 -37.393 -30.975  1.00  0.00     0.138 A 
ATOM     26  C   UNL     1      -6.101 -38.572 -30.379  1.00  0.00     0.100 A 
ATOM     27  O   UNL     1      -5.611 -40.514 -29.277  1.00  0.00    -0.289 OA
BRANCH  18  28
ATOM     28  O   UNL     1      -1.605 -36.386 -31.096  1.00  0.00    -0.490 OA
ATOM     29  C   UNL     1      -1.581 -35.137 -30.398  1.00  0.00     0.278 C 
ENDBRANCH  18  28
BRANCH  21  30
ATOM     30  O   UNL     1      -3.171 -41.262 -28.789  1.00  0.00    -0.507 OA
ATOM     31  H   UNL     1      -3.883 -41.856 -29.195  1.00  0.00     0.293 HD
ENDBRANCH  21  30
BRANCH  25  32
ATOM     32  C   UNL     1      -6.578 -36.431 -31.594  1.00  0.00     0.017 A 
ATOM     33  C   UNL     1      -7.963 -36.642 -31.495  1.00  0.00     0.012 A 
ATOM     34  C   UNL     1      -6.107 -35.290 -32.270  1.00  0.00     0.012 A 
ATOM     35  C   UNL     1      -8.859 -35.733 -32.067  1.00  0.00     0.001 A 
ATOM     36  C   UNL     1      -7.007 -34.387 -32.843  1.00  0.00     0.001 A 
ATOM     37  C   UNL     1      -8.382 -34.607 -32.741  1.00  0.00     0.000 A 
ENDBRANCH  25  32
ENDBRANCH   1  17
TORSDOF 9
ENDMDL
MODEL 5
REMARK VINA RESULT:    -5.375      2.488      7.362
REMARK INTER + INTRA:          -8.956
REMARK INTER:                  -8.125
REMARK INTRA:                  -0.830
REMARK UNBOUND:                -1.381
REMARK SMILES COc1c(O[C@H]2O[C@H](C(=O)[O-])[C@H](O)[C@@H](O)[C@@H]2O)cc(O)c2c(=O)cc(-c3ccccc3)oc12
REMARK SMILES IDX 5 1 6 2 8 3 12 4 7 5 14 6 16 7 9 8 10 9 11 10 13 11 15 13
REMARK SMILES IDX 17 15 4 17 3 18 18 19 33 20 19 21 21 22 32 23 22 24 25 25
REMARK SMILES IDX 24 26 23 27 2 28 1 29 20 30 26 32 27 33 31 34 28 35 30 36
REMARK SMILES IDX 29 37
REMARK H PARENT 13 12 15 14 17 16 20 31
REMARK Flexibility Score: inf
ROOT
ATOM      1  O   UNL     1      -5.032 -38.113 -28.643  1.00  0.00    -0.458 OA
ENDROOT
BRANCH   1   2
ATOM      2  C   UNL     1      -4.609 -39.472 -28.818  1.00  0.00     0.339 C 
ATOM      3  C   UNL     1      -3.174 -38.913 -30.591  1.00  0.00     0.199 C 
ATOM      4  C   UNL     1      -1.896 -39.267 -29.805  1.00  0.00     0.180 C 
ATOM      5  O   UNL     1      -4.269 -39.714 -30.176  1.00  0.00    -0.328 OA
ATOM      6  C   UNL     1      -2.147 -39.098 -28.294  1.00  0.00     0.181 C 
ATOM      7  C   UNL     1      -3.431 -39.833 -27.875  1.00  0.00     0.214 C 
BRANCH   3   8
ATOM      8  C   UNL     1      -2.936 -39.119 -32.059  1.00  0.00     0.073 C 
ATOM      9  O   UNL     1      -3.884 -39.478 -32.804  1.00  0.00    -0.547 OA
ATOM     10  O   UNL     1      -1.691 -38.850 -32.613  1.00  0.00    -0.547 OA
ENDBRANCH   3   8
BRANCH   4  11
ATOM     11  O   UNL     1      -1.515 -40.592 -30.082  1.00  0.00    -0.387 OA
ATOM     12  H   UNL     1      -2.314 -41.051 -30.444  1.00  0.00     0.211 HD
ENDBRANCH   4  11
BRANCH   6  13
ATOM     13  O   UNL     1      -2.263 -37.735 -27.970  1.00  0.00    -0.387 OA
ATOM     14  H   UNL     1      -2.565 -37.268 -28.788  1.00  0.00     0.211 HD
ENDBRANCH   6  13
BRANCH   7  15
ATOM     15  O   UNL     1      -3.206 -41.219 -27.903  1.00  0.00    -0.384 OA
ATOM     16  H   UNL     1      -2.650 -41.436 -27.108  1.00  0.00     0.211 HD
ENDBRANCH   7  15
ENDBRANCH   1   2
BRANCH   1  17
ATOM     17  C   UNL     1      -5.837 -37.378 -29.532  1.00  0.00     0.172 A 
ATOM     18  C   UNL     1      -5.240 -36.340 -30.261  1.00  0.00     0.205 A 
ATOM     19  C   UNL     1      -7.206 -37.639 -29.693  1.00  0.00     0.097 A 
ATOM     20  C   UNL     1      -6.014 -35.566 -31.154  1.00  0.00     0.188 A 
ATOM     21  C   UNL     1      -7.990 -36.875 -30.563  1.00  0.00     0.134 A 
ATOM     22  C   UNL     1      -7.400 -35.826 -31.301  1.00  0.00     0.111 A 
ATOM     23  O   UNL     1      -5.440 -34.605 -31.875  1.00  0.00    -0.452 OA
ATOM     24  C   UNL     1      -8.131 -35.018 -32.194  1.00  0.00     0.197 A 
ATOM     25  C   UNL     1      -6.098 -33.843 -32.744  1.00  0.00     0.138 A 
ATOM     26  C   UNL     1      -7.475 -34.026 -32.919  1.00  0.00     0.100 A 
ATOM     27  O   UNL     1      -9.372 -35.166 -32.350  1.00  0.00    -0.289 OA
BRANCH  18  28
ATOM     28  O   UNL     1      -3.868 -36.118 -30.071  1.00  0.00    -0.490 OA
ATOM     29  C   UNL     1      -3.305 -34.844 -29.741  1.00  0.00     0.278 C 
ENDBRANCH  18  28
BRANCH  21  30
ATOM     30  O   UNL     1      -9.349 -37.173 -30.699  1.00  0.00    -0.507 OA
ATOM     31  H   UNL     1      -9.664 -38.041 -31.114  1.00  0.00     0.293 HD
ENDBRANCH  21  30
BRANCH  25  32
ATOM     32  C   UNL     1      -5.361 -32.812 -33.509  1.00  0.00     0.017 A 
ATOM     33  C   UNL     1      -3.974 -32.672 -33.340  1.00  0.00     0.012 A 
ATOM     34  C   UNL     1      -6.026 -31.975 -34.424  1.00  0.00     0.012 A 
ATOM     35  C   UNL     1      -3.267 -31.709 -34.067  1.00  0.00     0.001 A 
ATOM     36  C   UNL     1      -5.315 -31.011 -35.144  1.00  0.00     0.001 A 
ATOM     37  C   UNL     1      -3.937 -30.878 -34.967  1.00  0.00     0.000 A 
ENDBRANCH  25  32
ENDBRANCH   1  17
TORSDOF 9
ENDMDL
MODEL 6
REMARK VINA RESULT:    -5.271      1.759      3.705
REMARK INTER + INTRA:          -8.810
REMARK INTER:                  -7.735
REMARK INTRA:                  -1.075
REMARK UNBOUND:                -1.381
REMARK SMILES COc1c(O[C@H]2O[C@H](C(=O)[O-])[C@H](O)[C@@H](O)[C@@H]2O)cc(O)c2c(=O)cc(-c3ccccc3)oc12
REMARK SMILES IDX 5 1 6 2 8 3 12 4 7 5 14 6 16 7 9 8 10 9 11 10 13 11 15 13
REMARK SMILES IDX 17 15 4 17 3 18 18 19 33 20 19 21 21 22 32 23 22 24 25 25
REMARK SMILES IDX 24 26 23 27 2 28 1 29 20 30 26 32 27 33 31 34 28 35 30 36
REMARK SMILES IDX 29 37
REMARK H PARENT 13 12 15 14 17 16 20 31
REMARK Flexibility Score: inf
ROOT
ATOM      1  O   UNL     1      -5.865 -36.648 -30.626  1.00  0.00    -0.458 OA
ENDROOT
BRANCH   1   2
ATOM      2  C   UNL     1      -6.665 -35.819 -29.773  1.00  0.00     0.339 C 
ATOM      3  C   UNL     1      -7.490 -34.565 -31.579  1.00  0.00     0.199 C 
ATOM      4  C   UNL     1      -8.936 -35.073 -31.405  1.00  0.00     0.180 C 
ATOM      5  O   UNL     1      -6.810 -34.522 -30.335  1.00  0.00    -0.328 OA
ATOM      6  C   UNL     1      -8.926 -36.465 -30.745  1.00  0.00     0.181 C 
ATOM      7  C   UNL     1      -8.049 -36.458 -29.482  1.00  0.00     0.214 C 
BRANCH   3   8
ATOM      8  C   UNL     1      -7.508 -33.192 -32.183  1.00  0.00     0.073 C 
ATOM      9  O   UNL     1      -7.446 -32.178 -31.441  1.00  0.00    -0.547 OA
ATOM     10  O   UNL     1      -7.523 -33.032 -33.564  1.00  0.00    -0.547 OA
ENDBRANCH   3   8
BRANCH   4  11
ATOM     11  O   UNL     1      -9.667 -34.172 -30.610  1.00  0.00    -0.387 OA
ATOM     12  H   UNL     1     -10.357 -33.769 -31.194  1.00  0.00     0.211 HD
ENDBRANCH   4  11
BRANCH   6  13
ATOM     13  O   UNL     1      -8.437 -37.427 -31.647  1.00  0.00    -0.387 OA
ATOM     14  H   UNL     1      -9.069 -37.458 -32.407  1.00  0.00     0.211 HD
ENDBRANCH   6  13
BRANCH   7  15
ATOM     15  O   UNL     1      -8.700 -35.742 -28.465  1.00  0.00    -0.384 OA
ATOM     16  H   UNL     1      -9.265 -36.395 -27.971  1.00  0.00     0.211 HD
ENDBRANCH   7  15
ENDBRANCH   1   2
BRANCH   1  17
ATOM     17  C   UNL     1      -4.508 -36.445 -30.938  1.00  0.00     0.172 A 
ATOM     18  C   UNL     1      -3.553 -37.227 -30.275  1.00  0.00     0.205 A 
ATOM     19  C   UNL     1      -4.091 -35.481 -31.868  1.00  0.00     0.097 A 
ATOM     20  C   UNL     1      -2.179 -37.047 -30.546  1.00  0.00     0.188 A 
ATOM     21  C   UNL     1      -2.734 -35.280 -32.139  1.00  0.00     0.134 A 
ATOM     22  C   UNL     1      -1.763 -36.061 -31.476  1.00  0.00     0.111 A 
ATOM     23  O   UNL     1      -1.272 -37.816 -29.945  1.00  0.00    -0.452 OA
ATOM     24  C   UNL     1      -0.379 -35.911 -31.702  1.00  0.00     0.197 A 
ATOM     25  C   UNL     1       0.036 -37.714 -30.157  1.00  0.00     0.138 A 
ATOM     26  C   UNL     1       0.521 -36.743 -31.041  1.00  0.00     0.100 A 
ATOM     27  O   UNL     1       0.066 -35.032 -32.487  1.00  0.00    -0.289 OA
BRANCH  18  28
ATOM     28  O   UNL     1      -4.018 -38.181 -29.357  1.00  0.00    -0.490 OA
ATOM     29  C   UNL     1      -4.093 -39.584 -29.633  1.00  0.00     0.278 C 
ENDBRANCH  18  28
BRANCH  21  30
ATOM     30  O   UNL     1      -2.360 -34.315 -33.079  1.00  0.00    -0.507 OA
ATOM     31  H   UNL     1      -2.440 -34.481 -34.074  1.00  0.00     0.293 HD
ENDBRANCH  21  30
BRANCH  25  32
ATOM     32  C   UNL     1       0.959 -38.630 -29.448  1.00  0.00     0.017 A 
ATOM     33  C   UNL     1       0.445 -39.623 -28.599  1.00  0.00     0.012 A 
ATOM     34  C   UNL     1       2.352 -38.536 -29.626  1.00  0.00     0.012 A 
ATOM     35  C   UNL     1       1.309 -40.500 -27.935  1.00  0.00     0.001 A 
ATOM     36  C   UNL     1       3.210 -39.413 -28.956  1.00  0.00     0.001 A 
ATOM     37  C   UNL     1       2.690 -40.394 -28.112  1.00  0.00     0.000 A 
ENDBRANCH  25  32
ENDBRANCH   1  17
TORSDOF 9
ENDMDL
MODEL 7
REMARK VINA RESULT:    -5.254      3.063      7.686
REMARK INTER + INTRA:          -8.786
REMARK INTER:                  -7.400
REMARK INTRA:                  -1.386
REMARK UNBOUND:                -1.381
REMARK SMILES COc1c(O[C@H]2O[C@H](C(=O)[O-])[C@H](O)[C@@H](O)[C@@H]2O)cc(O)c2c(=O)cc(-c3ccccc3)oc12
REMARK SMILES IDX 5 1 6 2 8 3 12 4 7 5 14 6 16 7 9 8 10 9 11 10 13 11 15 13
REMARK SMILES IDX 17 15 4 17 3 18 18 19 33 20 19 21 21 22 32 23 22 24 25 25
REMARK SMILES IDX 24 26 23 27 2 28 1 29 20 30 26 32 27 33 31 34 28 35 30 36
REMARK SMILES IDX 29 37
REMARK H PARENT 13 12 15 14 17 16 20 31
REMARK Flexibility Score: inf
ROOT
ATOM      1  O   UNL     1      -5.406 -36.829 -29.631  1.00  0.00    -0.458 OA
ENDROOT
BRANCH   1   2
ATOM      2  C   UNL     1      -6.251 -37.987 -29.593  1.00  0.00     0.339 C 
ATOM      3  C   UNL     1      -4.827 -39.211 -31.002  1.00  0.00     0.199 C 
ATOM      4  C   UNL     1      -4.439 -40.222 -29.903  1.00  0.00     0.180 C 
ATOM      5  O   UNL     1      -6.143 -38.721 -30.804  1.00  0.00    -0.328 OA
ATOM      6  C   UNL     1      -4.569 -39.562 -28.516  1.00  0.00     0.181 C 
ATOM      7  C   UNL     1      -5.941 -38.885 -28.367  1.00  0.00     0.214 C 
BRANCH   3   8
ATOM      8  C   UNL     1      -4.738 -39.872 -32.347  1.00  0.00     0.073 C 
ATOM      9  O   UNL     1      -5.581 -40.747 -32.673  1.00  0.00    -0.547 OA
ATOM     10  O   UNL     1      -3.772 -39.474 -33.263  1.00  0.00    -0.547 OA
ENDBRANCH   3   8
BRANCH   4  11
ATOM     11  O   UNL     1      -5.273 -41.352 -29.976  1.00  0.00    -0.387 OA
ATOM     12  H   UNL     1      -6.157 -41.036 -30.290  1.00  0.00     0.211 HD
ENDBRANCH   4  11
BRANCH   6  13
ATOM     13  O   UNL     1      -3.554 -38.606 -28.336  1.00  0.00    -0.387 OA
ATOM     14  H   UNL     1      -2.769 -38.918 -28.849  1.00  0.00     0.211 HD
ENDBRANCH   6  13
BRANCH   7  15
ATOM     15  O   UNL     1      -6.935 -39.868 -28.232  1.00  0.00    -0.384 OA
ATOM     16  H   UNL     1      -7.650 -39.477 -27.663  1.00  0.00     0.211 HD
ENDBRANCH   7  15
ENDBRANCH   1   2
BRANCH   1  17
ATOM     17  C   UNL     1      -5.782 -35.546 -30.070  1.00  0.00     0.172 A 
ATOM     18  C   UNL     1      -5.244 -35.076 -31.276  1.00  0.00     0.205 A 
ATOM     19  C   UNL     1      -6.653 -34.730 -29.334  1.00  0.00     0.097 A 
ATOM     20  C   UNL     1      -5.582 -33.788 -31.747  1.00  0.00     0.188 A 
ATOM     21  C   UNL     1      -6.988 -33.447 -29.779  1.00  0.00     0.134 A 
ATOM     22  C   UNL     1      -6.451 -32.962 -30.991  1.00  0.00     0.111 A 
ATOM     23  O   UNL     1      -5.102 -33.355 -32.911  1.00  0.00    -0.452 OA
ATOM     24  C   UNL     1      -6.748 -31.680 -31.497  1.00  0.00     0.197 A 
ATOM     25  C   UNL     1      -5.383 -32.162 -33.426  1.00  0.00     0.138 A 
ATOM     26  C   UNL     1      -6.213 -31.283 -32.721  1.00  0.00     0.100 A 
ATOM     27  O   UNL     1      -7.484 -30.878 -30.864  1.00  0.00    -0.289 OA
BRANCH  18  28
ATOM     28  O   UNL     1      -4.381 -35.930 -31.979  1.00  0.00    -0.490 OA
ATOM     29  C   UNL     1      -2.955 -35.905 -31.850  1.00  0.00     0.278 C 
ENDBRANCH  18  28
BRANCH  21  30
ATOM     30  O   UNL     1      -7.867 -32.668 -29.020  1.00  0.00    -0.507 OA
ATOM     31  H   UNL     1      -8.328 -33.035 -28.196  1.00  0.00     0.293 HD
ENDBRANCH  21  30
BRANCH  25  32
ATOM     32  C   UNL     1      -4.810 -31.783 -34.737  1.00  0.00     0.017 A 
ATOM     33  C   UNL     1      -3.445 -31.998 -34.994  1.00  0.00     0.012 A 
ATOM     34  C   UNL     1      -5.616 -31.226 -35.748  1.00  0.00     0.012 A 
ATOM     35  C   UNL     1      -2.897 -31.654 -36.233  1.00  0.00     0.001 A 
ATOM     36  C   UNL     1      -5.061 -30.881 -36.983  1.00  0.00     0.001 A 
ATOM     37  C   UNL     1      -3.703 -31.095 -37.227  1.00  0.00     0.000 A 
ENDBRANCH  25  32
ENDBRANCH   1  17
TORSDOF 9
ENDMDL
MODEL 8
REMARK VINA RESULT:    -5.084      1.864      3.715
REMARK INTER + INTRA:          -8.546
REMARK INTER:                  -7.514
REMARK INTRA:                  -1.032
REMARK UNBOUND:                -1.381
REMARK SMILES COc1c(O[C@H]2O[C@H](C(=O)[O-])[C@H](O)[C@@H](O)[C@@H]2O)cc(O)c2c(=O)cc(-c3ccccc3)oc12
REMARK SMILES IDX 5 1 6 2 8 3 12 4 7 5 14 6 16 7 9 8 10 9 11 10 13 11 15 13
REMARK SMILES IDX 17 15 4 17 3 18 18 19 33 20 19 21 21 22 32 23 22 24 25 25
REMARK SMILES IDX 24 26 23 27 2 28 1 29 20 30 26 32 27 33 31 34 28 35 30 36
REMARK SMILES IDX 29 37
REMARK H PARENT 13 12 15 14 17 16 20 31
REMARK Flexibility Score: inf
ROOT
ATOM      1  O   UNL     1      -6.067 -36.100 -32.048  1.00  0.00    -0.458 OA
ENDROOT
BRANCH   1   2
ATOM      2  C   UNL     1      -6.883 -36.492 -30.935  1.00  0.00     0.339 C 
ATOM      3  C   UNL     1      -7.605 -34.291 -30.549  1.00  0.00     0.199 C 
ATOM      4  C   UNL     1      -9.068 -34.594 -30.934  1.00  0.00     0.180 C 
ATOM      5  O   UNL     1      -6.976 -35.434 -29.992  1.00  0.00    -0.328 OA
ATOM      6  C   UNL     1      -9.115 -35.774 -31.923  1.00  0.00     0.181 C 
ATOM      7  C   UNL     1      -8.291 -36.958 -31.391  1.00  0.00     0.214 C 
BRANCH   3   8
ATOM      8  C   UNL     1      -7.569 -33.168 -29.554  1.00  0.00     0.073 C 
ATOM      9  O   UNL     1      -8.309 -32.164 -29.713  1.00  0.00    -0.547 OA
ATOM     10  O   UNL     1      -6.771 -33.260 -28.420  1.00  0.00    -0.547 OA
ENDBRANCH   3   8
BRANCH   4  11
ATOM     11  O   UNL     1      -9.811 -34.905 -29.781  1.00  0.00    -0.387 OA
ATOM     12  H   UNL     1      -9.363 -34.456 -29.021  1.00  0.00     0.211 HD
ENDBRANCH   4  11
BRANCH   6  13
ATOM     13  O   UNL     1      -8.611 -35.379 -33.175  1.00  0.00    -0.387 OA
ATOM     14  H   UNL     1      -8.464 -36.204 -33.700  1.00  0.00     0.211 HD
ENDBRANCH   6  13
BRANCH   7  15
ATOM     15  O   UNL     1      -8.968 -37.552 -30.314  1.00  0.00    -0.384 OA
ATOM     16  H   UNL     1      -8.761 -37.006 -29.509  1.00  0.00     0.211 HD
ENDBRANCH   7  15
ENDBRANCH   1   2
BRANCH   1  17
ATOM     17  C   UNL     1      -4.753 -35.603 -31.973  1.00  0.00     0.172 A 
ATOM     18  C   UNL     1      -3.735 -36.483 -31.581  1.00  0.00     0.205 A 
ATOM     19  C   UNL     1      -4.442 -34.265 -32.257  1.00  0.00     0.097 A 
ATOM     20  C   UNL     1      -2.403 -36.023 -31.477  1.00  0.00     0.188 A 
ATOM     21  C   UNL     1      -3.131 -33.790 -32.147  1.00  0.00     0.134 A 
ATOM     22  C   UNL     1      -2.098 -34.667 -31.752  1.00  0.00     0.111 A 
ATOM     23  O   UNL     1      -1.429 -36.868 -31.141  1.00  0.00    -0.452 OA
ATOM     24  C   UNL     1      -0.756 -34.254 -31.621  1.00  0.00     0.197 A 
ATOM     25  C   UNL     1      -0.152 -36.513 -31.035  1.00  0.00     0.138 A 
ATOM     26  C   UNL     1       0.218 -35.184 -31.265  1.00  0.00     0.100 A 
ATOM     27  O   UNL     1      -0.416 -33.057 -31.814  1.00  0.00    -0.289 OA
BRANCH  18  28
ATOM     28  O   UNL     1      -4.093 -37.813 -31.311  1.00  0.00    -0.490 OA
ATOM     29  C   UNL     1      -4.006 -38.872 -32.269  1.00  0.00     0.278 C 
ENDBRANCH  18  28
BRANCH  21  30
ATOM     30  O   UNL     1      -2.862 -32.452 -32.447  1.00  0.00    -0.507 OA
ATOM     31  H   UNL     1      -3.575 -31.736 -32.375  1.00  0.00     0.293 HD
ENDBRANCH  21  30
BRANCH  25  32
ATOM     32  C   UNL     1       0.856 -37.535 -30.672  1.00  0.00     0.017 A 
ATOM     33  C   UNL     1       1.928 -37.801 -31.540  1.00  0.00     0.012 A 
ATOM     34  C   UNL     1       0.772 -38.236 -29.455  1.00  0.00     0.012 A 
ATOM     35  C   UNL     1       2.892 -38.756 -31.200  1.00  0.00     0.001 A 
ATOM     36  C   UNL     1       1.736 -39.192 -29.123  1.00  0.00     0.001 A 
ATOM     37  C   UNL     1       2.795 -39.452 -29.994  1.00  0.00     0.000 A 
ENDBRANCH  25  32
ENDBRANCH   1  17
TORSDOF 9
ENDMDL
MODEL 9
REMARK VINA RESULT:    -5.080      4.843      7.240
REMARK INTER + INTRA:          -8.541
REMARK INTER:                  -7.351
REMARK INTRA:                  -1.189
REMARK UNBOUND:                -1.381
REMARK SMILES COc1c(O[C@H]2O[C@H](C(=O)[O-])[C@H](O)[C@@H](O)[C@@H]2O)cc(O)c2c(=O)cc(-c3ccccc3)oc12
REMARK SMILES IDX 5 1 6 2 8 3 12 4 7 5 14 6 16 7 9 8 10 9 11 10 13 11 15 13
REMARK SMILES IDX 17 15 4 17 3 18 18 19 33 20 19 21 21 22 32 23 22 24 25 25
REMARK SMILES IDX 24 26 23 27 2 28 1 29 20 30 26 32 27 33 31 34 28 35 30 36
REMARK SMILES IDX 29 37
REMARK H PARENT 13 12 15 14 17 16 20 31
REMARK Flexibility Score: inf
ROOT
ATOM      1  O   UNL     1      -5.361 -31.832 -32.782  1.00  0.00    -0.458 OA
ENDROOT
BRANCH   1   2
ATOM      2  C   UNL     1      -6.756 -31.696 -32.479  1.00  0.00     0.339 C 
ATOM      3  C   UNL     1      -6.972 -33.968 -31.926  1.00  0.00     0.199 C 
ATOM      4  C   UNL     1      -7.253 -33.686 -30.437  1.00  0.00     0.180 C 
ATOM      5  O   UNL     1      -7.443 -32.911 -32.746  1.00  0.00    -0.328 OA
ATOM      6  C   UNL     1      -6.604 -32.351 -30.025  1.00  0.00     0.181 C 
ATOM      7  C   UNL     1      -6.984 -31.237 -31.014  1.00  0.00     0.214 C 
BRANCH   3   8
ATOM      8  C   UNL     1      -7.642 -35.248 -32.332  1.00  0.00     0.073 C 
ATOM      9  O   UNL     1      -7.086 -36.351 -32.092  1.00  0.00    -0.547 OA
ATOM     10  O   UNL     1      -8.905 -35.228 -32.910  1.00  0.00    -0.547 OA
ENDBRANCH   3   8
BRANCH   4  11
ATOM     11  O   UNL     1      -8.641 -33.631 -30.215  1.00  0.00    -0.387 OA
ATOM     12  H   UNL     1      -9.076 -33.660 -31.103  1.00  0.00     0.211 HD
ENDBRANCH   4  11
BRANCH   6  13
ATOM     13  O   UNL     1      -5.204 -32.483 -29.987  1.00  0.00    -0.387 OA
ATOM     14  H   UNL     1      -4.871 -31.836 -29.317  1.00  0.00     0.211 HD
ENDBRANCH   6  13
BRANCH   7  15
ATOM     15  O   UNL     1      -8.331 -30.888 -30.828  1.00  0.00    -0.384 OA
ATOM     16  H   UNL     1      -8.461 -30.004 -31.265  1.00  0.00     0.211 HD
ENDBRANCH   7  15
ENDBRANCH   1   2
BRANCH   1  17
ATOM     17  C   UNL     1      -4.791 -31.814 -34.068  1.00  0.00     0.172 A 
ATOM     18  C   UNL     1      -3.466 -32.249 -34.209  1.00  0.00     0.205 A 
ATOM     19  C   UNL     1      -5.496 -31.361 -35.193  1.00  0.00     0.097 A 
ATOM     20  C   UNL     1      -2.848 -32.233 -35.480  1.00  0.00     0.188 A 
ATOM     21  C   UNL     1      -4.895 -31.326 -36.456  1.00  0.00     0.134 A 
ATOM     22  C   UNL     1      -3.561 -31.760 -36.610  1.00  0.00     0.111 A 
ATOM     23  O   UNL     1      -1.602 -32.681 -35.621  1.00  0.00    -0.452 OA
ATOM     24  C   UNL     1      -2.896 -31.752 -37.852  1.00  0.00     0.197 A 
ATOM     25  C   UNL     1      -0.957 -32.709 -36.785  1.00  0.00     0.138 A 
ATOM     26  C   UNL     1      -1.591 -32.232 -37.938  1.00  0.00     0.100 A 
ATOM     27  O   UNL     1      -3.453 -31.313 -38.893  1.00  0.00    -0.289 OA
BRANCH  18  28
ATOM     28  O   UNL     1      -2.802 -32.696 -33.058  1.00  0.00    -0.490 OA
ATOM     29  C   UNL     1      -1.783 -31.950 -32.384  1.00  0.00     0.278 C 
ENDBRANCH  18  28
BRANCH  21  30
ATOM     30  O   UNL     1      -5.636 -30.875 -37.552  1.00  0.00    -0.507 OA
ATOM     31  H   UNL     1      -6.419 -31.401 -37.919  1.00  0.00     0.293 HD
ENDBRANCH  21  30
BRANCH  25  32
ATOM     32  C   UNL     1       0.422 -33.244 -36.837  1.00  0.00     0.017 A 
ATOM     33  C   UNL     1       0.668 -34.492 -37.432  1.00  0.00     0.012 A 
ATOM     34  C   UNL     1       1.504 -32.511 -36.315  1.00  0.00     0.012 A 
ATOM     35  C   UNL     1       1.969 -35.000 -37.497  1.00  0.00     0.001 A 
ATOM     36  C   UNL     1       2.802 -33.026 -36.378  1.00  0.00     0.001 A 
ATOM     37  C   UNL     1       3.035 -34.269 -36.969  1.00  0.00     0.000 A 
ENDBRANCH  25  32
ENDBRANCH   1  17
TORSDOF 9
ENDMDL
