MODEL 1
REMARK VINA RESULT:    -2.299      0.000      0.000
REMARK INTER + INTRA:          -2.501
REMARK INTER:                  -2.501
REMARK INTRA:                   0.000
REMARK UNBOUND:                 0.000
REMARK SMILES [NH3+]CC(=O)[O-]
REMARK SMILES IDX 2 1 1 2 3 6 4 7 5 8
REMARK H PARENT 1 3 1 4 1 5
REMARK Flexibility Score: inf
ROOT
ATOM      1  C   UNL     1      14.609  -1.966  -8.051  1.00  0.00     0.312 C 
ENDROOT
BRANCH   1   2
ATOM      2  N   UNL     1      13.509  -1.039  -8.312  1.00  0.00    -0.353 N 
ATOM      3  H   UNL     1      13.397  -0.401  -7.491  1.00  0.00     0.344 HD
ATOM      4  H   UNL     1      12.618  -1.570  -8.453  1.00  0.00     0.344 HD
ATOM      5  H   UNL     1      13.718  -0.465  -9.161  1.00  0.00     0.344 HD
ENDBRANCH   1   2
BRANCH   1   6
ATOM      6  C   UNL     1      15.903  -1.226  -7.918  1.00  0.00     0.096 C 
ATOM      7  O   UNL     1      15.923   0.031  -7.984  1.00  0.00    -0.544 OA
ATOM      8  O   UNL     1      17.094  -1.927  -7.772  1.00  0.00    -0.544 OA
ENDBRANCH   1   6
TORSDOF 2
ENDMDL
MODEL 2
REMARK VINA RESULT:    -2.239      1.674      2.069
REMARK INTER + INTRA:          -2.435
REMARK INTER:                  -2.435
REMARK INTRA:                   0.000
REMARK UNBOUND:                 0.000
REMARK SMILES [NH3+]CC(=O)[O-]
REMARK SMILES IDX 2 1 1 2 3 6 4 7 5 8
REMARK H PARENT 1 3 1 4 1 5
REMARK Flexibility Score: inf
ROOT
ATOM      1  C   UNL     1      13.528  -1.096  -9.094  1.00  0.00     0.312 C 
ENDROOT
BRANCH   1   2
ATOM      2  N   UNL     1      12.437  -0.350  -8.469  1.00  0.00    -0.353 N 
ATOM      3  H   UNL     1      12.043  -0.915  -7.683  1.00  0.00     0.344 HD
ATOM      4  H   UNL     1      11.680  -0.169  -9.169  1.00  0.00     0.344 HD
ATOM      5  H   UNL     1      12.793   0.557  -8.090  1.00  0.00     0.344 HD
ENDBRANCH   1   2
BRANCH   1   6
ATOM      6  C   UNL     1      14.481  -1.606  -8.057  1.00  0.00     0.096 C 
ATOM      7  O   UNL     1      14.376  -2.785  -7.627  1.00  0.00    -0.544 OA
ATOM      8  O   UNL     1      15.451  -0.764  -7.529  1.00  0.00    -0.544 OA
ENDBRANCH   1   6
TORSDOF 2
ENDMDL
MODEL 3
REMARK VINA RESULT:    -2.051      2.374      2.402
REMARK INTER + INTRA:          -2.231
REMARK INTER:                  -2.231
REMARK INTRA:                   0.000
REMARK UNBOUND:                 0.000
REMARK SMILES [NH3+]CC(=O)[O-]
REMARK SMILES IDX 2 1 1 2 3 6 4 7 5 8
REMARK H PARENT 1 3 1 4 1 5
REMARK Flexibility Score: inf
ROOT
ATOM      1  C   UNL     1      15.611  -1.793  -9.605  1.00  0.00     0.312 C 
ENDROOT
BRANCH   1   2
ATOM      2  N   UNL     1      16.922  -2.435  -9.682  1.00  0.00    -0.353 N 
ATOM      3  H   UNL     1      17.204  -2.752  -8.727  1.00  0.00     0.344 HD
ATOM      4  H   UNL     1      17.633  -1.755 -10.039  1.00  0.00     0.344 HD
ATOM      5  H   UNL     1      16.877  -3.266 -10.316  1.00  0.00     0.344 HD
ENDBRANCH   1   2
BRANCH   1   6
ATOM      6  C   UNL     1      15.152  -1.698  -8.183  1.00  0.00     0.096 C 
ATOM      7  O   UNL     1      15.514  -0.729  -7.464  1.00  0.00    -0.544 OA
ATOM      8  O   UNL     1      14.367  -2.705  -7.636  1.00  0.00    -0.544 OA
ENDBRANCH   1   6
TORSDOF 2
ENDMDL
MODEL 4
REMARK VINA RESULT:    -2.051      8.002      8.470
REMARK INTER + INTRA:          -2.230
REMARK INTER:                  -2.230
REMARK INTRA:                   0.000
REMARK UNBOUND:                 0.000
REMARK SMILES [NH3+]CC(=O)[O-]
REMARK SMILES IDX 2 1 1 2 3 6 4 7 5 8
REMARK H PARENT 1 3 1 4 1 5
REMARK Flexibility Score: inf
ROOT
ATOM      1  C   UNL     1       6.918   1.547  -6.633  1.00  0.00     0.312 C 
ENDROOT
BRANCH   1   2
ATOM      2  N   UNL     1       5.754   1.087  -5.877  1.00  0.00    -0.353 N 
ATOM      3  H   UNL     1       5.131   0.536  -6.510  1.00  0.00     0.344 HD
ATOM      4  H   UNL     1       5.220   1.907  -5.506  1.00  0.00     0.344 HD
ATOM      5  H   UNL     1       6.059   0.475  -5.085  1.00  0.00     0.344 HD
ENDBRANCH   1   2
BRANCH   1   6
ATOM      6  C   UNL     1       7.784   0.390  -7.024  1.00  0.00     0.096 C 
ATOM      7  O   UNL     1       7.264  -0.686  -7.420  1.00  0.00    -0.544 OA
ATOM      8  O   UNL     1       9.165   0.483  -6.902  1.00  0.00    -0.544 OA
ENDBRANCH   1   6
TORSDOF 2
ENDMDL
MODEL 5
REMARK VINA RESULT:    -2.021      7.817      8.405
REMARK INTER + INTRA:          -2.199
REMARK INTER:                  -2.199
REMARK INTRA:                   0.000
REMARK UNBOUND:                 0.000
REMARK SMILES [NH3+]CC(=O)[O-]
REMARK SMILES IDX 2 1 1 2 3 6 4 7 5 8
REMARK H PARENT 1 3 1 4 1 5
REMARK Flexibility Score: inf
ROOT
ATOM      1  C   UNL     1       6.833  -0.547  -8.000  1.00  0.00     0.312 C 
ENDROOT
BRANCH   1   2
ATOM      2  N   UNL     1       6.680  -1.856  -7.366  1.00  0.00    -0.353 N 
ATOM      3  H   UNL     1       7.174  -1.850  -6.445  1.00  0.00     0.344 HD
ATOM      4  H   UNL     1       7.100  -2.599  -7.972  1.00  0.00     0.344 HD
ATOM      5  H   UNL     1       5.666  -2.060  -7.206  1.00  0.00     0.344 HD
ENDBRANCH   1   2
BRANCH   1   6
ATOM      6  C   UNL     1       7.555   0.398  -7.091  1.00  0.00     0.096 C 
ATOM      7  O   UNL     1       8.805   0.318  -6.957  1.00  0.00    -0.544 OA
ATOM      8  O   UNL     1       6.843   1.335  -6.353  1.00  0.00    -0.544 OA
ENDBRANCH   1   6
TORSDOF 2
ENDMDL
MODEL 6
REMARK VINA RESULT:    -2.021      7.835      8.323
REMARK INTER + INTRA:          -2.198
REMARK INTER:                  -2.198
REMARK INTRA:                   0.000
REMARK UNBOUND:                 0.000
REMARK SMILES [NH3+]CC(=O)[O-]
REMARK SMILES IDX 2 1 1 2 3 6 4 7 5 8
REMARK H PARENT 1 3 1 4 1 5
REMARK Flexibility Score: inf
ROOT
ATOM      1  C   UNL     1       6.710  -0.520  -7.926  1.00  0.00     0.312 C 
ENDROOT
BRANCH   1   2
ATOM      2  N   UNL     1       6.709  -1.874  -7.376  1.00  0.00    -0.353 N 
ATOM      3  H   UNL     1       6.063  -1.909  -6.554  1.00  0.00     0.344 HD
ATOM      4  H   UNL     1       7.672  -2.134  -7.060  1.00  0.00     0.344 HD
ATOM      5  H   UNL     1       6.376  -2.555  -8.097  1.00  0.00     0.344 HD
ENDBRANCH   1   2
BRANCH   1   6
ATOM      6  C   UNL     1       7.476   0.410  -7.038  1.00  0.00     0.096 C 
ATOM      7  O   UNL     1       6.873   1.305  -6.388  1.00  0.00    -0.544 OA
ATOM      8  O   UNL     1       8.861   0.323  -6.967  1.00  0.00    -0.544 OA
ENDBRANCH   1   6
TORSDOF 2
ENDMDL
MODEL 7
REMARK VINA RESULT:    -1.974      8.664      8.926
REMARK INTER + INTRA:          -2.148
REMARK INTER:                  -2.148
REMARK INTRA:                   0.000
REMARK UNBOUND:                 0.000
REMARK SMILES [NH3+]CC(=O)[O-]
REMARK SMILES IDX 2 1 1 2 3 6 4 7 5 8
REMARK H PARENT 1 3 1 4 1 5
REMARK Flexibility Score: inf
ROOT
ATOM      1  C   UNL     1      12.071   0.300  -0.334  1.00  0.00     0.312 C 
ENDROOT
BRANCH   1   2
ATOM      2  N   UNL     1      10.940  -0.532   0.072  1.00  0.00    -0.353 N 
ATOM      3  H   UNL     1      10.466  -0.089   0.892  1.00  0.00     0.344 HD
ATOM      4  H   UNL     1      11.277  -1.484   0.348  1.00  0.00     0.344 HD
ATOM      5  H   UNL     1      10.254  -0.614  -0.713  1.00  0.00     0.344 HD
ENDBRANCH   1   2
BRANCH   1   6
ATOM      6  C   UNL     1      11.604   1.664  -0.740  1.00  0.00     0.096 C 
ATOM      7  O   UNL     1      10.726   2.260  -0.062  1.00  0.00    -0.544 OA
ATOM      8  O   UNL     1      12.100   2.255  -1.895  1.00  0.00    -0.544 OA
ENDBRANCH   1   6
TORSDOF 2
ENDMDL
MODEL 8
REMARK VINA RESULT:    -1.865      9.483      9.798
REMARK INTER + INTRA:          -2.029
REMARK INTER:                  -2.029
REMARK INTRA:                   0.000
REMARK UNBOUND:                 0.000
REMARK SMILES [NH3+]CC(=O)[O-]
REMARK SMILES IDX 2 1 1 2 3 6 4 7 5 8
REMARK H PARENT 1 3 1 4 1 5
REMARK Flexibility Score: inf
ROOT
ATOM      1  C   UNL     1       5.791  -4.062  -7.404  1.00  0.00     0.312 C 
ENDROOT
BRANCH   1   2
ATOM      2  N   UNL     1       6.513  -2.817  -7.144  1.00  0.00    -0.353 N 
ATOM      3  H   UNL     1       6.256  -2.114  -7.873  1.00  0.00     0.344 HD
ATOM      4  H   UNL     1       7.545  -2.986  -7.184  1.00  0.00     0.344 HD
ATOM      5  H   UNL     1       6.252  -2.441  -6.203  1.00  0.00     0.344 HD
ENDBRANCH   1   2
BRANCH   1   6
ATOM      6  C   UNL     1       6.582  -5.240  -6.927  1.00  0.00     0.096 C 
ATOM      7  O   UNL     1       7.840  -5.192  -6.906  1.00  0.00    -0.544 OA
ATOM      8  O   UNL     1       5.931  -6.410  -6.553  1.00  0.00    -0.544 OA
ENDBRANCH   1   6
TORSDOF 2
ENDMDL
MODEL 9
REMARK VINA RESULT:    -1.860     14.031     14.463
REMARK INTER + INTRA:          -2.023
REMARK INTER:                  -2.023
REMARK INTRA:                   0.000
REMARK UNBOUND:                 0.000
REMARK SMILES [NH3+]CC(=O)[O-]
REMARK SMILES IDX 2 1 1 2 3 6 4 7 5 8
REMARK H PARENT 1 3 1 4 1 5
REMARK Flexibility Score: inf
ROOT
ATOM      1  C   UNL     1       2.202  -1.860  -5.676  1.00  0.00     0.312 C 
ENDROOT
BRANCH   1   2
ATOM      2  N   UNL     1       3.083  -0.700  -5.793  1.00  0.00    -0.353 N 
ATOM      3  H   UNL     1       2.647   0.113  -5.300  1.00  0.00     0.344 HD
ATOM      4  H   UNL     1       3.218  -0.452  -6.801  1.00  0.00     0.344 HD
ATOM      5  H   UNL     1       4.009  -0.906  -5.352  1.00  0.00     0.344 HD
ENDBRANCH   1   2
BRANCH   1   6
ATOM      6  C   UNL     1       1.124  -1.604  -4.669  1.00  0.00     0.096 C 
ATOM      7  O   UNL     1       1.124  -2.222  -3.571  1.00  0.00    -0.544 OA
ATOM      8  O   UNL     1       0.092  -0.722  -4.962  1.00  0.00    -0.544 OA
ENDBRANCH   1   6
TORSDOF 2
ENDMDL
