MODEL 1
REMARK VINA RESULT:    -3.723      0.000      0.000
REMARK INTER + INTRA:          -5.989
REMARK INTER:                  -5.682
REMARK INTRA:                  -0.307
REMARK UNBOUND:                -0.307
REMARK SMILES O=C([O-])CCCCCCCCC(=O)[O-]
REMARK SMILES IDX 7 1 6 2 5 3 4 4 2 5 1 6 3 7 8 8 9 9 10 10 11 11 12 12 13 13
REMARK SMILES IDX 14 14
REMARK H PARENT
REMARK Flexibility Score: inf
ROOT
ATOM      1  C   UNL     1      45.452 -24.825  -1.777  1.00  0.00     0.000 C 
ENDROOT
BRANCH   1   2
ATOM      2  C   UNL     1      46.125 -24.552  -3.133  1.00  0.00     0.000 C 
BRANCH   2   3
ATOM      3  C   UNL     1      45.279 -25.038  -4.321  1.00  0.00     0.006 C 
BRANCH   3   4
ATOM      4  C   UNL     1      46.103 -25.210  -5.605  1.00  0.00     0.053 C 
BRANCH   4   5
ATOM      5  C   UNL     1      45.804 -24.106  -6.568  1.00  0.00     0.041 C 
ATOM      6  O   UNL     1      45.868 -24.312  -7.808  1.00  0.00    -0.550 OA
ATOM      7  O   UNL     1      45.503 -22.834  -6.097  1.00  0.00    -0.550 OA
ENDBRANCH   4   5
ENDBRANCH   3   4
ENDBRANCH   2   3
ENDBRANCH   1   2
BRANCH   1   8
ATOM      8  C   UNL     1      45.464 -23.596  -0.853  1.00  0.00     0.000 C 
BRANCH   8   9
ATOM      9  C   UNL     1      45.805 -23.952   0.602  1.00  0.00     0.000 C 
BRANCH   9  10
ATOM     10  C   UNL     1      46.057 -25.457   0.754  1.00  0.00     0.006 C 
BRANCH  10  11
ATOM     11  C   UNL     1      45.395 -26.000   2.024  1.00  0.00     0.053 C 
BRANCH  11  12
ATOM     12  C   UNL     1      45.809 -27.416   2.267  1.00  0.00     0.041 C 
ATOM     13  O   UNL     1      46.046 -28.183   1.297  1.00  0.00    -0.550 OA
ATOM     14  O   UNL     1      45.886 -27.905   3.565  1.00  0.00    -0.550 OA
ENDBRANCH  11  12
ENDBRANCH  10  11
ENDBRANCH   9  10
ENDBRANCH   8   9
ENDBRANCH   1   8
TORSDOF 9
ENDMDL
MODEL 2
REMARK VINA RESULT:    -2.902      1.055      7.556
REMARK INTER + INTRA:          -4.736
REMARK INTER:                  -4.427
REMARK INTRA:                  -0.310
REMARK UNBOUND:                -0.307
REMARK SMILES O=C([O-])CCCCCCCCC(=O)[O-]
REMARK SMILES IDX 7 1 6 2 5 3 4 4 2 5 1 6 3 7 8 8 9 9 10 10 11 11 12 12 13 13
REMARK SMILES IDX 14 14
REMARK H PARENT
REMARK Flexibility Score: inf
ROOT
ATOM      1  C   UNL     1      45.242 -25.002  -0.064  1.00  0.00     0.000 C 
ENDROOT
BRANCH   1   2
ATOM      2  C   UNL     1      46.013 -25.385   1.211  1.00  0.00     0.000 C 
BRANCH   2   3
ATOM      3  C   UNL     1      45.144 -26.154   2.219  1.00  0.00     0.006 C 
BRANCH   3   4
ATOM      4  C   UNL     1      45.976 -26.990   3.201  1.00  0.00     0.053 C 
BRANCH   4   5
ATOM      5  C   UNL     1      45.958 -28.432   2.802  1.00  0.00     0.041 C 
ATOM      6  O   UNL     1      46.118 -29.331   3.668  1.00  0.00    -0.550 OA
ATOM      7  O   UNL     1      45.816 -28.782   1.465  1.00  0.00    -0.550 OA
ENDBRANCH   4   5
ENDBRANCH   3   4
ENDBRANCH   2   3
ENDBRANCH   1   2
BRANCH   1   8
ATOM      8  C   UNL     1      45.554 -23.574  -0.538  1.00  0.00     0.000 C 
BRANCH   8   9
ATOM      9  C   UNL     1      46.009 -23.521  -2.005  1.00  0.00     0.000 C 
BRANCH   9  10
ATOM     10  C   UNL     1      45.224 -24.524  -2.859  1.00  0.00     0.006 C 
BRANCH  10  11
ATOM     11  C   UNL     1      46.122 -25.161  -3.924  1.00  0.00     0.053 C 
BRANCH  11  12
ATOM     12  C   UNL     1      45.795 -24.617  -5.278  1.00  0.00     0.041 C 
ATOM     13  O   UNL     1      45.737 -23.373  -5.465  1.00  0.00    -0.550 OA
ATOM     14  O   UNL     1      45.504 -25.484  -6.324  1.00  0.00    -0.550 OA
ENDBRANCH  11  12
ENDBRANCH  10  11
ENDBRANCH   9  10
ENDBRANCH   8   9
ENDBRANCH   1   8
TORSDOF 9
ENDMDL
MODEL 3
REMARK VINA RESULT:    -1.230      1.013      7.695
REMARK INTER + INTRA:          -2.184
REMARK INTER:                  -1.825
REMARK INTRA:                  -0.359
REMARK UNBOUND:                -0.307
REMARK SMILES O=C([O-])CCCCCCCCC(=O)[O-]
REMARK SMILES IDX 7 1 6 2 5 3 4 4 2 5 1 6 3 7 8 8 9 9 10 10 11 11 12 12 13 13
REMARK SMILES IDX 14 14
REMARK H PARENT
REMARK Flexibility Score: inf
ROOT
ATOM      1  C   UNL     1      44.936 -24.141  -1.220  1.00  0.00     0.000 C 
ENDROOT
BRANCH   1   2
ATOM      2  C   UNL     1      45.534 -23.361  -0.036  1.00  0.00     0.000 C 
BRANCH   2   3
ATOM      3  C   UNL     1      45.478 -24.152   1.281  1.00  0.00     0.006 C 
BRANCH   3   4
ATOM      4  C   UNL     1      46.125 -25.539   1.166  1.00  0.00     0.053 C 
BRANCH   4   5
ATOM      5  C   UNL     1      45.535 -26.474   2.174  1.00  0.00     0.041 C 
ATOM      6  O   UNL     1      45.897 -26.420   3.378  1.00  0.00    -0.550 OA
ATOM      7  O   UNL     1      44.620 -27.441   1.774  1.00  0.00    -0.550 OA
ENDBRANCH   4   5
ENDBRANCH   3   4
ENDBRANCH   2   3
ENDBRANCH   1   2
BRANCH   1   8
ATOM      8  C   UNL     1      45.840 -24.114  -2.463  1.00  0.00     0.000 C 
BRANCH   8   9
ATOM      9  C   UNL     1      45.689 -25.370  -3.334  1.00  0.00     0.000 C 
BRANCH   9  10
ATOM     10  C   UNL     1      46.125 -25.092  -4.778  1.00  0.00     0.006 C 
BRANCH  10  11
ATOM     11  C   UNL     1      45.828 -23.643  -5.173  1.00  0.00     0.053 C 
BRANCH  11  12
ATOM     12  C   UNL     1      45.867 -23.486  -6.660  1.00  0.00     0.041 C 
ATOM     13  O   UNL     1      46.067 -22.355  -7.174  1.00  0.00    -0.550 OA
ATOM     14  O   UNL     1      45.633 -24.583  -7.480  1.00  0.00    -0.550 OA
ENDBRANCH  11  12
ENDBRANCH  10  11
ENDBRANCH   9  10
ENDBRANCH   8   9
ENDBRANCH   1   8
TORSDOF 9
ENDMDL
