MODEL 1
REMARK VINA RESULT:    -4.343      0.000      0.000
REMARK INTER + INTRA:          -7.786
REMARK INTER:                  -6.628
REMARK INTRA:                  -1.158
REMARK UNBOUND:                -1.158
REMARK SMILES OC[C@@H]1O[C@](CO)(O[C@@H]2O[C@H](CO)[C@@H](O)[C@@H](O)[C@H]2O)[C@@H](O)[C@H]1O
REMARK SMILES IDX 8 1 9 2 11 3 14 4 10 5 16 6 18 7 12 8 13 9 15 11 17 13 19 15
REMARK SMILES IDX 5 17 20 18 4 19 22 20 3 21 6 22 7 23 21 25 23 27 2 29 1 30
REMARK H PARENT 13 10 15 12 17 14 19 16 7 24 21 26 23 28 1 31
REMARK Flexibility Score: inf
ROOT
ATOM      1  O   UNL     1     105.675 104.217 102.258  1.00  0.00    -0.313 OA
ENDROOT
BRANCH   1   2
ATOM      2  C   UNL     1     104.285 104.358 102.520  1.00  0.00     0.285 C 
ATOM      3  C   UNL     1     103.766 106.681 102.111  1.00  0.00     0.178 C 
ATOM      4  C   UNL     1     104.883 106.971 103.156  1.00  0.00     0.177 C 
ATOM      5  O   UNL     1     103.753 105.337 101.632  1.00  0.00    -0.341 OA
ATOM      6  C   UNL     1     104.791 106.012 104.372  1.00  0.00     0.179 C 
ATOM      7  C   UNL     1     104.060 104.699 104.007  1.00  0.00     0.202 C 
BRANCH   3   8
ATOM      8  C   UNL     1     103.905 107.617 100.899  1.00  0.00     0.191 C 
BRANCH   8   9
ATOM      9  O   UNL     1     103.328 108.866 101.171  1.00  0.00    -0.394 OA
ATOM     10  H   UNL     1     103.241 109.337 100.304  1.00  0.00     0.210 HD
ENDBRANCH   8   9
ENDBRANCH   3   8
BRANCH   4  11
ATOM     11  O   UNL     1     104.879 108.318 103.565  1.00  0.00    -0.387 OA
ATOM     12  H   UNL     1     103.941 108.565 103.782  1.00  0.00     0.211 HD
ENDBRANCH   4  11
BRANCH   6  13
ATOM     13  O   UNL     1     104.148 106.623 105.465  1.00  0.00    -0.387 OA
ATOM     14  H   UNL     1     103.919 107.549 105.188  1.00  0.00     0.211 HD
ENDBRANCH   6  13
BRANCH   7  15
ATOM     15  O   UNL     1     102.677 104.810 104.241  1.00  0.00    -0.385 OA
ATOM     16  H   UNL     1     102.232 104.120 103.686  1.00  0.00     0.211 HD
ENDBRANCH   7  15
ENDBRANCH   1   2
BRANCH   1  17
ATOM     17  C   UNL     1     106.113 102.872 102.080  1.00  0.00     0.224 C 
ATOM     18  C   UNL     1     106.716 102.688 100.679  1.00  0.00     0.208 C 
ATOM     19  O   UNL     1     105.050 101.945 102.218  1.00  0.00    -0.337 OA
ATOM     20  C   UNL     1     106.446 101.231 100.377  1.00  0.00     0.180 C 
ATOM     21  C   UNL     1     105.245 100.903 101.280  1.00  0.00     0.179 C 
BRANCH  17  22
ATOM     22  C   UNL     1     107.136 102.585 103.199  1.00  0.00     0.225 C 
BRANCH  22  23
ATOM     23  O   UNL     1     107.815 103.769 103.530  1.00  0.00    -0.391 OA
ATOM     24  H   UNL     1     107.825 103.839 104.519  1.00  0.00     0.210 HD
ENDBRANCH  22  23
ENDBRANCH  17  22
BRANCH  18  25
ATOM     25  O   UNL     1     108.085 103.007 100.630  1.00  0.00    -0.385 OA
ATOM     26  H   UNL     1     108.503 102.578 101.422  1.00  0.00     0.211 HD
ENDBRANCH  18  25
BRANCH  20  27
ATOM     27  O   UNL     1     107.554 100.438 100.725  1.00  0.00    -0.387 OA
ATOM     28  H   UNL     1     107.196  99.544 100.969  1.00  0.00     0.211 HD
ENDBRANCH  20  27
BRANCH  21  29
ATOM     29  C   UNL     1     103.964 100.705 100.458  1.00  0.00     0.191 C 
BRANCH  29  30
ATOM     30  O   UNL     1     103.441  99.422 100.667  1.00  0.00    -0.394 OA
ATOM     31  H   UNL     1     103.290  99.329 101.644  1.00  0.00     0.210 HD
ENDBRANCH  29  30
ENDBRANCH  21  29
ENDBRANCH   1  17
TORSDOF 13
ENDMDL
MODEL 2
REMARK VINA RESULT:    -4.336      8.940     11.130
REMARK INTER + INTRA:          -7.776
REMARK INTER:                  -6.567
REMARK INTRA:                  -1.209
REMARK UNBOUND:                -1.158
REMARK SMILES OC[C@@H]1O[C@](CO)(O[C@@H]2O[C@H](CO)[C@@H](O)[C@@H](O)[C@H]2O)[C@@H](O)[C@H]1O
REMARK SMILES IDX 8 1 9 2 11 3 14 4 10 5 16 6 18 7 12 8 13 9 15 11 17 13 19 15
REMARK SMILES IDX 5 17 20 18 4 19 22 20 3 21 6 22 7 23 21 25 23 27 2 29 1 30
REMARK H PARENT 13 10 15 12 17 14 19 16 7 24 21 26 23 28 1 31
REMARK Flexibility Score: inf
ROOT
ATOM      1  O   UNL     1     106.190 113.391 102.469  1.00  0.00    -0.313 OA
ENDROOT
BRANCH   1   2
ATOM      2  C   UNL     1     106.944 114.554 102.787  1.00  0.00     0.285 C 
ATOM      3  C   UNL     1     109.216 114.072 102.125  1.00  0.00     0.178 C 
ATOM      4  C   UNL     1     109.081 112.838 103.065  1.00  0.00     0.177 C 
ATOM      5  O   UNL     1     107.976 114.705 101.817  1.00  0.00    -0.341 OA
ATOM      6  C   UNL     1     108.367 113.205 104.392  1.00  0.00     0.179 C 
ATOM      7  C   UNL     1     107.477 114.458 104.231  1.00  0.00     0.202 C 
BRANCH   3   8
ATOM      8  C   UNL     1     109.890 113.672 100.803  1.00  0.00     0.191 C 
BRANCH   8   9
ATOM      9  O   UNL     1     109.425 112.422 100.371  1.00  0.00    -0.394 OA
ATOM     10  H   UNL     1     108.438 112.433 100.468  1.00  0.00     0.210 HD
ENDBRANCH   8   9
ENDBRANCH   3   8
BRANCH   4  11
ATOM     11  O   UNL     1     110.326 112.226 103.305  1.00  0.00    -0.387 OA
ATOM     12  H   UNL     1     110.799 112.763 103.994  1.00  0.00     0.211 HD
ENDBRANCH   4  11
BRANCH   6  13
ATOM     13  O   UNL     1     109.289 113.410 105.435  1.00  0.00    -0.387 OA
ATOM     14  H   UNL     1     110.028 113.963 105.067  1.00  0.00     0.211 HD
ENDBRANCH   6  13
BRANCH   7  15
ATOM     15  O   UNL     1     108.197 115.631 104.526  1.00  0.00    -0.385 OA
ATOM     16  H   UNL     1     107.539 116.309 104.823  1.00  0.00     0.211 HD
ENDBRANCH   7  15
ENDBRANCH   1   2
BRANCH   1  17
ATOM     17  C   UNL     1     104.813 113.632 102.192  1.00  0.00     0.224 C 
ATOM     18  C   UNL     1     104.462 113.160 100.773  1.00  0.00     0.208 C 
ATOM     19  O   UNL     1     104.487 115.009 102.281  1.00  0.00    -0.337 OA
ATOM     20  C   UNL     1     103.327 114.075 100.376  1.00  0.00     0.180 C 
ATOM     21  C   UNL     1     103.541 115.308 101.272  1.00  0.00     0.179 C 
BRANCH  17  22
ATOM     22  C   UNL     1     104.004 112.886 103.274  1.00  0.00     0.225 C 
BRANCH  22  23
ATOM     23  O   UNL     1     104.695 111.726 103.661  1.00  0.00    -0.391 OA
ATOM     24  H   UNL     1     104.077 110.959 103.543  1.00  0.00     0.210 HD
ENDBRANCH  22  23
ENDBRANCH  17  22
BRANCH  18  25
ATOM     25  O   UNL     1     104.103 111.800 100.727  1.00  0.00    -0.385 OA
ATOM     26  H   UNL     1     104.873 111.292 101.095  1.00  0.00     0.211 HD
ENDBRANCH  18  25
BRANCH  20  27
ATOM     27  O   UNL     1     102.085 113.477 100.652  1.00  0.00    -0.387 OA
ATOM     28  H   UNL     1     102.004 112.698 100.040  1.00  0.00     0.211 HD
ENDBRANCH  20  27
BRANCH  21  29
ATOM     29  C   UNL     1     104.025 116.514 100.456  1.00  0.00     0.191 C 
BRANCH  29  30
ATOM     30  O   UNL     1     103.204 117.626 100.693  1.00  0.00    -0.394 OA
ATOM     31  H   UNL     1     102.293 117.277 100.874  1.00  0.00     0.210 HD
ENDBRANCH  29  30
ENDBRANCH  21  29
ENDBRANCH   1  17
TORSDOF 13
ENDMDL
MODEL 3
REMARK VINA RESULT:    -4.308      9.013     11.254
REMARK INTER + INTRA:          -7.732
REMARK INTER:                  -6.558
REMARK INTRA:                  -1.174
REMARK UNBOUND:                -1.158
REMARK SMILES OC[C@@H]1O[C@](CO)(O[C@@H]2O[C@H](CO)[C@@H](O)[C@@H](O)[C@H]2O)[C@@H](O)[C@H]1O
REMARK SMILES IDX 8 1 9 2 11 3 14 4 10 5 16 6 18 7 12 8 13 9 15 11 17 13 19 15
REMARK SMILES IDX 5 17 20 18 4 19 22 20 3 21 6 22 7 23 21 25 23 27 2 29 1 30
REMARK H PARENT 13 10 15 12 17 14 19 16 7 24 21 26 23 28 1 31
REMARK Flexibility Score: inf
ROOT
ATOM      1  O   UNL     1     113.938 108.557 102.611  1.00  0.00    -0.313 OA
ENDROOT
BRANCH   1   2
ATOM      2  C   UNL     1     114.521 107.272 102.787  1.00  0.00     0.285 C 
ATOM      3  C   UNL     1     112.821 105.680 102.147  1.00  0.00     0.178 C 
ATOM      4  C   UNL     1     111.946 106.394 103.219  1.00  0.00     0.177 C 
ATOM      5  O   UNL     1     114.001 106.397 101.790  1.00  0.00    -0.341 OA
ATOM      6  C   UNL     1     112.753 106.695 104.508  1.00  0.00     0.179 C 
ATOM      7  C   UNL     1     114.270 106.772 104.224  1.00  0.00     0.202 C 
BRANCH   3   8
ATOM      8  C   UNL     1     112.008 105.431 100.866  1.00  0.00     0.191 C 
BRANCH   8   9
ATOM      9  O   UNL     1     111.261 104.250 100.978  1.00  0.00    -0.394 OA
ATOM     10  H   UNL     1     110.305 104.512 100.957  1.00  0.00     0.210 HD
ENDBRANCH   8   9
ENDBRANCH   3   8
BRANCH   4  11
ATOM     11  O   UNL     1     110.775 105.667 103.505  1.00  0.00    -0.387 OA
ATOM     12  H   UNL     1     110.044 106.321 103.668  1.00  0.00     0.211 HD
ENDBRANCH   4  11
BRANCH   6  13
ATOM     13  O   UNL     1     112.507 105.736 105.508  1.00  0.00    -0.387 OA
ATOM     14  H   UNL     1     113.120 104.973 105.338  1.00  0.00     0.211 HD
ENDBRANCH   6  13
BRANCH   7  15
ATOM     15  O   UNL     1     114.877 105.511 104.377  1.00  0.00    -0.385 OA
ATOM     16  H   UNL     1     115.744 105.546 103.897  1.00  0.00     0.211 HD
ENDBRANCH   7  15
ENDBRANCH   1   2
BRANCH   1  17
ATOM     17  C   UNL     1     114.856 109.578 102.231  1.00  0.00     0.224 C 
ATOM     18  C   UNL     1     114.575 110.044 100.794  1.00  0.00     0.208 C 
ATOM     19  O   UNL     1     116.201 109.131 102.284  1.00  0.00    -0.337 OA
ATOM     20  C   UNL     1     115.931 110.497 100.307  1.00  0.00     0.180 C 
ATOM     21  C   UNL     1     116.906 109.715 101.205  1.00  0.00     0.179 C 
BRANCH  17  22
ATOM     22  C   UNL     1     114.700 110.721 103.257  1.00  0.00     0.225 C 
BRANCH  22  23
ATOM     23  O   UNL     1     113.359 110.808 103.662  1.00  0.00    -0.391 OA
ATOM     24  H   UNL     1     113.191 111.748 103.935  1.00  0.00     0.210 HD
ENDBRANCH  22  23
ENDBRANCH  17  22
BRANCH  18  25
ATOM     25  O   UNL     1     113.608 111.064 100.734  1.00  0.00    -0.385 OA
ATOM     26  H   UNL     1     113.893 111.680 100.008  1.00  0.00     0.211 HD
ENDBRANCH  18  25
BRANCH  20  27
ATOM     27  O   UNL     1     116.091 111.881 100.496  1.00  0.00    -0.387 OA
ATOM     28  H   UNL     1     115.953 112.051 101.465  1.00  0.00     0.211 HD
ENDBRANCH  20  27
BRANCH  21  29
ATOM     29  C   UNL     1     117.637 108.620 100.417  1.00  0.00     0.191 C 
BRANCH  29  30
ATOM     30  O   UNL     1     119.019 108.692 100.645  1.00  0.00    -0.394 OA
ATOM     31  H   UNL     1     119.446 108.856  99.765  1.00  0.00     0.210 HD
ENDBRANCH  29  30
ENDBRANCH  21  29
ENDBRANCH   1  17
TORSDOF 13
ENDMDL
MODEL 4
REMARK VINA RESULT:    -4.297      7.620      9.766
REMARK INTER + INTRA:          -7.716
REMARK INTER:                  -6.255
REMARK INTRA:                  -1.462
REMARK UNBOUND:                -1.158
REMARK SMILES OC[C@@H]1O[C@](CO)(O[C@@H]2O[C@H](CO)[C@@H](O)[C@@H](O)[C@H]2O)[C@@H](O)[C@H]1O
REMARK SMILES IDX 8 1 9 2 11 3 14 4 10 5 16 6 18 7 12 8 13 9 15 11 17 13 19 15
REMARK SMILES IDX 5 17 20 18 4 19 22 20 3 21 6 22 7 23 21 25 23 27 2 29 1 30
REMARK H PARENT 13 10 15 12 17 14 19 16 7 24 21 26 23 28 1 31
REMARK Flexibility Score: inf
ROOT
ATOM      1  O   UNL     1     104.498 113.234 103.129  1.00  0.00    -0.313 OA
ENDROOT
BRANCH   1   2
ATOM      2  C   UNL     1     104.517 111.813 103.109  1.00  0.00     0.285 C 
ATOM      3  C   UNL     1     102.477 111.138 102.007  1.00  0.00     0.178 C 
ATOM      4  C   UNL     1     101.768 111.985 103.104  1.00  0.00     0.177 C 
ATOM      5  O   UNL     1     103.882 111.367 101.915  1.00  0.00    -0.341 OA
ATOM      6  C   UNL     1     102.401 111.756 104.502  1.00  0.00     0.179 C 
ATOM      7  C   UNL     1     103.861 111.260 104.390  1.00  0.00     0.202 C 
BRANCH   3   8
ATOM      8  C   UNL     1     101.857 111.415 100.628  1.00  0.00     0.191 C 
BRANCH   8   9
ATOM      9  O   UNL     1     101.592 112.783 100.471  1.00  0.00    -0.394 OA
ATOM     10  H   UNL     1     101.829 113.016  99.538  1.00  0.00     0.210 HD
ENDBRANCH   8   9
ENDBRANCH   3   8
BRANCH   4  11
ATOM     11  O   UNL     1     100.380 111.754 103.127  1.00  0.00    -0.387 OA
ATOM     12  H   UNL     1     100.113 111.421 102.229  1.00  0.00     0.211 HD
ENDBRANCH   4  11
BRANCH   6  13
ATOM     13  O   UNL     1     101.649 110.846 105.267  1.00  0.00    -0.387 OA
ATOM     14  H   UNL     1     101.550 110.019 104.724  1.00  0.00     0.211 HD
ENDBRANCH   6  13
BRANCH   7  15
ATOM     15  O   UNL     1     103.915 109.854 104.355  1.00  0.00    -0.385 OA
ATOM     16  H   UNL     1     103.234 109.521 104.994  1.00  0.00     0.211 HD
ENDBRANCH   7  15
ENDBRANCH   1   2
BRANCH   1  17
ATOM     17  C   UNL     1     105.701 113.851 102.675  1.00  0.00     0.224 C 
ATOM     18  C   UNL     1     106.721 112.785 102.247  1.00  0.00     0.208 C 
ATOM     19  O   UNL     1     106.304 114.644 103.684  1.00  0.00    -0.337 OA
ATOM     20  C   UNL     1     108.050 113.455 102.507  1.00  0.00     0.180 C 
ATOM     21  C   UNL     1     107.708 114.508 103.576  1.00  0.00     0.179 C 
BRANCH  17  22
ATOM     22  C   UNL     1     105.310 114.787 101.512  1.00  0.00     0.225 C 
BRANCH  22  23
ATOM     23  O   UNL     1     104.280 114.198 100.761  1.00  0.00    -0.391 OA
ATOM     24  H   UNL     1     103.803 114.928 100.288  1.00  0.00     0.210 HD
ENDBRANCH  22  23
ENDBRANCH  17  22
BRANCH  18  25
ATOM     25  O   UNL     1     106.565 112.392 100.905  1.00  0.00    -0.385 OA
ATOM     26  H   UNL     1     105.603 112.510 100.686  1.00  0.00     0.211 HD
ENDBRANCH  18  25
BRANCH  20  27
ATOM     27  O   UNL     1     108.530 114.076 101.341  1.00  0.00    -0.387 OA
ATOM     28  H   UNL     1     108.230 113.516 100.578  1.00  0.00     0.211 HD
ENDBRANCH  20  27
BRANCH  21  29
ATOM     29  C   UNL     1     108.294 114.129 104.942  1.00  0.00     0.191 C 
BRANCH  29  30
ATOM     30  O   UNL     1     107.389 113.335 105.660  1.00  0.00    -0.394 OA
ATOM     31  H   UNL     1     107.478 113.590 106.615  1.00  0.00     0.210 HD
ENDBRANCH  29  30
ENDBRANCH  21  29
ENDBRANCH   1  17
TORSDOF 13
ENDMDL
MODEL 5
REMARK VINA RESULT:    -4.288      2.043      6.035
REMARK INTER + INTRA:          -7.701
REMARK INTER:                  -6.241
REMARK INTRA:                  -1.460
REMARK UNBOUND:                -1.158
REMARK SMILES OC[C@@H]1O[C@](CO)(O[C@@H]2O[C@H](CO)[C@@H](O)[C@@H](O)[C@H]2O)[C@@H](O)[C@H]1O
REMARK SMILES IDX 8 1 9 2 11 3 14 4 10 5 16 6 18 7 12 8 13 9 15 11 17 13 19 15
REMARK SMILES IDX 5 17 20 18 4 19 22 20 3 21 6 22 7 23 21 25 23 27 2 29 1 30
REMARK H PARENT 13 10 15 12 17 14 19 16 7 24 21 26 23 28 1 31
REMARK Flexibility Score: inf
ROOT
ATOM      1  O   UNL     1     106.682 102.720 103.131  1.00  0.00    -0.313 OA
ENDROOT
BRANCH   1   2
ATOM      2  C   UNL     1     107.902 103.450 103.161  1.00  0.00     0.285 C 
ATOM      3  C   UNL     1     109.544 102.045 102.082  1.00  0.00     0.178 C 
ATOM      4  C   UNL     1     109.135 100.986 103.148  1.00  0.00     0.177 C 
ATOM      5  O   UNL     1     108.643 103.147 101.983  1.00  0.00    -0.341 OA
ATOM      6  C   UNL     1     108.972 101.623 104.553  1.00  0.00     0.179 C 
ATOM      7  C   UNL     1     108.671 103.136 104.460  1.00  0.00     0.202 C 
BRANCH   3   8
ATOM      8  C   UNL     1     109.657 101.395 100.693  1.00  0.00     0.191 C 
BRANCH   8   9
ATOM      9  O   UNL     1     108.605 100.493 100.483  1.00  0.00    -0.394 OA
ATOM     10  H   UNL     1     109.000  99.584 100.497  1.00  0.00     0.210 HD
ENDBRANCH   8   9
ENDBRANCH   3   8
BRANCH   4  11
ATOM     11  O   UNL     1     110.032  99.902 103.178  1.00  0.00    -0.387 OA
ATOM     12  H   UNL     1     110.558  99.921 102.335  1.00  0.00     0.211 HD
ENDBRANCH   4  11
BRANCH   6  13
ATOM     13  O   UNL     1     110.114 101.415 105.350  1.00  0.00    -0.387 OA
ATOM     14  H   UNL     1     110.688 100.759 104.872  1.00  0.00     0.211 HD
ENDBRANCH   6  13
BRANCH   7  15
ATOM     15  O   UNL     1     109.860 103.889 104.475  1.00  0.00    -0.385 OA
ATOM     16  H   UNL     1     109.866 104.405 105.321  1.00  0.00     0.211 HD
ENDBRANCH   7  15
ENDBRANCH   1   2
BRANCH   1  17
ATOM     17  C   UNL     1     105.557 103.461 102.669  1.00  0.00     0.224 C 
ATOM     18  C   UNL     1     105.979 104.886 102.278  1.00  0.00     0.208 C 
ATOM     19  O   UNL     1     104.548 103.567 103.660  1.00  0.00    -0.337 OA
ATOM     20  C   UNL     1     104.728 105.697 102.528  1.00  0.00     0.180 C 
ATOM     21  C   UNL     1     103.965 104.854 103.565  1.00  0.00     0.179 C 
BRANCH  17  22
ATOM     22  C   UNL     1     104.966 102.678 101.478  1.00  0.00     0.225 C 
BRANCH  22  23
ATOM     23  O   UNL     1     106.004 102.080 100.747  1.00  0.00    -0.391 OA
ATOM     24  H   UNL     1     106.497 102.805 100.282  1.00  0.00     0.210 HD
ENDBRANCH  22  23
ENDBRANCH  17  22
BRANCH  18  25
ATOM     25  O   UNL     1     106.423 104.974 100.946  1.00  0.00    -0.385 OA
ATOM     26  H   UNL     1     105.612 104.932 100.374  1.00  0.00     0.211 HD
ENDBRANCH  18  25
BRANCH  20  27
ATOM     27  O   UNL     1     103.974 105.826 101.349  1.00  0.00    -0.387 OA
ATOM     28  H   UNL     1     104.455 106.479 100.776  1.00  0.00     0.211 HD
ENDBRANCH  20  27
BRANCH  21  29
ATOM     29  C   UNL     1     103.973 105.524 104.946  1.00  0.00     0.191 C 
BRANCH  29  30
ATOM     30  O   UNL     1     105.103 105.128 105.676  1.00  0.00    -0.394 OA
ATOM     31  H   UNL     1     105.105 105.661 106.513  1.00  0.00     0.210 HD
ENDBRANCH  29  30
ENDBRANCH  21  29
ENDBRANCH   1  17
TORSDOF 13
ENDMDL
MODEL 6
REMARK VINA RESULT:    -4.273      9.459     11.008
REMARK INTER + INTRA:          -7.680
REMARK INTER:                  -6.222
REMARK INTRA:                  -1.458
REMARK UNBOUND:                -1.158
REMARK SMILES OC[C@@H]1O[C@](CO)(O[C@@H]2O[C@H](CO)[C@@H](O)[C@@H](O)[C@H]2O)[C@@H](O)[C@H]1O
REMARK SMILES IDX 8 1 9 2 11 3 14 4 10 5 16 6 18 7 12 8 13 9 15 11 17 13 19 15
REMARK SMILES IDX 5 17 20 18 4 19 22 20 3 21 6 22 7 23 21 25 23 27 2 29 1 30
REMARK H PARENT 13 10 15 12 17 14 19 16 7 24 21 26 23 28 1 31
REMARK Flexibility Score: inf
ROOT
ATOM      1  O   UNL     1     114.651 109.876 103.167  1.00  0.00    -0.313 OA
ENDROOT
BRANCH   1   2
ATOM      2  C   UNL     1     113.390 110.534 103.172  1.00  0.00     0.285 C 
ATOM      3  C   UNL     1     113.760 112.685 102.138  1.00  0.00     0.178 C 
ATOM      4  C   UNL     1     114.846 112.872 103.239  1.00  0.00     0.177 C 
ATOM      5  O   UNL     1     113.295 111.343 102.004  1.00  0.00    -0.341 OA
ATOM      6  C   UNL     1     114.348 112.378 104.623  1.00  0.00     0.179 C 
ATOM      7  C   UNL     1     113.219 111.332 104.481  1.00  0.00     0.202 C 
BRANCH   3   8
ATOM      8  C   UNL     1     114.293 113.144 100.771  1.00  0.00     0.191 C 
BRANCH   8   9
ATOM      9  O   UNL     1     115.629 112.752 100.606  1.00  0.00    -0.394 OA
ATOM     10  H   UNL     1     115.627 111.769 100.482  1.00  0.00     0.210 HD
ENDBRANCH   8   9
ENDBRANCH   3   8
BRANCH   4  11
ATOM     11  O   UNL     1     115.300 114.202 103.303  1.00  0.00    -0.387 OA
ATOM     12  H   UNL     1     116.293 114.182 103.339  1.00  0.00     0.211 HD
ENDBRANCH   4  11
BRANCH   6  13
ATOM     13  O   UNL     1     113.906 113.447 105.424  1.00  0.00    -0.387 OA
ATOM     14  H   UNL     1     114.715 113.939 105.727  1.00  0.00     0.211 HD
ENDBRANCH   6  13
BRANCH   7  15
ATOM     15  O   UNL     1     111.955 111.952 104.469  1.00  0.00    -0.385 OA
ATOM     16  H   UNL     1     111.354 111.395 105.025  1.00  0.00     0.211 HD
ENDBRANCH   7  15
ENDBRANCH   1   2
BRANCH   1  17
ATOM     17  C   UNL     1     114.621 108.538 102.678  1.00  0.00     0.224 C 
ATOM     18  C   UNL     1     113.197 108.159 102.242  1.00  0.00     0.208 C 
ATOM     19  O   UNL     1     115.034 107.604 103.660  1.00  0.00    -0.337 OA
ATOM     20  C   UNL     1     113.155 106.664 102.462  1.00  0.00     0.180 C 
ATOM     21  C   UNL     1     114.247 106.435 103.523  1.00  0.00     0.179 C 
BRANCH  17  22
ATOM     22  C   UNL     1     115.627 108.468 101.510  1.00  0.00     0.225 C 
BRANCH  22  23
ATOM     23  O   UNL     1     115.610 109.681 100.802  1.00  0.00    -0.391 OA
ATOM     24  H   UNL     1     114.705 110.075 100.910  1.00  0.00     0.210 HD
ENDBRANCH  22  23
ENDBRANCH  17  22
BRANCH  18  25
ATOM     25  O   UNL     1     112.922 108.518 100.910  1.00  0.00    -0.385 OA
ATOM     26  H   UNL     1     112.379 107.781 100.525  1.00  0.00     0.211 HD
ENDBRANCH  18  25
BRANCH  20  27
ATOM     27  O   UNL     1     113.471 105.978 101.277  1.00  0.00    -0.387 OA
ATOM     28  H   UNL     1     113.977 105.166 101.546  1.00  0.00     0.211 HD
ENDBRANCH  20  27
BRANCH  21  29
ATOM     29  C   UNL     1     113.638 106.064 104.881  1.00  0.00     0.191 C 
BRANCH  29  30
ATOM     30  O   UNL     1     113.381 107.217 105.635  1.00  0.00    -0.394 OA
ATOM     31  H   UNL     1     114.097 107.869 105.416  1.00  0.00     0.210 HD
ENDBRANCH  29  30
ENDBRANCH  21  29
ENDBRANCH   1  17
TORSDOF 13
ENDMDL
MODEL 7
REMARK VINA RESULT:    -4.211      9.176     11.926
REMARK INTER + INTRA:          -7.584
REMARK INTER:                  -6.304
REMARK INTRA:                  -1.280
REMARK UNBOUND:                -1.158
REMARK SMILES OC[C@@H]1O[C@](CO)(O[C@@H]2O[C@H](CO)[C@@H](O)[C@@H](O)[C@H]2O)[C@@H](O)[C@H]1O
REMARK SMILES IDX 8 1 9 2 11 3 14 4 10 5 16 6 18 7 12 8 13 9 15 11 17 13 19 15
REMARK SMILES IDX 5 17 20 18 4 19 22 20 3 21 6 22 7 23 21 25 23 27 2 29 1 30
REMARK H PARENT 13 10 15 12 17 14 19 16 7 24 21 26 23 28 1 31
REMARK Flexibility Score: inf
ROOT
ATOM      1  O   UNL     1     113.295 109.976 102.871  1.00  0.00    -0.313 OA
ENDROOT
BRANCH   1   2
ATOM      2  C   UNL     1     114.145 109.339 103.817  1.00  0.00     0.285 C 
ATOM      3  C   UNL     1     114.217 107.010 103.181  1.00  0.00     0.178 C 
ATOM      4  C   UNL     1     112.666 107.072 103.305  1.00  0.00     0.177 C 
ATOM      5  O   UNL     1     114.849 108.289 103.161  1.00  0.00    -0.341 OA
ATOM      6  C   UNL     1     112.224 107.864 104.563  1.00  0.00     0.179 C 
ATOM      7  C   UNL     1     113.317 108.854 105.025  1.00  0.00     0.202 C 
BRANCH   3   8
ATOM      8  C   UNL     1     114.627 106.255 101.906  1.00  0.00     0.191 C 
BRANCH   8   9
ATOM      9  O   UNL     1     114.587 104.870 102.118  1.00  0.00    -0.394 OA
ATOM     10  H   UNL     1     114.816 104.441 101.254  1.00  0.00     0.210 HD
ENDBRANCH   8   9
ENDBRANCH   3   8
BRANCH   4  11
ATOM     11  O   UNL     1     112.089 105.788 103.279  1.00  0.00    -0.387 OA
ATOM     12  H   UNL     1     111.503 105.736 102.478  1.00  0.00     0.211 HD
ENDBRANCH   4  11
BRANCH   6  13
ATOM     13  O   UNL     1     111.886 107.003 105.623  1.00  0.00    -0.387 OA
ATOM     14  H   UNL     1     111.234 106.342 105.267  1.00  0.00     0.211 HD
ENDBRANCH   6  13
BRANCH   7  15
ATOM     15  O   UNL     1     114.185 108.250 105.954  1.00  0.00    -0.385 OA
ATOM     16  H   UNL     1     114.663 107.526 105.476  1.00  0.00     0.211 HD
ENDBRANCH   7  15
ENDBRANCH   1   2
BRANCH   1  17
ATOM     17  C   UNL     1     113.475 111.385 102.765  1.00  0.00     0.224 C 
ATOM     18  C   UNL     1     114.971 111.729 102.689  1.00  0.00     0.208 C 
ATOM     19  O   UNL     1     112.930 112.076 103.876  1.00  0.00    -0.337 OA
ATOM     20  C   UNL     1     115.038 113.110 103.300  1.00  0.00     0.180 C 
ATOM     21  C   UNL     1     113.781 113.164 104.185  1.00  0.00     0.179 C 
BRANCH  17  22
ATOM     22  C   UNL     1     112.707 111.839 101.506  1.00  0.00     0.225 C 
BRANCH  22  23
ATOM     23  O   UNL     1     112.845 110.871 100.498  1.00  0.00    -0.391 OA
ATOM     24  H   UNL     1     112.009 110.335 100.484  1.00  0.00     0.210 HD
ENDBRANCH  22  23
ENDBRANCH  17  22
BRANCH  18  25
ATOM     25  O   UNL     1     115.471 111.693 101.375  1.00  0.00    -0.385 OA
ATOM     26  H   UNL     1     115.265 112.577 100.970  1.00  0.00     0.211 HD
ENDBRANCH  18  25
BRANCH  20  27
ATOM     27  O   UNL     1     114.979 114.099 102.302  1.00  0.00    -0.387 OA
ATOM     28  H   UNL     1     114.064 114.484 102.340  1.00  0.00     0.211 HD
ENDBRANCH  20  27
BRANCH  21  29
ATOM     29  C   UNL     1     114.144 113.124 105.676  1.00  0.00     0.191 C 
BRANCH  29  30
ATOM     30  O   UNL     1     113.461 112.082 106.319  1.00  0.00    -0.394 OA
ATOM     31  H   UNL     1     112.508 112.354 106.373  1.00  0.00     0.210 HD
ENDBRANCH  29  30
ENDBRANCH  21  29
ENDBRANCH   1  17
TORSDOF 13
ENDMDL
MODEL 8
REMARK VINA RESULT:    -4.200      2.656      5.534
REMARK INTER + INTRA:          -7.567
REMARK INTER:                  -6.383
REMARK INTRA:                  -1.184
REMARK UNBOUND:                -1.158
REMARK SMILES OC[C@@H]1O[C@](CO)(O[C@@H]2O[C@H](CO)[C@@H](O)[C@@H](O)[C@H]2O)[C@@H](O)[C@H]1O
REMARK SMILES IDX 8 1 9 2 11 3 14 4 10 5 16 6 18 7 12 8 13 9 15 11 17 13 19 15
REMARK SMILES IDX 5 17 20 18 4 19 22 20 3 21 6 22 7 23 21 25 23 27 2 29 1 30
REMARK H PARENT 13 10 15 12 17 14 19 16 7 24 21 26 23 28 1 31
REMARK Flexibility Score: inf
ROOT
ATOM      1  O   UNL     1     107.492 104.062 102.769  1.00  0.00    -0.313 OA
ENDROOT
BRANCH   1   2
ATOM      2  C   UNL     1     108.914 104.075 102.753  1.00  0.00     0.285 C 
ATOM      3  C   UNL     1     109.610 102.502 104.449  1.00  0.00     0.178 C 
ATOM      4  C   UNL     1     108.741 103.367 105.410  1.00  0.00     0.177 C 
ATOM      5  O   UNL     1     109.383 102.767 103.066  1.00  0.00    -0.341 OA
ATOM      6  C   UNL     1     108.943 104.883 105.155  1.00  0.00     0.179 C 
ATOM      7  C   UNL     1     109.442 105.157 103.717  1.00  0.00     0.202 C 
BRANCH   3   8
ATOM      8  C   UNL     1     109.360 101.006 104.696  1.00  0.00     0.191 C 
BRANCH   8   9
ATOM      9  O   UNL     1     110.038 100.229 103.747  1.00  0.00    -0.394 OA
ATOM     10  H   UNL     1     109.470  99.437 103.565  1.00  0.00     0.210 HD
ENDBRANCH   8   9
ENDBRANCH   3   8
BRANCH   4  11
ATOM     11  O   UNL     1     108.972 103.039 106.759  1.00  0.00    -0.387 OA
ATOM     12  H   UNL     1     108.168 102.563 107.097  1.00  0.00     0.211 HD
ENDBRANCH   4  11
BRANCH   6  13
ATOM     13  O   UNL     1     109.838 105.449 106.082  1.00  0.00    -0.387 OA
ATOM     14  H   UNL     1     109.326 105.616 106.917  1.00  0.00     0.211 HD
ENDBRANCH   6  13
BRANCH   7  15
ATOM     15  O   UNL     1     110.848 105.163 103.663  1.00  0.00    -0.385 OA
ATOM     16  H   UNL     1     111.140 106.097 103.817  1.00  0.00     0.211 HD
ENDBRANCH   7  15
ENDBRANCH   1   2
BRANCH   1  17
ATOM     17  C   UNL     1     106.892 103.308 101.719  1.00  0.00     0.224 C 
ATOM     18  C   UNL     1     106.188 102.066 102.287  1.00  0.00     0.208 C 
ATOM     19  O   UNL     1     107.848 102.866 100.770  1.00  0.00    -0.337 OA
ATOM     20  C   UNL     1     106.269 101.074 101.149  1.00  0.00     0.180 C 
ATOM     21  C   UNL     1     107.478 101.570 100.336  1.00  0.00     0.179 C 
BRANCH  17  22
ATOM     22  C   UNL     1     105.913 104.255 100.994  1.00  0.00     0.225 C 
BRANCH  22  23
ATOM     23  O   UNL     1     105.298 105.102 101.930  1.00  0.00    -0.391 OA
ATOM     24  H   UNL     1     105.941 105.828 102.141  1.00  0.00     0.210 HD
ENDBRANCH  22  23
ENDBRANCH  17  22
BRANCH  18  25
ATOM     25  O   UNL     1     104.865 102.327 102.685  1.00  0.00    -0.385 OA
ATOM     26  H   UNL     1     104.873 103.215 103.130  1.00  0.00     0.211 HD
ENDBRANCH  18  25
BRANCH  20  27
ATOM     27  O   UNL     1     105.101 101.116 100.368  1.00  0.00    -0.387 OA
ATOM     28  H   UNL     1     104.564 100.319 100.620  1.00  0.00     0.211 HD
ENDBRANCH  20  27
BRANCH  21  29
ATOM     29  C   UNL     1     108.675 100.621 100.477  1.00  0.00     0.191 C 
BRANCH  29  30
ATOM     30  O   UNL     1     109.833 101.337 100.811  1.00  0.00    -0.394 OA
ATOM     31  H   UNL     1     109.580 102.297 100.830  1.00  0.00     0.210 HD
ENDBRANCH  29  30
ENDBRANCH  21  29
ENDBRANCH   1  17
TORSDOF 13
ENDMDL
MODEL 9
REMARK VINA RESULT:    -4.195      2.022      3.728
REMARK INTER + INTRA:          -7.561
REMARK INTER:                  -6.138
REMARK INTRA:                  -1.422
REMARK UNBOUND:                -1.158
REMARK SMILES OC[C@@H]1O[C@](CO)(O[C@@H]2O[C@H](CO)[C@@H](O)[C@@H](O)[C@H]2O)[C@@H](O)[C@H]1O
REMARK SMILES IDX 8 1 9 2 11 3 14 4 10 5 16 6 18 7 12 8 13 9 15 11 17 13 19 15
REMARK SMILES IDX 5 17 20 18 4 19 22 20 3 21 6 22 7 23 21 25 23 27 2 29 1 30
REMARK H PARENT 13 10 15 12 17 14 19 16 7 24 21 26 23 28 1 31
REMARK Flexibility Score: inf
ROOT
ATOM      1  O   UNL     1     107.184 104.280 102.966  1.00  0.00    -0.313 OA
ENDROOT
BRANCH   1   2
ATOM      2  C   UNL     1     107.011 103.670 104.239  1.00  0.00     0.285 C 
ATOM      3  C   UNL     1     105.809 105.275 105.586  1.00  0.00     0.178 C 
ATOM      4  C   UNL     1     106.980 106.239 105.233  1.00  0.00     0.177 C 
ATOM      5  O   UNL     1     105.766 104.097 104.782  1.00  0.00    -0.341 OA
ATOM      6  C   UNL     1     108.355 105.526 105.321  1.00  0.00     0.179 C 
ATOM      7  C   UNL     1     108.214 103.996 105.147  1.00  0.00     0.202 C 
BRANCH   3   8
ATOM      8  C   UNL     1     104.458 105.995 105.451  1.00  0.00     0.191 C 
BRANCH   8   9
ATOM      9  O   UNL     1     104.479 106.885 104.367  1.00  0.00    -0.394 OA
ATOM     10  H   UNL     1     104.935 107.708 104.680  1.00  0.00     0.210 HD
ENDBRANCH   8   9
ENDBRANCH   3   8
BRANCH   4  11
ATOM     11  O   UNL     1     106.955 107.402 106.026  1.00  0.00    -0.387 OA
ATOM     12  H   UNL     1     107.008 108.185 105.416  1.00  0.00     0.211 HD
ENDBRANCH   4  11
BRANCH   6  13
ATOM     13  O   UNL     1     109.005 105.805 106.538  1.00  0.00    -0.387 OA
ATOM     14  H   UNL     1     108.678 105.143 107.203  1.00  0.00     0.211 HD
ENDBRANCH   6  13
BRANCH   7  15
ATOM     15  O   UNL     1     108.028 103.361 106.389  1.00  0.00    -0.385 OA
ATOM     16  H   UNL     1     107.075 103.474 106.633  1.00  0.00     0.211 HD
ENDBRANCH   7  15
ENDBRANCH   1   2
BRANCH   1  17
ATOM     17  C   UNL     1     106.743 103.492 101.864  1.00  0.00     0.224 C 
ATOM     18  C   UNL     1     106.227 102.130 102.353  1.00  0.00     0.208 C 
ATOM     19  O   UNL     1     107.785 103.250 100.933  1.00  0.00    -0.337 OA
ATOM     20  C   UNL     1     106.499 101.217 101.179  1.00  0.00     0.180 C 
ATOM     21  C   UNL     1     107.637 101.934 100.433  1.00  0.00     0.179 C 
BRANCH  17  22
ATOM     22  C   UNL     1     105.649 104.307 101.143  1.00  0.00     0.225 C 
BRANCH  22  23
ATOM     23  O   UNL     1     104.867 104.986 102.092  1.00  0.00    -0.391 OA
ATOM     24  H   UNL     1     104.920 105.955 101.881  1.00  0.00     0.210 HD
ENDBRANCH  22  23
ENDBRANCH  17  22
BRANCH  18  25
ATOM     25  O   UNL     1     104.868 102.161 102.712  1.00  0.00    -0.385 OA
ATOM     26  H   UNL     1     104.437 102.837 102.127  1.00  0.00     0.211 HD
ENDBRANCH  18  25
BRANCH  20  27
ATOM     27  O   UNL     1     105.363 101.112 100.358  1.00  0.00    -0.387 OA
ATOM     28  H   UNL     1     105.695 101.036  99.424  1.00  0.00     0.211 HD
ENDBRANCH  20  27
BRANCH  21  29
ATOM     29  C   UNL     1     108.965 101.178 100.578  1.00  0.00     0.191 C 
BRANCH  29  30
ATOM     30  O   UNL     1     108.729  99.816 100.813  1.00  0.00    -0.394 OA
ATOM     31  H   UNL     1     107.861  99.753 101.289  1.00  0.00     0.210 HD
ENDBRANCH  29  30
ENDBRANCH  21  29
ENDBRANCH   1  17
TORSDOF 13
ENDMDL
