MODEL 1
REMARK VINA RESULT:    -4.138      0.000      0.000
REMARK INTER + INTRA:          -4.554
REMARK INTER:                  -4.379
REMARK INTRA:                  -0.175
REMARK UNBOUND:                -0.175
REMARK SMILES CC(C)[C@H]1CC[C@H](C)CC1=O
REMARK SMILES IDX 8 1 7 2 6 3 5 4 4 5 10 6 11 7 9 8 2 9 1 10 3 11
REMARK H PARENT
REMARK Flexibility Score: inf
ROOT
ATOM      1  C   UNL     1     166.902 167.124 169.760  1.00  0.00     0.008 C 
ATOM      2  C   UNL     1     166.567 166.204 168.582  1.00  0.00    -0.007 C 
ATOM      3  C   UNL     1     165.291 165.390 168.876  1.00  0.00     0.004 C 
ATOM      4  C   UNL     1     164.971 164.440 167.713  1.00  0.00     0.012 C 
ATOM      5  C   UNL     1     164.762 165.214 166.393  1.00  0.00     0.058 C 
ATOM      6  C   UNL     1     165.942 166.144 166.156  1.00  0.00     0.136 C 
ATOM      7  O   UNL     1     166.452 166.270 165.054  1.00  0.00    -0.299 OA
ATOM      8  C   UNL     1     166.406 167.022 167.287  1.00  0.00     0.079 C 
ENDROOT
BRANCH   5   9
ATOM      9  C   UNL     1     164.400 164.253 165.214  1.00  0.00    -0.007 C 
ATOM     10  C   UNL     1     164.956 162.837 165.434  1.00  0.00     0.008 C 
ATOM     11  C   UNL     1     162.899 164.198 164.877  1.00  0.00     0.008 C 
ENDBRANCH   5   9
TORSDOF 1
ENDMDL
MODEL 2
REMARK VINA RESULT:    -4.091      1.543      3.475
REMARK INTER + INTRA:          -4.505
REMARK INTER:                  -4.332
REMARK INTRA:                  -0.174
REMARK UNBOUND:                -0.175
REMARK SMILES CC(C)[C@H]1CC[C@H](C)CC1=O
REMARK SMILES IDX 8 1 7 2 6 3 5 4 4 5 10 6 11 7 9 8 2 9 1 10 3 11
REMARK H PARENT
REMARK Flexibility Score: inf
ROOT
ATOM      1  C   UNL     1     164.443 163.924 169.731  1.00  0.00     0.008 C 
ATOM      2  C   UNL     1     164.707 164.893 168.574  1.00  0.00    -0.007 C 
ATOM      3  C   UNL     1     165.913 165.800 168.891  1.00  0.00     0.004 C 
ATOM      4  C   UNL     1     166.158 166.798 167.750  1.00  0.00     0.012 C 
ATOM      5  C   UNL     1     166.433 166.071 166.415  1.00  0.00     0.058 C 
ATOM      6  C   UNL     1     165.331 165.056 166.153  1.00  0.00     0.136 C 
ATOM      7  O   UNL     1     164.837 164.913 165.046  1.00  0.00    -0.299 OA
ATOM      8  C   UNL     1     164.936 164.119 167.262  1.00  0.00     0.079 C 
ENDROOT
BRANCH   5   9
ATOM      9  C   UNL     1     166.719 167.084 165.258  1.00  0.00    -0.007 C 
ATOM     10  C   UNL     1     166.121 168.470 165.544  1.00  0.00     0.008 C 
ATOM     11  C   UNL     1     168.206 167.205 164.875  1.00  0.00     0.008 C 
ENDBRANCH   5   9
TORSDOF 1
ENDMDL
MODEL 3
REMARK VINA RESULT:    -3.836      1.027      4.272
REMARK INTER + INTRA:          -4.235
REMARK INTER:                  -4.064
REMARK INTRA:                  -0.171
REMARK UNBOUND:                -0.175
REMARK SMILES CC(C)[C@H]1CC[C@H](C)CC1=O
REMARK SMILES IDX 8 1 7 2 6 3 5 4 4 5 10 6 11 7 9 8 2 9 1 10 3 11
REMARK H PARENT
REMARK Flexibility Score: inf
ROOT
ATOM      1  C   UNL     1     164.064 163.525 164.913  1.00  0.00     0.008 C 
ATOM      2  C   UNL     1     164.476 164.658 165.858  1.00  0.00    -0.007 C 
ATOM      3  C   UNL     1     164.874 164.096 167.238  1.00  0.00     0.004 C 
ATOM      4  C   UNL     1     165.253 165.231 168.200  1.00  0.00     0.012 C 
ATOM      5  C   UNL     1     166.434 166.063 167.653  1.00  0.00     0.058 C 
ATOM      6  C   UNL     1     166.130 166.503 166.230  1.00  0.00     0.136 C 
ATOM      7  O   UNL     1     166.378 167.632 165.838  1.00  0.00    -0.299 OA
ATOM      8  C   UNL     1     165.629 165.477 165.249  1.00  0.00     0.079 C 
ENDROOT
BRANCH   5   9
ATOM      9  C   UNL     1     166.847 167.197 168.647  1.00  0.00    -0.007 C 
ATOM     10  C   UNL     1     165.625 167.883 169.278  1.00  0.00     0.008 C 
ATOM     11  C   UNL     1     167.841 166.755 169.737  1.00  0.00     0.008 C 
ENDBRANCH   5   9
TORSDOF 1
ENDMDL
MODEL 4
REMARK VINA RESULT:    -3.829      1.716      3.283
REMARK INTER + INTRA:          -4.227
REMARK INTER:                  -4.052
REMARK INTRA:                  -0.176
REMARK UNBOUND:                -0.175
REMARK SMILES CC(C)[C@H]1CC[C@H](C)CC1=O
REMARK SMILES IDX 8 1 7 2 6 3 5 4 4 5 10 6 11 7 9 8 2 9 1 10 3 11
REMARK H PARENT
REMARK Flexibility Score: inf
ROOT
ATOM      1  C   UNL     1     167.160 167.671 164.928  1.00  0.00     0.008 C 
ATOM      2  C   UNL     1     166.765 166.569 165.916  1.00  0.00    -0.007 C 
ATOM      3  C   UNL     1     166.357 167.179 167.273  1.00  0.00     0.004 C 
ATOM      4  C   UNL     1     165.996 166.076 168.278  1.00  0.00     0.012 C 
ATOM      5  C   UNL     1     164.830 165.203 167.764  1.00  0.00     0.058 C 
ATOM      6  C   UNL     1     165.143 164.713 166.359  1.00  0.00     0.136 C 
ATOM      7  O   UNL     1     164.915 163.564 166.012  1.00  0.00    -0.299 OA
ATOM      8  C   UNL     1     165.627 165.708 165.339  1.00  0.00     0.079 C 
ENDROOT
BRANCH   5   9
ATOM      9  C   UNL     1     164.435 164.101 168.802  1.00  0.00    -0.007 C 
ATOM     10  C   UNL     1     165.632 163.666 169.662  1.00  0.00     0.008 C 
ATOM     11  C   UNL     1     163.235 164.470 169.692  1.00  0.00     0.008 C 
ENDBRANCH   5   9
TORSDOF 1
ENDMDL
MODEL 5
REMARK VINA RESULT:    -3.537      2.007      3.690
REMARK INTER + INTRA:          -3.919
REMARK INTER:                  -3.745
REMARK INTRA:                  -0.174
REMARK UNBOUND:                -0.175
REMARK SMILES CC(C)[C@H]1CC[C@H](C)CC1=O
REMARK SMILES IDX 8 1 7 2 6 3 5 4 4 5 10 6 11 7 9 8 2 9 1 10 3 11
REMARK H PARENT
REMARK Flexibility Score: inf
ROOT
ATOM      1  C   UNL     1     166.687 167.170 164.889  1.00  0.00     0.008 C 
ATOM      2  C   UNL     1     166.000 166.672 166.165  1.00  0.00    -0.007 C 
ATOM      3  C   UNL     1     165.420 165.259 165.952  1.00  0.00     0.004 C 
ATOM      4  C   UNL     1     164.699 164.770 167.216  1.00  0.00     0.012 C 
ATOM      5  C   UNL     1     165.654 164.728 168.430  1.00  0.00     0.058 C 
ATOM      6  C   UNL     1     166.357 166.069 168.570  1.00  0.00     0.136 C 
ATOM      7  O   UNL     1     166.515 166.603 169.656  1.00  0.00    -0.299 OA
ATOM      8  C   UNL     1     166.984 166.686 167.349  1.00  0.00     0.079 C 
ENDROOT
BRANCH   5   9
ATOM      9  C   UNL     1     164.932 164.196 169.711  1.00  0.00    -0.007 C 
ATOM     10  C   UNL     1     163.410 164.400 169.641  1.00  0.00     0.008 C 
ATOM     11  C   UNL     1     165.266 162.736 170.067  1.00  0.00     0.008 C 
ENDBRANCH   5   9
TORSDOF 1
ENDMDL
MODEL 6
REMARK VINA RESULT:    -3.521      1.788      4.731
REMARK INTER + INTRA:          -3.902
REMARK INTER:                  -3.730
REMARK INTRA:                  -0.172
REMARK UNBOUND:                -0.175
REMARK SMILES CC(C)[C@H]1CC[C@H](C)CC1=O
REMARK SMILES IDX 8 1 7 2 6 3 5 4 4 5 10 6 11 7 9 8 2 9 1 10 3 11
REMARK H PARENT
REMARK Flexibility Score: inf
ROOT
ATOM      1  C   UNL     1     164.524 164.089 164.902  1.00  0.00     0.008 C 
ATOM      2  C   UNL     1     165.239 164.550 166.176  1.00  0.00    -0.007 C 
ATOM      3  C   UNL     1     165.840 165.957 165.981  1.00  0.00     0.004 C 
ATOM      4  C   UNL     1     166.590 166.408 167.242  1.00  0.00     0.012 C 
ATOM      5  C   UNL     1     165.656 166.442 168.473  1.00  0.00     0.058 C 
ATOM      6  C   UNL     1     164.932 165.110 168.598  1.00  0.00     0.136 C 
ATOM      7  O   UNL     1     164.783 164.557 169.676  1.00  0.00    -0.299 OA
ATOM      8  C   UNL     1     164.275 164.529 167.376  1.00  0.00     0.079 C 
ENDROOT
BRANCH   5   9
ATOM      9  C   UNL     1     166.408 166.936 169.752  1.00  0.00    -0.007 C 
ATOM     10  C   UNL     1     167.931 166.787 169.618  1.00  0.00     0.008 C 
ATOM     11  C   UNL     1     166.041 168.366 170.190  1.00  0.00     0.008 C 
ENDBRANCH   5   9
TORSDOF 1
ENDMDL
MODEL 7
REMARK VINA RESULT:    -3.385      1.944      2.956
REMARK INTER + INTRA:          -3.758
REMARK INTER:                  -3.607
REMARK INTRA:                  -0.151
REMARK UNBOUND:                -0.175
REMARK SMILES CC(C)[C@H]1CC[C@H](C)CC1=O
REMARK SMILES IDX 8 1 7 2 6 3 5 4 4 5 10 6 11 7 9 8 2 9 1 10 3 11
REMARK H PARENT
REMARK Flexibility Score: inf
ROOT
ATOM      1  C   UNL     1     164.829 164.262 171.242  1.00  0.00     0.008 C 
ATOM      2  C   UNL     1     165.458 164.572 169.880  1.00  0.00    -0.007 C 
ATOM      3  C   UNL     1     164.388 164.547 168.770  1.00  0.00     0.004 C 
ATOM      4  C   UNL     1     165.020 164.821 167.398  1.00  0.00     0.012 C 
ATOM      5  C   UNL     1     165.725 166.195 167.366  1.00  0.00     0.058 C 
ATOM      6  C   UNL     1     166.679 166.306 168.545  1.00  0.00     0.136 C 
ATOM      7  O   UNL     1     167.796 166.782 168.427  1.00  0.00    -0.299 OA
ATOM      8  C   UNL     1     166.178 165.933 169.915  1.00  0.00     0.079 C 
ENDROOT
BRANCH   5   9
ATOM      9  C   UNL     1     166.339 166.494 165.959  1.00  0.00    -0.007 C 
ATOM     10  C   UNL     1     165.779 165.558 164.876  1.00  0.00     0.008 C 
ATOM     11  C   UNL     1     166.223 167.963 165.515  1.00  0.00     0.008 C 
ENDBRANCH   5   9
TORSDOF 1
ENDMDL
MODEL 8
REMARK VINA RESULT:    -3.344      1.845      2.701
REMARK INTER + INTRA:          -3.714
REMARK INTER:                  -3.587
REMARK INTRA:                  -0.127
REMARK UNBOUND:                -0.175
REMARK SMILES CC(C)[C@H]1CC[C@H](C)CC1=O
REMARK SMILES IDX 8 1 7 2 6 3 5 4 4 5 10 6 11 7 9 8 2 9 1 10 3 11
REMARK H PARENT
REMARK Flexibility Score: inf
ROOT
ATOM      1  C   UNL     1     166.814 166.969 171.357  1.00  0.00     0.008 C 
ATOM      2  C   UNL     1     166.076 166.669 170.048  1.00  0.00    -0.007 C 
ATOM      3  C   UNL     1     167.048 166.734 168.852  1.00  0.00     0.004 C 
ATOM      4  C   UNL     1     166.306 166.470 167.534  1.00  0.00     0.012 C 
ATOM      5  C   UNL     1     165.626 165.083 167.537  1.00  0.00     0.058 C 
ATOM      6  C   UNL     1     164.779 164.934 168.791  1.00  0.00     0.136 C 
ATOM      7  O   UNL     1     163.664 164.438 168.760  1.00  0.00    -0.299 OA
ATOM      8  C   UNL     1     165.387 165.294 170.119  1.00  0.00     0.079 C 
ENDROOT
BRANCH   5   9
ATOM      9  C   UNL     1     164.900 164.795 166.182  1.00  0.00    -0.007 C 
ATOM     10  C   UNL     1     165.437 165.676 165.043  1.00  0.00     0.008 C 
ATOM     11  C   UNL     1     164.900 163.313 165.764  1.00  0.00     0.008 C 
ENDBRANCH   5   9
TORSDOF 1
ENDMDL
MODEL 9
REMARK VINA RESULT:    -3.119      2.928      4.075
REMARK INTER + INTRA:          -3.476
REMARK INTER:                  -3.301
REMARK INTRA:                  -0.175
REMARK UNBOUND:                -0.175
REMARK SMILES CC(C)[C@H]1CC[C@H](C)CC1=O
REMARK SMILES IDX 8 1 7 2 6 3 5 4 4 5 10 6 11 7 9 8 2 9 1 10 3 11
REMARK H PARENT
REMARK Flexibility Score: inf
ROOT
ATOM      1  C   UNL     1     164.258 162.416 172.552  1.00  0.00     0.008 C 
ATOM      2  C   UNL     1     164.252 162.728 171.052  1.00  0.00    -0.007 C 
ATOM      3  C   UNL     1     163.989 164.229 170.812  1.00  0.00     0.004 C 
ATOM      4  C   UNL     1     163.946 164.540 169.309  1.00  0.00     0.012 C 
ATOM      5  C   UNL     1     165.274 164.161 168.616  1.00  0.00     0.058 C 
ATOM      6  C   UNL     1     165.637 162.726 168.964  1.00  0.00     0.136 C 
ATOM      7  O   UNL     1     166.067 161.949 168.126  1.00  0.00    -0.299 OA
ATOM      8  C   UNL     1     165.582 162.297 170.405  1.00  0.00     0.079 C 
ENDROOT
BRANCH   5   9
ATOM      9  C   UNL     1     165.247 164.511 167.092  1.00  0.00    -0.007 C 
ATOM     10  C   UNL     1     163.823 164.469 166.517  1.00  0.00     0.008 C 
ATOM     11  C   UNL     1     165.936 165.840 166.735  1.00  0.00     0.008 C 
ENDBRANCH   5   9
TORSDOF 1
ENDMDL
