MODEL 1
REMARK VINA RESULT:    -0.541      0.000      0.000
REMARK INTER + INTRA:          -0.672
REMARK INTER:                  -0.620
REMARK INTRA:                  -0.052
REMARK UNBOUND:                -0.052
REMARK SMILES O=C([O-])c1cc(O)c(O)c(O)c1
REMARK SMILES IDX 4 1 5 2 12 3 6 4 10 5 8 6 2 7 1 8 3 9 7 10 11 12 9 14
REMARK H PARENT 7 11 11 13 9 15
REMARK Flexibility Score: inf
ROOT
ATOM      1  C   UNL     1      19.858  20.150  51.554  1.00  0.00     0.005 A 
ATOM      2  C   UNL     1      18.870  20.058  52.545  1.00  0.00     0.060 A 
ATOM      3  C   UNL     1      19.472  20.149  50.204  1.00  0.00     0.060 A 
ATOM      4  C   UNL     1      17.514  19.965  52.206  1.00  0.00     0.162 A 
ATOM      5  C   UNL     1      18.123  20.058  49.848  1.00  0.00     0.162 A 
ATOM      6  C   UNL     1      17.132  19.965  50.842  1.00  0.00     0.200 A 
ENDROOT
BRANCH   1   7
ATOM      7  C   UNL     1      21.286  20.248  51.929  1.00  0.00     0.072 C 
ATOM      8  O   UNL     1      22.139  20.665  51.102  1.00  0.00    -0.545 OA
ATOM      9  O   UNL     1      21.708  19.878  53.201  1.00  0.00    -0.545 OA
ENDBRANCH   1   7
BRANCH   4  10
ATOM     10  O   UNL     1      16.590  19.876  53.249  1.00  0.00    -0.504 OA
ATOM     11  H   UNL     1      15.778  20.469  53.340  1.00  0.00     0.293 HD
ENDBRANCH   4  10
BRANCH   5  12
ATOM     12  O   UNL     1      17.787  20.059  48.495  1.00  0.00    -0.504 OA
ATOM     13  H   UNL     1      17.340  20.852  48.049  1.00  0.00     0.293 HD
ENDBRANCH   5  12
BRANCH   6  14
ATOM     14  O   UNL     1      15.796  19.875  50.444  1.00  0.00    -0.502 OA
ATOM     15  H   UNL     1      15.491  19.489  49.563  1.00  0.00     0.293 HD
ENDBRANCH   6  14
TORSDOF 4
ENDMDL
MODEL 2
REMARK VINA RESULT:     0.869     18.570     19.029
REMARK INTER + INTRA:           0.944
REMARK INTER:                   0.992
REMARK INTRA:                  -0.048
REMARK UNBOUND:                -0.052
REMARK SMILES O=C([O-])c1cc(O)c(O)c(O)c1
REMARK SMILES IDX 4 1 5 2 12 3 6 4 10 5 8 6 2 7 1 8 3 9 7 10 11 12 9 14
REMARK H PARENT 7 11 11 13 9 15
REMARK Flexibility Score: inf
ROOT
ATOM      1  C   UNL     1      16.553  38.224  46.870  1.00  0.00     0.005 A 
ATOM      2  C   UNL     1      15.719  39.187  46.283  1.00  0.00     0.060 A 
ATOM      3  C   UNL     1      15.974  37.179  47.606  1.00  0.00     0.060 A 
ATOM      4  C   UNL     1      14.327  39.119  46.424  1.00  0.00     0.162 A 
ATOM      5  C   UNL     1      14.586  37.095  47.758  1.00  0.00     0.162 A 
ATOM      6  C   UNL     1      13.750  38.062  47.170  1.00  0.00     0.200 A 
ENDROOT
BRANCH   1   7
ATOM      7  C   UNL     1      18.022  38.311  46.710  1.00  0.00     0.072 C 
ATOM      8  O   UNL     1      18.626  39.395  46.924  1.00  0.00    -0.545 OA
ATOM      9  O   UNL     1      18.756  37.197  46.321  1.00  0.00    -0.545 OA
ENDBRANCH   1   7
BRANCH   4  10
ATOM     10  O   UNL     1      13.564  40.114  45.812  1.00  0.00    -0.504 OA
ATOM     11  H   UNL     1      13.212  40.059  44.867  1.00  0.00     0.293 HD
ENDBRANCH   4  10
BRANCH   5  12
ATOM     12  O   UNL     1      14.057  36.040  48.500  1.00  0.00    -0.504 OA
ATOM     13  H   UNL     1      13.076  35.788  48.459  1.00  0.00     0.293 HD
ENDBRANCH   5  12
BRANCH   6  14
ATOM     14  O   UNL     1      12.369  37.941  47.344  1.00  0.00    -0.502 OA
ATOM     15  H   UNL     1      11.828  37.139  47.058  1.00  0.00     0.293 HD
ENDBRANCH   6  14
TORSDOF 4
ENDMDL
MODEL 3
REMARK VINA RESULT:     1.370      1.319      4.850
REMARK INTER + INTRA:           1.518
REMARK INTER:                   1.571
REMARK INTRA:                  -0.053
REMARK UNBOUND:                -0.052
REMARK SMILES O=C([O-])c1cc(O)c(O)c(O)c1
REMARK SMILES IDX 4 1 5 2 12 3 6 4 10 5 8 6 2 7 1 8 3 9 7 10 11 12 9 14
REMARK H PARENT 7 11 11 13 9 15
REMARK Flexibility Score: inf
ROOT
ATOM      1  C   UNL     1      19.018  20.173  50.308  1.00  0.00     0.005 A 
ATOM      2  C   UNL     1      20.306  20.393  49.796  1.00  0.00     0.060 A 
ATOM      3  C   UNL     1      18.855  20.006  51.692  1.00  0.00     0.060 A 
ATOM      4  C   UNL     1      21.420  20.445  50.642  1.00  0.00     0.162 A 
ATOM      5  C   UNL     1      19.956  20.056  52.552  1.00  0.00     0.162 A 
ATOM      6  C   UNL     1      21.247  20.276  52.038  1.00  0.00     0.200 A 
ENDROOT
BRANCH   1   7
ATOM      7  C   UNL     1      17.851  20.120  49.399  1.00  0.00     0.072 C 
ATOM      8  O   UNL     1      16.700  19.877  49.848  1.00  0.00    -0.545 OA
ATOM      9  O   UNL     1      18.009  20.338  48.035  1.00  0.00    -0.545 OA
ENDBRANCH   1   7
BRANCH   4  10
ATOM     10  O   UNL     1      22.668  20.667  50.057  1.00  0.00    -0.504 OA
ATOM     11  H   UNL     1      22.889  20.455  49.095  1.00  0.00     0.293 HD
ENDBRANCH   4  10
BRANCH   5  12
ATOM     12  O   UNL     1      19.746  19.883  53.919  1.00  0.00    -0.504 OA
ATOM     13  H   UNL     1      20.114  19.088  54.428  1.00  0.00     0.293 HD
ENDBRANCH   5  12
BRANCH   6  14
ATOM     14  O   UNL     1      22.321  20.319  52.931  1.00  0.00    -0.502 OA
ATOM     15  H   UNL     1      23.195  19.835  52.792  1.00  0.00     0.293 HD
ENDBRANCH   6  14
TORSDOF 4
ENDMDL
MODEL 4
REMARK VINA RESULT:     1.648     18.614     18.989
REMARK INTER + INTRA:           1.836
REMARK INTER:                   1.884
REMARK INTRA:                  -0.048
REMARK UNBOUND:                -0.052
REMARK SMILES O=C([O-])c1cc(O)c(O)c(O)c1
REMARK SMILES IDX 4 1 5 2 12 3 6 4 10 5 8 6 2 7 1 8 3 9 7 10 11 12 9 14
REMARK H PARENT 7 11 11 13 9 15
REMARK Flexibility Score: inf
ROOT
ATOM      1  C   UNL     1      16.535  38.245  46.852  1.00  0.00     0.005 A 
ATOM      2  C   UNL     1      15.927  37.221  47.595  1.00  0.00     0.060 A 
ATOM      3  C   UNL     1      15.726  39.207  46.228  1.00  0.00     0.060 A 
ATOM      4  C   UNL     1      14.534  37.148  47.716  1.00  0.00     0.162 A 
ATOM      5  C   UNL     1      14.333  39.149  46.339  1.00  0.00     0.162 A 
ATOM      6  C   UNL     1      13.723  38.122  47.083  1.00  0.00     0.200 A 
ENDROOT
BRANCH   1   7
ATOM      7  C   UNL     1      18.009  38.308  46.733  1.00  0.00     0.072 C 
ATOM      8  O   UNL     1      18.626  39.380  46.972  1.00  0.00    -0.545 OA
ATOM      9  O   UNL     1      18.734  37.184  46.355  1.00  0.00    -0.545 OA
ENDBRANCH   1   7
BRANCH   4  10
ATOM     10  O   UNL     1      14.004  36.100  48.471  1.00  0.00    -0.504 OA
ATOM     11  H   UNL     1      14.285  35.135  48.377  1.00  0.00     0.293 HD
ENDBRANCH   4  10
BRANCH   5  12
ATOM     12  O   UNL     1      13.570  40.125  45.700  1.00  0.00    -0.504 OA
ATOM     13  H   UNL     1      13.934  41.047  45.492  1.00  0.00     0.293 HD
ENDBRANCH   5  12
BRANCH   6  14
ATOM     14  O   UNL     1      12.329  38.101  47.170  1.00  0.00    -0.502 OA
ATOM     15  H   UNL     1      11.784  37.272  47.356  1.00  0.00     0.293 HD
ENDBRANCH   6  14
TORSDOF 4
ENDMDL
