MODEL 1
REMARK VINA RESULT:    -3.242      0.000      0.000
REMARK INTER + INTRA:          -8.169
REMARK INTER:                  -6.084
REMARK INTRA:                  -2.085
REMARK UNBOUND:                -2.085
REMARK SMILES O=C([O-])CCCCCCCCCCCCCCC(=O)[O-]
REMARK SMILES IDX 10 1 9 2 8 3 7 4 6 5 5 6 4 7 2 8 1 9 3 10 11 11 12 12 13 13
REMARK SMILES IDX 14 14 15 15 16 16 17 17 18 18 19 19 20 20
REMARK H PARENT
REMARK Flexibility Score: inf
ROOT
ATOM      1  C   UNL     1      59.373  24.499  50.981  1.00  0.00     0.000 C 
ENDROOT
BRANCH   1   2
ATOM      2  C   UNL     1      59.532  25.552  49.872  1.00  0.00     0.000 C 
BRANCH   2   3
ATOM      3  C   UNL     1      60.878  26.288  49.943  1.00  0.00     0.000 C 
BRANCH   3   4
ATOM      4  C   UNL     1      60.692  27.792  49.695  1.00  0.00     0.000 C 
BRANCH   4   5
ATOM      5  C   UNL     1      59.365  28.118  48.991  1.00  0.00     0.000 C 
BRANCH   5   6
ATOM      6  C   UNL     1      58.647  29.328  49.609  1.00  0.00     0.006 C 
BRANCH   6   7
ATOM      7  C   UNL     1      59.058  29.520  51.071  1.00  0.00     0.053 C 
BRANCH   7   8
ATOM      8  C   UNL     1      57.946  30.149  51.850  1.00  0.00     0.041 C 
ATOM      9  O   UNL     1      56.786  29.659  51.807  1.00  0.00    -0.550 OA
ATOM     10  O   UNL     1      58.178  31.307  52.583  1.00  0.00    -0.550 OA
ENDBRANCH   7   8
ENDBRANCH   6   7
ENDBRANCH   5   6
ENDBRANCH   4   5
ENDBRANCH   3   4
ENDBRANCH   2   3
ENDBRANCH   1   2
BRANCH   1  11
ATOM     11  C   UNL     1      58.154  24.763  51.882  1.00  0.00     0.000 C 
BRANCH  11  12
ATOM     12  C   UNL     1      57.561  26.171  51.663  1.00  0.00     0.000 C 
BRANCH  12  13
ATOM     13  C   UNL     1      56.067  26.160  51.297  1.00  0.00     0.000 C 
BRANCH  13  14
ATOM     14  C   UNL     1      55.798  26.639  49.862  1.00  0.00     0.000 C 
BRANCH  14  15
ATOM     15  C   UNL     1      54.408  26.201  49.350  1.00  0.00     0.000 C 
BRANCH  15  16
ATOM     16  C   UNL     1      53.244  26.973  50.002  1.00  0.00     0.006 C 
BRANCH  16  17
ATOM     17  C   UNL     1      53.240  28.476  49.690  1.00  0.00     0.053 C 
BRANCH  17  18
ATOM     18  C   UNL     1      53.380  29.305  50.930  1.00  0.00     0.041 C 
ATOM     19  O   UNL     1      53.345  30.562  50.859  1.00  0.00    -0.550 OA
ATOM     20  O   UNL     1      53.534  28.693  52.167  1.00  0.00    -0.550 OA
ENDBRANCH  17  18
ENDBRANCH  16  17
ENDBRANCH  15  16
ENDBRANCH  14  15
ENDBRANCH  13  14
ENDBRANCH  12  13
ENDBRANCH  11  12
ENDBRANCH   1  11
TORSDOF 15
ENDMDL
MODEL 2
REMARK VINA RESULT:    -3.168     11.072     13.638
REMARK INTER + INTRA:          -8.031
REMARK INTER:                  -6.067
REMARK INTRA:                  -1.965
REMARK UNBOUND:                -2.085
REMARK SMILES O=C([O-])CCCCCCCCCCCCCCC(=O)[O-]
REMARK SMILES IDX 10 1 9 2 8 3 7 4 6 5 5 6 4 7 2 8 1 9 3 10 11 11 12 12 13 13
REMARK SMILES IDX 14 14 15 15 16 16 17 17 18 18 19 19 20 20
REMARK H PARENT
REMARK Flexibility Score: inf
ROOT
ATOM      1  C   UNL     1      60.610  35.693  58.452  1.00  0.00     0.000 C 
ENDROOT
BRANCH   1   2
ATOM      2  C   UNL     1      59.832  34.373  58.332  1.00  0.00     0.000 C 
BRANCH   2   3
ATOM      3  C   UNL     1      60.751  33.143  58.314  1.00  0.00     0.000 C 
BRANCH   3   4
ATOM      4  C   UNL     1      60.298  32.107  59.353  1.00  0.00     0.000 C 
BRANCH   4   5
ATOM      5  C   UNL     1      60.708  32.484  60.786  1.00  0.00     0.000 C 
BRANCH   5   6
ATOM      6  C   UNL     1      60.716  31.277  61.737  1.00  0.00     0.006 C 
BRANCH   6   7
ATOM      7  C   UNL     1      61.050  29.987  60.982  1.00  0.00     0.053 C 
BRANCH   7   8
ATOM      8  C   UNL     1      62.267  29.340  61.562  1.00  0.00     0.041 C 
ATOM      9  O   UNL     1      63.306  30.021  61.778  1.00  0.00    -0.550 OA
ATOM     10  O   UNL     1      62.275  27.974  61.817  1.00  0.00    -0.550 OA
ENDBRANCH   7   8
ENDBRANCH   6   7
ENDBRANCH   5   6
ENDBRANCH   4   5
ENDBRANCH   3   4
ENDBRANCH   2   3
ENDBRANCH   1   2
BRANCH   1  11
ATOM     11  C   UNL     1      59.986  36.661  59.473  1.00  0.00     0.000 C 
BRANCH  11  12
ATOM     12  C   UNL     1      60.969  37.024  60.607  1.00  0.00     0.000 C 
BRANCH  12  13
ATOM     13  C   UNL     1      61.863  35.852  61.046  1.00  0.00     0.000 C 
BRANCH  13  14
ATOM     14  C   UNL     1      63.263  36.300  61.492  1.00  0.00     0.000 C 
BRANCH  14  15
ATOM     15  C   UNL     1      64.374  35.374  60.948  1.00  0.00     0.000 C 
BRANCH  15  16
ATOM     16  C   UNL     1      63.877  34.388  59.873  1.00  0.00     0.006 C 
BRANCH  16  17
ATOM     17  C   UNL     1      64.142  32.913  60.210  1.00  0.00     0.053 C 
BRANCH  17  18
ATOM     18  C   UNL     1      65.006  32.250  59.181  1.00  0.00     0.041 C 
ATOM     19  O   UNL     1      65.640  31.201  59.468  1.00  0.00    -0.550 OA
ATOM     20  O   UNL     1      65.100  32.780  57.901  1.00  0.00    -0.550 OA
ENDBRANCH  17  18
ENDBRANCH  16  17
ENDBRANCH  15  16
ENDBRANCH  14  15
ENDBRANCH  13  14
ENDBRANCH  12  13
ENDBRANCH  11  12
ENDBRANCH   1  11
TORSDOF 15
ENDMDL
MODEL 3
REMARK VINA RESULT:    -3.157     12.203     14.683
REMARK INTER + INTRA:          -8.011
REMARK INTER:                  -6.567
REMARK INTRA:                  -1.444
REMARK UNBOUND:                -2.085
REMARK SMILES O=C([O-])CCCCCCCCCCCCCCC(=O)[O-]
REMARK SMILES IDX 10 1 9 2 8 3 7 4 6 5 5 6 4 7 2 8 1 9 3 10 11 11 12 12 13 13
REMARK SMILES IDX 14 14 15 15 16 16 17 17 18 18 19 19 20 20
REMARK H PARENT
REMARK Flexibility Score: inf
ROOT
ATOM      1  C   UNL     1      62.966  28.911  61.141  1.00  0.00     0.000 C 
ENDROOT
BRANCH   1   2
ATOM      2  C   UNL     1      61.530  29.439  61.003  1.00  0.00     0.000 C 
BRANCH   2   3
ATOM      3  C   UNL     1      61.309  30.760  61.754  1.00  0.00     0.000 C 
BRANCH   3   4
ATOM      4  C   UNL     1      60.768  31.842  60.808  1.00  0.00     0.000 C 
BRANCH   4   5
ATOM      5  C   UNL     1      61.584  33.144  60.867  1.00  0.00     0.000 C 
BRANCH   5   6
ATOM      6  C   UNL     1      62.775  33.142  59.896  1.00  0.00     0.006 C 
BRANCH   6   7
ATOM      7  C   UNL     1      64.055  33.604  60.598  1.00  0.00     0.053 C 
BRANCH   7   8
ATOM      8  C   UNL     1      63.957  35.050  60.969  1.00  0.00     0.041 C 
ATOM      9  O   UNL     1      63.403  35.869  60.188  1.00  0.00    -0.550 OA
ATOM     10  O   UNL     1      64.524  35.505  62.154  1.00  0.00    -0.550 OA
ENDBRANCH   7   8
ENDBRANCH   6   7
ENDBRANCH   5   6
ENDBRANCH   4   5
ENDBRANCH   3   4
ENDBRANCH   2   3
ENDBRANCH   1   2
BRANCH   1  11
ATOM     11  C   UNL     1      63.986  30.027  61.431  1.00  0.00     0.000 C 
BRANCH  11  12
ATOM     12  C   UNL     1      65.326  29.797  60.699  1.00  0.00     0.000 C 
BRANCH  12  13
ATOM     13  C   UNL     1      65.661  28.311  60.480  1.00  0.00     0.000 C 
BRANCH  13  14
ATOM     14  C   UNL     1      67.134  27.980  60.765  1.00  0.00     0.000 C 
BRANCH  14  15
ATOM     15  C   UNL     1      67.719  28.850  61.899  1.00  0.00     0.000 C 
BRANCH  15  16
ATOM     16  C   UNL     1      69.025  29.569  61.507  1.00  0.00     0.006 C 
BRANCH  16  17
ATOM     17  C   UNL     1      69.390  29.434  60.022  1.00  0.00     0.053 C 
BRANCH  17  18
ATOM     18  C   UNL     1      69.754  30.755  59.413  1.00  0.00     0.041 C 
ATOM     19  O   UNL     1      70.733  31.409  59.861  1.00  0.00    -0.550 OA
ATOM     20  O   UNL     1      69.025  31.257  58.344  1.00  0.00    -0.550 OA
ENDBRANCH  17  18
ENDBRANCH  16  17
ENDBRANCH  15  16
ENDBRANCH  14  15
ENDBRANCH  13  14
ENDBRANCH  12  13
ENDBRANCH  11  12
ENDBRANCH   1  11
TORSDOF 15
ENDMDL
MODEL 4
REMARK VINA RESULT:    -3.141     11.526     13.600
REMARK INTER + INTRA:          -7.982
REMARK INTER:                  -6.521
REMARK INTRA:                  -1.461
REMARK UNBOUND:                -2.085
REMARK SMILES O=C([O-])CCCCCCCCCCCCCCC(=O)[O-]
REMARK SMILES IDX 10 1 9 2 8 3 7 4 6 5 5 6 4 7 2 8 1 9 3 10 11 11 12 12 13 13
REMARK SMILES IDX 14 14 15 15 16 16 17 17 18 18 19 19 20 20
REMARK H PARENT
REMARK Flexibility Score: inf
ROOT
ATOM      1  C   UNL     1      61.987  30.388  61.716  1.00  0.00     0.000 C 
ENDROOT
BRANCH   1   2
ATOM      2  C   UNL     1      63.416  30.954  61.695  1.00  0.00     0.000 C 
BRANCH   2   3
ATOM      3  C   UNL     1      64.084  30.824  60.318  1.00  0.00     0.000 C 
BRANCH   3   4
ATOM      4  C   UNL     1      65.390  30.022  60.418  1.00  0.00     0.000 C 
BRANCH   4   5
ATOM      5  C   UNL     1      65.179  28.612  60.992  1.00  0.00     0.000 C 
BRANCH   5   6
ATOM      6  C   UNL     1      64.796  27.585  59.916  1.00  0.00     0.006 C 
BRANCH   6   7
ATOM      7  C   UNL     1      63.297  27.276  59.962  1.00  0.00     0.053 C 
BRANCH   7   8
ATOM      8  C   UNL     1      62.968  26.451  61.165  1.00  0.00     0.041 C 
ATOM      9  O   UNL     1      63.377  25.262  61.250  1.00  0.00    -0.550 OA
ATOM     10  O   UNL     1      62.164  26.975  62.170  1.00  0.00    -0.550 OA
ENDBRANCH   7   8
ENDBRANCH   6   7
ENDBRANCH   5   6
ENDBRANCH   4   5
ENDBRANCH   3   4
ENDBRANCH   2   3
ENDBRANCH   1   2
BRANCH   1  11
ATOM     11  C   UNL     1      60.913  31.475  61.538  1.00  0.00     0.000 C 
BRANCH  11  12
ATOM     12  C   UNL     1      60.495  31.645  60.062  1.00  0.00     0.000 C 
BRANCH  12  13
ATOM     13  C   UNL     1      60.713  33.069  59.520  1.00  0.00     0.000 C 
BRANCH  13  14
ATOM     14  C   UNL     1      61.652  33.908  60.399  1.00  0.00     0.000 C 
BRANCH  14  15
ATOM     15  C   UNL     1      61.182  35.374  60.524  1.00  0.00     0.000 C 
BRANCH  15  16
ATOM     16  C   UNL     1      62.308  36.347  60.924  1.00  0.00     0.006 C 
BRANCH  16  17
ATOM     17  C   UNL     1      63.556  35.656  61.492  1.00  0.00     0.053 C 
BRANCH  17  18
ATOM     18  C   UNL     1      64.810  36.118  60.813  1.00  0.00     0.041 C 
ATOM     19  O   UNL     1      65.800  36.490  61.496  1.00  0.00    -0.550 OA
ATOM     20  O   UNL     1      64.892  36.124  59.427  1.00  0.00    -0.550 OA
ENDBRANCH  17  18
ENDBRANCH  16  17
ENDBRANCH  15  16
ENDBRANCH  14  15
ENDBRANCH  13  14
ENDBRANCH  12  13
ENDBRANCH  11  12
ENDBRANCH   1  11
TORSDOF 15
ENDMDL
MODEL 5
REMARK VINA RESULT:    -3.102     11.070     12.927
REMARK INTER + INTRA:          -7.908
REMARK INTER:                  -5.579
REMARK INTRA:                  -2.329
REMARK UNBOUND:                -2.085
REMARK SMILES O=C([O-])CCCCCCCCCCCCCCC(=O)[O-]
REMARK SMILES IDX 10 1 9 2 8 3 7 4 6 5 5 6 4 7 2 8 1 9 3 10 11 11 12 12 13 13
REMARK SMILES IDX 14 14 15 15 16 16 17 17 18 18 19 19 20 20
REMARK H PARENT
REMARK Flexibility Score: inf
ROOT
ATOM      1  C   UNL     1      62.087  32.156  59.641  1.00  0.00     0.000 C 
ENDROOT
BRANCH   1   2
ATOM      2  C   UNL     1      63.474  32.800  59.481  1.00  0.00     0.000 C 
BRANCH   2   3
ATOM      3  C   UNL     1      64.004  33.398  60.793  1.00  0.00     0.000 C 
BRANCH   3   4
ATOM      4  C   UNL     1      64.234  34.910  60.649  1.00  0.00     0.000 C 
BRANCH   4   5
ATOM      5  C   UNL     1      63.250  35.742  61.487  1.00  0.00     0.000 C 
BRANCH   5   6
ATOM      6  C   UNL     1      61.959  36.079  60.724  1.00  0.00     0.006 C 
BRANCH   6   7
ATOM      7  C   UNL     1      62.254  36.366  59.250  1.00  0.00     0.053 C 
BRANCH   7   8
ATOM      8  C   UNL     1      61.311  35.609  58.369  1.00  0.00     0.041 C 
ATOM      9  O   UNL     1      61.551  35.490  57.137  1.00  0.00    -0.550 OA
ATOM     10  O   UNL     1      60.140  35.077  58.896  1.00  0.00    -0.550 OA
ENDBRANCH   7   8
ENDBRANCH   6   7
ENDBRANCH   5   6
ENDBRANCH   4   5
ENDBRANCH   3   4
ENDBRANCH   2   3
ENDBRANCH   1   2
BRANCH   1  11
ATOM     11  C   UNL     1      61.460  32.428  61.020  1.00  0.00     0.000 C 
BRANCH  11  12
ATOM     12  C   UNL     1      60.721  31.193  61.578  1.00  0.00     0.000 C 
BRANCH  12  13
ATOM     13  C   UNL     1      60.379  30.144  60.506  1.00  0.00     0.000 C 
BRANCH  13  14
ATOM     14  C   UNL     1      60.844  28.729  60.882  1.00  0.00     0.000 C 
BRANCH  14  15
ATOM     15  C   UNL     1      62.114  28.745  61.762  1.00  0.00     0.000 C 
BRANCH  15  16
ATOM     16  C   UNL     1      63.409  28.465  60.974  1.00  0.00     0.006 C 
BRANCH  16  17
ATOM     17  C   UNL     1      64.453  29.586  61.072  1.00  0.00     0.053 C 
BRANCH  17  18
ATOM     18  C   UNL     1      65.417  29.555  59.925  1.00  0.00     0.041 C 
ATOM     19  O   UNL     1      66.136  30.558  59.675  1.00  0.00    -0.550 OA
ATOM     20  O   UNL     1      65.535  28.414  59.142  1.00  0.00    -0.550 OA
ENDBRANCH  17  18
ENDBRANCH  16  17
ENDBRANCH  15  16
ENDBRANCH  14  15
ENDBRANCH  13  14
ENDBRANCH  12  13
ENDBRANCH  11  12
ENDBRANCH   1  11
TORSDOF 15
ENDMDL
MODEL 6
REMARK VINA RESULT:    -3.090     10.748     12.435
REMARK INTER + INTRA:          -7.886
REMARK INTER:                  -6.327
REMARK INTRA:                  -1.559
REMARK UNBOUND:                -2.085
REMARK SMILES O=C([O-])CCCCCCCCCCCCCCC(=O)[O-]
REMARK SMILES IDX 10 1 9 2 8 3 7 4 6 5 5 6 4 7 2 8 1 9 3 10 11 11 12 12 13 13
REMARK SMILES IDX 14 14 15 15 16 16 17 17 18 18 19 19 20 20
REMARK H PARENT
REMARK Flexibility Score: inf
ROOT
ATOM      1  C   UNL     1      63.321  30.804  61.441  1.00  0.00     0.000 C 
ENDROOT
BRANCH   1   2
ATOM      2  C   UNL     1      61.857  30.700  61.899  1.00  0.00     0.000 C 
BRANCH   2   3
ATOM      3  C   UNL     1      60.954  31.752  61.239  1.00  0.00     0.000 C 
BRANCH   3   4
ATOM      4  C   UNL     1      61.782  32.723  60.383  1.00  0.00     0.000 C 
BRANCH   4   5
ATOM      5  C   UNL     1      61.167  34.131  60.319  1.00  0.00     0.000 C 
BRANCH   5   6
ATOM      6  C   UNL     1      62.154  35.229  60.742  1.00  0.00     0.006 C 
BRANCH   6   7
ATOM      7  C   UNL     1      63.520  34.632  61.093  1.00  0.00     0.053 C 
BRANCH   7   8
ATOM      8  C   UNL     1      64.610  35.618  60.817  1.00  0.00     0.041 C 
ATOM      9  O   UNL     1      64.942  35.880  59.630  1.00  0.00    -0.550 OA
ATOM     10  O   UNL     1      65.296  36.211  61.871  1.00  0.00    -0.550 OA
ENDBRANCH   7   8
ENDBRANCH   6   7
ENDBRANCH   5   6
ENDBRANCH   4   5
ENDBRANCH   3   4
ENDBRANCH   2   3
ENDBRANCH   1   2
BRANCH   1  11
ATOM     11  C   UNL     1      63.936  29.435  61.099  1.00  0.00     0.000 C 
BRANCH  11  12
ATOM     12  C   UNL     1      63.383  28.863  59.776  1.00  0.00     0.000 C 
BRANCH  12  13
ATOM     13  C   UNL     1      62.774  27.457  59.919  1.00  0.00     0.000 C 
BRANCH  13  14
ATOM     14  C   UNL     1      62.857  26.911  61.353  1.00  0.00     0.000 C 
BRANCH  14  15
ATOM     15  C   UNL     1      61.494  26.961  62.077  1.00  0.00     0.000 C 
BRANCH  15  16
ATOM     16  C   UNL     1      60.320  27.332  61.150  1.00  0.00     0.006 C 
BRANCH  16  17
ATOM     17  C   UNL     1      59.234  26.251  61.055  1.00  0.00     0.053 C 
BRANCH  17  18
ATOM     18  C   UNL     1      57.864  26.813  61.284  1.00  0.00     0.041 C 
ATOM     19  O   UNL     1      56.844  26.133  60.995  1.00  0.00    -0.550 OA
ATOM     20  O   UNL     1      57.710  28.081  61.828  1.00  0.00    -0.550 OA
ENDBRANCH  17  18
ENDBRANCH  16  17
ENDBRANCH  15  16
ENDBRANCH  14  15
ENDBRANCH  13  14
ENDBRANCH  12  13
ENDBRANCH  11  12
ENDBRANCH   1  11
TORSDOF 15
ENDMDL
MODEL 7
REMARK VINA RESULT:    -3.053      3.150      6.915
REMARK INTER + INTRA:          -7.815
REMARK INTER:                  -6.376
REMARK INTRA:                  -1.439
REMARK UNBOUND:                -2.085
REMARK SMILES O=C([O-])CCCCCCCCCCCCCCC(=O)[O-]
REMARK SMILES IDX 10 1 9 2 8 3 7 4 6 5 5 6 4 7 2 8 1 9 3 10 11 11 12 12 13 13
REMARK SMILES IDX 14 14 15 15 16 16 17 17 18 18 19 19 20 20
REMARK H PARENT
REMARK Flexibility Score: inf
ROOT
ATOM      1  C   UNL     1      59.579  27.026  49.462  1.00  0.00     0.000 C 
ENDROOT
BRANCH   1   2
ATOM      2  C   UNL     1      59.690  28.483  48.984  1.00  0.00     0.000 C 
BRANCH   2   3
ATOM      3  C   UNL     1      58.449  29.318  49.332  1.00  0.00     0.000 C 
BRANCH   3   4
ATOM      4  C   UNL     1      57.772  28.786  50.604  1.00  0.00     0.000 C 
BRANCH   4   5
ATOM      5  C   UNL     1      56.267  28.536  50.416  1.00  0.00     0.000 C 
BRANCH   5   6
ATOM      6  C   UNL     1      55.950  27.077  50.053  1.00  0.00     0.006 C 
BRANCH   6   7
ATOM      7  C   UNL     1      54.614  26.639  50.660  1.00  0.00     0.053 C 
BRANCH   7   8
ATOM      8  C   UNL     1      53.541  26.635  49.618  1.00  0.00     0.041 C 
ATOM      9  O   UNL     1      52.970  27.709  49.291  1.00  0.00    -0.550 OA
ATOM     10  O   UNL     1      53.133  25.437  49.044  1.00  0.00    -0.550 OA
ENDBRANCH   7   8
ENDBRANCH   6   7
ENDBRANCH   5   6
ENDBRANCH   4   5
ENDBRANCH   3   4
ENDBRANCH   2   3
ENDBRANCH   1   2
BRANCH   1  11
ATOM     11  C   UNL     1      60.715  26.625  50.419  1.00  0.00     0.000 C 
BRANCH  11  12
ATOM     12  C   UNL     1      62.103  26.732  49.753  1.00  0.00     0.000 C 
BRANCH  12  13
ATOM     13  C   UNL     1      63.093  27.618  50.530  1.00  0.00     0.000 C 
BRANCH  13  14
ATOM     14  C   UNL     1      63.103  29.075  50.043  1.00  0.00     0.000 C 
BRANCH  14  15
ATOM     15  C   UNL     1      62.436  30.033  51.055  1.00  0.00     0.000 C 
BRANCH  15  16
ATOM     16  C   UNL     1      61.704  31.215  50.389  1.00  0.00     0.006 C 
BRANCH  16  17
ATOM     17  C   UNL     1      62.517  31.911  49.288  1.00  0.00     0.053 C 
BRANCH  17  18
ATOM     18  C   UNL     1      62.248  33.385  49.242  1.00  0.00     0.041 C 
ATOM     19  O   UNL     1      61.777  33.974  50.250  1.00  0.00    -0.550 OA
ATOM     20  O   UNL     1      62.530  34.111  48.093  1.00  0.00    -0.550 OA
ENDBRANCH  17  18
ENDBRANCH  16  17
ENDBRANCH  15  16
ENDBRANCH  14  15
ENDBRANCH  13  14
ENDBRANCH  12  13
ENDBRANCH  11  12
ENDBRANCH   1  11
TORSDOF 15
ENDMDL
MODEL 8
REMARK VINA RESULT:    -3.039      2.963      6.804
REMARK INTER + INTRA:          -7.789
REMARK INTER:                  -5.557
REMARK INTRA:                  -2.232
REMARK UNBOUND:                -2.085
REMARK SMILES O=C([O-])CCCCCCCCCCCCCCC(=O)[O-]
REMARK SMILES IDX 10 1 9 2 8 3 7 4 6 5 5 6 4 7 2 8 1 9 3 10 11 11 12 12 13 13
REMARK SMILES IDX 14 14 15 15 16 16 17 17 18 18 19 19 20 20
REMARK H PARENT
REMARK Flexibility Score: inf
ROOT
ATOM      1  C   UNL     1      58.332  29.389  52.346  1.00  0.00     0.000 C 
ENDROOT
BRANCH   1   2
ATOM      2  C   UNL     1      56.934  29.974  52.093  1.00  0.00     0.000 C 
BRANCH   2   3
ATOM      3  C   UNL     1      55.828  28.910  52.143  1.00  0.00     0.000 C 
BRANCH   3   4
ATOM      4  C   UNL     1      55.062  28.856  50.813  1.00  0.00     0.000 C 
BRANCH   4   5
ATOM      5  C   UNL     1      55.347  27.573  50.015  1.00  0.00     0.000 C 
BRANCH   5   6
ATOM      6  C   UNL     1      56.186  26.557  50.806  1.00  0.00     0.006 C 
BRANCH   6   7
ATOM      7  C   UNL     1      57.368  26.055  49.972  1.00  0.00     0.053 C 
BRANCH   7   8
ATOM      8  C   UNL     1      58.426  25.477  50.857  1.00  0.00     0.041 C 
ATOM      9  O   UNL     1      58.599  25.931  52.020  1.00  0.00    -0.550 OA
ATOM     10  O   UNL     1      59.259  24.471  50.381  1.00  0.00    -0.550 OA
ENDBRANCH   7   8
ENDBRANCH   6   7
ENDBRANCH   5   6
ENDBRANCH   4   5
ENDBRANCH   3   4
ENDBRANCH   2   3
ENDBRANCH   1   2
BRANCH   1  11
ATOM     11  C   UNL     1      59.338  29.749  51.238  1.00  0.00     0.000 C 
BRANCH  11  12
ATOM     12  C   UNL     1      58.790  29.437  49.829  1.00  0.00     0.000 C 
BRANCH  12  13
ATOM     13  C   UNL     1      59.704  28.516  49.003  1.00  0.00     0.000 C 
BRANCH  13  14
ATOM     14  C   UNL     1      60.877  27.947  49.817  1.00  0.00     0.000 C 
BRANCH  14  15
ATOM     15  C   UNL     1      62.187  27.902  49.001  1.00  0.00     0.000 C 
BRANCH  15  16
ATOM     16  C   UNL     1      63.366  28.614  49.695  1.00  0.00     0.006 C 
BRANCH  16  17
ATOM     17  C   UNL     1      62.968  29.895  50.441  1.00  0.00     0.053 C 
BRANCH  17  18
ATOM     18  C   UNL     1      62.881  31.074  49.520  1.00  0.00     0.041 C 
ATOM     19  O   UNL     1      63.857  31.376  48.785  1.00  0.00    -0.550 OA
ATOM     20  O   UNL     1      61.718  31.832  49.461  1.00  0.00    -0.550 OA
ENDBRANCH  17  18
ENDBRANCH  16  17
ENDBRANCH  15  16
ENDBRANCH  14  15
ENDBRANCH  13  14
ENDBRANCH  12  13
ENDBRANCH  11  12
ENDBRANCH   1  11
TORSDOF 15
ENDMDL
MODEL 9
REMARK VINA RESULT:    -3.018      9.907     12.280
REMARK INTER + INTRA:          -7.750
REMARK INTER:                  -5.195
REMARK INTRA:                  -2.555
REMARK UNBOUND:                -2.085
REMARK SMILES O=C([O-])CCCCCCCCCCCCCCC(=O)[O-]
REMARK SMILES IDX 10 1 9 2 8 3 7 4 6 5 5 6 4 7 2 8 1 9 3 10 11 11 12 12 13 13
REMARK SMILES IDX 14 14 15 15 16 16 17 17 18 18 19 19 20 20
REMARK H PARENT
REMARK Flexibility Score: inf
ROOT
ATOM      1  C   UNL     1      61.406  28.455  58.563  1.00  0.00     0.000 C 
ENDROOT
BRANCH   1   2
ATOM      2  C   UNL     1      60.566  29.719  58.319  1.00  0.00     0.000 C 
BRANCH   2   3
ATOM      3  C   UNL     1      59.132  29.589  58.853  1.00  0.00     0.000 C 
BRANCH   3   4
ATOM      4  C   UNL     1      58.950  28.267  59.613  1.00  0.00     0.000 C 
BRANCH   4   5
ATOM      5  C   UNL     1      58.453  28.474  61.053  1.00  0.00     0.000 C 
BRANCH   5   6
ATOM      6  C   UNL     1      58.228  27.149  61.798  1.00  0.00     0.006 C 
BRANCH   6   7
ATOM      7  C   UNL     1      59.387  26.179  61.554  1.00  0.00     0.053 C 
BRANCH   7   8
ATOM      8  C   UNL     1      59.721  25.433  62.807  1.00  0.00     0.041 C 
ATOM      9  O   UNL     1      59.151  24.340  63.065  1.00  0.00    -0.550 OA
ATOM     10  O   UNL     1      60.623  25.971  63.717  1.00  0.00    -0.550 OA
ENDBRANCH   7   8
ENDBRANCH   6   7
ENDBRANCH   5   6
ENDBRANCH   4   5
ENDBRANCH   3   4
ENDBRANCH   2   3
ENDBRANCH   1   2
BRANCH   1  11
ATOM     11  C   UNL     1      62.707  28.744  59.333  1.00  0.00     0.000 C 
BRANCH  11  12
ATOM     12  C   UNL     1      62.758  28.006  60.688  1.00  0.00     0.000 C 
BRANCH  12  13
ATOM     13  C   UNL     1      62.058  28.763  61.829  1.00  0.00     0.000 C 
BRANCH  13  14
ATOM     14  C   UNL     1      62.299  30.280  61.778  1.00  0.00     0.000 C 
BRANCH  14  15
ATOM     15  C   UNL     1      60.978  31.082  61.783  1.00  0.00     0.000 C 
BRANCH  15  16
ATOM     16  C   UNL     1      61.039  32.367  60.934  1.00  0.00     0.006 C 
BRANCH  16  17
ATOM     17  C   UNL     1      62.454  32.741  60.470  1.00  0.00     0.053 C 
BRANCH  17  18
ATOM     18  C   UNL     1      62.560  34.193  60.114  1.00  0.00     0.041 C 
ATOM     19  O   UNL     1      62.271  35.076  60.964  1.00  0.00    -0.550 OA
ATOM     20  O   UNL     1      62.991  34.573  58.849  1.00  0.00    -0.550 OA
ENDBRANCH  17  18
ENDBRANCH  16  17
ENDBRANCH  15  16
ENDBRANCH  14  15
ENDBRANCH  13  14
ENDBRANCH  12  13
ENDBRANCH  11  12
ENDBRANCH   1  11
TORSDOF 15
ENDMDL
