MODEL 1
REMARK VINA RESULT:    -1.968      0.000      0.000
REMARK INTER + INTRA:          -3.082
REMARK INTER:                  -2.659
REMARK INTRA:                  -0.423
REMARK UNBOUND:                -0.423
REMARK SMILES CCCCCCCC(=O)[O-]
REMARK SMILES IDX 5 1 6 2 7 3 8 4 9 5 10 6 4 7 3 8 2 9 1 10
REMARK H PARENT
REMARK Flexibility Score: inf
ROOT
ATOM      1  C   UNL     1     -34.378 -34.808  13.698  1.00  0.00     0.000 C 
ENDROOT
BRANCH   1   2
ATOM      2  C   UNL     1     -34.260 -35.999  14.668  1.00  0.00     0.006 C 
BRANCH   2   3
ATOM      3  C   UNL     1     -34.132 -35.587  16.146  1.00  0.00     0.053 C 
BRANCH   3   4
ATOM      4  C   UNL     1     -32.743 -35.770  16.679  1.00  0.00     0.041 C 
ATOM      5  O   UNL     1     -32.515 -35.650  17.911  1.00  0.00    -0.550 OA
ATOM      6  O   UNL     1     -31.695 -36.045  15.810  1.00  0.00    -0.550 OA
ENDBRANCH   3   4
ENDBRANCH   2   3
ENDBRANCH   1   2
BRANCH   1   7
ATOM      7  C   UNL     1     -33.807 -35.110  12.302  1.00  0.00     0.000 C 
BRANCH   7   8
ATOM      8  C   UNL     1     -32.359 -35.631  12.350  1.00  0.00    -0.000 C 
BRANCH   8   9
ATOM      9  C   UNL     1     -31.288 -34.586  11.994  1.00  0.00    -0.003 C 
ATOM     10  C   UNL     1     -30.821 -33.773  13.202  1.00  0.00     0.004 C 
ENDBRANCH   8   9
ENDBRANCH   7   8
ENDBRANCH   1   7
TORSDOF 6
ENDMDL
MODEL 2
REMARK VINA RESULT:    -1.882      2.519      4.210
REMARK INTER + INTRA:          -2.966
REMARK INTER:                  -2.523
REMARK INTRA:                  -0.443
REMARK UNBOUND:                -0.423
REMARK SMILES CCCCCCCC(=O)[O-]
REMARK SMILES IDX 5 1 6 2 7 3 8 4 9 5 10 6 4 7 3 8 2 9 1 10
REMARK H PARENT
REMARK Flexibility Score: inf
ROOT
ATOM      1  C   UNL     1     -32.360 -33.848  11.875  1.00  0.00     0.000 C 
ENDROOT
BRANCH   1   2
ATOM      2  C   UNL     1     -31.225 -34.864  12.106  1.00  0.00     0.006 C 
BRANCH   2   3
ATOM      3  C   UNL     1     -30.282 -34.490  13.263  1.00  0.00     0.053 C 
BRANCH   3   4
ATOM      4  C   UNL     1     -28.862 -34.897  13.008  1.00  0.00     0.041 C 
ATOM      5  O   UNL     1     -28.439 -36.013  13.407  1.00  0.00    -0.550 OA
ATOM      6  O   UNL     1     -27.998 -34.029  12.352  1.00  0.00    -0.550 OA
ENDBRANCH   3   4
ENDBRANCH   2   3
ENDBRANCH   1   2
BRANCH   1   7
ATOM      7  C   UNL     1     -33.757 -34.435  12.144  1.00  0.00     0.000 C 
BRANCH   7   8
ATOM      8  C   UNL     1     -33.707 -35.896  12.626  1.00  0.00    -0.000 C 
BRANCH   8   9
ATOM      9  C   UNL     1     -34.257 -36.124  14.045  1.00  0.00    -0.003 C 
ATOM     10  C   UNL     1     -33.245 -35.788  15.140  1.00  0.00     0.004 C 
ENDBRANCH   8   9
ENDBRANCH   7   8
ENDBRANCH   1   7
TORSDOF 6
ENDMDL
MODEL 3
REMARK VINA RESULT:    -1.828      1.567      3.228
REMARK INTER + INTRA:          -2.893
REMARK INTER:                  -2.330
REMARK INTRA:                  -0.562
REMARK UNBOUND:                -0.423
REMARK SMILES CCCCCCCC(=O)[O-]
REMARK SMILES IDX 5 1 6 2 7 3 8 4 9 5 10 6 4 7 3 8 2 9 1 10
REMARK H PARENT
REMARK Flexibility Score: inf
ROOT
ATOM      1  C   UNL     1     -31.328 -34.854  12.183  1.00  0.00     0.000 C 
ENDROOT
BRANCH   1   2
ATOM      2  C   UNL     1     -30.202 -34.694  13.222  1.00  0.00     0.006 C 
BRANCH   2   3
ATOM      3  C   UNL     1     -30.028 -35.915  14.143  1.00  0.00     0.053 C 
BRANCH   3   4
ATOM      4  C   UNL     1     -30.289 -35.595  15.584  1.00  0.00     0.041 C 
ATOM      5  O   UNL     1     -31.323 -36.030  16.155  1.00  0.00    -0.550 OA
ATOM      6  O   UNL     1     -29.400 -34.793  16.290  1.00  0.00    -0.550 OA
ENDBRANCH   3   4
ENDBRANCH   2   3
ENDBRANCH   1   2
BRANCH   1   7
ATOM      7  C   UNL     1     -32.204 -36.094  12.429  1.00  0.00     0.000 C 
BRANCH   7   8
ATOM      8  C   UNL     1     -33.695 -35.747  12.591  1.00  0.00    -0.000 C 
BRANCH   8   9
ATOM      9  C   UNL     1     -34.194 -35.717  14.047  1.00  0.00    -0.003 C 
ATOM     10  C   UNL     1     -34.063 -34.340  14.696  1.00  0.00     0.004 C 
ENDBRANCH   8   9
ENDBRANCH   7   8
ENDBRANCH   1   7
TORSDOF 6
ENDMDL
MODEL 4
REMARK VINA RESULT:    -1.769     24.380     25.969
REMARK INTER + INTRA:          -2.813
REMARK INTER:                  -2.463
REMARK INTRA:                  -0.350
REMARK UNBOUND:                -0.423
REMARK SMILES CCCCCCCC(=O)[O-]
REMARK SMILES IDX 5 1 6 2 7 3 8 4 9 5 10 6 4 7 3 8 2 9 1 10
REMARK H PARENT
REMARK Flexibility Score: inf
ROOT
ATOM      1  C   UNL     1     -14.875 -24.360  31.796  1.00  0.00     0.000 C 
ENDROOT
BRANCH   1   2
ATOM      2  C   UNL     1     -15.986 -23.327  32.063  1.00  0.00     0.006 C 
BRANCH   2   3
ATOM      3  C   UNL     1     -17.328 -23.668  31.390  1.00  0.00     0.053 C 
BRANCH   3   4
ATOM      4  C   UNL     1     -18.072 -22.450  30.933  1.00  0.00     0.041 C 
ATOM      5  O   UNL     1     -18.466 -22.357  29.741  1.00  0.00    -0.550 OA
ATOM      6  O   UNL     1     -18.307 -21.406  31.818  1.00  0.00    -0.550 OA
ENDBRANCH   3   4
ENDBRANCH   2   3
ENDBRANCH   1   2
BRANCH   1   7
ATOM      7  C   UNL     1     -15.371 -25.591  31.018  1.00  0.00     0.000 C 
BRANCH   7   8
ATOM      8  C   UNL     1     -15.141 -26.910  31.779  1.00  0.00    -0.000 C 
BRANCH   8   9
ATOM      9  C   UNL     1     -16.117 -28.041  31.413  1.00  0.00    -0.003 C 
ATOM     10  C   UNL     1     -17.486 -27.530  30.964  1.00  0.00     0.004 C 
ENDBRANCH   8   9
ENDBRANCH   7   8
ENDBRANCH   1   7
TORSDOF 6
ENDMDL
MODEL 5
REMARK VINA RESULT:    -1.759     25.326     26.369
REMARK INTER + INTRA:          -2.799
REMARK INTER:                  -2.432
REMARK INTRA:                  -0.367
REMARK UNBOUND:                -0.423
REMARK SMILES CCCCCCCC(=O)[O-]
REMARK SMILES IDX 5 1 6 2 7 3 8 4 9 5 10 6 4 7 3 8 2 9 1 10
REMARK H PARENT
REMARK Flexibility Score: inf
ROOT
ATOM      1  C   UNL     1     -16.733 -25.193  30.689  1.00  0.00     0.000 C 
ENDROOT
BRANCH   1   2
ATOM      2  C   UNL     1     -17.381 -23.981  31.385  1.00  0.00     0.006 C 
BRANCH   2   3
ATOM      3  C   UNL     1     -16.372 -23.046  32.074  1.00  0.00     0.053 C 
BRANCH   3   4
ATOM      4  C   UNL     1     -16.303 -21.693  31.431  1.00  0.00     0.041 C 
ATOM      5  O   UNL     1     -16.822 -20.695  31.995  1.00  0.00    -0.550 OA
ATOM      6  O   UNL     1     -15.689 -21.542  30.194  1.00  0.00    -0.550 OA
ENDBRANCH   3   4
ENDBRANCH   2   3
ENDBRANCH   1   2
BRANCH   1   7
ATOM      7  C   UNL     1     -15.226 -25.316  30.973  1.00  0.00     0.000 C 
BRANCH   7   8
ATOM      8  C   UNL     1     -14.876 -26.560  31.809  1.00  0.00    -0.000 C 
BRANCH   8   9
ATOM      9  C   UNL     1     -15.852 -27.739  31.647  1.00  0.00    -0.003 C 
ATOM     10  C   UNL     1     -15.342 -28.809  30.681  1.00  0.00     0.004 C 
ENDBRANCH   8   9
ENDBRANCH   7   8
ENDBRANCH   1   7
TORSDOF 6
ENDMDL
MODEL 6
REMARK VINA RESULT:    -1.738      1.652      2.706
REMARK INTER + INTRA:          -2.770
REMARK INTER:                  -2.192
REMARK INTRA:                  -0.578
REMARK UNBOUND:                -0.423
REMARK SMILES CCCCCCCC(=O)[O-]
REMARK SMILES IDX 5 1 6 2 7 3 8 4 9 5 10 6 4 7 3 8 2 9 1 10
REMARK H PARENT
REMARK Flexibility Score: inf
ROOT
ATOM      1  C   UNL     1     -30.398 -34.774  14.616  1.00  0.00     0.000 C 
ENDROOT
BRANCH   1   2
ATOM      2  C   UNL     1     -30.970 -35.907  15.488  1.00  0.00     0.006 C 
BRANCH   2   3
ATOM      3  C   UNL     1     -31.889 -35.418  16.621  1.00  0.00     0.053 C 
BRANCH   3   4
ATOM      4  C   UNL     1     -33.278 -35.109  16.148  1.00  0.00     0.041 C 
ATOM      5  O   UNL     1     -33.604 -33.928  15.862  1.00  0.00    -0.550 OA
ATOM      6  O   UNL     1     -34.221 -36.125  16.051  1.00  0.00    -0.550 OA
ENDBRANCH   3   4
ENDBRANCH   2   3
ENDBRANCH   1   2
BRANCH   1   7
ATOM      7  C   UNL     1     -30.990 -34.749  13.196  1.00  0.00     0.000 C 
BRANCH   7   8
ATOM      8  C   UNL     1     -31.886 -35.966  12.902  1.00  0.00    -0.000 C 
BRANCH   8   9
ATOM      9  C   UNL     1     -33.347 -35.621  12.562  1.00  0.00    -0.003 C 
ATOM     10  C   UNL     1     -33.519 -34.195  12.042  1.00  0.00     0.004 C 
ENDBRANCH   8   9
ENDBRANCH   7   8
ENDBRANCH   1   7
TORSDOF 6
ENDMDL
MODEL 7
REMARK VINA RESULT:    -1.726     25.386     26.350
REMARK INTER + INTRA:          -2.755
REMARK INTER:                  -2.406
REMARK INTRA:                  -0.349
REMARK UNBOUND:                -0.423
REMARK SMILES CCCCCCCC(=O)[O-]
REMARK SMILES IDX 5 1 6 2 7 3 8 4 9 5 10 6 4 7 3 8 2 9 1 10
REMARK H PARENT
REMARK Flexibility Score: inf
ROOT
ATOM      1  C   UNL     1     -16.509 -21.372  30.389  1.00  0.00     0.000 C 
ENDROOT
BRANCH   1   2
ATOM      2  C   UNL     1     -17.004 -21.165  31.832  1.00  0.00     0.006 C 
BRANCH   2   3
ATOM      3  C   UNL     1     -18.476 -20.726  31.929  1.00  0.00     0.053 C 
BRANCH   3   4
ATOM      4  C   UNL     1     -19.403 -21.642  31.188  1.00  0.00     0.041 C 
ATOM      5  O   UNL     1     -19.402 -22.878  31.428  1.00  0.00    -0.550 OA
ATOM      6  O   UNL     1     -20.251 -21.133  30.212  1.00  0.00    -0.550 OA
ENDBRANCH   3   4
ENDBRANCH   2   3
ENDBRANCH   1   2
BRANCH   1   7
ATOM      7  C   UNL     1     -15.661 -22.644  30.220  1.00  0.00     0.000 C 
BRANCH   7   8
ATOM      8  C   UNL     1     -15.560 -23.469  31.516  1.00  0.00    -0.000 C 
BRANCH   8   9
ATOM      9  C   UNL     1     -15.955 -24.949  31.368  1.00  0.00    -0.003 C 
ATOM     10  C   UNL     1     -14.875 -25.909  31.866  1.00  0.00     0.004 C 
ENDBRANCH   8   9
ENDBRANCH   7   8
ENDBRANCH   1   7
TORSDOF 6
ENDMDL
MODEL 8
REMARK VINA RESULT:    -1.720     25.329     26.345
REMARK INTER + INTRA:          -2.747
REMARK INTER:                  -2.524
REMARK INTRA:                  -0.222
REMARK UNBOUND:                -0.423
REMARK SMILES CCCCCCCC(=O)[O-]
REMARK SMILES IDX 5 1 6 2 7 3 8 4 9 5 10 6 4 7 3 8 2 9 1 10
REMARK H PARENT
REMARK Flexibility Score: inf
ROOT
ATOM      1  C   UNL     1     -17.665 -20.743  31.741  1.00  0.00     0.000 C 
ENDROOT
BRANCH   1   2
ATOM      2  C   UNL     1     -18.883 -21.349  31.019  1.00  0.00     0.006 C 
BRANCH   2   3
ATOM      3  C   UNL     1     -20.147 -21.433  31.893  1.00  0.00     0.053 C 
BRANCH   3   4
ATOM      4  C   UNL     1     -21.184 -20.421  31.511  1.00  0.00     0.041 C 
ATOM      5  O   UNL     1     -20.979 -19.195  31.709  1.00  0.00    -0.550 OA
ATOM      6  O   UNL     1     -22.390 -20.836  30.960  1.00  0.00    -0.550 OA
ENDBRANCH   3   4
ENDBRANCH   2   3
ENDBRANCH   1   2
BRANCH   1   7
ATOM      7  C   UNL     1     -16.375 -21.554  31.530  1.00  0.00     0.000 C 
BRANCH   7   8
ATOM      8  C   UNL     1     -16.459 -22.974  32.120  1.00  0.00    -0.000 C 
BRANCH   8   9
ATOM      9  C   UNL     1     -15.269 -23.885  31.775  1.00  0.00    -0.003 C 
ATOM     10  C   UNL     1     -15.682 -25.152  31.027  1.00  0.00     0.004 C 
ENDBRANCH   8   9
ENDBRANCH   7   8
ENDBRANCH   1   7
TORSDOF 6
ENDMDL
MODEL 9
REMARK VINA RESULT:    -1.188      2.568      4.301
REMARK INTER + INTRA:          -2.028
REMARK INTER:                  -1.527
REMARK INTRA:                  -0.501
REMARK UNBOUND:                -0.423
REMARK SMILES CCCCCCCC(=O)[O-]
REMARK SMILES IDX 5 1 6 2 7 3 8 4 9 5 10 6 4 7 3 8 2 9 1 10
REMARK H PARENT
REMARK Flexibility Score: inf
ROOT
ATOM      1  C   UNL     1     -30.137 -34.547  13.022  1.00  0.00     0.000 C 
ENDROOT
BRANCH   1   2
ATOM      2  C   UNL     1     -31.215 -34.263  11.959  1.00  0.00     0.006 C 
BRANCH   2   3
ATOM      3  C   UNL     1     -32.556 -34.969  12.229  1.00  0.00     0.053 C 
BRANCH   3   4
ATOM      4  C   UNL     1     -33.607 -34.037  12.751  1.00  0.00     0.041 C 
ATOM      5  O   UNL     1     -33.884 -34.015  13.978  1.00  0.00    -0.550 OA
ATOM      6  O   UNL     1     -34.300 -33.211  11.875  1.00  0.00    -0.550 OA
ENDBRANCH   3   4
ENDBRANCH   2   3
ENDBRANCH   1   2
BRANCH   1   7
ATOM      7  C   UNL     1     -30.148 -36.003  13.517  1.00  0.00     0.000 C 
BRANCH   7   8
ATOM      8  C   UNL     1     -30.085 -36.111  15.052  1.00  0.00    -0.000 C 
BRANCH   8   9
ATOM      9  C   UNL     1     -30.865 -35.021  15.806  1.00  0.00    -0.003 C 
ATOM     10  C   UNL     1     -32.097 -35.560  16.532  1.00  0.00     0.004 C 
ENDBRANCH   8   9
ENDBRANCH   7   8
ENDBRANCH   1   7
TORSDOF 6
ENDMDL
