MODEL 1
REMARK VINA RESULT:    -4.449      0.000      0.000
REMARK INTER + INTRA:          -6.296
REMARK INTER:                  -5.879
REMARK INTRA:                  -0.417
REMARK UNBOUND:                -0.417
REMARK SMILES C=C[C@H](O)CCCCC
REMARK SMILES IDX 6 1 7 2 8 3 9 4 5 5 3 6 2 7 1 8 4 9
REMARK H PARENT 4 10
REMARK Flexibility Score: inf
ROOT
ATOM      1  C   UNL     1      14.724  16.278  26.384  1.00  0.00     0.003 C 
ENDROOT
BRANCH   1   2
ATOM      2  C   UNL     1      14.639  16.619  27.880  1.00  0.00    -0.000 C 
BRANCH   2   3
ATOM      3  C   UNL     1      13.834  15.581  28.678  1.00  0.00    -0.003 C 
ATOM      4  C   UNL     1      14.744  14.770  29.597  1.00  0.00     0.004 C 
ENDBRANCH   2   3
ENDBRANCH   1   2
BRANCH   1   5
ATOM      5  C   UNL     1      13.479  15.530  25.875  1.00  0.00     0.036 C 
BRANCH   5   6
ATOM      6  C   UNL     1      12.753  16.304  24.753  1.00  0.00     0.136 C 
BRANCH   6   7
ATOM      7  C   UNL     1      12.167  17.616  25.227  1.00  0.00    -0.004 C 
ATOM      8  C   UNL     1      11.331  17.703  26.267  1.00  0.00     0.007 C 
ENDBRANCH   6   7
BRANCH   6   9
ATOM      9  O   UNL     1      11.760  15.511  24.152  1.00  0.00    -0.389 OA
ATOM     10  H   UNL     1      11.180  15.149  24.872  1.00  0.00     0.211 HD
ENDBRANCH   6   9
ENDBRANCH   5   6
ENDBRANCH   1   5
TORSDOF 6
ENDMDL
MODEL 2
REMARK VINA RESULT:    -4.349      1.890      2.801
REMARK INTER + INTRA:          -6.164
REMARK INTER:                  -6.063
REMARK INTRA:                  -0.100
REMARK UNBOUND:                -0.417
REMARK SMILES C=C[C@H](O)CCCCC
REMARK SMILES IDX 6 1 7 2 8 3 9 4 5 5 3 6 2 7 1 8 4 9
REMARK H PARENT 4 10
REMARK Flexibility Score: inf
ROOT
ATOM      1  C   UNL     1      13.908  15.133  29.438  1.00  0.00     0.003 C 
ENDROOT
BRANCH   1   2
ATOM      2  C   UNL     1      15.123  14.390  30.015  1.00  0.00    -0.000 C 
BRANCH   2   3
ATOM      3  C   UNL     1      14.867  13.844  31.429  1.00  0.00    -0.003 C 
ATOM      4  C   UNL     1      15.579  12.510  31.639  1.00  0.00     0.004 C 
ENDBRANCH   2   3
ENDBRANCH   1   2
BRANCH   1   5
ATOM      5  C   UNL     1      14.265  15.984  28.207  1.00  0.00     0.036 C 
BRANCH   5   6
ATOM      6  C   UNL     1      13.086  16.094  27.215  1.00  0.00     0.136 C 
BRANCH   6   7
ATOM      7  C   UNL     1      12.519  17.494  27.128  1.00  0.00    -0.004 C 
ATOM      8  C   UNL     1      11.441  17.795  26.396  1.00  0.00     0.007 C 
ENDBRANCH   6   7
BRANCH   6   9
ATOM      9  O   UNL     1      12.073  15.172  27.531  1.00  0.00    -0.389 OA
ATOM     10  H   UNL     1      12.312  14.301  27.119  1.00  0.00     0.211 HD
ENDBRANCH   6   9
ENDBRANCH   5   6
ENDBRANCH   1   5
TORSDOF 6
ENDMDL
MODEL 3
REMARK VINA RESULT:    -4.341      2.071      3.129
REMARK INTER + INTRA:          -6.154
REMARK INTER:                  -5.898
REMARK INTRA:                  -0.256
REMARK UNBOUND:                -0.417
REMARK SMILES C=C[C@H](O)CCCCC
REMARK SMILES IDX 6 1 7 2 8 3 9 4 5 5 3 6 2 7 1 8 4 9
REMARK H PARENT 4 10
REMARK Flexibility Score: inf
ROOT
ATOM      1  C   UNL     1      15.382  15.146  28.837  1.00  0.00     0.003 C 
ENDROOT
BRANCH   1   2
ATOM      2  C   UNL     1      14.461  14.608  29.943  1.00  0.00    -0.000 C 
BRANCH   2   3
ATOM      3  C   UNL     1      15.121  13.497  30.775  1.00  0.00    -0.003 C 
ATOM      4  C   UNL     1      14.760  13.629  32.252  1.00  0.00     0.004 C 
ENDBRANCH   2   3
ENDBRANCH   1   2
BRANCH   1   5
ATOM      5  C   UNL     1      14.733  16.283  28.028  1.00  0.00     0.036 C 
BRANCH   5   6
ATOM      6  C   UNL     1      13.198  16.133  27.943  1.00  0.00     0.136 C 
BRANCH   6   7
ATOM      7  C   UNL     1      12.740  15.498  26.649  1.00  0.00    -0.004 C 
ATOM      8  C   UNL     1      13.421  15.612  25.503  1.00  0.00     0.007 C 
ENDBRANCH   6   7
BRANCH   6   9
ATOM      9  O   UNL     1      12.558  17.370  28.137  1.00  0.00    -0.389 OA
ATOM     10  H   UNL     1      13.215  17.995  28.541  1.00  0.00     0.211 HD
ENDBRANCH   6   9
ENDBRANCH   5   6
ENDBRANCH   1   5
TORSDOF 6
ENDMDL
MODEL 4
REMARK VINA RESULT:    -4.294      1.712      4.362
REMARK INTER + INTRA:          -6.091
REMARK INTER:                  -5.828
REMARK INTRA:                  -0.263
REMARK UNBOUND:                -0.417
REMARK SMILES C=C[C@H](O)CCCCC
REMARK SMILES IDX 6 1 7 2 8 3 9 4 5 5 3 6 2 7 1 8 4 9
REMARK H PARENT 4 10
REMARK Flexibility Score: inf
ROOT
ATOM      1  C   UNL     1      14.733  16.373  26.565  1.00  0.00     0.003 C 
ENDROOT
BRANCH   1   2
ATOM      2  C   UNL     1      14.402  17.218  25.325  1.00  0.00    -0.000 C 
BRANCH   2   3
ATOM      3  C   UNL     1      12.891  17.399  25.118  1.00  0.00    -0.003 C 
ATOM      4  C   UNL     1      12.264  16.142  24.523  1.00  0.00     0.004 C 
ENDBRANCH   2   3
ENDBRANCH   1   2
BRANCH   1   5
ATOM      5  C   UNL     1      14.161  16.974  27.861  1.00  0.00     0.036 C 
BRANCH   5   6
ATOM      6  C   UNL     1      13.686  15.883  28.846  1.00  0.00     0.136 C 
BRANCH   6   7
ATOM      7  C   UNL     1      14.793  14.937  29.256  1.00  0.00    -0.004 C 
ATOM      8  C   UNL     1      14.767  14.243  30.399  1.00  0.00     0.007 C 
ENDBRANCH   6   7
BRANCH   6   9
ATOM      9  O   UNL     1      12.597  15.167  28.319  1.00  0.00    -0.389 OA
ATOM     10  H   UNL     1      12.087  15.777  27.724  1.00  0.00     0.211 HD
ENDBRANCH   6   9
ENDBRANCH   5   6
ENDBRANCH   1   5
TORSDOF 6
ENDMDL
MODEL 5
REMARK VINA RESULT:    -4.286      1.615      4.417
REMARK INTER + INTRA:          -6.080
REMARK INTER:                  -5.876
REMARK INTRA:                  -0.204
REMARK UNBOUND:                -0.417
REMARK SMILES C=C[C@H](O)CCCCC
REMARK SMILES IDX 6 1 7 2 8 3 9 4 5 5 3 6 2 7 1 8 4 9
REMARK H PARENT 4 10
REMARK Flexibility Score: inf
ROOT
ATOM      1  C   UNL     1      13.068  15.464  25.887  1.00  0.00     0.003 C 
ENDROOT
BRANCH   1   2
ATOM      2  C   UNL     1      12.993  16.502  24.756  1.00  0.00    -0.000 C 
BRANCH   2   3
ATOM      3  C   UNL     1      11.712  17.350  24.815  1.00  0.00    -0.003 C 
ATOM      4  C   UNL     1      11.362  17.717  26.254  1.00  0.00     0.004 C 
ENDBRANCH   2   3
ENDBRANCH   1   2
BRANCH   1   5
ATOM      5  C   UNL     1      14.328  15.624  26.755  1.00  0.00     0.036 C 
BRANCH   5   6
ATOM      6  C   UNL     1      14.000  15.613  28.264  1.00  0.00     0.136 C 
BRANCH   6   7
ATOM      7  C   UNL     1      15.019  14.851  29.083  1.00  0.00    -0.004 C 
ATOM      8  C   UNL     1      14.742  14.329  30.282  1.00  0.00     0.007 C 
ENDBRANCH   6   7
BRANCH   6   9
ATOM      9  O   UNL     1      12.707  15.110  28.496  1.00  0.00    -0.389 OA
ATOM     10  H   UNL     1      12.212  15.776  29.040  1.00  0.00     0.211 HD
ENDBRANCH   6   9
ENDBRANCH   5   6
ENDBRANCH   1   5
TORSDOF 6
ENDMDL
MODEL 6
REMARK VINA RESULT:    -4.245      1.971      4.324
REMARK INTER + INTRA:          -6.026
REMARK INTER:                  -5.718
REMARK INTRA:                  -0.309
REMARK UNBOUND:                -0.417
REMARK SMILES C=C[C@H](O)CCCCC
REMARK SMILES IDX 6 1 7 2 8 3 9 4 5 5 3 6 2 7 1 8 4 9
REMARK H PARENT 4 10
REMARK Flexibility Score: inf
ROOT
ATOM      1  C   UNL     1      13.592  15.498  25.657  1.00  0.00     0.003 C 
ENDROOT
BRANCH   1   2
ATOM      2  C   UNL     1      14.070  16.900  25.248  1.00  0.00    -0.000 C 
BRANCH   2   3
ATOM      3  C   UNL     1      12.923  17.795  24.753  1.00  0.00    -0.003 C 
ATOM      4  C   UNL     1      12.121  17.102  23.655  1.00  0.00     0.004 C 
ENDBRANCH   2   3
ENDBRANCH   1   2
BRANCH   1   5
ATOM      5  C   UNL     1      12.709  15.517  26.917  1.00  0.00     0.036 C 
BRANCH   5   6
ATOM      6  C   UNL     1      13.358  16.315  28.069  1.00  0.00     0.136 C 
BRANCH   6   7
ATOM      7  C   UNL     1      13.712  15.449  29.258  1.00  0.00    -0.004 C 
ATOM      8  C   UNL     1      14.905  14.862  29.399  1.00  0.00     0.007 C 
ENDBRANCH   6   7
BRANCH   6   9
ATOM      9  O   UNL     1      12.538  17.385  28.467  1.00  0.00    -0.389 OA
ATOM     10  H   UNL     1      13.119  18.175  28.624  1.00  0.00     0.211 HD
ENDBRANCH   6   9
ENDBRANCH   5   6
ENDBRANCH   1   5
TORSDOF 6
ENDMDL
MODEL 7
REMARK VINA RESULT:    -4.226      1.207      1.443
REMARK INTER + INTRA:          -6.001
REMARK INTER:                  -5.634
REMARK INTRA:                  -0.367
REMARK UNBOUND:                -0.417
REMARK SMILES C=C[C@H](O)CCCCC
REMARK SMILES IDX 6 1 7 2 8 3 9 4 5 5 3 6 2 7 1 8 4 9
REMARK H PARENT 4 10
REMARK Flexibility Score: inf
ROOT
ATOM      1  C   UNL     1      14.758  16.678  27.332  1.00  0.00     0.003 C 
ENDROOT
BRANCH   1   2
ATOM      2  C   UNL     1      13.803  16.845  28.524  1.00  0.00    -0.000 C 
BRANCH   2   3
ATOM      3  C   UNL     1      13.459  15.508  29.199  1.00  0.00    -0.003 C 
ATOM      4  C   UNL     1      14.722  14.778  29.647  1.00  0.00     0.004 C 
ENDBRANCH   2   3
ENDBRANCH   1   2
BRANCH   1   5
ATOM      5  C   UNL     1      14.186  17.264  26.029  1.00  0.00     0.036 C 
BRANCH   5   6
ATOM      6  C   UNL     1      13.733  16.161  25.047  1.00  0.00     0.136 C 
BRANCH   6   7
ATOM      7  C   UNL     1      12.256  16.229  24.726  1.00  0.00    -0.004 C 
ATOM      8  C   UNL     1      11.490  17.275  25.055  1.00  0.00     0.007 C 
ENDBRANCH   6   7
BRANCH   6   9
ATOM      9  O   UNL     1      14.074  14.885  25.528  1.00  0.00    -0.389 OA
ATOM     10  H   UNL     1      15.064  14.818  25.545  1.00  0.00     0.211 HD
ENDBRANCH   6   9
ENDBRANCH   5   6
ENDBRANCH   1   5
TORSDOF 6
ENDMDL
MODEL 8
REMARK VINA RESULT:    -4.065      2.689      5.418
REMARK INTER + INTRA:          -5.788
REMARK INTER:                  -5.651
REMARK INTRA:                  -0.137
REMARK UNBOUND:                -0.417
REMARK SMILES C=C[C@H](O)CCCCC
REMARK SMILES IDX 6 1 7 2 8 3 9 4 5 5 3 6 2 7 1 8 4 9
REMARK H PARENT 4 10
REMARK Flexibility Score: inf
ROOT
ATOM      1  C   UNL     1      13.495  15.727  27.939  1.00  0.00     0.003 C 
ENDROOT
BRANCH   1   2
ATOM      2  C   UNL     1      13.532  17.240  27.671  1.00  0.00    -0.000 C 
BRANCH   2   3
ATOM      3  C   UNL     1      12.960  17.611  26.294  1.00  0.00    -0.003 C 
ATOM      4  C   UNL     1      11.438  17.706  26.339  1.00  0.00     0.004 C 
ENDBRANCH   2   3
ENDBRANCH   1   2
BRANCH   1   5
ATOM      5  C   UNL     1      13.527  15.391  29.440  1.00  0.00     0.036 C 
BRANCH   5   6
ATOM      6  C   UNL     1      14.788  14.588  29.829  1.00  0.00     0.136 C 
BRANCH   6   7
ATOM      7  C   UNL     1      14.698  13.985  31.213  1.00  0.00    -0.004 C 
ATOM      8  C   UNL     1      15.471  12.970  31.614  1.00  0.00     0.007 C 
ENDBRANCH   6   7
BRANCH   6   9
ATOM      9  O   UNL     1      15.946  15.376  29.710  1.00  0.00    -0.389 OA
ATOM     10  H   UNL     1      15.954  15.773  28.800  1.00  0.00     0.211 HD
ENDBRANCH   6   9
ENDBRANCH   5   6
ENDBRANCH   1   5
TORSDOF 6
ENDMDL
MODEL 9
REMARK VINA RESULT:    -3.998      1.889      2.433
REMARK INTER + INTRA:          -5.700
REMARK INTER:                  -5.419
REMARK INTRA:                  -0.280
REMARK UNBOUND:                -0.417
REMARK SMILES C=C[C@H](O)CCCCC
REMARK SMILES IDX 6 1 7 2 8 3 9 4 5 5 3 6 2 7 1 8 4 9
REMARK H PARENT 4 10
REMARK Flexibility Score: inf
ROOT
ATOM      1  C   UNL     1      15.102  15.944  27.782  1.00  0.00     0.003 C 
ENDROOT
BRANCH   1   2
ATOM      2  C   UNL     1      15.137  14.659  28.624  1.00  0.00    -0.000 C 
BRANCH   2   3
ATOM      3  C   UNL     1      14.333  14.781  29.927  1.00  0.00    -0.003 C 
ATOM      4  C   UNL     1      14.912  13.883  31.016  1.00  0.00     0.004 C 
ENDBRANCH   2   3
ENDBRANCH   1   2
BRANCH   1   5
ATOM      5  C   UNL     1      14.033  16.940  28.268  1.00  0.00     0.036 C 
BRANCH   5   6
ATOM      6  C   UNL     1      12.837  17.029  27.295  1.00  0.00     0.136 C 
BRANCH   6   7
ATOM      7  C   UNL     1      13.263  17.173  25.850  1.00  0.00    -0.004 C 
ATOM      8  C   UNL     1      12.718  16.460  24.859  1.00  0.00     0.007 C 
ENDBRANCH   6   7
BRANCH   6   9
ATOM      9  O   UNL     1      11.967  18.072  27.658  1.00  0.00    -0.389 OA
ATOM     10  H   UNL     1      12.098  18.817  27.015  1.00  0.00     0.211 HD
ENDBRANCH   6   9
ENDBRANCH   5   6
ENDBRANCH   1   5
TORSDOF 6
ENDMDL
