MODEL 1
REMARK VINA RESULT:    -4.173      0.000      0.000
REMARK INTER + INTRA:          -5.997
REMARK INTER:                  -5.637
REMARK INTRA:                  -0.360
REMARK UNBOUND:                -0.360
REMARK SMILES CCCCCCCC(=O)[O-]
REMARK SMILES IDX 5 1 6 2 7 3 8 4 9 5 10 6 4 7 3 8 2 9 1 10
REMARK H PARENT
REMARK Flexibility Score: inf
ROOT
ATOM      1  C   UNL     1      -2.091  37.194  17.866  1.00  0.00     0.000 C 
ENDROOT
BRANCH   1   2
ATOM      2  C   UNL     1      -3.560  37.157  18.310  1.00  0.00     0.006 C 
BRANCH   2   3
ATOM      3  C   UNL     1      -3.710  36.789  19.792  1.00  0.00     0.053 C 
BRANCH   3   4
ATOM      4  C   UNL     1      -4.805  35.788  20.007  1.00  0.00     0.041 C 
ATOM      5  O   UNL     1      -5.585  35.903  20.988  1.00  0.00    -0.550 OA
ATOM      6  O   UNL     1      -4.981  34.747  19.103  1.00  0.00    -0.550 OA
ENDBRANCH   3   4
ENDBRANCH   2   3
ENDBRANCH   1   2
BRANCH   1   7
ATOM      7  C   UNL     1      -1.904  36.462  16.528  1.00  0.00     0.000 C 
BRANCH   7   8
ATOM      8  C   UNL     1      -3.239  36.049  15.887  1.00  0.00    -0.000 C 
BRANCH   8   9
ATOM      9  C   UNL     1      -3.352  36.489  14.419  1.00  0.00    -0.003 C 
ATOM     10  C   UNL     1      -4.167  37.773  14.293  1.00  0.00     0.004 C 
ENDBRANCH   8   9
ENDBRANCH   7   8
ENDBRANCH   1   7
TORSDOF 6
ENDMDL
MODEL 2
REMARK VINA RESULT:    -4.119      1.102      1.523
REMARK INTER + INTRA:          -5.924
REMARK INTER:                  -5.671
REMARK INTRA:                  -0.253
REMARK UNBOUND:                -0.360
REMARK SMILES CCCCCCCC(=O)[O-]
REMARK SMILES IDX 5 1 6 2 7 3 8 4 9 5 10 6 4 7 3 8 2 9 1 10
REMARK H PARENT
REMARK Flexibility Score: inf
ROOT
ATOM      1  C   UNL     1      -2.225  37.340  18.336  1.00  0.00     0.000 C 
ENDROOT
BRANCH   1   2
ATOM      2  C   UNL     1      -3.010  37.235  19.652  1.00  0.00     0.006 C 
BRANCH   2   3
ATOM      3  C   UNL     1      -4.335  36.483  19.480  1.00  0.00     0.053 C 
BRANCH   3   4
ATOM      4  C   UNL     1      -5.306  36.812  20.573  1.00  0.00     0.041 C 
ATOM      5  O   UNL     1      -5.856  35.891  21.232  1.00  0.00    -0.550 OA
ATOM      6  O   UNL     1      -5.578  38.139  20.884  1.00  0.00    -0.550 OA
ENDBRANCH   3   4
ENDBRANCH   2   3
ENDBRANCH   1   2
BRANCH   1   7
ATOM      7  C   UNL     1      -3.086  36.889  17.146  1.00  0.00     0.000 C 
BRANCH   7   8
ATOM      8  C   UNL     1      -2.257  36.235  16.029  1.00  0.00    -0.000 C 
BRANCH   8   9
ATOM      9  C   UNL     1      -2.938  36.331  14.655  1.00  0.00    -0.003 C 
ATOM     10  C   UNL     1      -3.925  37.494  14.612  1.00  0.00     0.004 C 
ENDBRANCH   8   9
ENDBRANCH   7   8
ENDBRANCH   1   7
TORSDOF 6
ENDMDL
MODEL 3
REMARK VINA RESULT:    -3.876      2.834      5.397
REMARK INTER + INTRA:          -5.596
REMARK INTER:                  -5.419
REMARK INTRA:                  -0.177
REMARK UNBOUND:                -0.360
REMARK SMILES CCCCCCCC(=O)[O-]
REMARK SMILES IDX 5 1 6 2 7 3 8 4 9 5 10 6 4 7 3 8 2 9 1 10
REMARK H PARENT
REMARK Flexibility Score: inf
ROOT
ATOM      1  C   UNL     1      -3.216  37.248  19.507  1.00  0.00     0.000 C 
ENDROOT
BRANCH   1   2
ATOM      2  C   UNL     1      -2.550  37.229  18.123  1.00  0.00     0.006 C 
BRANCH   2   3
ATOM      3  C   UNL     1      -3.342  36.396  17.108  1.00  0.00     0.053 C 
BRANCH   3   4
ATOM      4  C   UNL     1      -3.001  36.771  15.697  1.00  0.00     0.041 C 
ATOM      5  O   UNL     1      -2.057  36.193  15.098  1.00  0.00    -0.550 OA
ATOM      6  O   UNL     1      -3.749  37.737  15.035  1.00  0.00    -0.550 OA
ENDBRANCH   3   4
ENDBRANCH   2   3
ENDBRANCH   1   2
BRANCH   1   7
ATOM      7  C   UNL     1      -4.541  36.471  19.488  1.00  0.00     0.000 C 
BRANCH   7   8
ATOM      8  C   UNL     1      -5.374  36.687  20.762  1.00  0.00    -0.000 C 
BRANCH   8   9
ATOM      9  C   UNL     1      -6.002  35.387  21.286  1.00  0.00    -0.003 C 
ATOM     10  C   UNL     1      -6.125  35.412  22.807  1.00  0.00     0.004 C 
ENDBRANCH   8   9
ENDBRANCH   7   8
ENDBRANCH   1   7
TORSDOF 6
ENDMDL
MODEL 4
REMARK VINA RESULT:    -3.827      2.689      5.760
REMARK INTER + INTRA:          -5.529
REMARK INTER:                  -5.412
REMARK INTRA:                  -0.117
REMARK UNBOUND:                -0.360
REMARK SMILES CCCCCCCC(=O)[O-]
REMARK SMILES IDX 5 1 6 2 7 3 8 4 9 5 10 6 4 7 3 8 2 9 1 10
REMARK H PARENT
REMARK Flexibility Score: inf
ROOT
ATOM      1  C   UNL     1      -3.971  36.508  19.975  1.00  0.00     0.000 C 
ENDROOT
BRANCH   1   2
ATOM      2  C   UNL     1      -3.874  37.218  18.617  1.00  0.00     0.006 C 
BRANCH   2   3
ATOM      3  C   UNL     1      -2.490  37.055  17.974  1.00  0.00     0.053 C 
BRANCH   3   4
ATOM      4  C   UNL     1      -2.592  36.713  16.519  1.00  0.00     0.041 C 
ATOM      5  O   UNL     1      -3.451  37.278  15.792  1.00  0.00    -0.550 OA
ATOM      6  O   UNL     1      -1.715  35.792  15.959  1.00  0.00    -0.550 OA
ENDBRANCH   3   4
ENDBRANCH   2   3
ENDBRANCH   1   2
BRANCH   1   7
ATOM      7  C   UNL     1      -5.378  36.658  20.573  1.00  0.00     0.000 C 
BRANCH   7   8
ATOM      8  C   UNL     1      -5.828  35.410  21.349  1.00  0.00    -0.000 C 
BRANCH   8   9
ATOM      9  C   UNL     1      -6.125  35.708  22.827  1.00  0.00    -0.003 C 
ATOM     10  C   UNL     1      -5.526  34.637  23.733  1.00  0.00     0.004 C 
ENDBRANCH   8   9
ENDBRANCH   7   8
ENDBRANCH   1   7
TORSDOF 6
ENDMDL
MODEL 5
REMARK VINA RESULT:    -3.543      1.831      2.737
REMARK INTER + INTRA:          -5.147
REMARK INTER:                  -5.007
REMARK INTRA:                  -0.139
REMARK UNBOUND:                -0.360
REMARK SMILES CCCCCCCC(=O)[O-]
REMARK SMILES IDX 5 1 6 2 7 3 8 4 9 5 10 6 4 7 3 8 2 9 1 10
REMARK H PARENT
REMARK Flexibility Score: inf
ROOT
ATOM      1  C   UNL     1      -3.846  36.392  19.819  1.00  0.00     0.000 C 
ENDROOT
BRANCH   1   2
ATOM      2  C   UNL     1      -5.302  36.634  20.244  1.00  0.00     0.006 C 
BRANCH   2   3
ATOM      3  C   UNL     1      -5.898  35.432  20.988  1.00  0.00     0.053 C 
BRANCH   3   4
ATOM      4  C   UNL     1      -5.914  35.648  22.470  1.00  0.00     0.041 C 
ATOM      5  O   UNL     1      -5.757  34.677  23.255  1.00  0.00    -0.550 OA
ATOM      6  O   UNL     1      -6.071  36.930  22.983  1.00  0.00    -0.550 OA
ENDBRANCH   3   4
ENDBRANCH   2   3
ENDBRANCH   1   2
BRANCH   1   7
ATOM      7  C   UNL     1      -3.505  37.188  18.551  1.00  0.00     0.000 C 
BRANCH   7   8
ATOM      8  C   UNL     1      -3.456  36.305  17.292  1.00  0.00    -0.000 C 
BRANCH   8   9
ATOM      9  C   UNL     1      -2.604  36.920  16.172  1.00  0.00    -0.003 C 
ATOM     10  C   UNL     1      -2.900  36.256  14.830  1.00  0.00     0.004 C 
ENDBRANCH   8   9
ENDBRANCH   7   8
ENDBRANCH   1   7
TORSDOF 6
ENDMDL
MODEL 6
REMARK VINA RESULT:    -3.427      3.226      6.513
REMARK INTER + INTRA:          -4.990
REMARK INTER:                  -4.786
REMARK INTRA:                  -0.204
REMARK UNBOUND:                -0.360
REMARK SMILES CCCCCCCC(=O)[O-]
REMARK SMILES IDX 5 1 6 2 7 3 8 4 9 5 10 6 4 7 3 8 2 9 1 10
REMARK H PARENT
REMARK Flexibility Score: inf
ROOT
ATOM      1  C   UNL     1      -5.751  35.785  21.594  1.00  0.00     0.000 C 
ENDROOT
BRANCH   1   2
ATOM      2  C   UNL     1      -5.186  35.779  20.167  1.00  0.00     0.006 C 
BRANCH   2   3
ATOM      3  C   UNL     1      -4.627  37.148  19.757  1.00  0.00     0.053 C 
BRANCH   3   4
ATOM      4  C   UNL     1      -3.400  37.014  18.907  1.00  0.00     0.041 C 
ATOM      5  O   UNL     1      -2.318  37.548  19.267  1.00  0.00    -0.550 OA
ATOM      6  O   UNL     1      -3.447  36.273  17.732  1.00  0.00    -0.550 OA
ENDBRANCH   3   4
ENDBRANCH   2   3
ENDBRANCH   1   2
BRANCH   1   7
ATOM      7  C   UNL     1      -5.098  34.688  22.448  1.00  0.00     0.000 C 
BRANCH   7   8
ATOM      8  C   UNL     1      -5.590  34.698  23.905  1.00  0.00    -0.000 C 
BRANCH   8   9
ATOM      9  C   UNL     1      -6.125  36.071  24.338  1.00  0.00    -0.003 C 
ATOM     10  C   UNL     1      -5.474  36.527  25.641  1.00  0.00     0.004 C 
ENDBRANCH   8   9
ENDBRANCH   7   8
ENDBRANCH   1   7
TORSDOF 6
ENDMDL
MODEL 7
REMARK VINA RESULT:    -2.982      3.029      5.208
REMARK INTER + INTRA:          -4.389
REMARK INTER:                  -4.205
REMARK INTRA:                  -0.184
REMARK UNBOUND:                -0.360
REMARK SMILES CCCCCCCC(=O)[O-]
REMARK SMILES IDX 5 1 6 2 7 3 8 4 9 5 10 6 4 7 3 8 2 9 1 10
REMARK H PARENT
REMARK Flexibility Score: inf
ROOT
ATOM      1  C   UNL     1      -4.344  35.640  18.889  1.00  0.00     0.000 C 
ENDROOT
BRANCH   1   2
ATOM      2  C   UNL     1      -3.854  35.560  17.436  1.00  0.00     0.006 C 
BRANCH   2   3
ATOM      3  C   UNL     1      -3.124  36.836  16.998  1.00  0.00     0.053 C 
BRANCH   3   4
ATOM      4  C   UNL     1      -3.177  37.023  15.512  1.00  0.00     0.041 C 
ATOM      5  O   UNL     1      -3.889  37.932  15.012  1.00  0.00    -0.550 OA
ATOM      6  O   UNL     1      -2.412  36.211  14.683  1.00  0.00    -0.550 OA
ENDBRANCH   3   4
ENDBRANCH   2   3
ENDBRANCH   1   2
BRANCH   1   7
ATOM      7  C   UNL     1      -4.336  37.091  19.392  1.00  0.00     0.000 C 
BRANCH   7   8
ATOM      8  C   UNL     1      -5.318  37.322  20.553  1.00  0.00    -0.000 C 
BRANCH   8   9
ATOM      9  C   UNL     1      -5.848  38.763  20.601  1.00  0.00    -0.003 C 
ATOM     10  C   UNL     1      -5.644  39.376  21.984  1.00  0.00     0.004 C 
ENDBRANCH   8   9
ENDBRANCH   7   8
ENDBRANCH   1   7
TORSDOF 6
ENDMDL
MODEL 8
REMARK VINA RESULT:    -2.333      2.943      4.906
REMARK INTER + INTRA:          -3.512
REMARK INTER:                  -3.354
REMARK INTRA:                  -0.158
REMARK UNBOUND:                -0.360
REMARK SMILES CCCCCCCC(=O)[O-]
REMARK SMILES IDX 5 1 6 2 7 3 8 4 9 5 10 6 4 7 3 8 2 9 1 10
REMARK H PARENT
REMARK Flexibility Score: inf
ROOT
ATOM      1  C   UNL     1      -4.714  35.004  21.761  1.00  0.00     0.000 C 
ENDROOT
BRANCH   1   2
ATOM      2  C   UNL     1      -6.122  34.957  22.371  1.00  0.00     0.006 C 
BRANCH   2   3
ATOM      3  C   UNL     1      -6.091  34.932  23.904  1.00  0.00     0.053 C 
BRANCH   3   4
ATOM      4  C   UNL     1      -5.910  36.305  24.478  1.00  0.00     0.041 C 
ATOM      5  O   UNL     1      -6.125  37.322  23.768  1.00  0.00    -0.550 OA
ATOM      6  O   UNL     1      -5.534  36.458  25.807  1.00  0.00    -0.550 OA
ENDBRANCH   3   4
ENDBRANCH   2   3
ENDBRANCH   1   2
BRANCH   1   7
ATOM      7  C   UNL     1      -4.770  34.821  20.237  1.00  0.00     0.000 C 
BRANCH   7   8
ATOM      8  C   UNL     1      -5.182  36.105  19.500  1.00  0.00    -0.000 C 
BRANCH   8   9
ATOM      9  C   UNL     1      -4.000  37.058  19.267  1.00  0.00    -0.003 C 
ATOM     10  C   UNL     1      -3.371  36.826  17.896  1.00  0.00     0.004 C 
ENDBRANCH   8   9
ENDBRANCH   7   8
ENDBRANCH   1   7
TORSDOF 6
ENDMDL
MODEL 9
REMARK VINA RESULT:    -2.301      1.757      3.185
REMARK INTER + INTRA:          -3.469
REMARK INTER:                  -3.178
REMARK INTRA:                  -0.291
REMARK UNBOUND:                -0.360
REMARK SMILES CCCCCCCC(=O)[O-]
REMARK SMILES IDX 5 1 6 2 7 3 8 4 9 5 10 6 4 7 3 8 2 9 1 10
REMARK H PARENT
REMARK Flexibility Score: inf
ROOT
ATOM      1  C   UNL     1      -3.918  35.715  17.419  1.00  0.00     0.000 C 
ENDROOT
BRANCH   1   2
ATOM      2  C   UNL     1      -4.294  35.741  18.908  1.00  0.00     0.006 C 
BRANCH   2   3
ATOM      3  C   UNL     1      -4.435  37.170  19.447  1.00  0.00     0.053 C 
BRANCH   3   4
ATOM      4  C   UNL     1      -5.317  37.222  20.657  1.00  0.00     0.041 C 
ATOM      5  O   UNL     1      -5.741  36.157  21.179  1.00  0.00    -0.550 OA
ATOM      6  O   UNL     1      -5.644  38.446  21.227  1.00  0.00    -0.550 OA
ENDBRANCH   3   4
ENDBRANCH   2   3
ENDBRANCH   1   2
BRANCH   1   7
ATOM      7  C   UNL     1      -3.162  36.992  17.022  1.00  0.00     0.000 C 
BRANCH   7   8
ATOM      8  C   UNL     1      -1.657  36.908  17.322  1.00  0.00    -0.000 C 
BRANCH   8   9
ATOM      9  C   UNL     1      -1.206  37.930  18.376  1.00  0.00    -0.003 C 
ATOM     10  C   UNL     1      -0.725  37.232  19.646  1.00  0.00     0.004 C 
ENDBRANCH   8   9
ENDBRANCH   7   8
ENDBRANCH   1   7
TORSDOF 6
ENDMDL
