MODEL 1
REMARK VINA RESULT:    -6.037      0.000      0.000
REMARK INTER + INTRA:          -6.478
REMARK INTER:                  -6.389
REMARK INTRA:                  -0.088
REMARK UNBOUND:                -0.088
REMARK SMILES C=C(C)[C@H]1CC=C(C)C(=O)C1
REMARK SMILES IDX 8 1 7 2 6 3 5 4 4 5 11 6 9 7 10 8 2 9 1 10 3 11
REMARK H PARENT
REMARK Flexibility Score: inf
ROOT
ATOM      1  C   UNL     1      12.016  32.718  72.768  1.00  0.00     0.048 C 
ATOM      2  C   UNL     1      11.473  31.349  73.069  1.00  0.00    -0.012 C 
ATOM      3  C   UNL     1      11.680  30.335  72.211  1.00  0.00    -0.019 C 
ATOM      4  C   UNL     1      11.087  28.968  72.431  1.00  0.00     0.036 C 
ATOM      5  C   UNL     1      10.933  28.664  73.933  1.00  0.00     0.025 C 
ATOM      6  C   UNL     1      10.115  29.772  74.623  1.00  0.00     0.089 C 
ATOM      7  C   UNL     1      10.687  31.128  74.309  1.00  0.00     0.158 C 
ATOM      8  O   UNL     1      10.452  32.089  75.089  1.00  0.00    -0.295 OA
ENDROOT
BRANCH   5   9
ATOM      9  C   UNL     1      10.315  27.292  74.164  1.00  0.00    -0.077 C 
ATOM     10  C   UNL     1      10.832  26.468  75.089  1.00  0.00     0.008 C 
ATOM     11  C   UNL     1       9.119  26.825  73.371  1.00  0.00     0.039 C 
ENDBRANCH   5   9
TORSDOF 1
ENDMDL
MODEL 2
REMARK VINA RESULT:    -6.019      0.177      1.057
REMARK INTER + INTRA:          -6.459
REMARK INTER:                  -6.362
REMARK INTRA:                  -0.097
REMARK UNBOUND:                -0.088
REMARK SMILES C=C(C)[C@H]1CC=C(C)C(=O)C1
REMARK SMILES IDX 8 1 7 2 6 3 5 4 4 5 11 6 9 7 10 8 2 9 1 10 3 11
REMARK H PARENT
REMARK Flexibility Score: inf
ROOT
ATOM      1  C   UNL     1      12.000  32.881  72.797  1.00  0.00     0.048 C 
ATOM      2  C   UNL     1      11.440  31.513  73.073  1.00  0.00    -0.012 C 
ATOM      3  C   UNL     1      11.601  30.524  72.177  1.00  0.00    -0.019 C 
ATOM      4  C   UNL     1      10.989  29.162  72.372  1.00  0.00     0.036 C 
ATOM      5  C   UNL     1      10.875  28.813  73.868  1.00  0.00     0.025 C 
ATOM      6  C   UNL     1      10.101  29.913  74.618  1.00  0.00     0.089 C 
ATOM      7  C   UNL     1      10.689  31.267  74.329  1.00  0.00     0.158 C 
ATOM      8  O   UNL     1      10.497  32.207  75.146  1.00  0.00    -0.295 OA
ENDROOT
BRANCH   5   9
ATOM      9  C   UNL     1      10.238  27.445  74.075  1.00  0.00    -0.077 C 
ATOM     10  C   UNL     1       9.183  27.075  73.333  1.00  0.00     0.008 C 
ATOM     11  C   UNL     1      10.769  26.479  75.106  1.00  0.00     0.039 C 
ENDBRANCH   5   9
TORSDOF 1
ENDMDL
MODEL 3
REMARK VINA RESULT:    -5.820      2.116      4.568
REMARK INTER + INTRA:          -6.248
REMARK INTER:                  -6.161
REMARK INTRA:                  -0.087
REMARK UNBOUND:                -0.088
REMARK SMILES C=C(C)[C@H]1CC=C(C)C(=O)C1
REMARK SMILES IDX 8 1 7 2 6 3 5 4 4 5 11 6 9 7 10 8 2 9 1 10 3 11
REMARK H PARENT
REMARK Flexibility Score: inf
ROOT
ATOM      1  C   UNL     1       9.919  25.558  73.562  1.00  0.00     0.048 C 
ATOM      2  C   UNL     1      10.253  27.023  73.525  1.00  0.00    -0.012 C 
ATOM      3  C   UNL     1       9.301  27.927  73.236  1.00  0.00    -0.019 C 
ATOM      4  C   UNL     1       9.606  29.396  73.107  1.00  0.00     0.036 C 
ATOM      5  C   UNL     1      10.779  29.803  74.019  1.00  0.00     0.025 C 
ATOM      6  C   UNL     1      12.011  28.924  73.732  1.00  0.00     0.089 C 
ATOM      7  C   UNL     1      11.647  27.466  73.785  1.00  0.00     0.158 C 
ATOM      8  O   UNL     1      12.549  26.615  74.008  1.00  0.00    -0.295 OA
ENDROOT
BRANCH   5   9
ATOM      9  C   UNL     1      11.107  31.283  73.879  1.00  0.00    -0.077 C 
ATOM     10  C   UNL     1      10.910  32.117  74.912  1.00  0.00     0.008 C 
ATOM     11  C   UNL     1      11.658  31.848  72.592  1.00  0.00     0.039 C 
ENDBRANCH   5   9
TORSDOF 1
ENDMDL
MODEL 4
REMARK VINA RESULT:    -5.719      1.737      4.760
REMARK INTER + INTRA:          -6.141
REMARK INTER:                  -6.054
REMARK INTRA:                  -0.087
REMARK UNBOUND:                -0.088
REMARK SMILES C=C(C)[C@H]1CC=C(C)C(=O)C1
REMARK SMILES IDX 8 1 7 2 6 3 5 4 4 5 11 6 9 7 10 8 2 9 1 10 3 11
REMARK H PARENT
REMARK Flexibility Score: inf
ROOT
ATOM      1  C   UNL     1      10.164  27.485  74.740  1.00  0.00     0.048 C 
ATOM      2  C   UNL     1      10.392  28.857  74.169  1.00  0.00    -0.012 C 
ATOM      3  C   UNL     1       9.686  29.905  74.625  1.00  0.00    -0.019 C 
ATOM      4  C   UNL     1       9.821  31.281  74.028  1.00  0.00     0.036 C 
ATOM      5  C   UNL     1      11.242  31.512  73.480  1.00  0.00     0.025 C 
ATOM      6  C   UNL     1      11.617  30.403  72.479  1.00  0.00     0.089 C 
ATOM      7  C   UNL     1      11.386  29.044  73.082  1.00  0.00     0.158 C 
ATOM      8  O   UNL     1      12.014  28.053  72.621  1.00  0.00    -0.295 OA
ENDROOT
BRANCH   5   9
ATOM      9  C   UNL     1      11.382  32.894  72.856  1.00  0.00    -0.077 C 
ATOM     10  C   UNL     1      12.269  33.770  73.352  1.00  0.00     0.008 C 
ATOM     11  C   UNL     1      10.538  33.313  71.677  1.00  0.00     0.039 C 
ENDBRANCH   5   9
TORSDOF 1
ENDMDL
MODEL 5
REMARK VINA RESULT:    -5.537      1.748      1.959
REMARK INTER + INTRA:          -5.949
REMARK INTER:                  -5.855
REMARK INTRA:                  -0.095
REMARK UNBOUND:                -0.088
REMARK SMILES C=C(C)[C@H]1CC=C(C)C(=O)C1
REMARK SMILES IDX 8 1 7 2 6 3 5 4 4 5 11 6 9 7 10 8 2 9 1 10 3 11
REMARK H PARENT
REMARK Flexibility Score: inf
ROOT
ATOM      1  C   UNL     1      10.842  32.298  71.956  1.00  0.00     0.048 C 
ATOM      2  C   UNL     1      10.716  30.878  72.436  1.00  0.00    -0.012 C 
ATOM      3  C   UNL     1      11.669  30.342  73.218  1.00  0.00    -0.019 C 
ATOM      4  C   UNL     1      11.626  28.901  73.656  1.00  0.00     0.036 C 
ATOM      5  C   UNL     1      10.175  28.403  73.788  1.00  0.00     0.025 C 
ATOM      6  C   UNL     1       9.406  28.636  72.474  1.00  0.00     0.089 C 
ATOM      7  C   UNL     1       9.545  30.064  72.023  1.00  0.00     0.158 C 
ATOM      8  O   UNL     1       8.676  30.552  71.252  1.00  0.00    -0.295 OA
ENDROOT
BRANCH   5   9
ATOM      9  C   UNL     1      10.123  26.941  74.210  1.00  0.00    -0.077 C 
ATOM     10  C   UNL     1      10.864  26.513  75.244  1.00  0.00     0.008 C 
ATOM     11  C   UNL     1       9.248  25.945  73.489  1.00  0.00     0.039 C 
ENDBRANCH   5   9
TORSDOF 1
ENDMDL
MODEL 6
REMARK VINA RESULT:    -5.459      2.183      5.360
REMARK INTER + INTRA:          -5.866
REMARK INTER:                  -5.777
REMARK INTRA:                  -0.090
REMARK UNBOUND:                -0.088
REMARK SMILES C=C(C)[C@H]1CC=C(C)C(=O)C1
REMARK SMILES IDX 8 1 7 2 6 3 5 4 4 5 11 6 9 7 10 8 2 9 1 10 3 11
REMARK H PARENT
REMARK Flexibility Score: inf
ROOT
ATOM      1  C   UNL     1      11.560  28.931  73.944  1.00  0.00     0.048 C 
ATOM      2  C   UNL     1      11.297  30.367  73.582  1.00  0.00    -0.012 C 
ATOM      3  C   UNL     1      11.203  31.301  74.544  1.00  0.00    -0.019 C 
ATOM      4  C   UNL     1      10.861  32.735  74.235  1.00  0.00     0.036 C 
ATOM      5  C   UNL     1      11.372  33.140  72.840  1.00  0.00     0.025 C 
ATOM      6  C   UNL     1      10.836  32.170  71.770  1.00  0.00     0.089 C 
ATOM      7  C   UNL     1      11.120  30.744  72.157  1.00  0.00     0.158 C 
ATOM      8  O   UNL     1      11.161  29.860  71.259  1.00  0.00    -0.295 OA
ENDROOT
BRANCH   5   9
ATOM      9  C   UNL     1      11.012  34.583  72.511  1.00  0.00    -0.077 C 
ATOM     10  C   UNL     1      11.745  35.590  73.011  1.00  0.00     0.008 C 
ATOM     11  C   UNL     1       9.837  34.918  71.625  1.00  0.00     0.039 C 
ENDBRANCH   5   9
TORSDOF 1
ENDMDL
MODEL 7
REMARK VINA RESULT:    -5.403      2.910      4.242
REMARK INTER + INTRA:          -5.807
REMARK INTER:                  -5.712
REMARK INTRA:                  -0.095
REMARK UNBOUND:                -0.088
REMARK SMILES C=C(C)[C@H]1CC=C(C)C(=O)C1
REMARK SMILES IDX 8 1 7 2 6 3 5 4 4 5 11 6 9 7 10 8 2 9 1 10 3 11
REMARK H PARENT
REMARK Flexibility Score: inf
ROOT
ATOM      1  C   UNL     1      11.481  36.451  73.035  1.00  0.00     0.048 C 
ATOM      2  C   UNL     1      11.309  34.990  72.725  1.00  0.00    -0.012 C 
ATOM      3  C   UNL     1      12.131  34.080  73.276  1.00  0.00    -0.019 C 
ATOM      4  C   UNL     1      12.049  32.616  72.933  1.00  0.00     0.036 C 
ATOM      5  C   UNL     1      10.608  32.209  72.574  1.00  0.00     0.025 C 
ATOM      6  C   UNL     1      10.063  33.104  71.445  1.00  0.00     0.089 C 
ATOM      7  C   UNL     1      10.242  34.558  71.787  1.00  0.00     0.158 C 
ATOM      8  O   UNL     1       9.502  35.415  71.233  1.00  0.00    -0.295 OA
ENDROOT
BRANCH   5   9
ATOM      9  C   UNL     1      10.520  30.734  72.205  1.00  0.00    -0.077 C 
ATOM     10  C   UNL     1       9.336  30.190  71.885  1.00  0.00     0.008 C 
ATOM     11  C   UNL     1      11.746  29.854  72.187  1.00  0.00     0.039 C 
ENDBRANCH   5   9
TORSDOF 1
ENDMDL
MODEL 8
REMARK VINA RESULT:    -5.225      2.246      5.621
REMARK INTER + INTRA:          -5.619
REMARK INTER:                  -5.529
REMARK INTRA:                  -0.090
REMARK UNBOUND:                -0.088
REMARK SMILES C=C(C)[C@H]1CC=C(C)C(=O)C1
REMARK SMILES IDX 8 1 7 2 6 3 5 4 4 5 11 6 9 7 10 8 2 9 1 10 3 11
REMARK H PARENT
REMARK Flexibility Score: inf
ROOT
ATOM      1  C   UNL     1      10.893  29.805  73.978  1.00  0.00     0.048 C 
ATOM      2  C   UNL     1      10.914  31.221  73.474  1.00  0.00    -0.012 C 
ATOM      3  C   UNL     1      10.794  31.472  72.159  1.00  0.00    -0.019 C 
ATOM      4  C   UNL     1      10.890  32.867  71.599  1.00  0.00     0.036 C 
ATOM      5  C   UNL     1      10.385  33.910  72.614  1.00  0.00     0.025 C 
ATOM      6  C   UNL     1      11.136  33.764  73.951  1.00  0.00     0.089 C 
ATOM      7  C   UNL     1      11.091  32.340  74.433  1.00  0.00     0.158 C 
ATOM      8  O   UNL     1      11.252  32.101  75.660  1.00  0.00    -0.295 OA
ENDROOT
BRANCH   5   9
ATOM      9  C   UNL     1      10.498  35.325  72.064  1.00  0.00    -0.077 C 
ATOM     10  C   UNL     1       9.619  35.765  71.151  1.00  0.00     0.008 C 
ATOM     11  C   UNL     1      11.588  36.262  72.525  1.00  0.00     0.039 C 
ENDBRANCH   5   9
TORSDOF 1
ENDMDL
MODEL 9
REMARK VINA RESULT:    -5.200      2.616      5.267
REMARK INTER + INTRA:          -5.592
REMARK INTER:                  -5.496
REMARK INTRA:                  -0.097
REMARK UNBOUND:                -0.088
REMARK SMILES C=C(C)[C@H]1CC=C(C)C(=O)C1
REMARK SMILES IDX 8 1 7 2 6 3 5 4 4 5 11 6 9 7 10 8 2 9 1 10 3 11
REMARK H PARENT
REMARK Flexibility Score: inf
ROOT
ATOM      1  C   UNL     1       9.302  23.720  74.036  1.00  0.00     0.048 C 
ATOM      2  C   UNL     1       9.579  25.197  73.979  1.00  0.00    -0.012 C 
ATOM      3  C   UNL     1      10.473  25.751  74.816  1.00  0.00    -0.019 C 
ATOM      4  C   UNL     1      10.724  27.236  74.851  1.00  0.00     0.036 C 
ATOM      5  C   UNL     1      10.495  27.870  73.466  1.00  0.00     0.025 C 
ATOM      6  C   UNL     1       9.086  27.528  72.946  1.00  0.00     0.089 C 
ATOM      7  C   UNL     1       8.842  26.045  73.008  1.00  0.00     0.158 C 
ATOM      8  O   UNL     1       7.970  25.534  72.257  1.00  0.00    -0.295 OA
ENDROOT
BRANCH   5   9
ATOM      9  C   UNL     1      10.726  29.375  73.497  1.00  0.00    -0.077 C 
ATOM     10  C   UNL     1      10.141  30.127  74.442  1.00  0.00     0.008 C 
ATOM     11  C   UNL     1      11.609  30.055  72.479  1.00  0.00     0.039 C 
ENDBRANCH   5   9
TORSDOF 1
ENDMDL
