MODEL 1
REMARK VINA RESULT:    -5.797      0.000      0.000
REMARK INTER + INTRA:          -7.060
REMARK INTER:                  -6.983
REMARK INTRA:                  -0.077
REMARK UNBOUND:                -0.077
REMARK SMILES OCCc1ccc(O)c(O)c1
REMARK SMILES IDX 3 1 4 2 5 3 6 4 7 5 11 6 9 7 8 8 10 10 2 12 1 13
REMARK H PARENT 8 9 10 11 1 14
REMARK Flexibility Score: inf
ROOT
ATOM      1  C   UNL     1      28.378  24.377  49.959  1.00  0.00     0.064 C 
ENDROOT
BRANCH   1   2
ATOM      2  C   UNL     1      28.306  24.472  48.459  1.00  0.00    -0.042 A 
ATOM      3  C   UNL     1      27.085  24.282  47.796  1.00  0.00     0.008 A 
ATOM      4  C   UNL     1      27.013  24.402  46.407  1.00  0.00     0.050 A 
ATOM      5  C   UNL     1      28.150  24.723  45.658  1.00  0.00     0.157 A 
ATOM      6  C   UNL     1      29.447  24.808  47.715  1.00  0.00     0.054 A 
ATOM      7  C   UNL     1      29.384  24.931  46.321  1.00  0.00     0.157 A 
BRANCH   5   8
ATOM      8  O   UNL     1      28.012  24.825  44.272  1.00  0.00    -0.504 OA
ATOM      9  H   UNL     1      28.762  25.084  43.648  1.00  0.00     0.293 HD
ENDBRANCH   5   8
BRANCH   7  10
ATOM     10  O   UNL     1      30.559  25.262  45.642  1.00  0.00    -0.504 OA
ATOM     11  H   UNL     1      30.843  24.842  44.769  1.00  0.00     0.293 HD
ENDBRANCH   7  10
ENDBRANCH   1   2
BRANCH   1  12
ATOM     12  C   UNL     1      27.340  23.387  50.489  1.00  0.00     0.161 C 
BRANCH  12  13
ATOM     13  O   UNL     1      26.894  23.783  51.758  1.00  0.00    -0.396 OA
ATOM     14  H   UNL     1      27.287  23.145  52.409  1.00  0.00     0.210 HD
ENDBRANCH  12  13
ENDBRANCH   1  12
TORSDOF 5
ENDMDL
MODEL 2
REMARK VINA RESULT:    -5.730      1.213      5.060
REMARK INTER + INTRA:          -6.979
REMARK INTER:                  -6.908
REMARK INTRA:                  -0.072
REMARK UNBOUND:                -0.077
REMARK SMILES OCCc1ccc(O)c(O)c1
REMARK SMILES IDX 3 1 4 2 5 3 6 4 7 5 11 6 9 7 8 8 10 10 2 12 1 13
REMARK H PARENT 8 9 10 11 1 14
REMARK Flexibility Score: inf
ROOT
ATOM      1  C   UNL     1      28.591  24.652  46.499  1.00  0.00     0.064 C 
ENDROOT
BRANCH   1   2
ATOM      2  C   UNL     1      28.189  24.289  47.904  1.00  0.00    -0.042 A 
ATOM      3  C   UNL     1      28.912  24.786  48.997  1.00  0.00     0.008 A 
ATOM      4  C   UNL     1      28.521  24.474  50.300  1.00  0.00     0.050 A 
ATOM      5  C   UNL     1      27.398  23.672  50.536  1.00  0.00     0.157 A 
ATOM      6  C   UNL     1      27.056  23.495  48.134  1.00  0.00     0.054 A 
ATOM      7  C   UNL     1      26.654  23.177  49.437  1.00  0.00     0.157 A 
BRANCH   5   8
ATOM      8  O   UNL     1      27.062  23.393  51.862  1.00  0.00    -0.504 OA
ATOM      9  H   UNL     1      26.720  24.084  52.514  1.00  0.00     0.293 HD
ENDBRANCH   5   8
BRANCH   7  10
ATOM     10  O   UNL     1      25.519  22.378  49.593  1.00  0.00    -0.504 OA
ATOM     11  H   UNL     1      24.809  22.539  50.292  1.00  0.00     0.293 HD
ENDBRANCH   7  10
ENDBRANCH   1   2
BRANCH   1  12
ATOM     12  C   UNL     1      27.365  24.712  45.585  1.00  0.00     0.161 C 
BRANCH  12  13
ATOM     13  O   UNL     1      27.748  24.535  44.248  1.00  0.00    -0.396 OA
ATOM     14  H   UNL     1      26.974  24.814  43.692  1.00  0.00     0.210 HD
ENDBRANCH  12  13
ENDBRANCH   1  12
TORSDOF 5
ENDMDL
MODEL 3
REMARK VINA RESULT:    -5.684      2.019      4.855
REMARK INTER + INTRA:          -6.924
REMARK INTER:                  -6.848
REMARK INTRA:                  -0.076
REMARK UNBOUND:                -0.077
REMARK SMILES OCCc1ccc(O)c(O)c1
REMARK SMILES IDX 3 1 4 2 5 3 6 4 7 5 11 6 9 7 8 8 10 10 2 12 1 13
REMARK H PARENT 8 9 10 11 1 14
REMARK Flexibility Score: inf
ROOT
ATOM      1  C   UNL     1      27.376  25.003  44.435  1.00  0.00     0.064 C 
ENDROOT
BRANCH   1   2
ATOM      2  C   UNL     1      27.869  24.789  45.842  1.00  0.00    -0.042 A 
ATOM      3  C   UNL     1      29.240  24.853  46.128  1.00  0.00     0.008 A 
ATOM      4  C   UNL     1      29.694  24.685  47.437  1.00  0.00     0.050 A 
ATOM      5  C   UNL     1      28.790  24.462  48.483  1.00  0.00     0.157 A 
ATOM      6  C   UNL     1      26.958  24.578  46.887  1.00  0.00     0.054 A 
ATOM      7  C   UNL     1      27.403  24.410  48.205  1.00  0.00     0.157 A 
BRANCH   5   8
ATOM      8  O   UNL     1      29.309  24.299  49.769  1.00  0.00    -0.504 OA
ATOM      9  H   UNL     1      30.262  24.512  50.025  1.00  0.00     0.293 HD
ENDBRANCH   5   8
BRANCH   7  10
ATOM     10  O   UNL     1      26.442  24.198  49.196  1.00  0.00    -0.504 OA
ATOM     11  H   UNL     1      26.661  23.963  50.152  1.00  0.00     0.293 HD
ENDBRANCH   7  10
ENDBRANCH   1   2
BRANCH   1  12
ATOM     12  C   UNL     1      25.910  25.439  44.437  1.00  0.00     0.161 C 
BRANCH  12  13
ATOM     13  O   UNL     1      25.738  26.567  43.623  1.00  0.00    -0.396 OA
ATOM     14  H   UNL     1      25.761  26.245  42.683  1.00  0.00     0.210 HD
ENDBRANCH  12  13
ENDBRANCH   1  12
TORSDOF 5
ENDMDL
MODEL 4
REMARK VINA RESULT:    -5.570      0.822      2.056
REMARK INTER + INTRA:          -6.787
REMARK INTER:                  -6.706
REMARK INTRA:                  -0.080
REMARK UNBOUND:                -0.077
REMARK SMILES OCCc1ccc(O)c(O)c1
REMARK SMILES IDX 3 1 4 2 5 3 6 4 7 5 11 6 9 7 8 8 10 10 2 12 1 13
REMARK H PARENT 8 9 10 11 1 14
REMARK Flexibility Score: inf
ROOT
ATOM      1  C   UNL     1      28.472  24.291  49.916  1.00  0.00     0.064 C 
ENDROOT
BRANCH   1   2
ATOM      2  C   UNL     1      28.405  24.474  48.423  1.00  0.00    -0.042 A 
ATOM      3  C   UNL     1      29.532  24.910  47.713  1.00  0.00     0.008 A 
ATOM      4  C   UNL     1      29.479  25.050  46.325  1.00  0.00     0.050 A 
ATOM      5  C   UNL     1      28.306  24.749  45.622  1.00  0.00     0.157 A 
ATOM      6  C   UNL     1      27.231  24.158  47.723  1.00  0.00     0.054 A 
ATOM      7  C   UNL     1      27.168  24.294  46.330  1.00  0.00     0.157 A 
BRANCH   5   8
ATOM      8  O   UNL     1      28.316  24.913  44.235  1.00  0.00    -0.504 OA
ATOM      9  H   UNL     1      28.375  24.150  43.577  1.00  0.00     0.293 HD
ENDBRANCH   5   8
BRANCH   7  10
ATOM     10  O   UNL     1      25.966  23.967  45.697  1.00  0.00    -0.504 OA
ATOM     11  H   UNL     1      25.536  23.055  45.742  1.00  0.00     0.293 HD
ENDBRANCH   7  10
ENDBRANCH   1   2
BRANCH   1  12
ATOM     12  C   UNL     1      27.338  23.386  50.401  1.00  0.00     0.161 C 
BRANCH  12  13
ATOM     13  O   UNL     1      26.879  23.813  51.655  1.00  0.00    -0.396 OA
ATOM     14  H   UNL     1      27.314  24.688  51.834  1.00  0.00     0.210 HD
ENDBRANCH  12  13
ENDBRANCH   1  12
TORSDOF 5
ENDMDL
MODEL 5
REMARK VINA RESULT:    -5.486      1.519      5.049
REMARK INTER + INTRA:          -6.686
REMARK INTER:                  -6.601
REMARK INTRA:                  -0.084
REMARK UNBOUND:                -0.077
REMARK SMILES OCCc1ccc(O)c(O)c1
REMARK SMILES IDX 3 1 4 2 5 3 6 4 7 5 11 6 9 7 8 8 10 10 2 12 1 13
REMARK H PARENT 8 9 10 11 1 14
REMARK Flexibility Score: inf
ROOT
ATOM      1  C   UNL     1      27.343  24.857  46.942  1.00  0.00     0.064 C 
ENDROOT
BRANCH   1   2
ATOM      2  C   UNL     1      27.608  23.914  48.085  1.00  0.00    -0.042 A 
ATOM      3  C   UNL     1      28.379  22.761  47.887  1.00  0.00     0.008 A 
ATOM      4  C   UNL     1      28.650  21.903  48.955  1.00  0.00     0.050 A 
ATOM      5  C   UNL     1      28.166  22.185  50.238  1.00  0.00     0.157 A 
ATOM      6  C   UNL     1      27.131  24.209  49.371  1.00  0.00     0.054 A 
ATOM      7  C   UNL     1      27.398  23.356  50.449  1.00  0.00     0.157 A 
BRANCH   5   8
ATOM      8  O   UNL     1      28.469  21.286  51.262  1.00  0.00    -0.504 OA
ATOM      9  H   UNL     1      27.949  20.439  51.441  1.00  0.00     0.293 HD
ENDBRANCH   5   8
BRANCH   7  10
ATOM     10  O   UNL     1      26.888  23.708  51.701  1.00  0.00    -0.504 OA
ATOM     11  H   UNL     1      27.396  24.250  52.384  1.00  0.00     0.293 HD
ENDBRANCH   7  10
ENDBRANCH   1   2
BRANCH   1  12
ATOM     12  C   UNL     1      26.892  24.087  45.699  1.00  0.00     0.161 C 
BRANCH  12  13
ATOM     13  O   UNL     1      27.654  24.471  44.587  1.00  0.00    -0.396 OA
ATOM     14  H   UNL     1      28.345  25.102  44.920  1.00  0.00     0.210 HD
ENDBRANCH  12  13
ENDBRANCH   1  12
TORSDOF 5
ENDMDL
MODEL 6
REMARK VINA RESULT:    -5.447      1.960      4.283
REMARK INTER + INTRA:          -6.639
REMARK INTER:                  -6.564
REMARK INTRA:                  -0.075
REMARK UNBOUND:                -0.077
REMARK SMILES OCCc1ccc(O)c(O)c1
REMARK SMILES IDX 3 1 4 2 5 3 6 4 7 5 11 6 9 7 8 8 10 10 2 12 1 13
REMARK H PARENT 8 9 10 11 1 14
REMARK Flexibility Score: inf
ROOT
ATOM      1  C   UNL     1      26.220  24.400  45.110  1.00  0.00     0.064 C 
ENDROOT
BRANCH   1   2
ATOM      2  C   UNL     1      27.286  24.250  46.161  1.00  0.00    -0.042 A 
ATOM      3  C   UNL     1      27.062  23.446  47.287  1.00  0.00     0.008 A 
ATOM      4  C   UNL     1      28.063  23.284  48.247  1.00  0.00     0.050 A 
ATOM      5  C   UNL     1      29.306  23.909  48.095  1.00  0.00     0.157 A 
ATOM      6  C   UNL     1      28.534  24.869  45.997  1.00  0.00     0.054 A 
ATOM      7  C   UNL     1      29.546  24.711  46.953  1.00  0.00     0.157 A 
BRANCH   5   8
ATOM      8  O   UNL     1      30.263  23.709  49.091  1.00  0.00    -0.504 OA
ATOM      9  H   UNL     1      30.900  24.423  49.413  1.00  0.00     0.293 HD
ENDBRANCH   5   8
BRANCH   7  10
ATOM     10  O   UNL     1      30.762  25.360  46.729  1.00  0.00    -0.504 OA
ATOM     11  H   UNL     1      30.910  26.347  46.879  1.00  0.00     0.293 HD
ENDBRANCH   7  10
ENDBRANCH   1   2
BRANCH   1  12
ATOM     12  C   UNL     1      26.587  25.507  44.120  1.00  0.00     0.161 C 
BRANCH  12  13
ATOM     13  O   UNL     1      25.447  26.245  43.773  1.00  0.00    -0.396 OA
ATOM     14  H   UNL     1      25.666  26.729  42.934  1.00  0.00     0.210 HD
ENDBRANCH  12  13
ENDBRANCH   1  12
TORSDOF 5
ENDMDL
MODEL 7
REMARK VINA RESULT:    -5.157      1.476      2.053
REMARK INTER + INTRA:          -6.290
REMARK INTER:                  -6.181
REMARK INTRA:                  -0.109
REMARK UNBOUND:                -0.077
REMARK SMILES OCCc1ccc(O)c(O)c1
REMARK SMILES IDX 3 1 4 2 5 3 6 4 7 5 11 6 9 7 8 8 10 10 2 12 1 13
REMARK H PARENT 8 9 10 11 1 14
REMARK Flexibility Score: inf
ROOT
ATOM      1  C   UNL     1      26.735  22.426  49.763  1.00  0.00     0.064 C 
ENDROOT
BRANCH   1   2
ATOM      2  C   UNL     1      27.681  23.130  48.828  1.00  0.00    -0.042 A 
ATOM      3  C   UNL     1      27.190  24.013  47.856  1.00  0.00     0.008 A 
ATOM      4  C   UNL     1      28.071  24.689  47.010  1.00  0.00     0.050 A 
ATOM      5  C   UNL     1      29.454  24.506  47.126  1.00  0.00     0.157 A 
ATOM      6  C   UNL     1      29.067  22.953  48.957  1.00  0.00     0.054 A 
ATOM      7  C   UNL     1      29.959  23.628  48.114  1.00  0.00     0.157 A 
BRANCH   5   8
ATOM      8  O   UNL     1      30.281  25.209  46.247  1.00  0.00    -0.504 OA
ATOM      9  H   UNL     1      30.497  26.191  46.339  1.00  0.00     0.293 HD
ENDBRANCH   5   8
BRANCH   7  10
ATOM     10  O   UNL     1      31.325  23.401  48.295  1.00  0.00    -0.504 OA
ATOM     11  H   UNL     1      31.702  22.665  48.874  1.00  0.00     0.293 HD
ENDBRANCH   7  10
ENDBRANCH   1   2
BRANCH   1  12
ATOM     12  C   UNL     1      27.219  22.538  51.209  1.00  0.00     0.161 C 
BRANCH  12  13
ATOM     13  O   UNL     1      26.892  23.796  51.735  1.00  0.00    -0.396 OA
ATOM     14  H   UNL     1      25.967  23.998  51.434  1.00  0.00     0.210 HD
ENDBRANCH  12  13
ENDBRANCH   1  12
TORSDOF 5
ENDMDL
MODEL 8
REMARK VINA RESULT:    -4.922      2.085      4.663
REMARK INTER + INTRA:          -6.006
REMARK INTER:                  -5.948
REMARK INTRA:                  -0.059
REMARK UNBOUND:                -0.077
REMARK SMILES OCCc1ccc(O)c(O)c1
REMARK SMILES IDX 3 1 4 2 5 3 6 4 7 5 11 6 9 7 8 8 10 10 2 12 1 13
REMARK H PARENT 8 9 10 11 1 14
REMARK Flexibility Score: inf
ROOT
ATOM      1  C   UNL     1      27.707  24.874  47.042  1.00  0.00     0.064 C 
ENDROOT
BRANCH   1   2
ATOM      2  C   UNL     1      27.913  23.905  48.176  1.00  0.00    -0.042 A 
ATOM      3  C   UNL     1      26.845  23.561  49.015  1.00  0.00     0.008 A 
ATOM      4  C   UNL     1      27.029  22.639  50.047  1.00  0.00     0.050 A 
ATOM      5  C   UNL     1      28.275  22.037  50.252  1.00  0.00     0.157 A 
ATOM      6  C   UNL     1      29.162  23.295  48.368  1.00  0.00     0.054 A 
ATOM      7  C   UNL     1      29.356  22.367  49.399  1.00  0.00     0.157 A 
BRANCH   5   8
ATOM      8  O   UNL     1      28.395  21.125  51.303  1.00  0.00    -0.504 OA
ATOM      9  H   UNL     1      29.014  20.328  51.290  1.00  0.00     0.293 HD
ENDBRANCH   5   8
BRANCH   7  10
ATOM     10  O   UNL     1      30.626  21.803  49.537  1.00  0.00    -0.504 OA
ATOM     11  H   UNL     1      30.796  20.886  49.923  1.00  0.00     0.293 HD
ENDBRANCH   7  10
ENDBRANCH   1   2
BRANCH   1  12
ATOM     12  C   UNL     1      26.984  24.197  45.876  1.00  0.00     0.161 C 
BRANCH  12  13
ATOM     13  O   UNL     1      27.625  24.500  44.666  1.00  0.00    -0.396 OA
ATOM     14  H   UNL     1      28.587  24.290  44.794  1.00  0.00     0.210 HD
ENDBRANCH  12  13
ENDBRANCH   1  12
TORSDOF 5
ENDMDL
MODEL 9
REMARK VINA RESULT:    -4.759      2.813      4.136
REMARK INTER + INTRA:          -5.810
REMARK INTER:                  -5.707
REMARK INTRA:                  -0.103
REMARK UNBOUND:                -0.077
REMARK SMILES OCCc1ccc(O)c(O)c1
REMARK SMILES IDX 3 1 4 2 5 3 6 4 7 5 11 6 9 7 8 8 10 10 2 12 1 13
REMARK H PARENT 8 9 10 11 1 14
REMARK Flexibility Score: inf
ROOT
ATOM      1  C   UNL     1      29.317  22.432  52.480  1.00  0.00     0.064 C 
ENDROOT
BRANCH   1   2
ATOM      2  C   UNL     1      28.583  23.068  51.330  1.00  0.00    -0.042 A 
ATOM      3  C   UNL     1      29.149  24.150  50.642  1.00  0.00     0.008 A 
ATOM      4  C   UNL     1      28.481  24.719  49.556  1.00  0.00     0.050 A 
ATOM      5  C   UNL     1      27.247  24.213  49.131  1.00  0.00     0.157 A 
ATOM      6  C   UNL     1      27.353  22.548  50.901  1.00  0.00     0.054 A 
ATOM      7  C   UNL     1      26.676  23.111  49.812  1.00  0.00     0.157 A 
BRANCH   5   8
ATOM      8  O   UNL     1      26.630  24.829  48.041  1.00  0.00    -0.504 OA
ATOM      9  H   UNL     1      27.007  25.631  47.558  1.00  0.00     0.293 HD
ENDBRANCH   5   8
BRANCH   7  10
ATOM     10  O   UNL     1      25.453  22.547  49.442  1.00  0.00    -0.504 OA
ATOM     11  H   UNL     1      25.358  21.786  48.786  1.00  0.00     0.293 HD
ENDBRANCH   7  10
ENDBRANCH   1   2
BRANCH   1  12
ATOM     12  C   UNL     1      28.568  22.662  53.794  1.00  0.00     0.161 C 
BRANCH  12  13
ATOM     13  O   UNL     1      28.765  23.977  54.240  1.00  0.00    -0.396 OA
ATOM     14  H   UNL     1      27.901  24.451  54.116  1.00  0.00     0.210 HD
ENDBRANCH  12  13
ENDBRANCH   1  12
TORSDOF 5
ENDMDL
