MODEL 1
REMARK VINA RESULT:    -2.669      0.000      0.000
REMARK INTER + INTRA:         -13.535
REMARK INTER:                  -7.039
REMARK INTRA:                  -6.496
REMARK UNBOUND:                -6.496
REMARK SMILES CCCCCCCCCCCCCCCCCCCCCCCCCCCCCC(=O)[O-]
REMARK SMILES IDX 16 1 17 2 18 3 19 4 20 5 21 6 22 7 23 8 24 9 25 10 26 11
REMARK SMILES IDX 27 12 28 13 29 14 30 15 31 16 32 17 15 18 14 19 13 20 12 21
REMARK SMILES IDX 11 22 10 23 9 24 8 25 7 26 6 27 5 28 4 29 3 30 2 31 1 32
REMARK H PARENT
REMARK Flexibility Score: inf
ROOT
ATOM      1  C   UNL     1      63.953  35.154  61.626  1.00  0.00     0.000 C 
ENDROOT
BRANCH   1   2
ATOM      2  C   UNL     1      65.249  35.821  61.119  1.00  0.00     0.000 C 
BRANCH   2   3
ATOM      3  C   UNL     1      65.113  36.465  59.728  1.00  0.00     0.000 C 
BRANCH   3   4
ATOM      4  C   UNL     1      66.076  35.860  58.694  1.00  0.00     0.000 C 
BRANCH   4   5
ATOM      5  C   UNL     1      65.650  34.451  58.234  1.00  0.00     0.000 C 
BRANCH   5   6
ATOM      6  C   UNL     1      64.139  34.281  57.985  1.00  0.00     0.000 C 
BRANCH   6   7
ATOM      7  C   UNL     1      63.709  34.722  56.576  1.00  0.00     0.000 C 
BRANCH   7   8
ATOM      8  C   UNL     1      62.984  33.584  55.842  1.00  0.00     0.000 C 
BRANCH   8   9
ATOM      9  C   UNL     1      61.661  33.180  56.521  1.00  0.00     0.000 C 
BRANCH   9  10
ATOM     10  C   UNL     1      60.456  34.072  56.167  1.00  0.00     0.000 C 
BRANCH  10  11
ATOM     11  C   UNL     1      59.858  34.860  57.349  1.00  0.00     0.000 C 
BRANCH  11  12
ATOM     12  C   UNL     1      58.365  34.565  57.607  1.00  0.00     0.000 C 
BRANCH  12  13
ATOM     13  C   UNL     1      57.927  33.209  57.025  1.00  0.00     0.006 C 
BRANCH  13  14
ATOM     14  C   UNL     1      57.801  32.125  58.105  1.00  0.00     0.053 C 
BRANCH  14  15
ATOM     15  C   UNL     1      58.408  30.821  57.677  1.00  0.00     0.041 C 
ATOM     16  O   UNL     1      58.305  29.799  58.408  1.00  0.00    -0.550 OA
ATOM     17  O   UNL     1      59.111  30.742  56.479  1.00  0.00    -0.550 OA
ENDBRANCH  14  15
ENDBRANCH  13  14
ENDBRANCH  12  13
ENDBRANCH  11  12
ENDBRANCH  10  11
ENDBRANCH   9  10
ENDBRANCH   8   9
ENDBRANCH   7   8
ENDBRANCH   6   7
ENDBRANCH   5   6
ENDBRANCH   4   5
ENDBRANCH   3   4
ENDBRANCH   2   3
ENDBRANCH   1   2
BRANCH   1  18
ATOM     18  C   UNL     1      62.695  35.935  61.205  1.00  0.00     0.000 C 
BRANCH  18  19
ATOM     19  C   UNL     1      61.631  35.044  60.543  1.00  0.00     0.000 C 
BRANCH  19  20
ATOM     20  C   UNL     1      61.800  33.558  60.898  1.00  0.00     0.000 C 
BRANCH  20  21
ATOM     21  C   UNL     1      61.028  32.621  59.950  1.00  0.00     0.000 C 
BRANCH  21  22
ATOM     22  C   UNL     1      60.701  31.229  60.521  1.00  0.00     0.000 C 
BRANCH  22  23
ATOM     23  C   UNL     1      61.306  30.994  61.913  1.00  0.00     0.000 C 
BRANCH  23  24
ATOM     24  C   UNL     1      61.933  29.598  62.015  1.00  0.00    -0.000 C 
BRANCH  24  25
ATOM     25  C   UNL     1      63.294  29.554  61.306  1.00  0.00    -0.000 C 
BRANCH  25  26
ATOM     26  C   UNL     1      64.163  30.791  61.603  1.00  0.00    -0.000 C 
BRANCH  26  27
ATOM     27  C   UNL     1      64.661  31.545  60.356  1.00  0.00    -0.000 C 
BRANCH  27  28
ATOM     28  C   UNL     1      65.352  30.625  59.339  1.00  0.00    -0.000 C 
BRANCH  28  29
ATOM     29  C   UNL     1      64.703  30.747  57.955  1.00  0.00    -0.000 C 
BRANCH  29  30
ATOM     30  C   UNL     1      63.888  29.491  57.619  1.00  0.00    -0.000 C 
BRANCH  30  31
ATOM     31  C   UNL     1      62.384  29.775  57.678  1.00  0.00    -0.003 C 
ATOM     32  C   UNL     1      61.609  28.545  58.143  1.00  0.00     0.004 C 
ENDBRANCH  30  31
ENDBRANCH  29  30
ENDBRANCH  28  29
ENDBRANCH  27  28
ENDBRANCH  26  27
ENDBRANCH  25  26
ENDBRANCH  24  25
ENDBRANCH  23  24
ENDBRANCH  22  23
ENDBRANCH  21  22
ENDBRANCH  20  21
ENDBRANCH  19  20
ENDBRANCH  18  19
ENDBRANCH   1  18
TORSDOF 28
ENDMDL
MODEL 2
REMARK VINA RESULT:    -2.661      3.574      6.507
REMARK INTER + INTRA:         -13.513
REMARK INTER:                  -7.720
REMARK INTRA:                  -5.793
REMARK UNBOUND:                -6.496
REMARK SMILES CCCCCCCCCCCCCCCCCCCCCCCCCCCCCC(=O)[O-]
REMARK SMILES IDX 16 1 17 2 18 3 19 4 20 5 21 6 22 7 23 8 24 9 25 10 26 11
REMARK SMILES IDX 27 12 28 13 29 14 30 15 31 16 32 17 15 18 14 19 13 20 12 21
REMARK SMILES IDX 11 22 10 23 9 24 8 25 7 26 6 27 5 28 4 29 3 30 2 31 1 32
REMARK H PARENT
REMARK Flexibility Score: inf
ROOT
ATOM      1  C   UNL     1      61.643  31.432  58.541  1.00  0.00     0.000 C 
ENDROOT
BRANCH   1   2
ATOM      2  C   UNL     1      61.140  32.876  58.753  1.00  0.00     0.000 C 
BRANCH   2   3
ATOM      3  C   UNL     1      62.187  33.812  59.381  1.00  0.00     0.000 C 
BRANCH   3   4
ATOM      4  C   UNL     1      61.644  34.583  60.596  1.00  0.00     0.000 C 
BRANCH   4   5
ATOM      5  C   UNL     1      62.706  35.488  61.252  1.00  0.00     0.000 C 
BRANCH   5   6
ATOM      6  C   UNL     1      64.080  34.824  61.467  1.00  0.00     0.000 C 
BRANCH   6   7
ATOM      7  C   UNL     1      65.228  35.586  60.786  1.00  0.00     0.000 C 
BRANCH   7   8
ATOM      8  C   UNL     1      64.702  36.826  60.048  1.00  0.00     0.000 C 
BRANCH   8   9
ATOM      9  C   UNL     1      65.002  36.796  58.537  1.00  0.00     0.000 C 
BRANCH   9  10
ATOM     10  C   UNL     1      65.242  35.391  57.953  1.00  0.00     0.000 C 
BRANCH  10  11
ATOM     11  C   UNL     1      66.565  35.221  57.180  1.00  0.00     0.000 C 
BRANCH  11  12
ATOM     12  C   UNL     1      67.619  36.302  57.502  1.00  0.00     0.000 C 
BRANCH  12  13
ATOM     13  C   UNL     1      68.505  35.919  58.700  1.00  0.00     0.006 C 
BRANCH  13  14
ATOM     14  C   UNL     1      69.984  35.782  58.312  1.00  0.00     0.053 C 
BRANCH  14  15
ATOM     15  C   UNL     1      70.492  34.382  58.491  1.00  0.00     0.041 C 
ATOM     16  O   UNL     1      70.526  33.585  57.514  1.00  0.00    -0.550 OA
ATOM     17  O   UNL     1      70.906  33.948  59.746  1.00  0.00    -0.550 OA
ENDBRANCH  14  15
ENDBRANCH  13  14
ENDBRANCH  12  13
ENDBRANCH  11  12
ENDBRANCH  10  11
ENDBRANCH   9  10
ENDBRANCH   8   9
ENDBRANCH   7   8
ENDBRANCH   6   7
ENDBRANCH   5   6
ENDBRANCH   4   5
ENDBRANCH   3   4
ENDBRANCH   2   3
ENDBRANCH   1   2
BRANCH   1  18
ATOM     18  C   UNL     1      60.850  30.413  59.378  1.00  0.00     0.000 C 
BRANCH  18  19
ATOM     19  C   UNL     1      60.318  31.004  60.694  1.00  0.00     0.000 C 
BRANCH  19  20
ATOM     20  C   UNL     1      61.351  30.939  61.832  1.00  0.00     0.000 C 
BRANCH  20  21
ATOM     21  C   UNL     1      62.150  29.622  61.845  1.00  0.00     0.000 C 
BRANCH  21  22
ATOM     22  C   UNL     1      63.679  29.778  61.752  1.00  0.00     0.000 C 
BRANCH  22  23
ATOM     23  C   UNL     1      64.110  31.130  61.165  1.00  0.00     0.000 C 
BRANCH  23  24
ATOM     24  C   UNL     1      65.367  30.982  60.300  1.00  0.00    -0.000 C 
BRANCH  24  25
ATOM     25  C   UNL     1      65.296  31.894  59.066  1.00  0.00    -0.000 C 
BRANCH  25  26
ATOM     26  C   UNL     1      65.375  31.111  57.741  1.00  0.00    -0.000 C 
BRANCH  26  27
ATOM     27  C   UNL     1      65.345  29.579  57.893  1.00  0.00    -0.000 C 
BRANCH  27  28
ATOM     28  C   UNL     1      64.034  28.955  57.393  1.00  0.00    -0.000 C 
BRANCH  28  29
ATOM     29  C   UNL     1      63.407  28.056  58.467  1.00  0.00    -0.000 C 
BRANCH  29  30
ATOM     30  C   UNL     1      64.469  27.161  59.120  1.00  0.00    -0.000 C 
BRANCH  30  31
ATOM     31  C   UNL     1      63.907  26.447  60.353  1.00  0.00    -0.003 C 
ATOM     32  C   UNL     1      62.486  25.947  60.100  1.00  0.00     0.004 C 
ENDBRANCH  30  31
ENDBRANCH  29  30
ENDBRANCH  28  29
ENDBRANCH  27  28
ENDBRANCH  26  27
ENDBRANCH  25  26
ENDBRANCH  24  25
ENDBRANCH  23  24
ENDBRANCH  22  23
ENDBRANCH  21  22
ENDBRANCH  20  21
ENDBRANCH  19  20
ENDBRANCH  18  19
ENDBRANCH   1  18
TORSDOF 28
ENDMDL
MODEL 3
REMARK VINA RESULT:    -2.639      2.297      6.335
REMARK INTER + INTRA:         -13.456
REMARK INTER:                  -7.901
REMARK INTRA:                  -5.556
REMARK UNBOUND:                -6.496
REMARK SMILES CCCCCCCCCCCCCCCCCCCCCCCCCCCCCC(=O)[O-]
REMARK SMILES IDX 16 1 17 2 18 3 19 4 20 5 21 6 22 7 23 8 24 9 25 10 26 11
REMARK SMILES IDX 27 12 28 13 29 14 30 15 31 16 32 17 15 18 14 19 13 20 12 21
REMARK SMILES IDX 11 22 10 23 9 24 8 25 7 26 6 27 5 28 4 29 3 30 2 31 1 32
REMARK H PARENT
REMARK Flexibility Score: inf
ROOT
ATOM      1  C   UNL     1      62.530  31.992  58.431  1.00  0.00     0.000 C 
ENDROOT
BRANCH   1   2
ATOM      2  C   UNL     1      61.262  31.144  58.667  1.00  0.00     0.000 C 
BRANCH   2   3
ATOM      3  C   UNL     1      60.350  31.687  59.781  1.00  0.00     0.000 C 
BRANCH   3   4
ATOM      4  C   UNL     1      61.103  31.941  61.097  1.00  0.00     0.000 C 
BRANCH   4   5
ATOM      5  C   UNL     1      61.203  30.681  61.981  1.00  0.00     0.000 C 
BRANCH   5   6
ATOM      6  C   UNL     1      62.600  30.033  62.026  1.00  0.00     0.000 C 
BRANCH   6   7
ATOM      7  C   UNL     1      62.683  28.730  61.214  1.00  0.00     0.000 C 
BRANCH   7   8
ATOM      8  C   UNL     1      61.912  27.599  61.911  1.00  0.00     0.000 C 
BRANCH   8   9
ATOM      9  C   UNL     1      60.842  26.957  61.008  1.00  0.00     0.000 C 
BRANCH   9  10
ATOM     10  C   UNL     1      59.436  26.873  61.632  1.00  0.00     0.000 C 
BRANCH  10  11
ATOM     11  C   UNL     1      58.534  28.097  61.378  1.00  0.00     0.000 C 
BRANCH  11  12
ATOM     12  C   UNL     1      58.515  28.564  59.906  1.00  0.00     0.000 C 
BRANCH  12  13
ATOM     13  C   UNL     1      57.716  27.610  59.000  1.00  0.00     0.006 C 
BRANCH  13  14
ATOM     14  C   UNL     1      56.284  27.386  59.508  1.00  0.00     0.053 C 
BRANCH  14  15
ATOM     15  C   UNL     1      55.252  27.761  58.485  1.00  0.00     0.041 C 
ATOM     16  O   UNL     1      55.025  28.974  58.224  1.00  0.00    -0.550 OA
ATOM     17  O   UNL     1      54.523  26.770  57.838  1.00  0.00    -0.550 OA
ENDBRANCH  14  15
ENDBRANCH  13  14
ENDBRANCH  12  13
ENDBRANCH  11  12
ENDBRANCH  10  11
ENDBRANCH   9  10
ENDBRANCH   8   9
ENDBRANCH   7   8
ENDBRANCH   6   7
ENDBRANCH   5   6
ENDBRANCH   4   5
ENDBRANCH   3   4
ENDBRANCH   2   3
ENDBRANCH   1   2
BRANCH   1  18
ATOM     18  C   UNL     1      63.819  31.193  58.691  1.00  0.00     0.000 C 
BRANCH  18  19
ATOM     19  C   UNL     1      64.742  31.865  59.720  1.00  0.00     0.000 C 
BRANCH  19  20
ATOM     20  C   UNL     1      64.491  33.378  59.841  1.00  0.00     0.000 C 
BRANCH  20  21
ATOM     21  C   UNL     1      64.250  33.834  61.293  1.00  0.00     0.000 C 
BRANCH  21  22
ATOM     22  C   UNL     1      64.468  35.335  61.556  1.00  0.00     0.000 C 
BRANCH  22  23
ATOM     23  C   UNL     1      63.272  36.199  61.132  1.00  0.00     0.000 C 
BRANCH  23  24
ATOM     24  C   UNL     1      61.960  35.410  61.219  1.00  0.00    -0.000 C 
BRANCH  24  25
ATOM     25  C   UNL     1      60.937  35.929  60.197  1.00  0.00    -0.000 C 
BRANCH  25  26
ATOM     26  C   UNL     1      61.264  35.501  58.754  1.00  0.00    -0.000 C 
BRANCH  26  27
ATOM     27  C   UNL     1      60.099  34.837  57.997  1.00  0.00    -0.000 C 
BRANCH  27  28
ATOM     28  C   UNL     1      58.765  35.575  58.190  1.00  0.00    -0.000 C 
BRANCH  28  29
ATOM     29  C   UNL     1      57.582  34.690  57.780  1.00  0.00    -0.000 C 
BRANCH  29  30
ATOM     30  C   UNL     1      58.070  33.380  57.148  1.00  0.00    -0.000 C 
BRANCH  30  31
ATOM     31  C   UNL     1      57.374  32.169  57.778  1.00  0.00    -0.003 C 
ATOM     32  C   UNL     1      57.818  30.870  57.111  1.00  0.00     0.004 C 
ENDBRANCH  30  31
ENDBRANCH  29  30
ENDBRANCH  28  29
ENDBRANCH  27  28
ENDBRANCH  26  27
ENDBRANCH  25  26
ENDBRANCH  24  25
ENDBRANCH  23  24
ENDBRANCH  22  23
ENDBRANCH  21  22
ENDBRANCH  20  21
ENDBRANCH  19  20
ENDBRANCH  18  19
ENDBRANCH   1  18
TORSDOF 28
ENDMDL
MODEL 4
REMARK VINA RESULT:    -2.639      7.655     11.390
REMARK INTER + INTRA:         -13.456
REMARK INTER:                  -8.256
REMARK INTRA:                  -5.200
REMARK UNBOUND:                -6.496
REMARK SMILES CCCCCCCCCCCCCCCCCCCCCCCCCCCCCC(=O)[O-]
REMARK SMILES IDX 16 1 17 2 18 3 19 4 20 5 21 6 22 7 23 8 24 9 25 10 26 11
REMARK SMILES IDX 27 12 28 13 29 14 30 15 31 16 32 17 15 18 14 19 13 20 12 21
REMARK SMILES IDX 11 22 10 23 9 24 8 25 7 26 6 27 5 28 4 29 3 30 2 31 1 32
REMARK H PARENT
REMARK Flexibility Score: inf
ROOT
ATOM      1  C   UNL     1      59.422  29.119  52.287  1.00  0.00     0.000 C 
ENDROOT
BRANCH   1   2
ATOM      2  C   UNL     1      58.354  29.616  51.289  1.00  0.00     0.000 C 
BRANCH   2   3
ATOM      3  C   UNL     1      58.713  29.357  49.815  1.00  0.00     0.000 C 
BRANCH   3   4
ATOM      4  C   UNL     1      58.659  27.867  49.441  1.00  0.00     0.000 C 
BRANCH   4   5
ATOM      5  C   UNL     1      60.052  27.272  49.155  1.00  0.00     0.000 C 
BRANCH   5   6
ATOM      6  C   UNL     1      60.547  26.254  50.200  1.00  0.00     0.000 C 
BRANCH   6   7
ATOM      7  C   UNL     1      61.938  26.596  50.759  1.00  0.00     0.000 C 
BRANCH   7   8
ATOM      8  C   UNL     1      63.035  25.822  50.013  1.00  0.00     0.000 C 
BRANCH   8   9
ATOM      9  C   UNL     1      64.102  26.744  49.391  1.00  0.00     0.000 C 
BRANCH   9  10
ATOM     10  C   UNL     1      63.541  27.956  48.624  1.00  0.00     0.000 C 
BRANCH  10  11
ATOM     11  C   UNL     1      64.001  29.331  49.149  1.00  0.00     0.000 C 
BRANCH  11  12
ATOM     12  C   UNL     1      62.843  30.250  49.592  1.00  0.00     0.000 C 
BRANCH  12  13
ATOM     13  C   UNL     1      63.103  31.727  49.246  1.00  0.00     0.006 C 
BRANCH  13  14
ATOM     14  C   UNL     1      62.308  32.685  50.147  1.00  0.00     0.053 C 
BRANCH  14  15
ATOM     15  C   UNL     1      61.984  33.977  49.457  1.00  0.00     0.041 C 
ATOM     16  O   UNL     1      61.478  34.935  50.103  1.00  0.00    -0.550 OA
ATOM     17  O   UNL     1      62.217  34.115  48.093  1.00  0.00    -0.550 OA
ENDBRANCH  14  15
ENDBRANCH  13  14
ENDBRANCH  12  13
ENDBRANCH  11  12
ENDBRANCH  10  11
ENDBRANCH   9  10
ENDBRANCH   8   9
ENDBRANCH   7   8
ENDBRANCH   6   7
ENDBRANCH   5   6
ENDBRANCH   4   5
ENDBRANCH   3   4
ENDBRANCH   2   3
ENDBRANCH   1   2
BRANCH   1  18
ATOM     18  C   UNL     1      58.809  28.284  53.425  1.00  0.00     0.000 C 
BRANCH  18  19
ATOM     19  C   UNL     1      57.515  27.565  53.010  1.00  0.00     0.000 C 
BRANCH  19  20
ATOM     20  C   UNL     1      57.711  26.050  52.833  1.00  0.00     0.000 C 
BRANCH  20  21
ATOM     21  C   UNL     1      57.137  25.520  51.506  1.00  0.00     0.000 C 
BRANCH  21  22
ATOM     22  C   UNL     1      55.630  25.760  51.298  1.00  0.00     0.000 C 
BRANCH  22  23
ATOM     23  C   UNL     1      55.293  26.278  49.892  1.00  0.00     0.000 C 
BRANCH  23  24
ATOM     24  C   UNL     1      54.268  27.417  49.953  1.00  0.00    -0.000 C 
BRANCH  24  25
ATOM     25  C   UNL     1      54.950  28.754  50.276  1.00  0.00    -0.000 C 
BRANCH  25  26
ATOM     26  C   UNL     1      54.082  29.668  51.162  1.00  0.00    -0.000 C 
BRANCH  26  27
ATOM     27  C   UNL     1      54.480  29.694  52.649  1.00  0.00    -0.000 C 
BRANCH  27  28
ATOM     28  C   UNL     1      55.569  30.731  52.958  1.00  0.00    -0.000 C 
BRANCH  28  29
ATOM     29  C   UNL     1      55.977  30.679  54.436  1.00  0.00    -0.000 C 
BRANCH  29  30
ATOM     30  C   UNL     1      57.037  31.744  54.749  1.00  0.00    -0.000 C 
BRANCH  30  31
ATOM     31  C   UNL     1      57.243  32.686  53.559  1.00  0.00    -0.003 C 
ATOM     32  C   UNL     1      58.712  32.741  53.148  1.00  0.00     0.004 C 
ENDBRANCH  30  31
ENDBRANCH  29  30
ENDBRANCH  28  29
ENDBRANCH  27  28
ENDBRANCH  26  27
ENDBRANCH  25  26
ENDBRANCH  24  25
ENDBRANCH  23  24
ENDBRANCH  22  23
ENDBRANCH  21  22
ENDBRANCH  20  21
ENDBRANCH  19  20
ENDBRANCH  18  19
ENDBRANCH   1  18
TORSDOF 28
ENDMDL
MODEL 5
REMARK VINA RESULT:    -2.630      2.249      6.628
REMARK INTER + INTRA:         -13.430
REMARK INTER:                  -7.290
REMARK INTRA:                  -6.140
REMARK UNBOUND:                -6.496
REMARK SMILES CCCCCCCCCCCCCCCCCCCCCCCCCCCCCC(=O)[O-]
REMARK SMILES IDX 16 1 17 2 18 3 19 4 20 5 21 6 22 7 23 8 24 9 25 10 26 11
REMARK SMILES IDX 27 12 28 13 29 14 30 15 31 16 32 17 15 18 14 19 13 20 12 21
REMARK SMILES IDX 11 22 10 23 9 24 8 25 7 26 6 27 5 28 4 29 3 30 2 31 1 32
REMARK H PARENT
REMARK Flexibility Score: inf
ROOT
ATOM      1  C   UNL     1      62.676  29.726  57.946  1.00  0.00     0.000 C 
ENDROOT
BRANCH   1   2
ATOM      2  C   UNL     1      61.161  29.431  57.929  1.00  0.00     0.000 C 
BRANCH   2   3
ATOM      3  C   UNL     1      60.282  30.691  58.022  1.00  0.00     0.000 C 
BRANCH   3   4
ATOM      4  C   UNL     1      60.026  31.135  59.471  1.00  0.00     0.000 C 
BRANCH   4   5
ATOM      5  C   UNL     1      60.827  32.394  59.861  1.00  0.00     0.000 C 
BRANCH   5   6
ATOM      6  C   UNL     1      61.691  32.244  61.127  1.00  0.00     0.000 C 
BRANCH   6   7
ATOM      7  C   UNL     1      61.765  30.795  61.635  1.00  0.00     0.000 C 
BRANCH   7   8
ATOM      8  C   UNL     1      63.223  30.328  61.755  1.00  0.00     0.000 C 
BRANCH   8   9
ATOM      9  C   UNL     1      63.408  28.840  61.400  1.00  0.00     0.000 C 
BRANCH   9  10
ATOM     10  C   UNL     1      62.206  27.941  61.744  1.00  0.00     0.000 C 
BRANCH  10  11
ATOM     11  C   UNL     1      61.746  27.003  60.610  1.00  0.00     0.000 C 
BRANCH  11  12
ATOM     12  C   UNL     1      60.213  26.843  60.516  1.00  0.00     0.000 C 
BRANCH  12  13
ATOM     13  C   UNL     1      59.460  28.034  61.134  1.00  0.00     0.006 C 
BRANCH  13  14
ATOM     14  C   UNL     1      58.011  28.130  60.634  1.00  0.00     0.053 C 
BRANCH  14  15
ATOM     15  C   UNL     1      57.025  27.631  61.648  1.00  0.00     0.041 C 
ATOM     16  O   UNL     1      57.230  26.546  62.258  1.00  0.00    -0.550 OA
ATOM     17  O   UNL     1      55.865  28.354  61.904  1.00  0.00    -0.550 OA
ENDBRANCH  14  15
ENDBRANCH  13  14
ENDBRANCH  12  13
ENDBRANCH  11  12
ENDBRANCH  10  11
ENDBRANCH   9  10
ENDBRANCH   8   9
ENDBRANCH   7   8
ENDBRANCH   6   7
ENDBRANCH   5   6
ENDBRANCH   4   5
ENDBRANCH   3   4
ENDBRANCH   2   3
ENDBRANCH   1   2
BRANCH   1  18
ATOM     18  C   UNL     1      63.093  30.687  56.819  1.00  0.00     0.000 C 
BRANCH  18  19
ATOM     19  C   UNL     1      63.651  32.020  57.344  1.00  0.00     0.000 C 
BRANCH  19  20
ATOM     20  C   UNL     1      64.434  31.856  58.658  1.00  0.00     0.000 C 
BRANCH  20  21
ATOM     21  C   UNL     1      64.819  33.202  59.301  1.00  0.00     0.000 C 
BRANCH  21  22
ATOM     22  C   UNL     1      65.241  34.306  58.314  1.00  0.00     0.000 C 
BRANCH  22  23
ATOM     23  C   UNL     1      65.762  35.570  59.014  1.00  0.00     0.000 C 
BRANCH  23  24
ATOM     24  C   UNL     1      64.607  36.494  59.418  1.00  0.00    -0.000 C 
BRANCH  24  25
ATOM     25  C   UNL     1      64.358  36.433  60.932  1.00  0.00    -0.000 C 
BRANCH  25  26
ATOM     26  C   UNL     1      63.027  35.745  61.290  1.00  0.00    -0.000 C 
BRANCH  26  27
ATOM     27  C   UNL     1      61.796  36.671  61.272  1.00  0.00    -0.000 C 
BRANCH  27  28
ATOM     28  C   UNL     1      60.578  36.031  60.590  1.00  0.00    -0.000 C 
BRANCH  28  29
ATOM     29  C   UNL     1      60.276  36.713  59.249  1.00  0.00    -0.000 C 
BRANCH  29  30
ATOM     30  C   UNL     1      60.227  35.685  58.111  1.00  0.00    -0.000 C 
BRANCH  30  31
ATOM     31  C   UNL     1      61.611  35.081  57.851  1.00  0.00    -0.003 C 
ATOM     32  C   UNL     1      62.230  35.652  56.578  1.00  0.00     0.004 C 
ENDBRANCH  30  31
ENDBRANCH  29  30
ENDBRANCH  28  29
ENDBRANCH  27  28
ENDBRANCH  26  27
ENDBRANCH  25  26
ENDBRANCH  24  25
ENDBRANCH  23  24
ENDBRANCH  22  23
ENDBRANCH  21  22
ENDBRANCH  20  21
ENDBRANCH  19  20
ENDBRANCH  18  19
ENDBRANCH   1  18
TORSDOF 28
ENDMDL
MODEL 6
REMARK VINA RESULT:    -2.627      2.458      6.216
REMARK INTER + INTRA:         -13.424
REMARK INTER:                  -7.041
REMARK INTRA:                  -6.383
REMARK UNBOUND:                -6.496
REMARK SMILES CCCCCCCCCCCCCCCCCCCCCCCCCCCCCC(=O)[O-]
REMARK SMILES IDX 16 1 17 2 18 3 19 4 20 5 21 6 22 7 23 8 24 9 25 10 26 11
REMARK SMILES IDX 27 12 28 13 29 14 30 15 31 16 32 17 15 18 14 19 13 20 12 21
REMARK SMILES IDX 11 22 10 23 9 24 8 25 7 26 6 27 5 28 4 29 3 30 2 31 1 32
REMARK H PARENT
REMARK Flexibility Score: inf
ROOT
ATOM      1  C   UNL     1      63.647  30.052  59.127  1.00  0.00     0.000 C 
ENDROOT
BRANCH   1   2
ATOM      2  C   UNL     1      64.103  29.691  60.557  1.00  0.00     0.000 C 
BRANCH   2   3
ATOM      3  C   UNL     1      63.387  30.495  61.658  1.00  0.00     0.000 C 
BRANCH   3   4
ATOM      4  C   UNL     1      62.057  29.858  62.092  1.00  0.00     0.000 C 
BRANCH   4   5
ATOM      5  C   UNL     1      60.848  30.787  61.864  1.00  0.00     0.000 C 
BRANCH   5   6
ATOM      6  C   UNL     1      61.190  32.152  61.236  1.00  0.00     0.000 C 
BRANCH   6   7
ATOM      7  C   UNL     1      60.631  32.314  59.813  1.00  0.00     0.000 C 
BRANCH   7   8
ATOM      8  C   UNL     1      59.838  31.068  59.390  1.00  0.00     0.000 C 
BRANCH   8   9
ATOM      9  C   UNL     1      60.358  30.442  58.081  1.00  0.00     0.000 C 
BRANCH   9  10
ATOM     10  C   UNL     1      60.152  28.919  57.968  1.00  0.00     0.000 C 
BRANCH  10  11
ATOM     11  C   UNL     1      60.470  28.121  59.248  1.00  0.00     0.000 C 
BRANCH  11  12
ATOM     12  C   UNL     1      59.219  27.586  59.977  1.00  0.00     0.000 C 
BRANCH  12  13
ATOM     13  C   UNL     1      59.523  27.155  61.423  1.00  0.00     0.006 C 
BRANCH  13  14
ATOM     14  C   UNL     1      59.982  25.692  61.512  1.00  0.00     0.053 C 
BRANCH  14  15
ATOM     15  C   UNL     1      61.432  25.572  61.877  1.00  0.00     0.041 C 
ATOM     16  O   UNL     1      61.965  26.408  62.656  1.00  0.00    -0.550 OA
ATOM     17  O   UNL     1      62.203  24.548  61.337  1.00  0.00    -0.550 OA
ENDBRANCH  14  15
ENDBRANCH  13  14
ENDBRANCH  12  13
ENDBRANCH  11  12
ENDBRANCH  10  11
ENDBRANCH   9  10
ENDBRANCH   8   9
ENDBRANCH   7   8
ENDBRANCH   6   7
ENDBRANCH   5   6
ENDBRANCH   4   5
ENDBRANCH   3   4
ENDBRANCH   2   3
ENDBRANCH   1   2
BRANCH   1  18
ATOM     18  C   UNL     1      64.488  31.188  58.519  1.00  0.00     0.000 C 
BRANCH  18  19
ATOM     19  C   UNL     1      63.670  32.463  58.257  1.00  0.00     0.000 C 
BRANCH  19  20
ATOM     20  C   UNL     1      64.323  33.719  58.858  1.00  0.00     0.000 C 
BRANCH  20  21
ATOM     21  C   UNL     1      64.577  33.599  60.373  1.00  0.00     0.000 C 
BRANCH  21  22
ATOM     22  C   UNL     1      63.809  34.604  61.251  1.00  0.00     0.000 C 
BRANCH  22  23
ATOM     23  C   UNL     1      62.991  35.613  60.433  1.00  0.00     0.000 C 
BRANCH  23  24
ATOM     24  C   UNL     1      61.592  35.805  61.031  1.00  0.00    -0.000 C 
BRANCH  24  25
ATOM     25  C   UNL     1      60.553  36.057  59.929  1.00  0.00    -0.000 C 
BRANCH  25  26
ATOM     26  C   UNL     1      61.111  35.811  58.514  1.00  0.00    -0.000 C 
BRANCH  26  27
ATOM     27  C   UNL     1      60.114  35.177  57.527  1.00  0.00    -0.000 C 
BRANCH  27  28
ATOM     28  C   UNL     1      60.762  34.119  56.622  1.00  0.00    -0.000 C 
BRANCH  28  29
ATOM     29  C   UNL     1      59.699  33.346  55.830  1.00  0.00    -0.000 C 
BRANCH  29  30
ATOM     30  C   UNL     1      58.290  33.681  56.334  1.00  0.00    -0.000 C 
BRANCH  30  31
ATOM     31  C   UNL     1      57.573  32.426  56.844  1.00  0.00    -0.003 C 
ATOM     32  C   UNL     1      56.590  32.770  57.962  1.00  0.00     0.004 C 
ENDBRANCH  30  31
ENDBRANCH  29  30
ENDBRANCH  28  29
ENDBRANCH  27  28
ENDBRANCH  26  27
ENDBRANCH  25  26
ENDBRANCH  24  25
ENDBRANCH  23  24
ENDBRANCH  22  23
ENDBRANCH  21  22
ENDBRANCH  20  21
ENDBRANCH  19  20
ENDBRANCH  18  19
ENDBRANCH   1  18
TORSDOF 28
ENDMDL
MODEL 7
REMARK VINA RESULT:    -2.607      3.363      6.866
REMARK INTER + INTRA:         -13.371
REMARK INTER:                  -8.300
REMARK INTRA:                  -5.071
REMARK UNBOUND:                -6.496
REMARK SMILES CCCCCCCCCCCCCCCCCCCCCCCCCCCCCC(=O)[O-]
REMARK SMILES IDX 16 1 17 2 18 3 19 4 20 5 21 6 22 7 23 8 24 9 25 10 26 11
REMARK SMILES IDX 27 12 28 13 29 14 30 15 31 16 32 17 15 18 14 19 13 20 12 21
REMARK SMILES IDX 11 22 10 23 9 24 8 25 7 26 6 27 5 28 4 29 3 30 2 31 1 32
REMARK H PARENT
REMARK Flexibility Score: inf
ROOT
ATOM      1  C   UNL     1      62.517  31.953  58.439  1.00  0.00     0.000 C 
ENDROOT
BRANCH   1   2
ATOM      2  C   UNL     1      61.268  31.077  58.673  1.00  0.00     0.000 C 
BRANCH   2   3
ATOM      3  C   UNL     1      60.336  31.606  59.777  1.00  0.00     0.000 C 
BRANCH   3   4
ATOM      4  C   UNL     1      61.090  31.999  61.058  1.00  0.00     0.000 C 
BRANCH   4   5
ATOM      5  C   UNL     1      61.201  30.838  62.066  1.00  0.00     0.000 C 
BRANCH   5   6
ATOM      6  C   UNL     1      62.557  30.106  62.064  1.00  0.00     0.000 C 
BRANCH   6   7
ATOM      7  C   UNL     1      62.534  28.805  61.245  1.00  0.00     0.000 C 
BRANCH   7   8
ATOM      8  C   UNL     1      61.344  27.922  61.650  1.00  0.00     0.000 C 
BRANCH   8   9
ATOM      9  C   UNL     1      60.341  27.703  60.500  1.00  0.00     0.000 C 
BRANCH   9  10
ATOM     10  C   UNL     1      58.944  28.305  60.739  1.00  0.00     0.000 C 
BRANCH  10  11
ATOM     11  C   UNL     1      57.782  27.548  60.064  1.00  0.00     0.000 C 
BRANCH  11  12
ATOM     12  C   UNL     1      57.521  26.148  60.658  1.00  0.00     0.000 C 
BRANCH  12  13
ATOM     13  C   UNL     1      57.162  26.202  62.153  1.00  0.00     0.006 C 
BRANCH  13  14
ATOM     14  C   UNL     1      55.806  26.879  62.402  1.00  0.00     0.053 C 
BRANCH  14  15
ATOM     15  C   UNL     1      54.889  26.029  63.231  1.00  0.00     0.041 C 
ATOM     16  O   UNL     1      54.439  24.943  62.774  1.00  0.00    -0.550 OA
ATOM     17  O   UNL     1      54.509  26.450  64.501  1.00  0.00    -0.550 OA
ENDBRANCH  14  15
ENDBRANCH  13  14
ENDBRANCH  12  13
ENDBRANCH  11  12
ENDBRANCH  10  11
ENDBRANCH   9  10
ENDBRANCH   8   9
ENDBRANCH   7   8
ENDBRANCH   6   7
ENDBRANCH   5   6
ENDBRANCH   4   5
ENDBRANCH   3   4
ENDBRANCH   2   3
ENDBRANCH   1   2
BRANCH   1  18
ATOM     18  C   UNL     1      63.823  31.182  58.701  1.00  0.00     0.000 C 
BRANCH  18  19
ATOM     19  C   UNL     1      64.725  31.869  59.739  1.00  0.00     0.000 C 
BRANCH  19  20
ATOM     20  C   UNL     1      64.567  33.399  59.740  1.00  0.00     0.000 C 
BRANCH  20  21
ATOM     21  C   UNL     1      64.238  33.969  61.133  1.00  0.00     0.000 C 
BRANCH  21  22
ATOM     22  C   UNL     1      64.449  35.487  61.290  1.00  0.00     0.000 C 
BRANCH  22  23
ATOM     23  C   UNL     1      63.156  36.295  61.108  1.00  0.00     0.000 C 
BRANCH  23  24
ATOM     24  C   UNL     1      61.921  35.388  61.179  1.00  0.00    -0.000 C 
BRANCH  24  25
ATOM     25  C   UNL     1      60.881  35.791  60.123  1.00  0.00    -0.000 C 
BRANCH  25  26
ATOM     26  C   UNL     1      61.260  35.324  58.705  1.00  0.00    -0.000 C 
BRANCH  26  27
ATOM     27  C   UNL     1      60.111  34.673  57.911  1.00  0.00    -0.000 C 
BRANCH  27  28
ATOM     28  C   UNL     1      58.874  35.577  57.802  1.00  0.00    -0.000 C 
BRANCH  28  29
ATOM     29  C   UNL     1      57.636  34.770  57.394  1.00  0.00    -0.000 C 
BRANCH  29  30
ATOM     30  C   UNL     1      57.990  33.292  57.183  1.00  0.00    -0.000 C 
BRANCH  30  31
ATOM     31  C   UNL     1      57.026  32.378  57.945  1.00  0.00    -0.003 C 
ATOM     32  C   UNL     1      57.414  30.910  57.782  1.00  0.00     0.004 C 
ENDBRANCH  30  31
ENDBRANCH  29  30
ENDBRANCH  28  29
ENDBRANCH  27  28
ENDBRANCH  26  27
ENDBRANCH  25  26
ENDBRANCH  24  25
ENDBRANCH  23  24
ENDBRANCH  22  23
ENDBRANCH  21  22
ENDBRANCH  20  21
ENDBRANCH  19  20
ENDBRANCH  18  19
ENDBRANCH   1  18
TORSDOF 28
ENDMDL
MODEL 8
REMARK VINA RESULT:    -2.592      2.109      4.152
REMARK INTER + INTRA:         -13.330
REMARK INTER:                  -7.261
REMARK INTRA:                  -6.069
REMARK UNBOUND:                -6.496
REMARK SMILES CCCCCCCCCCCCCCCCCCCCCCCCCCCCCC(=O)[O-]
REMARK SMILES IDX 16 1 17 2 18 3 19 4 20 5 21 6 22 7 23 8 24 9 25 10 26 11
REMARK SMILES IDX 27 12 28 13 29 14 30 15 31 16 32 17 15 18 14 19 13 20 12 21
REMARK SMILES IDX 11 22 10 23 9 24 8 25 7 26 6 27 5 28 4 29 3 30 2 31 1 32
REMARK H PARENT
REMARK Flexibility Score: inf
ROOT
ATOM      1  C   UNL     1      63.068  34.179  60.262  1.00  0.00     0.000 C 
ENDROOT
BRANCH   1   2
ATOM      2  C   UNL     1      63.173  35.266  61.352  1.00  0.00     0.000 C 
BRANCH   2   3
ATOM      3  C   UNL     1      62.352  36.532  61.049  1.00  0.00     0.000 C 
BRANCH   3   4
ATOM      4  C   UNL     1      60.856  36.239  60.849  1.00  0.00     0.000 C 
BRANCH   4   5
ATOM      5  C   UNL     1      60.350  36.640  59.449  1.00  0.00     0.000 C 
BRANCH   5   6
ATOM      6  C   UNL     1      59.518  35.562  58.729  1.00  0.00     0.000 C 
BRANCH   6   7
ATOM      7  C   UNL     1      60.369  34.641  57.840  1.00  0.00     0.000 C 
BRANCH   7   8
ATOM      8  C   UNL     1      59.500  33.561  57.178  1.00  0.00     0.000 C 
BRANCH   8   9
ATOM      9  C   UNL     1      59.353  32.295  58.044  1.00  0.00     0.000 C 
BRANCH   9  10
ATOM     10  C   UNL     1      58.629  31.123  57.355  1.00  0.00     0.000 C 
BRANCH  10  11
ATOM     11  C   UNL     1      57.801  30.224  58.295  1.00  0.00     0.000 C 
BRANCH  11  12
ATOM     12  C   UNL     1      58.586  29.020  58.860  1.00  0.00     0.000 C 
BRANCH  12  13
ATOM     13  C   UNL     1      57.840  28.323  60.011  1.00  0.00     0.006 C 
BRANCH  13  14
ATOM     14  C   UNL     1      58.708  28.191  61.272  1.00  0.00     0.053 C 
BRANCH  14  15
ATOM     15  C   UNL     1      59.120  26.772  61.532  1.00  0.00     0.041 C 
ATOM     16  O   UNL     1      58.412  26.025  62.260  1.00  0.00    -0.550 OA
ATOM     17  O   UNL     1      60.302  26.281  60.989  1.00  0.00    -0.550 OA
ENDBRANCH  14  15
ENDBRANCH  13  14
ENDBRANCH  12  13
ENDBRANCH  11  12
ENDBRANCH  10  11
ENDBRANCH   9  10
ENDBRANCH   8   9
ENDBRANCH   7   8
ENDBRANCH   6   7
ENDBRANCH   5   6
ENDBRANCH   4   5
ENDBRANCH   3   4
ENDBRANCH   2   3
ENDBRANCH   1   2
BRANCH   1  18
ATOM     18  C   UNL     1      62.651  32.815  60.840  1.00  0.00     0.000 C 
BRANCH  18  19
ATOM     19  C   UNL     1      61.125  32.635  60.906  1.00  0.00     0.000 C 
BRANCH  19  20
ATOM     20  C   UNL     1      60.715  31.209  61.312  1.00  0.00     0.000 C 
BRANCH  20  21
ATOM     21  C   UNL     1      61.696  30.561  62.308  1.00  0.00     0.000 C 
BRANCH  21  22
ATOM     22  C   UNL     1      62.263  29.195  61.881  1.00  0.00     0.000 C 
BRANCH  22  23
ATOM     23  C   UNL     1      63.629  29.301  61.188  1.00  0.00     0.000 C 
BRANCH  23  24
ATOM     24  C   UNL     1      63.634  28.541  59.856  1.00  0.00    -0.000 C 
BRANCH  24  25
ATOM     25  C   UNL     1      62.258  28.611  59.178  1.00  0.00    -0.000 C 
BRANCH  25  26
ATOM     26  C   UNL     1      62.084  29.870  58.308  1.00  0.00    -0.000 C 
BRANCH  26  27
ATOM     27  C   UNL     1      62.398  29.671  56.813  1.00  0.00    -0.000 C 
BRANCH  27  28
ATOM     28  C   UNL     1      63.140  30.865  56.195  1.00  0.00    -0.000 C 
BRANCH  28  29
ATOM     29  C   UNL     1      63.038  32.103  57.094  1.00  0.00    -0.000 C 
BRANCH  29  30
ATOM     30  C   UNL     1      64.376  32.851  57.150  1.00  0.00    -0.000 C 
BRANCH  30  31
ATOM     31  C   UNL     1      65.531  31.895  57.463  1.00  0.00    -0.003 C 
ATOM     32  C   UNL     1      65.600  31.584  58.956  1.00  0.00     0.004 C 
ENDBRANCH  30  31
ENDBRANCH  29  30
ENDBRANCH  28  29
ENDBRANCH  27  28
ENDBRANCH  26  27
ENDBRANCH  25  26
ENDBRANCH  24  25
ENDBRANCH  23  24
ENDBRANCH  22  23
ENDBRANCH  21  22
ENDBRANCH  20  21
ENDBRANCH  19  20
ENDBRANCH  18  19
ENDBRANCH   1  18
TORSDOF 28
ENDMDL
MODEL 9
REMARK VINA RESULT:    -2.578      7.425     11.616
REMARK INTER + INTRA:         -13.296
REMARK INTER:                  -7.261
REMARK INTRA:                  -6.034
REMARK UNBOUND:                -6.496
REMARK SMILES CCCCCCCCCCCCCCCCCCCCCCCCCCCCCC(=O)[O-]
REMARK SMILES IDX 16 1 17 2 18 3 19 4 20 5 21 6 22 7 23 8 24 9 25 10 26 11
REMARK SMILES IDX 27 12 28 13 29 14 30 15 31 16 32 17 15 18 14 19 13 20 12 21
REMARK SMILES IDX 11 22 10 23 9 24 8 25 7 26 6 27 5 28 4 29 3 30 2 31 1 32
REMARK H PARENT
REMARK Flexibility Score: inf
ROOT
ATOM      1  C   UNL     1      55.515  28.688  50.362  1.00  0.00     0.000 C 
ENDROOT
BRANCH   1   2
ATOM      2  C   UNL     1      54.474  27.575  50.116  1.00  0.00     0.000 C 
BRANCH   2   3
ATOM      3  C   UNL     1      55.088  26.239  49.660  1.00  0.00     0.000 C 
BRANCH   3   4
ATOM      4  C   UNL     1      54.039  25.129  49.488  1.00  0.00     0.000 C 
BRANCH   4   5
ATOM      5  C   UNL     1      53.050  25.053  50.668  1.00  0.00     0.000 C 
BRANCH   5   6
ATOM      6  C   UNL     1      53.633  24.458  51.964  1.00  0.00     0.000 C 
BRANCH   6   7
ATOM      7  C   UNL     1      53.435  25.371  53.185  1.00  0.00     0.000 C 
BRANCH   7   8
ATOM      8  C   UNL     1      54.733  25.491  53.997  1.00  0.00     0.000 C 
BRANCH   8   9
ATOM      9  C   UNL     1      55.658  26.613  53.488  1.00  0.00     0.000 C 
BRANCH   9  10
ATOM     10  C   UNL     1      55.260  28.032  53.938  1.00  0.00     0.000 C 
BRANCH  10  11
ATOM     11  C   UNL     1      56.401  28.864  54.558  1.00  0.00     0.000 C 
BRANCH  11  12
ATOM     12  C   UNL     1      56.886  30.023  53.663  1.00  0.00     0.000 C 
BRANCH  12  13
ATOM     13  C   UNL     1      55.750  30.992  53.290  1.00  0.00     0.006 C 
BRANCH  13  14
ATOM     14  C   UNL     1      55.173  31.713  54.517  1.00  0.00     0.053 C 
BRANCH  14  15
ATOM     15  C   UNL     1      55.671  33.124  54.634  1.00  0.00     0.041 C 
ATOM     16  O   UNL     1      56.822  33.358  55.093  1.00  0.00    -0.550 OA
ATOM     17  O   UNL     1      54.853  34.184  54.258  1.00  0.00    -0.550 OA
ENDBRANCH  14  15
ENDBRANCH  13  14
ENDBRANCH  12  13
ENDBRANCH  11  12
ENDBRANCH  10  11
ENDBRANCH   9  10
ENDBRANCH   8   9
ENDBRANCH   7   8
ENDBRANCH   6   7
ENDBRANCH   5   6
ENDBRANCH   4   5
ENDBRANCH   3   4
ENDBRANCH   2   3
ENDBRANCH   1   2
BRANCH   1  18
ATOM     18  C   UNL     1      56.957  28.150  50.336  1.00  0.00     0.000 C 
BRANCH  18  19
ATOM     19  C   UNL     1      58.011  29.265  50.246  1.00  0.00     0.000 C 
BRANCH  19  20
ATOM     20  C   UNL     1      59.086  28.979  49.185  1.00  0.00     0.000 C 
BRANCH  20  21
ATOM     21  C   UNL     1      59.669  27.556  49.288  1.00  0.00     0.000 C 
BRANCH  21  22
ATOM     22  C   UNL     1      61.203  27.479  49.392  1.00  0.00     0.000 C 
BRANCH  22  23
ATOM     23  C   UNL     1      61.700  26.139  49.955  1.00  0.00     0.000 C 
BRANCH  23  24
ATOM     24  C   UNL     1      60.646  25.040  49.780  1.00  0.00    -0.000 C 
BRANCH  24  25
ATOM     25  C   UNL     1      60.675  24.056  50.959  1.00  0.00    -0.000 C 
BRANCH  25  26
ATOM     26  C   UNL     1      59.286  23.837  51.588  1.00  0.00    -0.000 C 
BRANCH  26  27
ATOM     27  C   UNL     1      58.579  25.123  52.057  1.00  0.00    -0.000 C 
BRANCH  27  28
ATOM     28  C   UNL     1      59.322  25.829  53.201  1.00  0.00    -0.000 C 
BRANCH  28  29
ATOM     29  C   UNL     1      59.353  27.347  52.983  1.00  0.00    -0.000 C 
BRANCH  29  30
ATOM     30  C   UNL     1      60.783  27.888  53.104  1.00  0.00    -0.000 C 
BRANCH  30  31
ATOM     31  C   UNL     1      60.852  29.364  52.698  1.00  0.00    -0.003 C 
ATOM     32  C   UNL     1      60.617  30.277  53.899  1.00  0.00     0.004 C 
ENDBRANCH  30  31
ENDBRANCH  29  30
ENDBRANCH  28  29
ENDBRANCH  27  28
ENDBRANCH  26  27
ENDBRANCH  25  26
ENDBRANCH  24  25
ENDBRANCH  23  24
ENDBRANCH  22  23
ENDBRANCH  21  22
ENDBRANCH  20  21
ENDBRANCH  19  20
ENDBRANCH  18  19
ENDBRANCH   1  18
TORSDOF 28
ENDMDL
