MODEL 1
REMARK VINA RESULT:    -2.720      0.000      0.000
REMARK INTER + INTRA:          -3.607
REMARK INTER:                  -3.277
REMARK INTRA:                  -0.331
REMARK UNBOUND:                -0.331
REMARK SMILES O=c1c(O)c(-c2ccc(O)c(O)c2)oc2cc(O)cc(O)c12
REMARK SMILES IDX 5 1 3 2 2 3 1 4 22 5 20 6 19 7 17 8 16 9 15 10 14 11 6 12
REMARK SMILES IDX 7 13 8 14 9 15 13 16 11 17 10 18 12 20 4 22 21 24 18 26
REMARK H PARENT 10 19 12 21 4 23 21 25 18 27
REMARK Flexibility Score: inf
ROOT
ATOM      1  C   UNL     1       7.242 176.469  45.772  1.00  0.00     0.180 A 
ATOM      2  C   UNL     1       6.819 177.128  44.605  1.00  0.00     0.208 A 
ATOM      3  C   UNL     1       5.609 176.743  44.005  1.00  0.00     0.238 A 
ATOM      4  O   UNL     1       5.263 177.300  42.930  1.00  0.00    -0.285 OA
ATOM      5  C   UNL     1       4.829 175.717  44.588  1.00  0.00     0.111 A 
ATOM      6  C   UNL     1       3.567 175.273  44.089  1.00  0.00     0.134 A 
ATOM      7  C   UNL     1       2.946 174.162  44.670  1.00  0.00     0.093 A 
ATOM      8  C   UNL     1       3.509 173.518  45.775  1.00  0.00     0.123 A 
ATOM      9  C   UNL     1       4.711 173.979  46.307  1.00  0.00     0.094 A 
ATOM     10  C   UNL     1       5.372 175.063  45.726  1.00  0.00     0.146 A 
ATOM     11  O   UNL     1       6.520 175.465  46.258  1.00  0.00    -0.452 OA
ENDROOT
BRANCH   1  12
ATOM     12  C   UNL     1       8.492 176.835  46.475  1.00  0.00     0.025 A 
ATOM     13  C   UNL     1       8.502 177.803  47.495  1.00  0.00     0.016 A 
ATOM     14  C   UNL     1       9.690 178.115  48.161  1.00  0.00     0.051 A 
ATOM     15  C   UNL     1      10.880 177.456  47.829  1.00  0.00     0.157 A 
ATOM     16  C   UNL     1       9.685 176.162  46.160  1.00  0.00     0.062 A 
ATOM     17  C   UNL     1      10.877 176.475  46.829  1.00  0.00     0.158 A 
BRANCH  15  18
ATOM     18  O   UNL     1      12.068 177.766  48.490  1.00  0.00    -0.504 OA
ATOM     19  H   UNL     1      12.380 177.237  49.296  1.00  0.00     0.293 HD
ENDBRANCH  15  18
BRANCH  17  20
ATOM     20  O   UNL     1      12.062 175.816  46.505  1.00  0.00    -0.504 OA
ATOM     21  H   UNL     1      12.068 175.007  45.896  1.00  0.00     0.293 HD
ENDBRANCH  17  20
ENDBRANCH   1  12
BRANCH   2  22
ATOM     22  O   UNL     1       7.615 178.125  44.033  1.00  0.00    -0.502 OA
ATOM     23  H   UNL     1       7.341 178.628  43.198  1.00  0.00     0.293 HD
ENDBRANCH   2  22
BRANCH   6  24
ATOM     24  O   UNL     1       2.875 175.903  43.050  1.00  0.00    -0.507 OA
ATOM     25  H   UNL     1       2.563 176.862  43.066  1.00  0.00     0.293 HD
ENDBRANCH   6  24
BRANCH   8  26
ATOM     26  O   UNL     1       2.876 172.421  46.357  1.00  0.00    -0.508 OA
ATOM     27  H   UNL     1       3.285 171.931  47.144  1.00  0.00     0.293 HD
ENDBRANCH   8  26
TORSDOF 6
ENDMDL
MODEL 2
REMARK VINA RESULT:    -1.981      1.288      2.892
REMARK INTER + INTRA:          -2.718
REMARK INTER:                  -2.408
REMARK INTRA:                  -0.310
REMARK UNBOUND:                -0.331
REMARK SMILES O=c1c(O)c(-c2ccc(O)c(O)c2)oc2cc(O)cc(O)c12
REMARK SMILES IDX 5 1 3 2 2 3 1 4 22 5 20 6 19 7 17 8 16 9 15 10 14 11 6 12
REMARK SMILES IDX 7 13 8 14 9 15 13 16 11 17 10 18 12 20 4 22 21 24 18 26
REMARK H PARENT 10 19 12 21 4 23 21 25 18 27
REMARK Flexibility Score: inf
ROOT
ATOM      1  C   UNL     1       7.000 176.248  45.750  1.00  0.00     0.180 A 
ATOM      2  C   UNL     1       6.431 175.017  46.120  1.00  0.00     0.208 A 
ATOM      3  C   UNL     1       5.254 174.592  45.482  1.00  0.00     0.238 A 
ATOM      4  O   UNL     1       4.720 173.515  45.856  1.00  0.00    -0.285 OA
ATOM      5  C   UNL     1       4.671 175.393  44.473  1.00  0.00     0.111 A 
ATOM      6  C   UNL     1       3.501 175.042  43.733  1.00  0.00     0.134 A 
ATOM      7  C   UNL     1       2.938 175.970  42.850  1.00  0.00     0.093 A 
ATOM      8  C   UNL     1       3.539 177.212  42.631  1.00  0.00     0.123 A 
ATOM      9  C   UNL     1       4.713 177.542  43.304  1.00  0.00     0.094 A 
ATOM     10  C   UNL     1       5.279 176.651  44.218  1.00  0.00     0.146 A 
ATOM     11  O   UNL     1       6.392 177.008  44.846  1.00  0.00    -0.452 OA
ENDROOT
BRANCH   1  12
ATOM     12  C   UNL     1       8.252 176.752  46.358  1.00  0.00     0.025 A 
ATOM     13  C   UNL     1       8.230 177.639  47.449  1.00  0.00     0.016 A 
ATOM     14  C   UNL     1       9.425 178.083  48.022  1.00  0.00     0.051 A 
ATOM     15  C   UNL     1      10.656 177.637  47.525  1.00  0.00     0.157 A 
ATOM     16  C   UNL     1       9.489 176.292  45.877  1.00  0.00     0.062 A 
ATOM     17  C   UNL     1      10.688 176.737  46.452  1.00  0.00     0.158 A 
BRANCH  15  18
ATOM     18  O   UNL     1      11.850 178.079  48.092  1.00  0.00    -0.504 OA
ATOM     19  H   UNL     1      12.032 179.065  48.243  1.00  0.00     0.293 HD
ENDBRANCH  15  18
BRANCH  17  20
ATOM     20  O   UNL     1      11.914 176.290  45.963  1.00  0.00    -0.504 OA
ATOM     21  H   UNL     1      11.976 175.726  45.123  1.00  0.00     0.293 HD
ENDBRANCH  17  20
ENDBRANCH   1  12
BRANCH   2  22
ATOM     22  O   UNL     1       7.012 174.251  47.134  1.00  0.00    -0.502 OA
ATOM     23  H   UNL     1       6.461 173.720  47.798  1.00  0.00     0.293 HD
ENDBRANCH   2  22
BRANCH   6  24
ATOM     24  O   UNL     1       2.877 173.793  43.808  1.00  0.00    -0.507 OA
ATOM     25  H   UNL     1       2.949 173.072  43.107  1.00  0.00     0.293 HD
ENDBRANCH   6  24
BRANCH   8  26
ATOM     26  O   UNL     1       2.979 178.125  41.738  1.00  0.00    -0.508 OA
ATOM     27  H   UNL     1       2.023 178.442  41.836  1.00  0.00     0.293 HD
ENDBRANCH   8  26
TORSDOF 6
ENDMDL
MODEL 3
REMARK VINA RESULT:    -1.740      1.827      2.979
REMARK INTER + INTRA:          -2.426
REMARK INTER:                  -2.681
REMARK INTRA:                   0.255
REMARK UNBOUND:                -0.331
REMARK SMILES O=c1c(O)c(-c2ccc(O)c(O)c2)oc2cc(O)cc(O)c12
REMARK SMILES IDX 5 1 3 2 2 3 1 4 22 5 20 6 19 7 17 8 16 9 15 10 14 11 6 12
REMARK SMILES IDX 7 13 8 14 9 15 13 16 11 17 10 18 12 20 4 22 21 24 18 26
REMARK H PARENT 10 19 12 21 4 23 21 25 18 27
REMARK Flexibility Score: inf
ROOT
ATOM      1  C   UNL     1       8.371 175.919  46.029  1.00  0.00     0.180 A 
ATOM      2  C   UNL     1       8.095 174.540  46.012  1.00  0.00     0.208 A 
ATOM      3  C   UNL     1       6.779 174.113  45.772  1.00  0.00     0.238 A 
ATOM      4  O   UNL     1       6.528 172.880  45.812  1.00  0.00    -0.285 OA
ATOM      5  C   UNL     1       5.760 175.066  45.536  1.00  0.00     0.111 A 
ATOM      6  C   UNL     1       4.400 174.744  45.243  1.00  0.00     0.134 A 
ATOM      7  C   UNL     1       3.451 175.769  45.157  1.00  0.00     0.093 A 
ATOM      8  C   UNL     1       3.824 177.109  45.289  1.00  0.00     0.123 A 
ATOM      9  C   UNL     1       5.159 177.437  45.516  1.00  0.00     0.094 A 
ATOM     10  C   UNL     1       6.123 176.434  45.643  1.00  0.00     0.146 A 
ATOM     11  O   UNL     1       7.381 176.790  45.870  1.00  0.00    -0.452 OA
ENDROOT
BRANCH   1  12
ATOM     12  C   UNL     1       9.737 176.446  46.250  1.00  0.00     0.025 A 
ATOM     13  C   UNL     1      10.176 177.625  45.623  1.00  0.00     0.016 A 
ATOM     14  C   UNL     1      11.462 178.117  45.866  1.00  0.00     0.051 A 
ATOM     15  C   UNL     1      12.320 177.448  46.747  1.00  0.00     0.157 A 
ATOM     16  C   UNL     1      10.594 175.790  47.149  1.00  0.00     0.062 A 
ATOM     17  C   UNL     1      11.885 176.283  47.392  1.00  0.00     0.158 A 
BRANCH  15  18
ATOM     18  O   UNL     1      13.603 177.934  46.989  1.00  0.00    -0.504 OA
ATOM     19  H   UNL     1      13.994 178.694  46.444  1.00  0.00     0.293 HD
ENDBRANCH  15  18
BRANCH  17  20
ATOM     20  O   UNL     1      12.738 175.623  48.274  1.00  0.00    -0.504 OA
ATOM     21  H   UNL     1      13.293 176.129  48.954  1.00  0.00     0.293 HD
ENDBRANCH  17  20
ENDBRANCH   1  12
BRANCH   2  22
ATOM     22  O   UNL     1       9.112 173.616  46.268  1.00  0.00    -0.502 OA
ATOM     23  H   UNL     1       9.351 173.317  47.206  1.00  0.00     0.293 HD
ENDBRANCH   2  22
BRANCH   6  24
ATOM     24  O   UNL     1       3.941 173.446  45.002  1.00  0.00    -0.507 OA
ATOM     25  H   UNL     1       3.241 172.973  45.553  1.00  0.00     0.293 HD
ENDBRANCH   6  24
BRANCH   8  26
ATOM     26  O   UNL     1       2.875 178.125  45.187  1.00  0.00    -0.508 OA
ATOM     27  H   UNL     1       3.108 179.029  44.793  1.00  0.00     0.293 HD
ENDBRANCH   8  26
TORSDOF 6
ENDMDL
MODEL 4
REMARK VINA RESULT:    -0.540     21.524     23.522
REMARK INTER + INTRA:          -0.982
REMARK INTER:                  -0.674
REMARK INTRA:                  -0.308
REMARK UNBOUND:                -0.331
REMARK SMILES O=c1c(O)c(-c2ccc(O)c(O)c2)oc2cc(O)cc(O)c12
REMARK SMILES IDX 5 1 3 2 2 3 1 4 22 5 20 6 19 7 17 8 16 9 15 10 14 11 6 12
REMARK SMILES IDX 7 13 8 14 9 15 13 16 11 17 10 18 12 20 4 22 21 24 18 26
REMARK H PARENT 10 19 12 21 4 23 21 25 18 27
REMARK Flexibility Score: inf
ROOT
ATOM      1  C   UNL     1      17.191 158.995  35.916  1.00  0.00     0.180 A 
ATOM      2  C   UNL     1      17.461 159.178  37.283  1.00  0.00     0.208 A 
ATOM      3  C   UNL     1      18.791 159.115  37.729  1.00  0.00     0.238 A 
ATOM      4  O   UNL     1      19.021 159.226  38.962  1.00  0.00    -0.285 OA
ATOM      5  C   UNL     1      19.835 158.887  36.802  1.00  0.00     0.111 A 
ATOM      6  C   UNL     1      21.223 158.844  37.136  1.00  0.00     0.134 A 
ATOM      7  C   UNL     1      22.158 158.482  36.160  1.00  0.00     0.093 A 
ATOM      8  C   UNL     1      21.763 158.224  34.845  1.00  0.00     0.123 A 
ATOM      9  C   UNL     1      20.418 158.321  34.494  1.00  0.00     0.094 A 
ATOM     10  C   UNL     1      19.458 158.645  35.455  1.00  0.00     0.146 A 
ATOM     11  O   UNL     1      18.186 158.717  35.081  1.00  0.00    -0.452 OA
ENDROOT
BRANCH   1  12
ATOM     12  C   UNL     1      15.819 159.071  35.367  1.00  0.00     0.025 A 
ATOM     13  C   UNL     1      15.045 157.914  35.167  1.00  0.00     0.016 A 
ATOM     14  C   UNL     1      13.742 158.012  34.670  1.00  0.00     0.051 A 
ATOM     15  C   UNL     1      13.191 159.265  34.378  1.00  0.00     0.157 A 
ATOM     16  C   UNL     1      15.253 160.327  35.092  1.00  0.00     0.062 A 
ATOM     17  C   UNL     1      13.945 160.426  34.592  1.00  0.00     0.158 A 
BRANCH  15  18
ATOM     18  O   UNL     1      11.893 159.368  33.880  1.00  0.00    -0.504 OA
ATOM     19  H   UNL     1      11.321 158.547  33.717  1.00  0.00     0.293 HD
ENDBRANCH  15  18
BRANCH  17  20
ATOM     20  O   UNL     1      13.391 161.672  34.308  1.00  0.00    -0.504 OA
ATOM     21  H   UNL     1      12.640 161.777  33.637  1.00  0.00     0.293 HD
ENDBRANCH  17  20
ENDBRANCH   1  12
BRANCH   2  22
ATOM     22  O   UNL     1      16.413 159.381  38.186  1.00  0.00    -0.502 OA
ATOM     23  H   UNL     1      16.103 160.305  38.459  1.00  0.00     0.293 HD
ENDBRANCH   2  22
BRANCH   6  24
ATOM     24  O   UNL     1      21.732 159.174  38.396  1.00  0.00    -0.507 OA
ATOM     25  H   UNL     1      22.516 159.788  38.556  1.00  0.00     0.293 HD
ENDBRANCH   6  24
BRANCH   8  26
ATOM     26  O   UNL     1      22.702 157.878  33.875  1.00  0.00    -0.508 OA
ATOM     27  H   UNL     1      22.485 157.929  32.887  1.00  0.00     0.293 HD
ENDBRANCH   8  26
TORSDOF 6
ENDMDL
MODEL 5
REMARK VINA RESULT:    -0.020      5.148     10.818
REMARK INTER + INTRA:          -0.355
REMARK INTER:                  -0.860
REMARK INTRA:                   0.505
REMARK UNBOUND:                -0.331
REMARK SMILES O=c1c(O)c(-c2ccc(O)c(O)c2)oc2cc(O)cc(O)c12
REMARK SMILES IDX 5 1 3 2 2 3 1 4 22 5 20 6 19 7 17 8 16 9 15 10 14 11 6 12
REMARK SMILES IDX 7 13 8 14 9 15 13 16 11 17 10 18 12 20 4 22 21 24 18 26
REMARK H PARENT 10 19 12 21 4 23 21 25 18 27
REMARK Flexibility Score: inf
ROOT
ATOM      1  C   UNL     1      14.231 177.942  48.767  1.00  0.00     0.180 A 
ATOM      2  C   UNL     1      15.356 178.001  47.926  1.00  0.00     0.208 A 
ATOM      3  C   UNL     1      16.637 178.017  48.502  1.00  0.00     0.238 A 
ATOM      4  O   UNL     1      17.638 178.125  47.746  1.00  0.00    -0.285 OA
ATOM      5  C   UNL     1      16.778 177.955  49.908  1.00  0.00     0.111 A 
ATOM      6  C   UNL     1      18.027 177.924  50.598  1.00  0.00     0.134 A 
ATOM      7  C   UNL     1      18.047 177.996  51.996  1.00  0.00     0.093 A 
ATOM      8  C   UNL     1      16.860 178.031  52.732  1.00  0.00     0.123 A 
ATOM      9  C   UNL     1      15.634 178.002  52.071  1.00  0.00     0.094 A 
ATOM     10  C   UNL     1      15.583 177.968  50.676  1.00  0.00     0.146 A 
ATOM     11  O   UNL     1      14.395 177.951  50.085  1.00  0.00    -0.452 OA
ENDROOT
BRANCH   1  12
ATOM     12  C   UNL     1      12.851 177.897  48.234  1.00  0.00     0.025 A 
ATOM     13  C   UNL     1      11.739 178.125  49.064  1.00  0.00     0.016 A 
ATOM     14  C   UNL     1      10.445 178.101  48.534  1.00  0.00     0.051 A 
ATOM     15  C   UNL     1      10.246 177.865  47.169  1.00  0.00     0.157 A 
ATOM     16  C   UNL     1      12.646 177.681  46.861  1.00  0.00     0.062 A 
ATOM     17  C   UNL     1      11.348 177.657  46.330  1.00  0.00     0.158 A 
BRANCH  15  18
ATOM     18  O   UNL     1       8.958 177.838  46.637  1.00  0.00    -0.504 OA
ATOM     19  H   UNL     1       8.756 177.373  45.759  1.00  0.00     0.293 HD
ENDBRANCH  15  18
BRANCH  17  20
ATOM     20  O   UNL     1      11.147 177.429  44.970  1.00  0.00    -0.504 OA
ATOM     21  H   UNL     1      11.893 177.091  44.373  1.00  0.00     0.293 HD
ENDBRANCH  17  20
ENDBRANCH   1  12
BRANCH   2  22
ATOM     22  O   UNL     1      15.194 178.083  46.540  1.00  0.00    -0.502 OA
ATOM     23  H   UNL     1      14.983 177.273  45.969  1.00  0.00     0.293 HD
ENDBRANCH   2  22
BRANCH   6  24
ATOM     24  O   UNL     1      19.266 177.796  49.962  1.00  0.00    -0.507 OA
ATOM     25  H   UNL     1      19.775 176.931  49.866  1.00  0.00     0.293 HD
ENDBRANCH   6  24
BRANCH   8  26
ATOM     26  O   UNL     1      16.888 178.087  54.124  1.00  0.00    -0.508 OA
ATOM     27  H   UNL     1      17.502 178.725  54.616  1.00  0.00     0.293 HD
ENDBRANCH   8  26
TORSDOF 6
ENDMDL
