MODEL 1
REMARK VINA RESULT:    -5.151      0.000      0.000
REMARK INTER + INTRA:          -5.668
REMARK INTER:                  -5.452
REMARK INTRA:                  -0.216
REMARK UNBOUND:                -0.216
REMARK SMILES CC1=CC[C@@H]2[C@H]3[C@@H](C(C)C)CC[C@]2(C)[C@@H]13
REMARK SMILES IDX 1 1 2 2 3 3 4 4 5 5 6 6 15 7 13 8 12 9 11 10 7 11 14 12 8 13
REMARK SMILES IDX 9 14 10 15
REMARK H PARENT
REMARK Flexibility Score: inf
ROOT
ATOM      1  C   UNL     1       4.471  13.501  12.999  1.00  0.00     0.039 C 
ATOM      2  C   UNL     1       3.076  13.851  13.422  1.00  0.00    -0.073 C 
ATOM      3  C   UNL     1       2.104  14.101  12.506  1.00  0.00    -0.027 C 
ATOM      4  C   UNL     1       0.691  14.428  12.999  1.00  0.00     0.031 C 
ATOM      5  C   UNL     1       0.649  14.447  14.561  1.00  0.00     0.003 C 
ATOM      6  C   UNL     1       1.874  15.264  15.053  1.00  0.00     0.004 C 
ATOM      7  C   UNL     1       2.686  13.958  14.900  1.00  0.00     0.024 C 
ATOM      8  C   UNL     1       1.360  13.208  15.165  1.00  0.00    -0.022 C 
ATOM      9  C   UNL     1       1.116  13.132  16.704  1.00  0.00     0.008 C 
ATOM     10  C   UNL     1       1.000  14.535  17.359  1.00  0.00     0.005 C 
ATOM     11  C   UNL     1       1.771  15.633  16.565  1.00  0.00    -0.005 C 
ATOM     12  C   UNL     1       1.150  11.826  14.504  1.00  0.00     0.012 C 
ENDROOT
BRANCH  11  13
ATOM     13  C   UNL     1       1.204  17.061  16.832  1.00  0.00    -0.014 C 
ATOM     14  C   UNL     1       0.644  17.753  15.576  1.00  0.00     0.007 C 
ATOM     15  C   UNL     1       2.252  17.965  17.502  1.00  0.00     0.007 C 
ENDBRANCH  11  13
TORSDOF 1
ENDMDL
MODEL 2
REMARK VINA RESULT:    -4.988      1.835      5.164
REMARK INTER + INTRA:          -5.496
REMARK INTER:                  -5.269
REMARK INTRA:                  -0.227
REMARK UNBOUND:                -0.216
REMARK SMILES CC1=CC[C@@H]2[C@H]3[C@@H](C(C)C)CC[C@]2(C)[C@@H]13
REMARK SMILES IDX 1 1 2 2 3 3 4 4 5 5 6 6 15 7 13 8 12 9 11 10 7 11 14 12 8 13
REMARK SMILES IDX 9 14 10 15
REMARK H PARENT
REMARK Flexibility Score: inf
ROOT
ATOM      1  C   UNL     1      -0.236  12.370  19.313  1.00  0.00     0.039 C 
ATOM      2  C   UNL     1      -0.191  13.120  18.015  1.00  0.00    -0.073 C 
ATOM      3  C   UNL     1      -1.121  14.065  17.716  1.00  0.00    -0.027 C 
ATOM      4  C   UNL     1      -1.010  14.816  16.386  1.00  0.00     0.031 C 
ATOM      5  C   UNL     1       0.210  14.291  15.563  1.00  0.00     0.003 C 
ATOM      6  C   UNL     1       0.167  12.740  15.601  1.00  0.00     0.004 C 
ATOM      7  C   UNL     1       0.888  12.848  16.963  1.00  0.00     0.024 C 
ATOM      8  C   UNL     1       1.483  14.177  16.441  1.00  0.00    -0.022 C 
ATOM      9  C   UNL     1       2.732  13.866  15.560  1.00  0.00     0.008 C 
ATOM     10  C   UNL     1       2.386  12.991  14.325  1.00  0.00     0.005 C 
ATOM     11  C   UNL     1       1.131  12.094  14.557  1.00  0.00    -0.005 C 
ATOM     12  C   UNL     1       1.793  15.297  17.462  1.00  0.00     0.012 C 
ENDROOT
BRANCH  11  13
ATOM     13  C   UNL     1       0.438  11.693  13.219  1.00  0.00    -0.014 C 
ATOM     14  C   UNL     1      -0.752  10.734  13.398  1.00  0.00     0.007 C 
ATOM     15  C   UNL     1       1.445  11.093  12.224  1.00  0.00     0.007 C 
ENDBRANCH  11  13
TORSDOF 1
ENDMDL
MODEL 3
REMARK VINA RESULT:    -4.967      1.596      4.253
REMARK INTER + INTRA:          -5.474
REMARK INTER:                  -5.196
REMARK INTRA:                  -0.278
REMARK UNBOUND:                -0.216
REMARK SMILES CC1=CC[C@@H]2[C@H]3[C@@H](C(C)C)CC[C@]2(C)[C@@H]13
REMARK SMILES IDX 1 1 2 2 3 3 4 4 5 5 6 6 15 7 13 8 12 9 11 10 7 11 14 12 8 13
REMARK SMILES IDX 9 14 10 15
REMARK H PARENT
REMARK Flexibility Score: inf
ROOT
ATOM      1  C   UNL     1       2.247  18.772  16.884  1.00  0.00     0.039 C 
ATOM      2  C   UNL     1       1.362  17.703  16.316  1.00  0.00    -0.073 C 
ATOM      3  C   UNL     1       0.200  18.013  15.683  1.00  0.00    -0.027 C 
ATOM      4  C   UNL     1      -0.649  16.880  15.100  1.00  0.00     0.031 C 
ATOM      5  C   UNL     1       0.011  15.495  15.398  1.00  0.00     0.003 C 
ATOM      6  C   UNL     1       0.432  15.489  16.892  1.00  0.00     0.004 C 
ATOM      7  C   UNL     1       1.715  16.217  16.434  1.00  0.00     0.024 C 
ATOM      8  C   UNL     1       1.527  15.506  15.074  1.00  0.00    -0.022 C 
ATOM      9  C   UNL     1       2.118  14.065  15.167  1.00  0.00     0.008 C 
ATOM     10  C   UNL     1       1.414  13.201  16.248  1.00  0.00     0.005 C 
ATOM     11  C   UNL     1       0.802  14.060  17.397  1.00  0.00    -0.005 C 
ATOM     12  C   UNL     1       2.017  16.222  13.794  1.00  0.00     0.012 C 
ENDROOT
BRANCH  11  13
ATOM     13  C   UNL     1      -0.364  13.324  18.126  1.00  0.00    -0.014 C 
ATOM     14  C   UNL     1       0.079  12.539  19.373  1.00  0.00     0.007 C 
ATOM     15  C   UNL     1      -1.125  12.393  17.168  1.00  0.00     0.007 C 
ENDBRANCH  11  13
TORSDOF 1
ENDMDL
MODEL 4
REMARK VINA RESULT:    -4.944      1.265      4.409
REMARK INTER + INTRA:          -5.449
REMARK INTER:                  -5.238
REMARK INTRA:                  -0.211
REMARK UNBOUND:                -0.216
REMARK SMILES CC1=CC[C@@H]2[C@H]3[C@@H](C(C)C)CC[C@]2(C)[C@@H]13
REMARK SMILES IDX 1 1 2 2 3 3 4 4 5 5 6 6 15 7 13 8 12 9 11 10 7 11 14 12 8 13
REMARK SMILES IDX 9 14 10 15
REMARK H PARENT
REMARK Flexibility Score: inf
ROOT
ATOM      1  C   UNL     1      -0.850  16.821  16.019  1.00  0.00     0.039 C 
ATOM      2  C   UNL     1       0.225  15.793  16.213  1.00  0.00    -0.073 C 
ATOM      3  C   UNL     1       1.039  15.823  17.301  1.00  0.00    -0.027 C 
ATOM      4  C   UNL     1       2.102  14.732  17.459  1.00  0.00     0.031 C 
ATOM      5  C   UNL     1       2.065  13.755  16.240  1.00  0.00     0.003 C 
ATOM      6  C   UNL     1       1.992  14.616  14.951  1.00  0.00     0.004 C 
ATOM      7  C   UNL     1       0.467  14.677  15.193  1.00  0.00     0.024 C 
ATOM      8  C   UNL     1       0.616  13.314  15.907  1.00  0.00    -0.022 C 
ATOM      9  C   UNL     1       0.620  12.176  14.839  1.00  0.00     0.008 C 
ATOM     10  C   UNL     1       1.795  12.309  13.833  1.00  0.00     0.005 C 
ATOM     11  C   UNL     1       2.277  13.782  13.663  1.00  0.00    -0.005 C 
ATOM     12  C   UNL     1      -0.352  12.979  17.066  1.00  0.00     0.012 C 
ENDROOT
BRANCH  11  13
ATOM     13  C   UNL     1       3.753  13.866  13.168  1.00  0.00    -0.014 C 
ATOM     14  C   UNL     1       4.105  15.197  12.480  1.00  0.00     0.007 C 
ATOM     15  C   UNL     1       4.101  12.692  12.239  1.00  0.00     0.007 C 
ENDBRANCH  11  13
TORSDOF 1
ENDMDL
MODEL 5
REMARK VINA RESULT:    -4.831      2.263      5.142
REMARK INTER + INTRA:          -5.329
REMARK INTER:                  -5.054
REMARK INTRA:                  -0.275
REMARK UNBOUND:                -0.216
REMARK SMILES CC1=CC[C@@H]2[C@H]3[C@@H](C(C)C)CC[C@]2(C)[C@@H]13
REMARK SMILES IDX 1 1 2 2 3 3 4 4 5 5 6 6 15 7 13 8 12 9 11 10 7 11 14 12 8 13
REMARK SMILES IDX 9 14 10 15
REMARK H PARENT
REMARK Flexibility Score: inf
ROOT
ATOM      1  C   UNL     1       2.634  14.622  18.715  1.00  0.00     0.039 C 
ATOM      2  C   UNL     1       1.502  13.890  18.059  1.00  0.00    -0.073 C 
ATOM      3  C   UNL     1       0.693  13.062  18.771  1.00  0.00    -0.027 C 
ATOM      4  C   UNL     1      -0.464  12.361  18.051  1.00  0.00     0.031 C 
ATOM      5  C   UNL     1      -0.466  12.732  16.533  1.00  0.00     0.003 C 
ATOM      6  C   UNL     1       0.992  12.599  16.016  1.00  0.00     0.004 C 
ATOM      7  C   UNL     1       1.214  14.028  16.561  1.00  0.00     0.024 C 
ATOM      8  C   UNL     1      -0.296  14.258  16.319  1.00  0.00    -0.022 C 
ATOM      9  C   UNL     1      -0.521  14.630  14.821  1.00  0.00     0.008 C 
ATOM     10  C   UNL     1      -0.058  13.509  13.853  1.00  0.00     0.005 C 
ATOM     11  C   UNL     1       1.073  12.622  14.458  1.00  0.00    -0.005 C 
ATOM     12  C   UNL     1      -1.051  15.235  17.250  1.00  0.00     0.012 C 
ENDROOT
BRANCH  11  13
ATOM     13  C   UNL     1       1.126  11.207  13.805  1.00  0.00    -0.014 C 
ATOM     14  C   UNL     1       2.048  11.123  12.576  1.00  0.00     0.007 C 
ATOM     15  C   UNL     1      -0.280  10.707  13.437  1.00  0.00     0.007 C 
ENDBRANCH  11  13
TORSDOF 1
ENDMDL
MODEL 6
REMARK VINA RESULT:    -4.766      1.213      4.531
REMARK INTER + INTRA:          -5.261
REMARK INTER:                  -4.850
REMARK INTRA:                  -0.411
REMARK UNBOUND:                -0.216
REMARK SMILES CC1=CC[C@@H]2[C@H]3[C@@H](C(C)C)CC[C@]2(C)[C@@H]13
REMARK SMILES IDX 1 1 2 2 3 3 4 4 5 5 6 6 15 7 13 8 12 9 11 10 7 11 14 12 8 13
REMARK SMILES IDX 9 14 10 15
REMARK H PARENT
REMARK Flexibility Score: inf
ROOT
ATOM      1  C   UNL     1       2.159  18.306  17.481  1.00  0.00     0.039 C 
ATOM      2  C   UNL     1       1.874  16.849  17.275  1.00  0.00    -0.073 C 
ATOM      3  C   UNL     1       2.302  15.915  18.165  1.00  0.00    -0.027 C 
ATOM      4  C   UNL     1       1.958  14.444  17.915  1.00  0.00     0.031 C 
ATOM      5  C   UNL     1       1.162  14.289  16.580  1.00  0.00     0.003 C 
ATOM      6  C   UNL     1       1.891  15.131  15.500  1.00  0.00     0.004 C 
ATOM      7  C   UNL     1       1.105  16.342  16.051  1.00  0.00     0.024 C 
ATOM      8  C   UNL     1       0.017  15.329  16.475  1.00  0.00    -0.022 C 
ATOM      9  C   UNL     1      -0.897  15.018  15.249  1.00  0.00     0.008 C 
ATOM     10  C   UNL     1      -0.111  14.393  14.065  1.00  0.00     0.005 C 
ATOM     11  C   UNL     1       1.392  14.806  14.057  1.00  0.00    -0.005 C 
ATOM     12  C   UNL     1      -0.831  15.641  17.731  1.00  0.00     0.012 C 
ENDROOT
BRANCH  11  13
ATOM     13  C   UNL     1       2.282  13.776  13.297  1.00  0.00    -0.014 C 
ATOM     14  C   UNL     1       1.806  12.319  13.435  1.00  0.00     0.007 C 
ATOM     15  C   UNL     1       3.755  13.885  13.723  1.00  0.00     0.007 C 
ENDBRANCH  11  13
TORSDOF 1
ENDMDL
MODEL 7
REMARK VINA RESULT:    -4.732      1.645      3.434
REMARK INTER + INTRA:          -5.224
REMARK INTER:                  -4.932
REMARK INTRA:                  -0.292
REMARK UNBOUND:                -0.216
REMARK SMILES CC1=CC[C@@H]2[C@H]3[C@@H](C(C)C)CC[C@]2(C)[C@@H]13
REMARK SMILES IDX 1 1 2 2 3 3 4 4 5 5 6 6 15 7 13 8 12 9 11 10 7 11 14 12 8 13
REMARK SMILES IDX 9 14 10 15
REMARK H PARENT
REMARK Flexibility Score: inf
ROOT
ATOM      1  C   UNL     1       0.838  11.218  13.760  1.00  0.00     0.039 C 
ATOM      2  C   UNL     1       1.210  12.563  14.308  1.00  0.00    -0.073 C 
ATOM      3  C   UNL     1       1.550  12.722  15.615  1.00  0.00    -0.027 C 
ATOM      4  C   UNL     1       1.945  14.116  16.111  1.00  0.00     0.031 C 
ATOM      5  C   UNL     1       1.837  15.159  14.952  1.00  0.00     0.003 C 
ATOM      6  C   UNL     1       0.482  14.923  14.234  1.00  0.00     0.004 C 
ATOM      7  C   UNL     1       1.208  13.819  13.432  1.00  0.00     0.024 C 
ATOM      8  C   UNL     1       2.502  14.636  13.653  1.00  0.00    -0.022 C 
ATOM      9  C   UNL     1       2.580  15.768  12.582  1.00  0.00     0.008 C 
ATOM     10  C   UNL     1       1.384  16.754  12.671  1.00  0.00     0.005 C 
ATOM     11  C   UNL     1       0.107  16.095  13.276  1.00  0.00    -0.005 C 
ATOM     12  C   UNL     1       3.846  13.875  13.750  1.00  0.00     0.012 C 
ENDROOT
BRANCH  11  13
ATOM     13  C   UNL     1      -0.855  17.147  13.908  1.00  0.00    -0.014 C 
ATOM     14  C   UNL     1      -0.379  18.602  13.750  1.00  0.00     0.007 C 
ATOM     15  C   UNL     1      -1.120  16.844  15.391  1.00  0.00     0.007 C 
ENDBRANCH  11  13
TORSDOF 1
ENDMDL
MODEL 8
REMARK VINA RESULT:    -4.720      1.722      3.033
REMARK INTER + INTRA:          -5.212
REMARK INTER:                  -5.003
REMARK INTRA:                  -0.209
REMARK UNBOUND:                -0.216
REMARK SMILES CC1=CC[C@@H]2[C@H]3[C@@H](C(C)C)CC[C@]2(C)[C@@H]13
REMARK SMILES IDX 1 1 2 2 3 3 4 4 5 5 6 6 15 7 13 8 12 9 11 10 7 11 14 12 8 13
REMARK SMILES IDX 9 14 10 15
REMARK H PARENT
REMARK Flexibility Score: inf
ROOT
ATOM      1  C   UNL     1       1.949  12.076  14.661  1.00  0.00     0.039 C 
ATOM      2  C   UNL     1       1.056  13.074  15.335  1.00  0.00    -0.073 C 
ATOM      3  C   UNL     1      -0.257  12.804  15.562  1.00  0.00    -0.027 C 
ATOM      4  C   UNL     1      -1.114  13.853  16.277  1.00  0.00     0.031 C 
ATOM      5  C   UNL     1      -0.266  15.126  16.596  1.00  0.00     0.003 C 
ATOM      6  C   UNL     1       0.533  15.489  15.316  1.00  0.00     0.004 C 
ATOM      7  C   UNL     1       1.572  14.445  15.784  1.00  0.00     0.024 C 
ATOM      8  C   UNL     1       1.103  14.756  17.224  1.00  0.00    -0.022 C 
ATOM      9  C   UNL     1       1.836  16.035  17.734  1.00  0.00     0.008 C 
ATOM     10  C   UNL     1       1.531  17.283  16.863  1.00  0.00     0.005 C 
ATOM     11  C   UNL     1       1.162  16.914  15.394  1.00  0.00    -0.005 C 
ATOM     12  C   UNL     1       1.164  13.626  18.279  1.00  0.00     0.012 C 
ENDROOT
BRANCH  11  13
ATOM     13  C   UNL     1       0.309  18.022  14.704  1.00  0.00    -0.014 C 
ATOM     14  C   UNL     1      -1.116  18.154  15.272  1.00  0.00     0.007 C 
ATOM     15  C   UNL     1       0.245  17.816  13.182  1.00  0.00     0.007 C 
ENDBRANCH  11  13
TORSDOF 1
ENDMDL
MODEL 9
REMARK VINA RESULT:    -4.569      1.843      3.773
REMARK INTER + INTRA:          -5.052
REMARK INTER:                  -4.937
REMARK INTRA:                  -0.115
REMARK UNBOUND:                -0.216
REMARK SMILES CC1=CC[C@@H]2[C@H]3[C@@H](C(C)C)CC[C@]2(C)[C@@H]13
REMARK SMILES IDX 1 1 2 2 3 3 4 4 5 5 6 6 15 7 13 8 12 9 11 10 7 11 14 12 8 13
REMARK SMILES IDX 9 14 10 15
REMARK H PARENT
REMARK Flexibility Score: inf
ROOT
ATOM      1  C   UNL     1      -1.095  12.401  18.431  1.00  0.00     0.039 C 
ATOM      2  C   UNL     1      -0.118  13.241  17.663  1.00  0.00    -0.073 C 
ATOM      3  C   UNL     1       1.130  13.485  18.142  1.00  0.00    -0.027 C 
ATOM      4  C   UNL     1       2.092  14.329  17.301  1.00  0.00     0.031 C 
ATOM      5  C   UNL     1       1.393  14.806  15.988  1.00  0.00     0.003 C 
ATOM      6  C   UNL     1      -0.010  15.345  16.374  1.00  0.00     0.004 C 
ATOM      7  C   UNL     1      -0.484  13.875  16.318  1.00  0.00     0.024 C 
ATOM      8  C   UNL     1       0.644  13.644  15.286  1.00  0.00    -0.022 C 
ATOM      9  C   UNL     1       0.143  14.086  13.876  1.00  0.00     0.008 C 
ATOM     10  C   UNL     1      -0.238  15.590  13.824  1.00  0.00     0.005 C 
ATOM     11  C   UNL     1      -0.678  16.146  15.213  1.00  0.00    -0.005 C 
ATOM     12  C   UNL     1       1.311  12.250  15.223  1.00  0.00     0.012 C 
ENDROOT
BRANCH  11  13
ATOM     13  C   UNL     1      -0.486  17.690  15.317  1.00  0.00    -0.014 C 
ATOM     14  C   UNL     1      -0.779  18.444  14.008  1.00  0.00     0.007 C 
ATOM     15  C   UNL     1       0.922  18.048  15.820  1.00  0.00     0.007 C 
ENDBRANCH  11  13
TORSDOF 1
ENDMDL
