MODEL 1
REMARK VINA RESULT:    -7.164      0.000      0.000
REMARK INTER + INTRA:          -8.778
REMARK INTER:                  -8.839
REMARK INTRA:                   0.062
REMARK UNBOUND:                 0.062
REMARK SMILES COc1cc(-c2oc3cc(O)cc(O)c3c(=O)c2O)ccc1O
REMARK SMILES IDX 6 1 18 2 16 3 17 4 15 5 13 6 12 7 10 8 9 9 8 10 7 11 5 12
REMARK SMILES IDX 3 13 22 14 4 15 21 16 20 17 2 18 1 19 23 20 19 22 14 24
REMARK SMILES IDX 11 26
REMARK H PARENT 23 21 19 23 14 25 11 27
REMARK Flexibility Score: inf
ROOT
ATOM      1  C   UNL     1      10.834   4.838  22.909  1.00  0.00     0.180 A 
ATOM      2  C   UNL     1      10.754   6.221  23.145  1.00  0.00     0.208 A 
ATOM      3  C   UNL     1      10.320   7.065  22.110  1.00  0.00     0.238 A 
ATOM      4  O   UNL     1      10.197   8.295  22.344  1.00  0.00    -0.285 OA
ATOM      5  C   UNL     1       9.987   6.518  20.848  1.00  0.00     0.111 A 
ATOM      6  C   UNL     1       9.575   7.283  19.716  1.00  0.00     0.134 A 
ATOM      7  C   UNL     1       9.145   6.625  18.556  1.00  0.00     0.093 A 
ATOM      8  C   UNL     1       9.176   5.234  18.465  1.00  0.00     0.123 A 
ATOM      9  C   UNL     1       9.634   4.478  19.544  1.00  0.00     0.094 A 
ATOM     10  C   UNL     1      10.034   5.104  20.727  1.00  0.00     0.146 A 
ATOM     11  O   UNL     1      10.455   4.348  21.735  1.00  0.00    -0.452 OA
ENDROOT
BRANCH   1  12
ATOM     12  C   UNL     1      11.307   3.888  23.943  1.00  0.00     0.025 A 
ATOM     13  C   UNL     1      12.703   1.976  24.557  1.00  0.00     0.161 A 
ATOM     14  C   UNL     1      12.274   2.102  25.890  1.00  0.00     0.157 A 
ATOM     15  C   UNL     1      12.218   2.880  23.589  1.00  0.00     0.062 A 
ATOM     16  C   UNL     1      11.383   3.119  26.245  1.00  0.00     0.051 A 
ATOM     17  C   UNL     1      10.907   4.010  25.283  1.00  0.00     0.016 A 
BRANCH  13  18
ATOM     18  O   UNL     1      13.604   0.951  24.229  1.00  0.00    -0.493 OA
ATOM     19  C   UNL     1      13.402  -0.004  23.191  1.00  0.00     0.278 C 
ENDBRANCH  13  18
BRANCH  14  20
ATOM     20  O   UNL     1      12.728   1.229  26.879  1.00  0.00    -0.504 OA
ATOM     21  H   UNL     1      12.542   1.384  27.863  1.00  0.00     0.293 HD
ENDBRANCH  14  20
ENDBRANCH   1  12
BRANCH   2  22
ATOM     22  O   UNL     1      11.066   6.739  24.406  1.00  0.00    -0.502 OA
ATOM     23  H   UNL     1      10.487   7.428  24.870  1.00  0.00     0.293 HD
ENDBRANCH   2  22
BRANCH   6  24
ATOM     24  O   UNL     1       9.593   8.679  19.669  1.00  0.00    -0.507 OA
ATOM     25  H   UNL     1       9.123   9.283  20.327  1.00  0.00     0.293 HD
ENDBRANCH   6  24
BRANCH   8  26
ATOM     26  O   UNL     1       8.756   4.613  17.291  1.00  0.00    -0.508 OA
ATOM     27  H   UNL     1       9.184   3.756  16.962  1.00  0.00     0.293 HD
ENDBRANCH   8  26
TORSDOF 6
ENDMDL
MODEL 2
REMARK VINA RESULT:    -7.042      1.227      6.763
REMARK INTER + INTRA:          -8.628
REMARK INTER:                  -8.786
REMARK INTRA:                   0.158
REMARK UNBOUND:                 0.062
REMARK SMILES COc1cc(-c2oc3cc(O)cc(O)c3c(=O)c2O)ccc1O
REMARK SMILES IDX 6 1 18 2 16 3 17 4 15 5 13 6 12 7 10 8 9 9 8 10 7 11 5 12
REMARK SMILES IDX 3 13 22 14 4 15 21 16 20 17 2 18 1 19 23 20 19 22 14 24
REMARK SMILES IDX 11 26
REMARK H PARENT 23 21 19 23 14 25 11 27
REMARK Flexibility Score: inf
ROOT
ATOM      1  C   UNL     1      10.632   5.319  23.013  1.00  0.00     0.180 A 
ATOM      2  C   UNL     1      10.304   5.641  24.341  1.00  0.00     0.208 A 
ATOM      3  C   UNL     1      10.618   4.727  25.361  1.00  0.00     0.238 A 
ATOM      4  O   UNL     1      10.372   5.043  26.553  1.00  0.00    -0.285 OA
ATOM      5  C   UNL     1      11.241   3.497  25.037  1.00  0.00     0.111 A 
ATOM      6  C   UNL     1      11.568   2.481  25.984  1.00  0.00     0.134 A 
ATOM      7  C   UNL     1      12.300   1.360  25.570  1.00  0.00     0.093 A 
ATOM      8  C   UNL     1      12.660   1.189  24.234  1.00  0.00     0.123 A 
ATOM      9  C   UNL     1      12.293   2.148  23.289  1.00  0.00     0.094 A 
ATOM     10  C   UNL     1      11.594   3.294  23.677  1.00  0.00     0.146 A 
ATOM     11  O   UNL     1      11.273   4.187  22.749  1.00  0.00    -0.452 OA
ENDROOT
BRANCH   1  12
ATOM     12  C   UNL     1      10.310   6.220  21.882  1.00  0.00     0.025 A 
ATOM     13  C   UNL     1       9.559   6.505  19.572  1.00  0.00     0.161 A 
ATOM     14  C   UNL     1       9.632   7.901  19.729  1.00  0.00     0.157 A 
ATOM     15  C   UNL     1       9.895   5.671  20.658  1.00  0.00     0.062 A 
ATOM     16  C   UNL     1      10.026   8.447  20.954  1.00  0.00     0.051 A 
ATOM     17  C   UNL     1      10.356   7.616  22.026  1.00  0.00     0.016 A 
BRANCH  13  18
ATOM     18  O   UNL     1       9.154   5.983  18.333  1.00  0.00    -0.493 OA
ATOM     19  C   UNL     1       8.716   4.644  18.124  1.00  0.00     0.278 C 
ENDBRANCH  13  18
BRANCH  14  20
ATOM     20  O   UNL     1       9.311   8.762  18.680  1.00  0.00    -0.504 OA
ATOM     21  H   UNL     1       9.965   8.974  17.937  1.00  0.00     0.293 HD
ENDBRANCH  14  20
ENDBRANCH   1  12
BRANCH   2  22
ATOM     22  O   UNL     1       9.709   6.869  24.642  1.00  0.00    -0.502 OA
ATOM     23  H   UNL     1       9.863   7.348  25.521  1.00  0.00     0.293 HD
ENDBRANCH   2  22
BRANCH   6  24
ATOM     24  O   UNL     1      11.177   2.509  27.325  1.00  0.00    -0.507 OA
ATOM     25  H   UNL     1      11.553   1.912  28.046  1.00  0.00     0.293 HD
ENDBRANCH   6  24
BRANCH   8  26
ATOM     26  O   UNL     1      13.375   0.056  23.854  1.00  0.00    -0.508 OA
ATOM     27  H   UNL     1      13.101  -0.871  24.157  1.00  0.00     0.293 HD
ENDBRANCH   8  26
TORSDOF 6
ENDMDL
MODEL 3
REMARK VINA RESULT:    -6.846      1.251      1.734
REMARK INTER + INTRA:          -8.386
REMARK INTER:                  -7.994
REMARK INTRA:                  -0.392
REMARK UNBOUND:                 0.062
REMARK SMILES COc1cc(-c2oc3cc(O)cc(O)c3c(=O)c2O)ccc1O
REMARK SMILES IDX 6 1 18 2 16 3 17 4 15 5 13 6 12 7 10 8 9 9 8 10 7 11 5 12
REMARK SMILES IDX 3 13 22 14 4 15 21 16 20 17 2 18 1 19 23 20 19 22 14 24
REMARK SMILES IDX 11 26
REMARK H PARENT 23 21 19 23 14 25 11 27
REMARK Flexibility Score: inf
ROOT
ATOM      1  C   UNL     1      11.193   4.284  22.722  1.00  0.00     0.180 A 
ATOM      2  C   UNL     1      11.275   5.638  23.091  1.00  0.00     0.208 A 
ATOM      3  C   UNL     1      10.816   6.618  22.195  1.00  0.00     0.238 A 
ATOM      4  O   UNL     1      10.841   7.823  22.554  1.00  0.00    -0.285 OA
ATOM      5  C   UNL     1      10.296   6.232  20.936  1.00  0.00     0.111 A 
ATOM      6  C   UNL     1       9.840   7.141  19.935  1.00  0.00     0.134 A 
ATOM      7  C   UNL     1       9.225   6.645  18.779  1.00  0.00     0.093 A 
ATOM      8  C   UNL     1       9.109   5.273  18.558  1.00  0.00     0.123 A 
ATOM      9  C   UNL     1       9.605   4.374  19.503  1.00  0.00     0.094 A 
ATOM     10  C   UNL     1      10.191   4.839  20.682  1.00  0.00     0.146 A 
ATOM     11  O   UNL     1      10.642   3.952  21.561  1.00  0.00    -0.452 OA
ENDROOT
BRANCH   1  12
ATOM     12  C   UNL     1      11.679   3.196  23.602  1.00  0.00     0.025 A 
ATOM     13  C   UNL     1      11.188   1.394  25.181  1.00  0.00     0.161 A 
ATOM     14  C   UNL     1      12.558   1.083  25.239  1.00  0.00     0.157 A 
ATOM     15  C   UNL     1      10.757   2.451  24.353  1.00  0.00     0.062 A 
ATOM     16  C   UNL     1      13.474   1.813  24.476  1.00  0.00     0.051 A 
ATOM     17  C   UNL     1      13.041   2.856  23.658  1.00  0.00     0.016 A 
BRANCH  13  18
ATOM     18  O   UNL     1      10.289   0.641  25.952  1.00  0.00    -0.493 OA
ATOM     19  C   UNL     1       9.212  -0.125  25.421  1.00  0.00     0.278 C 
ENDBRANCH  13  18
BRANCH  14  20
ATOM     20  O   UNL     1      13.029   0.048  26.047  1.00  0.00    -0.504 OA
ATOM     21  H   UNL     1      13.720   0.199  26.771  1.00  0.00     0.293 HD
ENDBRANCH  14  20
ENDBRANCH   1  12
BRANCH   2  22
ATOM     22  O   UNL     1      11.771   5.995  24.348  1.00  0.00    -0.502 OA
ATOM     23  H   UNL     1      12.699   6.379  24.478  1.00  0.00     0.293 HD
ENDBRANCH   2  22
BRANCH   6  24
ATOM     24  O   UNL     1       9.991   8.529  20.014  1.00  0.00    -0.507 OA
ATOM     25  H   UNL     1      10.664   9.002  20.598  1.00  0.00     0.293 HD
ENDBRANCH   6  24
BRANCH   8  26
ATOM     26  O   UNL     1       8.505   4.814  17.389  1.00  0.00    -0.508 OA
ATOM     27  H   UNL     1       8.694   5.242  16.491  1.00  0.00     0.293 HD
ENDBRANCH   8  26
TORSDOF 6
ENDMDL
MODEL 4
REMARK VINA RESULT:    -5.880      1.355      7.051
REMARK INTER + INTRA:          -7.193
REMARK INTER:                  -7.197
REMARK INTRA:                   0.004
REMARK UNBOUND:                 0.062
REMARK SMILES COc1cc(-c2oc3cc(O)cc(O)c3c(=O)c2O)ccc1O
REMARK SMILES IDX 6 1 18 2 16 3 17 4 15 5 13 6 12 7 10 8 9 9 8 10 7 11 5 12
REMARK SMILES IDX 3 13 22 14 4 15 21 16 20 17 2 18 1 19 23 20 19 22 14 24
REMARK SMILES IDX 11 26
REMARK H PARENT 23 21 19 23 14 25 11 27
REMARK Flexibility Score: inf
ROOT
ATOM      1  C   UNL     1      10.719   4.766  22.817  1.00  0.00     0.180 A 
ATOM      2  C   UNL     1      10.377   5.138  24.129  1.00  0.00     0.208 A 
ATOM      3  C   UNL     1      10.797   4.328  25.198  1.00  0.00     0.238 A 
ATOM      4  O   UNL     1      10.536   4.695  26.372  1.00  0.00    -0.285 OA
ATOM      5  C   UNL     1      11.539   3.151  24.940  1.00  0.00     0.111 A 
ATOM      6  C   UNL     1      11.981   2.236  25.941  1.00  0.00     0.134 A 
ATOM      7  C   UNL     1      12.820   1.172  25.585  1.00  0.00     0.093 A 
ATOM      8  C   UNL     1      13.177   0.952  24.255  1.00  0.00     0.123 A 
ATOM      9  C   UNL     1      12.701   1.806  23.259  1.00  0.00     0.094 A 
ATOM     10  C   UNL     1      11.893   2.897  23.589  1.00  0.00     0.146 A 
ATOM     11  O   UNL     1      11.470   3.691  22.613  1.00  0.00    -0.452 OA
ENDROOT
BRANCH   1  12
ATOM     12  C   UNL     1      10.291   5.555  21.638  1.00  0.00     0.025 A 
ATOM     13  C   UNL     1      10.110   7.719  20.513  1.00  0.00     0.161 A 
ATOM     14  C   UNL     1       9.547   7.079  19.394  1.00  0.00     0.157 A 
ATOM     15  C   UNL     1      10.485   6.945  21.630  1.00  0.00     0.062 A 
ATOM     16  C   UNL     1       9.372   5.693  19.394  1.00  0.00     0.051 A 
ATOM     17  C   UNL     1       9.747   4.933  20.503  1.00  0.00     0.016 A 
BRANCH  13  18
ATOM     18  O   UNL     1      10.280   9.112  20.483  1.00  0.00    -0.493 OA
ATOM     19  C   UNL     1       9.619  10.027  21.351  1.00  0.00     0.278 C 
ENDBRANCH  13  18
BRANCH  14  20
ATOM     20  O   UNL     1       9.159   7.806  18.267  1.00  0.00    -0.504 OA
ATOM     21  H   UNL     1       9.665   8.626  17.955  1.00  0.00     0.293 HD
ENDBRANCH  14  20
ENDBRANCH   1  12
BRANCH   2  22
ATOM     22  O   UNL     1       9.663   6.316  24.363  1.00  0.00    -0.502 OA
ATOM     23  H   UNL     1       8.887   6.607  23.781  1.00  0.00     0.293 HD
ENDBRANCH   2  22
BRANCH   6  24
ATOM     24  O   UNL     1      11.607   2.311  27.286  1.00  0.00    -0.507 OA
ATOM     25  H   UNL     1      11.946   2.999  27.940  1.00  0.00     0.293 HD
ENDBRANCH   6  24
BRANCH   8  26
ATOM     26  O   UNL     1      14.000  -0.125  23.933  1.00  0.00    -0.508 OA
ATOM     27  H   UNL     1      14.203  -0.368  22.971  1.00  0.00     0.293 HD
ENDBRANCH   8  26
TORSDOF 6
ENDMDL
MODEL 5
REMARK VINA RESULT:    -5.210      1.643      7.250
REMARK INTER + INTRA:          -6.367
REMARK INTER:                  -6.555
REMARK INTRA:                   0.189
REMARK UNBOUND:                 0.062
REMARK SMILES COc1cc(-c2oc3cc(O)cc(O)c3c(=O)c2O)ccc1O
REMARK SMILES IDX 6 1 18 2 16 3 17 4 15 5 13 6 12 7 10 8 9 9 8 10 7 11 5 12
REMARK SMILES IDX 3 13 22 14 4 15 21 16 20 17 2 18 1 19 23 20 19 22 14 24
REMARK SMILES IDX 11 26
REMARK H PARENT 23 21 19 23 14 25 11 27
REMARK Flexibility Score: inf
ROOT
ATOM      1  C   UNL     1      10.485   5.560  22.174  1.00  0.00     0.180 A 
ATOM      2  C   UNL     1      11.194   4.364  21.963  1.00  0.00     0.208 A 
ATOM      3  C   UNL     1      11.551   3.579  23.072  1.00  0.00     0.238 A 
ATOM      4  O   UNL     1      12.137   2.484  22.874  1.00  0.00    -0.285 OA
ATOM      5  C   UNL     1      11.209   4.008  24.377  1.00  0.00     0.111 A 
ATOM      6  C   UNL     1      11.555   3.314  25.575  1.00  0.00     0.134 A 
ATOM      7  C   UNL     1      11.052   3.761  26.804  1.00  0.00     0.093 A 
ATOM      8  C   UNL     1      10.272   4.913  26.885  1.00  0.00     0.123 A 
ATOM      9  C   UNL     1       9.977   5.635  25.727  1.00  0.00     0.094 A 
ATOM     10  C   UNL     1      10.434   5.193  24.483  1.00  0.00     0.146 A 
ATOM     11  O   UNL     1      10.124   5.902  23.404  1.00  0.00    -0.452 OA
ENDROOT
BRANCH   1  12
ATOM     12  C   UNL     1      10.096   6.451  21.057  1.00  0.00     0.025 A 
ATOM     13  C   UNL     1       9.293   6.715  18.762  1.00  0.00     0.161 A 
ATOM     14  C   UNL     1       9.292   8.111  18.932  1.00  0.00     0.157 A 
ATOM     15  C   UNL     1       9.691   5.892  19.835  1.00  0.00     0.062 A 
ATOM     16  C   UNL     1       9.676   8.667  20.155  1.00  0.00     0.051 A 
ATOM     17  C   UNL     1      10.068   7.847  21.213  1.00  0.00     0.016 A 
BRANCH  13  18
ATOM     18  O   UNL     1       8.895   6.182  17.525  1.00  0.00    -0.493 OA
ATOM     19  C   UNL     1       8.907   4.796  17.200  1.00  0.00     0.278 C 
ENDBRANCH  13  18
BRANCH  14  20
ATOM     20  O   UNL     1       8.906   8.963  17.896  1.00  0.00    -0.504 OA
ATOM     21  H   UNL     1       8.338   8.646  17.120  1.00  0.00     0.293 HD
ENDBRANCH  14  20
ENDBRANCH   1  12
BRANCH   2  22
ATOM     22  O   UNL     1      11.503   3.948  20.665  1.00  0.00    -0.502 OA
ATOM     23  H   UNL     1      11.578   4.595  19.889  1.00  0.00     0.293 HD
ENDBRANCH   2  22
BRANCH   6  24
ATOM     24  O   UNL     1      12.404   2.204  25.616  1.00  0.00    -0.507 OA
ATOM     25  H   UNL     1      13.411   2.250  25.626  1.00  0.00     0.293 HD
ENDBRANCH   6  24
BRANCH   8  26
ATOM     26  O   UNL     1       9.801   5.339  28.125  1.00  0.00    -0.508 OA
ATOM     27  H   UNL     1       9.014   5.972  28.205  1.00  0.00     0.293 HD
ENDBRANCH   8  26
TORSDOF 6
ENDMDL
MODEL 6
REMARK VINA RESULT:    -5.195      1.707      7.269
REMARK INTER + INTRA:          -6.348
REMARK INTER:                  -6.369
REMARK INTRA:                   0.021
REMARK UNBOUND:                 0.062
REMARK SMILES COc1cc(-c2oc3cc(O)cc(O)c3c(=O)c2O)ccc1O
REMARK SMILES IDX 6 1 18 2 16 3 17 4 15 5 13 6 12 7 10 8 9 9 8 10 7 11 5 12
REMARK SMILES IDX 3 13 22 14 4 15 21 16 20 17 2 18 1 19 23 20 19 22 14 24
REMARK SMILES IDX 11 26
REMARK H PARENT 23 21 19 23 14 25 11 27
REMARK Flexibility Score: inf
ROOT
ATOM      1  C   UNL     1      11.222   3.881  23.765  1.00  0.00     0.180 A 
ATOM      2  C   UNL     1      12.398   3.329  23.229  1.00  0.00     0.208 A 
ATOM      3  C   UNL     1      12.946   2.182  23.826  1.00  0.00     0.238 A 
ATOM      4  O   UNL     1      13.968   1.661  23.309  1.00  0.00    -0.285 OA
ATOM      5  C   UNL     1      12.321   1.611  24.961  1.00  0.00     0.111 A 
ATOM      6  C   UNL     1      12.811   0.474  25.670  1.00  0.00     0.134 A 
ATOM      7  C   UNL     1      12.040  -0.083  26.699  1.00  0.00     0.093 A 
ATOM      8  C   UNL     1      10.832   0.494  27.087  1.00  0.00     0.123 A 
ATOM      9  C   UNL     1      10.372   1.642  26.440  1.00  0.00     0.094 A 
ATOM     10  C   UNL     1      11.100   2.199  25.386  1.00  0.00     0.146 A 
ATOM     11  O   UNL     1      10.624   3.285  24.790  1.00  0.00    -0.452 OA
ENDROOT
BRANCH   1  12
ATOM     12  C   UNL     1      10.599   5.103  23.206  1.00  0.00     0.025 A 
ATOM     13  C   UNL     1       9.780   6.341  21.262  1.00  0.00     0.161 A 
ATOM     14  C   UNL     1       9.364   7.382  22.111  1.00  0.00     0.157 A 
ATOM     15  C   UNL     1      10.392   5.201  21.820  1.00  0.00     0.062 A 
ATOM     16  C   UNL     1       9.552   7.275  23.492  1.00  0.00     0.051 A 
ATOM     17  C   UNL     1      10.157   6.144  24.039  1.00  0.00     0.016 A 
BRANCH  13  18
ATOM     18  O   UNL     1       9.573   6.471  19.879  1.00  0.00    -0.493 OA
ATOM     19  C   UNL     1       9.232   5.397  19.008  1.00  0.00     0.278 C 
ENDBRANCH  13  18
BRANCH  14  20
ATOM     20  O   UNL     1       8.755   8.529  21.601  1.00  0.00    -0.504 OA
ATOM     21  H   UNL     1       7.769   8.561  21.372  1.00  0.00     0.293 HD
ENDBRANCH  14  20
ENDBRANCH   1  12
BRANCH   2  22
ATOM     22  O   UNL     1      12.988   3.896  22.095  1.00  0.00    -0.502 OA
ATOM     23  H   UNL     1      13.667   4.644  22.151  1.00  0.00     0.293 HD
ENDBRANCH   2  22
BRANCH   6  24
ATOM     24  O   UNL     1      14.049  -0.125  25.424  1.00  0.00    -0.507 OA
ATOM     25  H   UNL     1      14.182  -1.100  25.203  1.00  0.00     0.293 HD
ENDBRANCH   6  24
BRANCH   8  26
ATOM     26  O   UNL     1      10.099  -0.077  28.125  1.00  0.00    -0.508 OA
ATOM     27  H   UNL     1      10.451  -0.097  29.074  1.00  0.00     0.293 HD
ENDBRANCH   8  26
TORSDOF 6
ENDMDL
MODEL 7
REMARK VINA RESULT:    -4.542     17.128     18.565
REMARK INTER + INTRA:          -5.543
REMARK INTER:                  -5.738
REMARK INTRA:                   0.195
REMARK UNBOUND:                 0.062
REMARK SMILES COc1cc(-c2oc3cc(O)cc(O)c3c(=O)c2O)ccc1O
REMARK SMILES IDX 6 1 18 2 16 3 17 4 15 5 13 6 12 7 10 8 9 9 8 10 7 11 5 12
REMARK SMILES IDX 3 13 22 14 4 15 21 16 20 17 2 18 1 19 23 20 19 22 14 24
REMARK SMILES IDX 11 26
REMARK H PARENT 23 21 19 23 14 25 11 27
REMARK Flexibility Score: inf
ROOT
ATOM      1  C   UNL     1       1.560  16.881  12.578  1.00  0.00     0.180 A 
ATOM      2  C   UNL     1       2.509  17.375  11.666  1.00  0.00     0.208 A 
ATOM      3  C   UNL     1       2.804  16.625  10.516  1.00  0.00     0.238 A 
ATOM      4  O   UNL     1       3.613  17.098   9.677  1.00  0.00    -0.285 OA
ATOM      5  C   UNL     1       2.159  15.384  10.300  1.00  0.00     0.111 A 
ATOM      6  C   UNL     1       2.410  14.522   9.191  1.00  0.00     0.134 A 
ATOM      7  C   UNL     1       1.619  13.380   9.010  1.00  0.00     0.093 A 
ATOM      8  C   UNL     1       0.633  13.034   9.932  1.00  0.00     0.123 A 
ATOM      9  C   UNL     1       0.419  13.837  11.053  1.00  0.00     0.094 A 
ATOM     10  C   UNL     1       1.167  15.002  11.241  1.00  0.00     0.146 A 
ATOM     11  O   UNL     1       0.926  15.745  12.315  1.00  0.00    -0.452 OA
ENDROOT
BRANCH   1  12
ATOM     12  C   UNL     1       1.215  17.602  13.825  1.00  0.00     0.025 A 
ATOM     13  C   UNL     1       1.695  18.082  16.175  1.00  0.00     0.161 A 
ATOM     14  C   UNL     1       0.629  18.999  16.196  1.00  0.00     0.157 A 
ATOM     15  C   UNL     1       1.985  17.392  14.980  1.00  0.00     0.062 A 
ATOM     16  C   UNL     1      -0.124  19.223  15.040  1.00  0.00     0.051 A 
ATOM     17  C   UNL     1       0.168  18.538  13.861  1.00  0.00     0.016 A 
BRANCH  13  18
ATOM     18  O   UNL     1       2.440  17.881  17.348  1.00  0.00    -0.493 OA
ATOM     19  C   UNL     1       2.831  18.916  18.245  1.00  0.00     0.278 C 
ENDBRANCH  13  18
BRANCH  14  20
ATOM     20  O   UNL     1       0.306  19.702  17.357  1.00  0.00    -0.504 OA
ATOM     21  H   UNL     1      -0.624  20.063  17.528  1.00  0.00     0.293 HD
ENDBRANCH  14  20
ENDBRANCH   1  12
BRANCH   2  22
ATOM     22  O   UNL     1       3.119  18.614  11.888  1.00  0.00    -0.502 OA
ATOM     23  H   UNL     1       3.777  18.770  12.641  1.00  0.00     0.293 HD
ENDBRANCH   2  22
BRANCH   6  24
ATOM     24  O   UNL     1       3.432  14.726   8.260  1.00  0.00    -0.507 OA
ATOM     25  H   UNL     1       3.302  14.756   7.260  1.00  0.00     0.293 HD
ENDBRANCH   6  24
BRANCH   8  26
ATOM     26  O   UNL     1      -0.125  11.882   9.729  1.00  0.00    -0.508 OA
ATOM     27  H   UNL     1       0.268  11.060   9.288  1.00  0.00     0.293 HD
ENDBRANCH   8  26
TORSDOF 6
ENDMDL
