MODEL 1
REMARK VINA RESULT:    -2.660      0.000      0.000
REMARK INTER + INTRA:          -4.642
REMARK INTER:                  -4.060
REMARK INTRA:                  -0.583
REMARK UNBOUND:                -0.583
REMARK SMILES O=C([O-])CCCCCCCCC(=O)[O-]
REMARK SMILES IDX 7 1 6 2 5 3 4 4 2 5 1 6 3 7 8 8 9 9 10 10 11 11 12 12 13 13
REMARK SMILES IDX 14 14
REMARK H PARENT
REMARK Flexibility Score: inf
ROOT
ATOM      1  C   UNL     1      31.683  63.529  19.631  1.00  0.00     0.000 C 
ENDROOT
BRANCH   1   2
ATOM      2  C   UNL     1      32.970  63.448  18.795  1.00  0.00     0.000 C 
BRANCH   2   3
ATOM      3  C   UNL     1      32.771  63.939  17.350  1.00  0.00     0.006 C 
BRANCH   3   4
ATOM      4  C   UNL     1      32.734  62.780  16.346  1.00  0.00     0.053 C 
BRANCH   4   5
ATOM      5  C   UNL     1      32.137  63.198  15.037  1.00  0.00     0.041 C 
ATOM      6  O   UNL     1      30.902  63.426  14.947  1.00  0.00    -0.550 OA
ATOM      7  O   UNL     1      32.952  63.370  13.925  1.00  0.00    -0.550 OA
ENDBRANCH   4   5
ENDBRANCH   3   4
ENDBRANCH   2   3
ENDBRANCH   1   2
BRANCH   1   8
ATOM      8  C   UNL     1      31.572  64.842  20.421  1.00  0.00     0.000 C 
BRANCH   8   9
ATOM      9  C   UNL     1      30.972  65.957  19.551  1.00  0.00     0.000 C 
BRANCH   9  10
ATOM     10  C   UNL     1      29.539  65.641  19.091  1.00  0.00     0.006 C 
BRANCH  10  11
ATOM     11  C   UNL     1      29.432  65.464  17.571  1.00  0.00     0.053 C 
BRANCH  11  12
ATOM     12  C   UNL     1      28.012  65.211  17.175  1.00  0.00     0.041 C 
ATOM     13  O   UNL     1      27.748  64.682  16.063  1.00  0.00    -0.550 OA
ATOM     14  O   UNL     1      26.980  65.517  18.054  1.00  0.00    -0.550 OA
ENDBRANCH  11  12
ENDBRANCH  10  11
ENDBRANCH   9  10
ENDBRANCH   8   9
ENDBRANCH   1   8
TORSDOF 9
ENDMDL
MODEL 2
REMARK VINA RESULT:    -2.595      3.041      5.561
REMARK INTER + INTRA:          -4.544
REMARK INTER:                  -4.075
REMARK INTRA:                  -0.468
REMARK UNBOUND:                -0.583
REMARK SMILES O=C([O-])CCCCCCCCC(=O)[O-]
REMARK SMILES IDX 7 1 6 2 5 3 4 4 2 5 1 6 3 7 8 8 9 9 10 10 11 11 12 12 13 13
REMARK SMILES IDX 14 14
REMARK H PARENT
REMARK Flexibility Score: inf
ROOT
ATOM      1  C   UNL     1      30.156  64.987  18.589  1.00  0.00     0.000 C 
ENDROOT
BRANCH   1   2
ATOM      2  C   UNL     1      29.419  66.098  19.353  1.00  0.00     0.000 C 
BRANCH   2   3
ATOM      3  C   UNL     1      27.897  66.065  19.126  1.00  0.00     0.006 C 
BRANCH   3   4
ATOM      4  C   UNL     1      27.477  64.929  18.186  1.00  0.00     0.053 C 
BRANCH   4   5
ATOM      5  C   UNL     1      27.066  65.443  16.841  1.00  0.00     0.041 C 
ATOM      6  O   UNL     1      27.905  66.017  16.097  1.00  0.00    -0.550 OA
ATOM      7  O   UNL     1      25.764  65.257  16.393  1.00  0.00    -0.550 OA
ENDBRANCH   4   5
ENDBRANCH   3   4
ENDBRANCH   2   3
ENDBRANCH   1   2
BRANCH   1   8
ATOM      8  C   UNL     1      31.619  64.835  19.031  1.00  0.00     0.000 C 
BRANCH   8   9
ATOM      9  C   UNL     1      31.734  64.849  20.563  1.00  0.00     0.000 C 
BRANCH   9  10
ATOM     10  C   UNL     1      32.628  63.721  21.100  1.00  0.00     0.006 C 
BRANCH  10  11
ATOM     11  C   UNL     1      32.766  62.556  20.112  1.00  0.00     0.053 C 
BRANCH  11  12
ATOM     12  C   UNL     1      32.666  61.248  20.832  1.00  0.00     0.041 C 
ATOM     13  O   UNL     1      32.667  60.166  20.185  1.00  0.00    -0.550 OA
ATOM     14  O   UNL     1      32.619  61.220  22.220  1.00  0.00    -0.550 OA
ENDBRANCH  11  12
ENDBRANCH  10  11
ENDBRANCH   9  10
ENDBRANCH   8   9
ENDBRANCH   1   8
TORSDOF 9
ENDMDL
MODEL 3
REMARK VINA RESULT:    -2.432      2.559      5.475
REMARK INTER + INTRA:          -4.294
REMARK INTER:                  -3.716
REMARK INTRA:                  -0.577
REMARK UNBOUND:                -0.583
REMARK SMILES O=C([O-])CCCCCCCCC(=O)[O-]
REMARK SMILES IDX 7 1 6 2 5 3 4 4 2 5 1 6 3 7 8 8 9 9 10 10 11 11 12 12 13 13
REMARK SMILES IDX 14 14
REMARK H PARENT
REMARK Flexibility Score: inf
ROOT
ATOM      1  C   UNL     1      27.996  65.138  18.187  1.00  0.00     0.000 C 
ENDROOT
BRANCH   1   2
ATOM      2  C   UNL     1      27.426  65.978  19.341  1.00  0.00     0.000 C 
BRANCH   2   3
ATOM      3  C   UNL     1      28.410  66.118  20.515  1.00  0.00     0.006 C 
BRANCH   3   4
ATOM      4  C   UNL     1      29.872  66.097  20.050  1.00  0.00     0.053 C 
BRANCH   4   5
ATOM      5  C   UNL     1      30.751  65.360  21.013  1.00  0.00     0.041 C 
ATOM      6  O   UNL     1      30.746  65.663  22.236  1.00  0.00    -0.550 OA
ATOM      7  O   UNL     1      31.550  64.315  20.567  1.00  0.00    -0.550 OA
ENDBRANCH   4   5
ENDBRANCH   3   4
ENDBRANCH   2   3
ENDBRANCH   1   2
BRANCH   1   8
ATOM      8  C   UNL     1      27.718  65.760  16.810  1.00  0.00     0.000 C 
BRANCH   8   9
ATOM      9  C   UNL     1      29.011  65.867  15.986  1.00  0.00     0.000 C 
BRANCH   9  10
ATOM     10  C   UNL     1      30.020  64.757  16.322  1.00  0.00     0.006 C 
BRANCH  10  11
ATOM     11  C   UNL     1      30.351  63.874  15.112  1.00  0.00     0.053 C 
BRANCH  11  12
ATOM     12  C   UNL     1      31.779  63.431  15.166  1.00  0.00     0.041 C 
ATOM     13  O   UNL     1      32.327  62.931  14.148  1.00  0.00    -0.550 OA
ATOM     14  O   UNL     1      32.520  63.612  16.327  1.00  0.00    -0.550 OA
ENDBRANCH  11  12
ENDBRANCH  10  11
ENDBRANCH   9  10
ENDBRANCH   8   9
ENDBRANCH   1   8
TORSDOF 9
ENDMDL
MODEL 4
REMARK VINA RESULT:    -2.398      4.846      8.407
REMARK INTER + INTRA:          -4.242
REMARK INTER:                  -4.057
REMARK INTRA:                  -0.186
REMARK UNBOUND:                -0.583
REMARK SMILES O=C([O-])CCCCCCCCC(=O)[O-]
REMARK SMILES IDX 7 1 6 2 5 3 4 4 2 5 1 6 3 7 8 8 9 9 10 10 11 11 12 12 13 13
REMARK SMILES IDX 14 14
REMARK H PARENT
REMARK Flexibility Score: inf
ROOT
ATOM      1  C   UNL     1      25.115  65.025  16.175  1.00  0.00     0.000 C 
ENDROOT
BRANCH   1   2
ATOM      2  C   UNL     1      23.911  65.980  16.176  1.00  0.00     0.000 C 
BRANCH   2   3
ATOM      3  C   UNL     1      22.564  65.236  16.196  1.00  0.00     0.006 C 
BRANCH   3   4
ATOM      4  C   UNL     1      21.409  66.117  15.704  1.00  0.00     0.053 C 
BRANCH   4   5
ATOM      5  C   UNL     1      20.162  65.321  15.471  1.00  0.00     0.041 C 
ATOM      6  O   UNL     1      19.908  64.860  14.327  1.00  0.00    -0.550 OA
ATOM      7  O   UNL     1      19.298  65.057  16.527  1.00  0.00    -0.550 OA
ENDBRANCH   4   5
ENDBRANCH   3   4
ENDBRANCH   2   3
ENDBRANCH   1   2
BRANCH   1   8
ATOM      8  C   UNL     1      26.391  65.682  16.725  1.00  0.00     0.000 C 
BRANCH   8   9
ATOM      9  C   UNL     1      27.642  64.922  16.258  1.00  0.00     0.000 C 
BRANCH   9  10
ATOM     10  C   UNL     1      28.944  65.669  16.588  1.00  0.00     0.006 C 
BRANCH  10  11
ATOM     11  C   UNL     1      29.331  65.557  18.069  1.00  0.00     0.053 C 
BRANCH  11  12
ATOM     12  C   UNL     1      30.646  64.859  18.212  1.00  0.00     0.041 C 
ATOM     13  O   UNL     1      31.045  64.484  19.347  1.00  0.00    -0.550 OA
ATOM     14  O   UNL     1      31.411  64.579  17.087  1.00  0.00    -0.550 OA
ENDBRANCH  11  12
ENDBRANCH  10  11
ENDBRANCH   9  10
ENDBRANCH   8   9
ENDBRANCH   1   8
TORSDOF 9
ENDMDL
MODEL 5
REMARK VINA RESULT:    -2.339      1.097      4.963
REMARK INTER + INTRA:          -4.152
REMARK INTER:                  -3.669
REMARK INTRA:                  -0.484
REMARK UNBOUND:                -0.583
REMARK SMILES O=C([O-])CCCCCCCCC(=O)[O-]
REMARK SMILES IDX 7 1 6 2 5 3 4 4 2 5 1 6 3 7 8 8 9 9 10 10 11 11 12 12 13 13
REMARK SMILES IDX 14 14
REMARK H PARENT
REMARK Flexibility Score: inf
ROOT
ATOM      1  C   UNL     1      29.895  65.392  18.363  1.00  0.00     0.000 C 
ENDROOT
BRANCH   1   2
ATOM      2  C   UNL     1      28.784  65.959  19.260  1.00  0.00     0.000 C 
BRANCH   2   3
ATOM      3  C   UNL     1      27.447  66.124  18.515  1.00  0.00     0.006 C 
BRANCH   3   4
ATOM      4  C   UNL     1      27.629  66.124  16.992  1.00  0.00     0.053 C 
BRANCH   4   5
ATOM      5  C   UNL     1      26.650  65.216  16.315  1.00  0.00     0.041 C 
ATOM      6  O   UNL     1      27.057  64.246  15.622  1.00  0.00    -0.550 OA
ATOM      7  O   UNL     1      25.285  65.419  16.478  1.00  0.00    -0.550 OA
ENDBRANCH   4   5
ENDBRANCH   3   4
ENDBRANCH   2   3
ENDBRANCH   1   2
BRANCH   1   8
ATOM      8  C   UNL     1      31.291  65.537  18.988  1.00  0.00     0.000 C 
BRANCH   8   9
ATOM      9  C   UNL     1      32.132  64.273  18.749  1.00  0.00     0.000 C 
BRANCH   9  10
ATOM     10  C   UNL     1      32.840  64.284  17.385  1.00  0.00     0.006 C 
BRANCH  10  11
ATOM     11  C   UNL     1      32.581  63.006  16.575  1.00  0.00     0.053 C 
BRANCH  11  12
ATOM     12  C   UNL     1      32.014  63.347  15.233  1.00  0.00     0.041 C 
ATOM     13  O   UNL     1      32.722  63.226  14.197  1.00  0.00    -0.550 OA
ATOM     14  O   UNL     1      30.691  63.753  15.119  1.00  0.00    -0.550 OA
ENDBRANCH  11  12
ENDBRANCH  10  11
ENDBRANCH   9  10
ENDBRANCH   8   9
ENDBRANCH   1   8
TORSDOF 9
ENDMDL
MODEL 6
REMARK VINA RESULT:    -2.317      2.956      5.202
REMARK INTER + INTRA:          -4.119
REMARK INTER:                  -3.642
REMARK INTRA:                  -0.477
REMARK UNBOUND:                -0.583
REMARK SMILES O=C([O-])CCCCCCCCC(=O)[O-]
REMARK SMILES IDX 7 1 6 2 5 3 4 4 2 5 1 6 3 7 8 8 9 9 10 10 11 11 12 12 13 13
REMARK SMILES IDX 14 14
REMARK H PARENT
REMARK Flexibility Score: inf
ROOT
ATOM      1  C   UNL     1      30.932  64.955  18.860  1.00  0.00     0.000 C 
ENDROOT
BRANCH   1   2
ATOM      2  C   UNL     1      30.744  64.945  17.335  1.00  0.00     0.000 C 
BRANCH   2   3
ATOM      3  C   UNL     1      29.639  65.909  16.867  1.00  0.00     0.006 C 
BRANCH   3   4
ATOM      4  C   UNL     1      28.439  65.166  16.265  1.00  0.00     0.053 C 
BRANCH   4   5
ATOM      5  C   UNL     1      27.228  65.266  17.140  1.00  0.00     0.041 C 
ATOM      6  O   UNL     1      26.077  65.294  16.628  1.00  0.00    -0.550 OA
ATOM      7  O   UNL     1      27.367  65.291  18.522  1.00  0.00    -0.550 OA
ENDBRANCH   4   5
ENDBRANCH   3   4
ENDBRANCH   2   3
ENDBRANCH   1   2
BRANCH   1   8
ATOM      8  C   UNL     1      31.915  63.877  19.342  1.00  0.00     0.000 C 
BRANCH   8   9
ATOM      9  C   UNL     1      32.879  64.446  20.394  1.00  0.00     0.000 C 
BRANCH   9  10
ATOM     10  C   UNL     1      32.494  64.045  21.827  1.00  0.00     0.006 C 
BRANCH  10  11
ATOM     11  C   UNL     1      32.340  65.255  22.758  1.00  0.00     0.053 C 
BRANCH  11  12
ATOM     12  C   UNL     1      30.905  65.441  23.137  1.00  0.00     0.041 C 
ATOM     13  O   UNL     1      30.564  65.434  24.350  1.00  0.00    -0.550 OA
ATOM     14  O   UNL     1      29.950  65.669  22.155  1.00  0.00    -0.550 OA
ENDBRANCH  11  12
ENDBRANCH  10  11
ENDBRANCH   9  10
ENDBRANCH   8   9
ENDBRANCH   1   8
TORSDOF 9
ENDMDL
MODEL 7
REMARK VINA RESULT:    -2.313     12.035     15.401
REMARK INTER + INTRA:          -4.113
REMARK INTER:                  -3.748
REMARK INTRA:                  -0.365
REMARK UNBOUND:                -0.583
REMARK SMILES O=C([O-])CCCCCCCCC(=O)[O-]
REMARK SMILES IDX 7 1 6 2 5 3 4 4 2 5 1 6 3 7 8 8 9 9 10 10 11 11 12 12 13 13
REMARK SMILES IDX 14 14
REMARK H PARENT
REMARK Flexibility Score: inf
ROOT
ATOM      1  C   UNL     1      15.610  64.502  17.171  1.00  0.00     0.000 C 
ENDROOT
BRANCH   1   2
ATOM      2  C   UNL     1      14.297  65.030  17.768  1.00  0.00     0.000 C 
BRANCH   2   3
ATOM      3  C   UNL     1      13.113  64.917  16.791  1.00  0.00     0.006 C 
BRANCH   3   4
ATOM      4  C   UNL     1      13.466  65.438  15.392  1.00  0.00     0.053 C 
BRANCH   4   5
ATOM      5  C   UNL     1      13.155  64.430  14.329  1.00  0.00     0.041 C 
ATOM      6  O   UNL     1      12.879  64.806  13.159  1.00  0.00    -0.550 OA
ATOM      7  O   UNL     1      13.205  63.073  14.621  1.00  0.00    -0.550 OA
ENDBRANCH   4   5
ENDBRANCH   3   4
ENDBRANCH   2   3
ENDBRANCH   1   2
BRANCH   1   8
ATOM      8  C   UNL     1      16.662  65.606  16.985  1.00  0.00     0.000 C 
BRANCH   8   9
ATOM      9  C   UNL     1      16.761  66.026  15.510  1.00  0.00     0.000 C 
BRANCH   9  10
ATOM     10  C   UNL     1      18.214  66.125  15.019  1.00  0.00     0.006 C 
BRANCH  10  11
ATOM     11  C   UNL     1      19.225  65.635  16.065  1.00  0.00     0.053 C 
BRANCH  11  12
ATOM     12  C   UNL     1      20.479  65.166  15.396  1.00  0.00     0.041 C 
ATOM     13  O   UNL     1      20.422  64.578  14.284  1.00  0.00    -0.550 OA
ATOM     14  O   UNL     1      21.714  65.420  15.978  1.00  0.00    -0.550 OA
ENDBRANCH  11  12
ENDBRANCH  10  11
ENDBRANCH   9  10
ENDBRANCH   8   9
ENDBRANCH   1   8
TORSDOF 9
ENDMDL
MODEL 8
REMARK VINA RESULT:    -2.160     12.450     15.772
REMARK INTER + INTRA:          -3.879
REMARK INTER:                  -3.338
REMARK INTRA:                  -0.541
REMARK UNBOUND:                -0.583
REMARK SMILES O=C([O-])CCCCCCCCC(=O)[O-]
REMARK SMILES IDX 7 1 6 2 5 3 4 4 2 5 1 6 3 7 8 8 9 9 10 10 11 11 12 12 13 13
REMARK SMILES IDX 14 14
REMARK H PARENT
REMARK Flexibility Score: inf
ROOT
ATOM      1  C   UNL     1      15.911  65.776  13.906  1.00  0.00     0.000 C 
ENDROOT
BRANCH   1   2
ATOM      2  C   UNL     1      14.911  66.097  12.784  1.00  0.00     0.000 C 
BRANCH   2   3
ATOM      3  C   UNL     1      14.348  64.833  12.111  1.00  0.00     0.006 C 
BRANCH   3   4
ATOM      4  C   UNL     1      12.987  64.426  12.692  1.00  0.00     0.053 C 
BRANCH   4   5
ATOM      5  C   UNL     1      13.054  63.102  13.389  1.00  0.00     0.041 C 
ATOM      6  O   UNL     1      13.185  62.040  12.724  1.00  0.00    -0.550 OA
ATOM      7  O   UNL     1      13.007  63.043  14.776  1.00  0.00    -0.550 OA
ENDBRANCH   4   5
ENDBRANCH   3   4
ENDBRANCH   2   3
ENDBRANCH   1   2
BRANCH   1   8
ATOM      8  C   UNL     1      15.260  65.776  15.297  1.00  0.00     0.000 C 
BRANCH   8   9
ATOM      9  C   UNL     1      16.326  65.853  16.401  1.00  0.00     0.000 C 
BRANCH   9  10
ATOM     10  C   UNL     1      17.660  65.216  15.980  1.00  0.00     0.006 C 
BRANCH  10  11
ATOM     11  C   UNL     1      18.864  66.125  16.264  1.00  0.00     0.053 C 
BRANCH  11  12
ATOM     12  C   UNL     1      19.959  65.860  15.279  1.00  0.00     0.041 C 
ATOM     13  O   UNL     1      21.129  65.624  15.680  1.00  0.00    -0.550 OA
ATOM     14  O   UNL     1      19.678  65.828  13.919  1.00  0.00    -0.550 OA
ENDBRANCH  11  12
ENDBRANCH  10  11
ENDBRANCH   9  10
ENDBRANCH   8   9
ENDBRANCH   1   8
TORSDOF 9
ENDMDL
