MODEL 1
REMARK VINA RESULT:    -3.873      0.000      0.000
REMARK INTER + INTRA:          -4.879
REMARK INTER:                  -4.666
REMARK INTRA:                  -0.213
REMARK UNBOUND:                -0.213
REMARK SMILES OCC(O)CO
REMARK SMILES IDX 3 1 5 2 6 3 2 5 1 6 4 8
REMARK H PARENT 6 4 1 7 4 9
REMARK Flexibility Score: inf
ROOT
ATOM      1  C   UNL     1      67.269   4.500 123.980  1.00  0.00     0.165 C 
ENDROOT
BRANCH   1   2
ATOM      2  C   UNL     1      67.951   3.237 123.434  1.00  0.00     0.190 C 
BRANCH   2   3
ATOM      3  O   UNL     1      69.340   3.332 123.589  1.00  0.00    -0.394 OA
ATOM      4  H   UNL     1      69.605   2.576 124.177  1.00  0.00     0.210 HD
ENDBRANCH   2   3
ENDBRANCH   1   2
BRANCH   1   5
ATOM      5  C   UNL     1      68.289   5.571 124.387  1.00  0.00     0.190 C 
BRANCH   5   6
ATOM      6  O   UNL     1      68.713   6.296 123.266  1.00  0.00    -0.394 OA
ATOM      7  H   UNL     1      68.103   7.075 123.195  1.00  0.00     0.210 HD
ENDBRANCH   5   6
ENDBRANCH   1   5
BRANCH   1   8
ATOM      8  O   UNL     1      66.406   5.033 123.009  1.00  0.00    -0.388 OA
ATOM      9  H   UNL     1      66.720   5.955 122.819  1.00  0.00     0.211 HD
ENDBRANCH   1   8
TORSDOF 5
ENDMDL
MODEL 2
REMARK VINA RESULT:    -3.812      0.968      2.317
REMARK INTER + INTRA:          -4.805
REMARK INTER:                  -4.590
REMARK INTRA:                  -0.216
REMARK UNBOUND:                -0.213
REMARK SMILES OCC(O)CO
REMARK SMILES IDX 3 1 5 2 6 3 2 5 1 6 4 8
REMARK H PARENT 6 4 1 7 4 9
REMARK Flexibility Score: inf
ROOT
ATOM      1  C   UNL     1      68.137   4.310 124.073  1.00  0.00     0.165 C 
ENDROOT
BRANCH   1   2
ATOM      2  C   UNL     1      69.367   5.219 123.934  1.00  0.00     0.190 C 
BRANCH   2   3
ATOM      3  O   UNL     1      69.034   6.378 123.220  1.00  0.00    -0.394 OA
ATOM      4  H   UNL     1      68.378   6.097 122.528  1.00  0.00     0.210 HD
ENDBRANCH   2   3
ENDBRANCH   1   2
BRANCH   1   5
ATOM      5  C   UNL     1      66.828   5.108 124.022  1.00  0.00     0.190 C 
BRANCH   5   6
ATOM      6  O   UNL     1      66.315   5.125 122.718  1.00  0.00    -0.394 OA
ATOM      7  H   UNL     1      65.497   4.564 122.735  1.00  0.00     0.210 HD
ENDBRANCH   5   6
ENDBRANCH   1   5
BRANCH   1   8
ATOM      8  O   UNL     1      68.133   3.353 123.046  1.00  0.00    -0.388 OA
ATOM      9  H   UNL     1      68.672   2.584 123.367  1.00  0.00     0.211 HD
ENDBRANCH   1   8
TORSDOF 5
ENDMDL
MODEL 3
REMARK VINA RESULT:    -3.746      0.878      2.383
REMARK INTER + INTRA:          -4.726
REMARK INTER:                  -4.522
REMARK INTRA:                  -0.204
REMARK UNBOUND:                -0.213
REMARK SMILES OCC(O)CO
REMARK SMILES IDX 3 1 5 2 6 3 2 5 1 6 4 8
REMARK H PARENT 6 4 1 7 4 9
REMARK Flexibility Score: inf
ROOT
ATOM      1  C   UNL     1      68.360   5.671 124.139  1.00  0.00     0.165 C 
ENDROOT
BRANCH   1   2
ATOM      2  C   UNL     1      67.052   4.867 124.134  1.00  0.00     0.190 C 
BRANCH   2   3
ATOM      3  O   UNL     1      66.544   4.777 122.831  1.00  0.00    -0.394 OA
ATOM      4  H   UNL     1      66.128   3.878 122.758  1.00  0.00     0.210 HD
ENDBRANCH   2   3
ENDBRANCH   1   2
BRANCH   1   5
ATOM      5  C   UNL     1      69.592   4.760 124.054  1.00  0.00     0.190 C 
BRANCH   5   6
ATOM      6  O   UNL     1      69.222   3.473 123.643  1.00  0.00    -0.394 OA
ATOM      7  H   UNL     1      68.237   3.422 123.751  1.00  0.00     0.210 HD
ENDBRANCH   5   6
ENDBRANCH   1   5
BRANCH   1   8
ATOM      8  O   UNL     1      68.375   6.565 123.057  1.00  0.00    -0.388 OA
ATOM      9  H   UNL     1      67.467   6.547 122.655  1.00  0.00     0.211 HD
ENDBRANCH   1   8
TORSDOF 5
ENDMDL
MODEL 4
REMARK VINA RESULT:    -3.537     14.412     14.864
REMARK INTER + INTRA:          -4.474
REMARK INTER:                  -4.450
REMARK INTRA:                  -0.024
REMARK UNBOUND:                -0.213
REMARK SMILES OCC(O)CO
REMARK SMILES IDX 3 1 5 2 6 3 2 5 1 6 4 8
REMARK H PARENT 6 4 1 7 4 9
REMARK Flexibility Score: inf
ROOT
ATOM      1  C   UNL     1      52.978   3.063 124.868  1.00  0.00     0.165 C 
ENDROOT
BRANCH   1   2
ATOM      2  C   UNL     1      52.605   3.161 126.355  1.00  0.00     0.190 C 
BRANCH   2   3
ATOM      3  O   UNL     1      53.317   2.208 127.096  1.00  0.00    -0.394 OA
ATOM      4  H   UNL     1      53.418   2.587 128.008  1.00  0.00     0.210 HD
ENDBRANCH   2   3
ENDBRANCH   1   2
BRANCH   1   5
ATOM      5  C   UNL     1      53.217   4.445 124.246  1.00  0.00     0.190 C 
BRANCH   5   6
ATOM      6  O   UNL     1      54.202   5.140 124.959  1.00  0.00    -0.394 OA
ATOM      7  H   UNL     1      54.074   4.898 125.913  1.00  0.00     0.210 HD
ENDBRANCH   5   6
ENDBRANCH   1   5
BRANCH   1   8
ATOM      8  O   UNL     1      54.137   2.285 124.717  1.00  0.00    -0.388 OA
ATOM      9  H   UNL     1      53.952   1.631 123.994  1.00  0.00     0.211 HD
ENDBRANCH   1   8
TORSDOF 5
ENDMDL
MODEL 5
REMARK VINA RESULT:    -3.514     20.597     21.066
REMARK INTER + INTRA:          -4.446
REMARK INTER:                  -4.441
REMARK INTRA:                  -0.005
REMARK UNBOUND:                -0.213
REMARK SMILES OCC(O)CO
REMARK SMILES IDX 3 1 5 2 6 3 2 5 1 6 4 8
REMARK H PARENT 6 4 1 7 4 9
REMARK Flexibility Score: inf
ROOT
ATOM      1  C   UNL     1      53.627   3.980 138.043  1.00  0.00     0.165 C 
ENDROOT
BRANCH   1   2
ATOM      2  C   UNL     1      52.580   2.890 138.312  1.00  0.00     0.190 C 
BRANCH   2   3
ATOM      3  O   UNL     1      52.934   2.149 139.448  1.00  0.00    -0.394 OA
ATOM      4  H   UNL     1      52.118   1.651 139.717  1.00  0.00     0.210 HD
ENDBRANCH   2   3
ENDBRANCH   1   2
BRANCH   1   5
ATOM      5  C   UNL     1      52.979   5.302 137.610  1.00  0.00     0.190 C 
BRANCH   5   6
ATOM      6  O   UNL     1      53.038   6.239 138.650  1.00  0.00    -0.394 OA
ATOM      7  H   UNL     1      53.319   5.737 139.458  1.00  0.00     0.210 HD
ENDBRANCH   5   6
ENDBRANCH   1   5
BRANCH   1   8
ATOM      8  O   UNL     1      54.394   4.201 139.198  1.00  0.00    -0.388 OA
ATOM      9  H   UNL     1      54.218   5.134 139.487  1.00  0.00     0.211 HD
ENDBRANCH   1   8
TORSDOF 5
ENDMDL
MODEL 6
REMARK VINA RESULT:    -3.469     19.596     20.375
REMARK INTER + INTRA:          -4.392
REMARK INTER:                  -4.214
REMARK INTRA:                  -0.178
REMARK UNBOUND:                -0.213
REMARK SMILES OCC(O)CO
REMARK SMILES IDX 3 1 5 2 6 3 2 5 1 6 4 8
REMARK H PARENT 6 4 1 7 4 9
REMARK Flexibility Score: inf
ROOT
ATOM      1  C   UNL     1      52.647   5.719 137.710  1.00  0.00     0.165 C 
ENDROOT
BRANCH   1   2
ATOM      2  C   UNL     1      53.170   6.380 136.426  1.00  0.00     0.190 C 
BRANCH   2   3
ATOM      3  O   UNL     1      54.571   6.359 136.408  1.00  0.00    -0.394 OA
ATOM      4  H   UNL     1      54.834   5.410 136.535  1.00  0.00     0.210 HD
ENDBRANCH   2   3
ENDBRANCH   1   2
BRANCH   1   5
ATOM      5  C   UNL     1      53.217   4.307 137.900  1.00  0.00     0.190 C 
BRANCH   5   6
ATOM      6  O   UNL     1      54.271   4.325 138.823  1.00  0.00    -0.394 OA
ATOM      7  H   UNL     1      54.628   5.251 138.816  1.00  0.00     0.210 HD
ENDBRANCH   5   6
ENDBRANCH   1   5
BRANCH   1   8
ATOM      8  O   UNL     1      52.984   6.505 138.823  1.00  0.00    -0.388 OA
ATOM      9  H   UNL     1      52.166   6.582 139.380  1.00  0.00     0.211 HD
ENDBRANCH   1   8
TORSDOF 5
ENDMDL
MODEL 7
REMARK VINA RESULT:    -3.361     19.858     20.699
REMARK INTER + INTRA:          -4.262
REMARK INTER:                  -4.255
REMARK INTRA:                  -0.007
REMARK UNBOUND:                -0.213
REMARK SMILES OCC(O)CO
REMARK SMILES IDX 3 1 5 2 6 3 2 5 1 6 4 8
REMARK H PARENT 6 4 1 7 4 9
REMARK Flexibility Score: inf
ROOT
ATOM      1  C   UNL     1      52.543   7.082 137.494  1.00  0.00     0.165 C 
ENDROOT
BRANCH   1   2
ATOM      2  C   UNL     1      52.700   8.598 137.685  1.00  0.00     0.190 C 
BRANCH   2   3
ATOM      3  O   UNL     1      53.486   8.865 138.814  1.00  0.00    -0.394 OA
ATOM      4  H   UNL     1      54.244   8.223 138.781  1.00  0.00     0.210 HD
ENDBRANCH   2   3
ENDBRANCH   1   2
BRANCH   1   5
ATOM      5  C   UNL     1      53.174   6.602 136.181  1.00  0.00     0.190 C 
BRANCH   5   6
ATOM      6  O   UNL     1      52.692   7.355 135.102  1.00  0.00    -0.394 OA
ATOM      7  H   UNL     1      51.703   7.299 135.147  1.00  0.00     0.210 HD
ENDBRANCH   5   6
ENDBRANCH   1   5
BRANCH   1   8
ATOM      8  O   UNL     1      53.142   6.402 138.567  1.00  0.00    -0.388 OA
ATOM      9  H   UNL     1      53.775   7.037 138.994  1.00  0.00     0.211 HD
ENDBRANCH   1   8
TORSDOF 5
ENDMDL
MODEL 8
REMARK VINA RESULT:    -3.358     14.700     15.013
REMARK INTER + INTRA:          -4.258
REMARK INTER:                  -4.040
REMARK INTRA:                  -0.218
REMARK UNBOUND:                -0.213
REMARK SMILES OCC(O)CO
REMARK SMILES IDX 3 1 5 2 6 3 2 5 1 6 4 8
REMARK H PARENT 6 4 1 7 4 9
REMARK Flexibility Score: inf
ROOT
ATOM      1  C   UNL     1      52.820   4.359 125.220  1.00  0.00     0.165 C 
ENDROOT
BRANCH   1   2
ATOM      2  C   UNL     1      52.535   3.742 123.843  1.00  0.00     0.190 C 
BRANCH   2   3
ATOM      3  O   UNL     1      53.642   3.002 123.406  1.00  0.00    -0.394 OA
ATOM      4  H   UNL     1      53.768   2.276 124.071  1.00  0.00     0.210 HD
ENDBRANCH   2   3
ENDBRANCH   1   2
BRANCH   1   5
ATOM      5  C   UNL     1      52.659   3.335 126.351  1.00  0.00     0.190 C 
BRANCH   5   6
ATOM      6  O   UNL     1      53.750   2.457 126.375  1.00  0.00    -0.394 OA
ATOM      7  H   UNL     1      54.186   2.535 125.487  1.00  0.00     0.210 HD
ENDBRANCH   5   6
ENDBRANCH   1   5
BRANCH   1   8
ATOM      8  O   UNL     1      54.125   4.876 125.250  1.00  0.00    -0.388 OA
ATOM      9  H   UNL     1      54.694   4.253 124.727  1.00  0.00     0.211 HD
ENDBRANCH   1   8
TORSDOF 5
ENDMDL
MODEL 9
REMARK VINA RESULT:    -3.340     19.552     20.407
REMARK INTER + INTRA:          -4.236
REMARK INTER:                  -4.019
REMARK INTRA:                  -0.217
REMARK UNBOUND:                -0.213
REMARK SMILES OCC(O)CO
REMARK SMILES IDX 3 1 5 2 6 3 2 5 1 6 4 8
REMARK H PARENT 6 4 1 7 4 9
REMARK Flexibility Score: inf
ROOT
ATOM      1  C   UNL     1      53.305   6.758 136.516  1.00  0.00     0.165 C 
ENDROOT
BRANCH   1   2
ATOM      2  C   UNL     1      52.481   7.846 137.220  1.00  0.00     0.190 C 
BRANCH   2   3
ATOM      3  O   UNL     1      53.141   8.280 138.377  1.00  0.00    -0.394 OA
ATOM      4  H   UNL     1      54.058   8.535 138.093  1.00  0.00     0.210 HD
ENDBRANCH   2   3
ENDBRANCH   1   2
BRANCH   1   5
ATOM      5  C   UNL     1      53.034   5.366 137.103  1.00  0.00     0.190 C 
BRANCH   5   6
ATOM      6  O   UNL     1      53.529   5.282 138.411  1.00  0.00    -0.394 OA
ATOM      7  H   UNL     1      53.882   6.182 138.630  1.00  0.00     0.210 HD
ENDBRANCH   5   6
ENDBRANCH   1   5
BRANCH   1   8
ATOM      8  O   UNL     1      53.005   6.745 135.144  1.00  0.00    -0.388 OA
ATOM      9  H   UNL     1      53.828   6.453 134.672  1.00  0.00     0.211 HD
ENDBRANCH   1   8
TORSDOF 5
ENDMDL
