MODEL 1
REMARK VINA RESULT:    -4.435      0.000      0.000
REMARK INTER + INTRA:          -5.174
REMARK INTER:                  -4.954
REMARK INTRA:                  -0.220
REMARK UNBOUND:                -0.220
REMARK SMILES CC(C)c1ccc(C(=O)[O-])cc1
REMARK SMILES IDX 7 1 6 2 11 3 5 4 12 5 4 6 8 7 9 8 10 9 2 10 1 11 3 12
REMARK H PARENT
REMARK Flexibility Score: inf
ROOT
ATOM      1  C   UNL     1      63.092  31.014  60.753  1.00  0.00    -0.003 A 
ATOM      2  C   UNL     1      61.795  31.539  60.618  1.00  0.00     0.010 A 
ATOM      3  C   UNL     1      64.190  31.889  60.690  1.00  0.00     0.010 A 
ATOM      4  C   UNL     1      61.601  32.909  60.425  1.00  0.00     0.004 A 
ATOM      5  C   UNL     1      63.996  33.259  60.496  1.00  0.00     0.004 A 
ATOM      6  C   UNL     1      62.700  33.785  60.361  1.00  0.00    -0.045 A 
ENDROOT
BRANCH   1   7
ATOM      7  C   UNL     1      63.292  29.562  60.958  1.00  0.00     0.071 C 
ATOM      8  O   UNL     1      64.423  29.038  60.768  1.00  0.00    -0.545 OA
ATOM      9  O   UNL     1      62.237  28.755  61.363  1.00  0.00    -0.545 OA
ENDBRANCH   1   7
BRANCH   6  10
ATOM     10  C   UNL     1      62.504  35.275  60.151  1.00  0.00     0.013 C 
ATOM     11  C   UNL     1      61.048  35.681  60.402  1.00  0.00     0.012 C 
ATOM     12  C   UNL     1      63.463  36.088  61.031  1.00  0.00     0.012 C 
ENDBRANCH   6  10
TORSDOF 2
ENDMDL
MODEL 2
REMARK VINA RESULT:    -4.418      0.132      1.683
REMARK INTER + INTRA:          -5.155
REMARK INTER:                  -4.935
REMARK INTRA:                  -0.220
REMARK UNBOUND:                -0.220
REMARK SMILES CC(C)c1ccc(C(=O)[O-])cc1
REMARK SMILES IDX 7 1 6 2 11 3 5 4 12 5 4 6 8 7 9 8 10 9 2 10 1 11 3 12
REMARK H PARENT
REMARK Flexibility Score: inf
ROOT
ATOM      1  C   UNL     1      62.992  30.940  60.749  1.00  0.00    -0.003 A 
ATOM      2  C   UNL     1      64.127  31.766  60.690  1.00  0.00     0.010 A 
ATOM      3  C   UNL     1      61.718  31.524  60.634  1.00  0.00     0.010 A 
ATOM      4  C   UNL     1      63.992  33.146  60.519  1.00  0.00     0.004 A 
ATOM      5  C   UNL     1      61.583  32.905  60.464  1.00  0.00     0.004 A 
ATOM      6  C   UNL     1      62.717  33.732  60.405  1.00  0.00    -0.045 A 
ENDROOT
BRANCH   1   7
ATOM      7  C   UNL     1      63.140  29.479  60.929  1.00  0.00     0.071 C 
ATOM      8  O   UNL     1      62.185  28.788  61.377  1.00  0.00    -0.545 OA
ATOM      9  O   UNL     1      64.334  28.846  60.608  1.00  0.00    -0.545 OA
ENDBRANCH   1   7
BRANCH   6  10
ATOM     10  C   UNL     1      62.556  35.229  60.220  1.00  0.00     0.013 C 
ATOM     11  C   UNL     1      61.113  35.667  60.497  1.00  0.00     0.012 C 
ATOM     12  C   UNL     1      63.546  36.004  61.097  1.00  0.00     0.012 C 
ENDBRANCH   6  10
TORSDOF 2
ENDMDL
MODEL 3
REMARK VINA RESULT:    -4.370      3.375      4.836
REMARK INTER + INTRA:          -5.101
REMARK INTER:                  -4.894
REMARK INTRA:                  -0.207
REMARK UNBOUND:                -0.220
REMARK SMILES CC(C)c1ccc(C(=O)[O-])cc1
REMARK SMILES IDX 7 1 6 2 11 3 5 4 12 5 4 6 8 7 9 8 10 9 2 10 1 11 3 12
REMARK H PARENT
REMARK Flexibility Score: inf
ROOT
ATOM      1  C   UNL     1      63.876  34.967  60.922  1.00  0.00    -0.003 A 
ATOM      2  C   UNL     1      62.524  35.284  60.711  1.00  0.00     0.010 A 
ATOM      3  C   UNL     1      64.284  33.625  60.827  1.00  0.00     0.010 A 
ATOM      4  C   UNL     1      61.599  34.281  60.412  1.00  0.00     0.004 A 
ATOM      5  C   UNL     1      63.358  32.622  60.529  1.00  0.00     0.004 A 
ATOM      6  C   UNL     1      62.005  32.937  60.318  1.00  0.00    -0.045 A 
ENDROOT
BRANCH   1   7
ATOM      7  C   UNL     1      64.853  36.033  61.238  1.00  0.00     0.071 C 
ATOM      8  O   UNL     1      66.028  35.980  60.786  1.00  0.00    -0.545 OA
ATOM      9  O   UNL     1      64.489  37.109  62.038  1.00  0.00    -0.545 OA
ENDBRANCH   1   7
BRANCH   6  10
ATOM     10  C   UNL     1      61.011  31.838  59.994  1.00  0.00     0.013 C 
ATOM     11  C   UNL     1      61.460  31.031  58.771  1.00  0.00     0.012 C 
ATOM     12  C   UNL     1      60.784  30.924  61.205  1.00  0.00     0.012 C 
ENDBRANCH   6  10
TORSDOF 2
ENDMDL
MODEL 4
REMARK VINA RESULT:    -4.336     12.353     13.210
REMARK INTER + INTRA:          -5.063
REMARK INTER:                  -4.843
REMARK INTRA:                  -0.220
REMARK UNBOUND:                -0.220
REMARK SMILES CC(C)c1ccc(C(=O)[O-])cc1
REMARK SMILES IDX 7 1 6 2 11 3 5 4 12 5 4 6 8 7 9 8 10 9 2 10 1 11 3 12
REMARK H PARENT
REMARK Flexibility Score: inf
ROOT
ATOM      1  C   UNL     1      59.322  27.244  49.759  1.00  0.00    -0.003 A 
ATOM      2  C   UNL     1      58.408  26.178  49.811  1.00  0.00     0.010 A 
ATOM      3  C   UNL     1      58.850  28.556  49.943  1.00  0.00     0.010 A 
ATOM      4  C   UNL     1      57.051  26.419  50.043  1.00  0.00     0.004 A 
ATOM      5  C   UNL     1      57.493  28.796  50.174  1.00  0.00     0.004 A 
ATOM      6  C   UNL     1      56.577  27.731  50.226  1.00  0.00    -0.045 A 
ENDROOT
BRANCH   1   7
ATOM      7  C   UNL     1      60.758  26.985  49.515  1.00  0.00     0.071 C 
ATOM      8  O   UNL     1      61.253  25.849  49.742  1.00  0.00    -0.545 OA
ATOM      9  O   UNL     1      61.583  27.993  49.029  1.00  0.00    -0.545 OA
ENDBRANCH   1   7
BRANCH   6  10
ATOM     10  C   UNL     1      55.107  28.006  50.478  1.00  0.00     0.013 C 
ATOM     11  C   UNL     1      54.786  29.495  50.301  1.00  0.00     0.012 C 
ATOM     12  C   UNL     1      54.220  27.140  49.575  1.00  0.00     0.012 C 
ENDBRANCH   6  10
TORSDOF 2
ENDMDL
MODEL 5
REMARK VINA RESULT:    -4.317     13.038     13.922
REMARK INTER + INTRA:          -5.042
REMARK INTER:                  -4.835
REMARK INTRA:                  -0.207
REMARK UNBOUND:                -0.220
REMARK SMILES CC(C)c1ccc(C(=O)[O-])cc1
REMARK SMILES IDX 7 1 6 2 11 3 5 4 12 5 4 6 8 7 9 8 10 9 2 10 1 11 3 12
REMARK H PARENT
REMARK Flexibility Score: inf
ROOT
ATOM      1  C   UNL     1      54.954  26.616  49.649  1.00  0.00    -0.003 A 
ATOM      2  C   UNL     1      54.687  27.979  49.861  1.00  0.00     0.010 A 
ATOM      3  C   UNL     1      56.274  26.152  49.785  1.00  0.00     0.010 A 
ATOM      4  C   UNL     1      55.718  28.859  50.201  1.00  0.00     0.004 A 
ATOM      5  C   UNL     1      57.305  27.033  50.125  1.00  0.00     0.004 A 
ATOM      6  C   UNL     1      57.040  28.396  50.336  1.00  0.00    -0.045 A 
ENDROOT
BRANCH   1   7
ATOM      7  C   UNL     1      53.860  25.687  49.290  1.00  0.00     0.071 C 
ATOM      8  O   UNL     1      53.805  24.535  49.796  1.00  0.00    -0.545 OA
ATOM      9  O   UNL     1      52.876  26.073  48.388  1.00  0.00    -0.545 OA
ENDBRANCH   1   7
BRANCH   6  10
ATOM     10  C   UNL     1      58.168  29.340  50.705  1.00  0.00     0.013 C 
ATOM     11  C   UNL     1      58.869  28.887  51.990  1.00  0.00     0.012 C 
ATOM     12  C   UNL     1      59.169  29.483  49.552  1.00  0.00     0.012 C 
ENDBRANCH   6  10
TORSDOF 2
ENDMDL
MODEL 6
REMARK VINA RESULT:    -4.300      3.322      4.912
REMARK INTER + INTRA:          -5.024
REMARK INTER:                  -4.814
REMARK INTRA:                  -0.210
REMARK UNBOUND:                -0.220
REMARK SMILES CC(C)c1ccc(C(=O)[O-])cc1
REMARK SMILES IDX 7 1 6 2 11 3 5 4 12 5 4 6 8 7 9 8 10 9 2 10 1 11 3 12
REMARK H PARENT
REMARK Flexibility Score: inf
ROOT
ATOM      1  C   UNL     1      63.874  34.731  60.871  1.00  0.00    -0.003 A 
ATOM      2  C   UNL     1      64.437  33.445  60.816  1.00  0.00     0.010 A 
ATOM      3  C   UNL     1      62.497  34.882  60.628  1.00  0.00     0.010 A 
ATOM      4  C   UNL     1      63.642  32.334  60.525  1.00  0.00     0.004 A 
ATOM      5  C   UNL     1      61.702  33.769  60.336  1.00  0.00     0.004 A 
ATOM      6  C   UNL     1      62.265  32.484  60.280  1.00  0.00    -0.045 A 
ENDROOT
BRANCH   1   7
ATOM      7  C   UNL     1      64.719  35.905  61.180  1.00  0.00     0.071 C 
ATOM      8  O   UNL     1      65.942  35.912  60.877  1.00  0.00    -0.545 OA
ATOM      9  O   UNL     1      64.176  37.019  61.809  1.00  0.00    -0.545 OA
ENDBRANCH   1   7
BRANCH   6  10
ATOM     10  C   UNL     1      61.390  31.285  59.963  1.00  0.00     0.013 C 
ATOM     11  C   UNL     1      60.726  30.735  61.231  1.00  0.00     0.012 C 
ATOM     12  C   UNL     1      60.342  31.633  58.899  1.00  0.00     0.012 C 
ENDBRANCH   6  10
TORSDOF 2
ENDMDL
MODEL 7
REMARK VINA RESULT:    -4.288     12.445     13.324
REMARK INTER + INTRA:          -5.010
REMARK INTER:                  -4.792
REMARK INTRA:                  -0.219
REMARK UNBOUND:                -0.220
REMARK SMILES CC(C)c1ccc(C(=O)[O-])cc1
REMARK SMILES IDX 7 1 6 2 11 3 5 4 12 5 4 6 8 7 9 8 10 9 2 10 1 11 3 12
REMARK H PARENT
REMARK Flexibility Score: inf
ROOT
ATOM      1  C   UNL     1      58.908  27.253  49.840  1.00  0.00    -0.003 A 
ATOM      2  C   UNL     1      58.471  28.575  50.024  1.00  0.00     0.010 A 
ATOM      3  C   UNL     1      57.959  26.215  49.847  1.00  0.00     0.010 A 
ATOM      4  C   UNL     1      57.115  28.855  50.210  1.00  0.00     0.004 A 
ATOM      5  C   UNL     1      56.602  26.496  50.034  1.00  0.00     0.004 A 
ATOM      6  C   UNL     1      56.164  27.818  50.219  1.00  0.00    -0.045 A 
ENDROOT
BRANCH   1   7
ATOM      7  C   UNL     1      60.345  26.961  49.643  1.00  0.00     0.071 C 
ATOM      8  O   UNL     1      61.096  27.796  49.072  1.00  0.00    -0.545 OA
ATOM      9  O   UNL     1      60.887  25.760  50.084  1.00  0.00    -0.545 OA
ENDBRANCH   1   7
BRANCH   6  10
ATOM     10  C   UNL     1      54.689  28.107  50.420  1.00  0.00     0.013 C 
ATOM     11  C   UNL     1      54.388  29.598  50.228  1.00  0.00     0.012 C 
ATOM     12  C   UNL     1      53.825  27.246  49.490  1.00  0.00     0.012 C 
ENDBRANCH   6  10
TORSDOF 2
ENDMDL
MODEL 8
REMARK VINA RESULT:    -4.152     12.961     13.995
REMARK INTER + INTRA:          -4.858
REMARK INTER:                  -4.642
REMARK INTRA:                  -0.216
REMARK UNBOUND:                -0.220
REMARK SMILES CC(C)c1ccc(C(=O)[O-])cc1
REMARK SMILES IDX 7 1 6 2 11 3 5 4 12 5 4 6 8 7 9 8 10 9 2 10 1 11 3 12
REMARK H PARENT
REMARK Flexibility Score: inf
ROOT
ATOM      1  C   UNL     1      55.154  27.850  50.023  1.00  0.00    -0.003 A 
ATOM      2  C   UNL     1      56.035  28.913  50.286  1.00  0.00     0.010 A 
ATOM      3  C   UNL     1      55.681  26.562  49.825  1.00  0.00     0.010 A 
ATOM      4  C   UNL     1      57.413  28.691  50.351  1.00  0.00     0.004 A 
ATOM      5  C   UNL     1      57.060  26.341  49.890  1.00  0.00     0.004 A 
ATOM      6  C   UNL     1      57.942  27.402  50.152  1.00  0.00    -0.045 A 
ENDROOT
BRANCH   1   7
ATOM      7  C   UNL     1      53.695  28.089  49.955  1.00  0.00     0.071 C 
ATOM      8  O   UNL     1      52.882  27.143  50.134  1.00  0.00    -0.545 OA
ATOM      9  O   UNL     1      53.200  29.360  49.694  1.00  0.00    -0.545 OA
ENDBRANCH   1   7
BRANCH   6  10
ATOM     10  C   UNL     1      59.436  27.148  50.220  1.00  0.00     0.013 C 
ATOM     11  C   UNL     1      59.749  25.656  50.064  1.00  0.00     0.012 C 
ATOM     12  C   UNL     1      60.186  27.981  49.174  1.00  0.00     0.012 C 
ENDBRANCH   6  10
TORSDOF 2
ENDMDL
MODEL 9
REMARK VINA RESULT:    -4.128      3.430      5.324
REMARK INTER + INTRA:          -4.831
REMARK INTER:                  -4.619
REMARK INTRA:                  -0.212
REMARK UNBOUND:                -0.220
REMARK SMILES CC(C)c1ccc(C(=O)[O-])cc1
REMARK SMILES IDX 7 1 6 2 11 3 5 4 12 5 4 6 8 7 9 8 10 9 2 10 1 11 3 12
REMARK H PARENT
REMARK Flexibility Score: inf
ROOT
ATOM      1  C   UNL     1      63.084  34.838  60.376  1.00  0.00    -0.003 A 
ATOM      2  C   UNL     1      64.157  33.952  60.570  1.00  0.00     0.010 A 
ATOM      3  C   UNL     1      61.784  34.316  60.254  1.00  0.00     0.010 A 
ATOM      4  C   UNL     1      63.936  32.575  60.641  1.00  0.00     0.004 A 
ATOM      5  C   UNL     1      61.564  32.937  60.325  1.00  0.00     0.004 A 
ATOM      6  C   UNL     1      62.636  32.051  60.518  1.00  0.00    -0.045 A 
ENDROOT
BRANCH   1   7
ATOM      7  C   UNL     1      63.322  36.296  60.303  1.00  0.00     0.071 C 
ATOM      8  O   UNL     1      63.434  36.981  61.354  1.00  0.00    -0.545 OA
ATOM      9  O   UNL     1      63.428  36.932  59.071  1.00  0.00    -0.545 OA
ENDBRANCH   1   7
BRANCH   6  10
ATOM     10  C   UNL     1      62.381  30.557  60.593  1.00  0.00     0.013 C 
ATOM     11  C   UNL     1      63.629  29.808  61.076  1.00  0.00     0.012 C 
ATOM     12  C   UNL     1      61.172  30.246  61.483  1.00  0.00     0.012 C 
ENDBRANCH   6  10
TORSDOF 2
ENDMDL
