MODEL 1
REMARK VINA RESULT:    -3.809      0.000      0.000
REMARK INTER + INTRA:          -8.962
REMARK INTER:                  -6.926
REMARK INTRA:                  -2.035
REMARK UNBOUND:                -2.035
REMARK SMILES CCCCCCCCCCCCCC[C@H](C)C(=O)[O-]
REMARK SMILES IDX 9 1 10 2 11 3 12 4 13 5 14 6 15 7 16 8 17 9 18 10 19 11 8 12
REMARK SMILES IDX 7 13 6 14 5 15 4 16 3 17 2 18 1 19
REMARK H PARENT
REMARK Flexibility Score: inf
ROOT
ATOM      1  C   UNL     1      40.195  24.391 223.554  1.00  0.00     0.000 C 
ENDROOT
BRANCH   1   2
ATOM      2  C   UNL     1      40.205  24.093 222.047  1.00  0.00     0.000 C 
BRANCH   2   3
ATOM      3  C   UNL     1      40.389  22.593 221.786  1.00  0.00     0.000 C 
BRANCH   3   4
ATOM      4  C   UNL     1      41.719  22.091 222.365  1.00  0.00     0.000 C 
BRANCH   4   5
ATOM      5  C   UNL     1      41.535  20.933 223.360  1.00  0.00     0.001 C 
BRANCH   5   6
ATOM      6  C   UNL     1      40.161  20.235 223.248  1.00  0.00     0.009 C 
BRANCH   6   7
ATOM      7  C   UNL     1      39.479  20.003 224.618  1.00  0.00     0.032 C 
ATOM      8  C   UNL     1      38.879  21.299 225.183  1.00  0.00     0.014 C 
BRANCH   7   9
ATOM      9  C   UNL     1      40.465  19.432 225.599  1.00  0.00     0.044 C 
ATOM     10  O   UNL     1      40.848  18.235 225.499  1.00  0.00    -0.550 OA
ATOM     11  O   UNL     1      40.957  20.223 226.630  1.00  0.00    -0.550 OA
ENDBRANCH   7   9
ENDBRANCH   6   7
ENDBRANCH   5   6
ENDBRANCH   4   5
ENDBRANCH   3   4
ENDBRANCH   2   3
ENDBRANCH   1   2
BRANCH   1  12
ATOM     12  C   UNL     1      39.019  25.289 223.980  1.00  0.00     0.000 C 
BRANCH  12  13
ATOM     13  C   UNL     1      37.726  25.110 223.156  1.00  0.00    -0.000 C 
BRANCH  13  14
ATOM     14  C   UNL     1      36.835  23.928 223.586  1.00  0.00    -0.000 C 
BRANCH  14  15
ATOM     15  C   UNL     1      36.559  22.890 222.482  1.00  0.00    -0.000 C 
BRANCH  15  16
ATOM     16  C   UNL     1      36.670  23.460 221.051  1.00  0.00    -0.000 C 
BRANCH  16  17
ATOM     17  C   UNL     1      35.335  24.015 220.533  1.00  0.00    -0.000 C 
BRANCH  17  18
ATOM     18  C   UNL     1      35.347  24.135 219.004  1.00  0.00    -0.003 C 
ATOM     19  C   UNL     1      36.636  23.567 218.417  1.00  0.00     0.004 C 
ENDBRANCH  17  18
ENDBRANCH  16  17
ENDBRANCH  15  16
ENDBRANCH  14  15
ENDBRANCH  13  14
ENDBRANCH  12  13
ENDBRANCH   1  12
TORSDOF 14
ENDMDL
MODEL 2
REMARK VINA RESULT:    -3.790      3.081      5.954
REMARK INTER + INTRA:          -8.927
REMARK INTER:                  -6.402
REMARK INTRA:                  -2.525
REMARK UNBOUND:                -2.035
REMARK SMILES CCCCCCCCCCCCCC[C@H](C)C(=O)[O-]
REMARK SMILES IDX 9 1 10 2 11 3 12 4 13 5 14 6 15 7 16 8 17 9 18 10 19 11 8 12
REMARK SMILES IDX 7 13 6 14 5 15 4 16 3 17 2 18 1 19
REMARK H PARENT
REMARK Flexibility Score: inf
ROOT
ATOM      1  C   UNL     1      41.615  23.059 225.283  1.00  0.00     0.000 C 
ENDROOT
BRANCH   1   2
ATOM      2  C   UNL     1      41.630  23.736 223.905  1.00  0.00     0.000 C 
BRANCH   2   3
ATOM      3  C   UNL     1      40.211  24.119 223.467  1.00  0.00     0.000 C 
BRANCH   3   4
ATOM      4  C   UNL     1      40.074  24.072 221.938  1.00  0.00     0.000 C 
BRANCH   4   5
ATOM      5  C   UNL     1      38.900  23.194 221.473  1.00  0.00     0.001 C 
BRANCH   5   6
ATOM      6  C   UNL     1      37.812  22.994 222.553  1.00  0.00     0.009 C 
BRANCH   6   7
ATOM      7  C   UNL     1      36.455  23.639 222.180  1.00  0.00     0.032 C 
ATOM      8  C   UNL     1      36.320  23.847 220.665  1.00  0.00     0.014 C 
BRANCH   7   9
ATOM      9  C   UNL     1      36.292  24.954 222.890  1.00  0.00     0.044 C 
ATOM     10  O   UNL     1      35.354  25.125 223.715  1.00  0.00    -0.550 OA
ATOM     11  O   UNL     1      37.176  25.995 222.634  1.00  0.00    -0.550 OA
ENDBRANCH   7   9
ENDBRANCH   6   7
ENDBRANCH   5   6
ENDBRANCH   4   5
ENDBRANCH   3   4
ENDBRANCH   2   3
ENDBRANCH   1   2
BRANCH   1  12
ATOM     12  C   UNL     1      42.909  22.280 225.583  1.00  0.00     0.000 C 
BRANCH  12  13
ATOM     13  C   UNL     1      42.743  20.749 225.687  1.00  0.00    -0.000 C 
BRANCH  13  14
ATOM     14  C   UNL     1      41.286  20.250 225.713  1.00  0.00    -0.000 C 
BRANCH  14  15
ATOM     15  C   UNL     1      40.883  19.364 224.519  1.00  0.00    -0.000 C 
BRANCH  15  16
ATOM     16  C   UNL     1      40.366  20.161 223.301  1.00  0.00    -0.000 C 
BRANCH  16  17
ATOM     17  C   UNL     1      41.024  19.719 221.986  1.00  0.00    -0.000 C 
BRANCH  17  18
ATOM     18  C   UNL     1      41.920  20.828 221.421  1.00  0.00    -0.003 C 
ATOM     19  C   UNL     1      43.311  20.786 222.047  1.00  0.00     0.004 C 
ENDBRANCH  17  18
ENDBRANCH  16  17
ENDBRANCH  15  16
ENDBRANCH  14  15
ENDBRANCH  13  14
ENDBRANCH  12  13
ENDBRANCH   1  12
TORSDOF 14
ENDMDL
MODEL 3
REMARK VINA RESULT:    -3.733      1.684      2.955
REMARK INTER + INTRA:          -8.823
REMARK INTER:                  -6.338
REMARK INTRA:                  -2.486
REMARK UNBOUND:                -2.035
REMARK SMILES CCCCCCCCCCCCCC[C@H](C)C(=O)[O-]
REMARK SMILES IDX 9 1 10 2 11 3 12 4 13 5 14 6 15 7 16 8 17 9 18 10 19 11 8 12
REMARK SMILES IDX 7 13 6 14 5 15 4 16 3 17 2 18 1 19
REMARK H PARENT
REMARK Flexibility Score: inf
ROOT
ATOM      1  C   UNL     1      38.553  24.634 226.120  1.00  0.00     0.000 C 
ENDROOT
BRANCH   1   2
ATOM      2  C   UNL     1      38.408  23.122 225.891  1.00  0.00     0.000 C 
BRANCH   2   3
ATOM      3  C   UNL     1      39.570  22.583 225.048  1.00  0.00     0.000 C 
BRANCH   3   4
ATOM      4  C   UNL     1      39.054  21.723 223.885  1.00  0.00     0.000 C 
BRANCH   4   5
ATOM      5  C   UNL     1      39.512  22.244 222.511  1.00  0.00     0.001 C 
BRANCH   5   6
ATOM      6  C   UNL     1      40.977  22.738 222.496  1.00  0.00     0.009 C 
BRANCH   6   7
ATOM      7  C   UNL     1      41.990  21.634 222.108  1.00  0.00     0.032 C 
ATOM      8  C   UNL     1      41.346  20.553 221.226  1.00  0.00     0.014 C 
BRANCH   7   9
ATOM      9  C   UNL     1      42.568  21.001 223.344  1.00  0.00     0.044 C 
ATOM     10  O   UNL     1      42.197  19.853 223.709  1.00  0.00    -0.550 OA
ATOM     11  O   UNL     1      43.514  21.686 224.096  1.00  0.00    -0.550 OA
ENDBRANCH   7   9
ENDBRANCH   6   7
ENDBRANCH   5   6
ENDBRANCH   4   5
ENDBRANCH   3   4
ENDBRANCH   2   3
ENDBRANCH   1   2
BRANCH   1  12
ATOM     12  C   UNL     1      39.528  25.299 225.132  1.00  0.00     0.000 C 
BRANCH  12  13
ATOM     13  C   UNL     1      38.874  26.244 224.101  1.00  0.00    -0.000 C 
BRANCH  13  14
ATOM     14  C   UNL     1      38.276  25.548 222.864  1.00  0.00    -0.000 C 
BRANCH  14  15
ATOM     15  C   UNL     1      36.737  25.532 222.810  1.00  0.00    -0.000 C 
BRANCH  15  16
ATOM     16  C   UNL     1      36.116  24.171 223.197  1.00  0.00    -0.000 C 
BRANCH  16  17
ATOM     17  C   UNL     1      35.971  23.227 221.995  1.00  0.00    -0.000 C 
BRANCH  17  18
ATOM     18  C   UNL     1      35.590  24.004 220.729  1.00  0.00    -0.003 C 
ATOM     19  C   UNL     1      36.511  23.649 219.565  1.00  0.00     0.004 C 
ENDBRANCH  17  18
ENDBRANCH  16  17
ENDBRANCH  15  16
ENDBRANCH  14  15
ENDBRANCH  13  14
ENDBRANCH  12  13
ENDBRANCH   1  12
TORSDOF 14
ENDMDL
MODEL 4
REMARK VINA RESULT:    -3.718      3.774      6.461
REMARK INTER + INTRA:          -8.796
REMARK INTER:                  -6.422
REMARK INTRA:                  -2.374
REMARK UNBOUND:                -2.035
REMARK SMILES CCCCCCCCCCCCCC[C@H](C)C(=O)[O-]
REMARK SMILES IDX 9 1 10 2 11 3 12 4 13 5 14 6 15 7 16 8 17 9 18 10 19 11 8 12
REMARK SMILES IDX 7 13 6 14 5 15 4 16 3 17 2 18 1 19
REMARK H PARENT
REMARK Flexibility Score: inf
ROOT
ATOM      1  C   UNL     1      39.717  24.784 223.465  1.00  0.00     0.000 C 
ENDROOT
BRANCH   1   2
ATOM      2  C   UNL     1      40.284  24.047 222.242  1.00  0.00     0.000 C 
BRANCH   2   3
ATOM      3  C   UNL     1      39.360  22.899 221.818  1.00  0.00     0.000 C 
BRANCH   3   4
ATOM      4  C   UNL     1      38.280  22.640 222.877  1.00  0.00     0.000 C 
BRANCH   4   5
ATOM      5  C   UNL     1      36.854  22.817 222.328  1.00  0.00     0.001 C 
BRANCH   5   6
ATOM      6  C   UNL     1      36.810  23.151 220.819  1.00  0.00     0.009 C 
BRANCH   6   7
ATOM      7  C   UNL     1      35.682  24.142 220.445  1.00  0.00     0.032 C 
ATOM      8  C   UNL     1      34.429  23.932 221.308  1.00  0.00     0.014 C 
BRANCH   7   9
ATOM      9  C   UNL     1      35.327  24.000 218.991  1.00  0.00     0.044 C 
ATOM     10  O   UNL     1      36.184  23.601 218.157  1.00  0.00    -0.550 OA
ATOM     11  O   UNL     1      34.045  24.315 218.556  1.00  0.00    -0.550 OA
ENDBRANCH   7   9
ENDBRANCH   6   7
ENDBRANCH   5   6
ENDBRANCH   4   5
ENDBRANCH   3   4
ENDBRANCH   2   3
ENDBRANCH   1   2
BRANCH   1  12
ATOM     12  C   UNL     1      40.803  25.179 224.483  1.00  0.00     0.000 C 
BRANCH  12  13
ATOM     13  C   UNL     1      40.559  24.688 225.926  1.00  0.00    -0.000 C 
BRANCH  13  14
ATOM     14  C   UNL     1      39.350  23.749 226.101  1.00  0.00    -0.000 C 
BRANCH  14  15
ATOM     15  C   UNL     1      39.707  22.283 226.409  1.00  0.00    -0.000 C 
BRANCH  15  16
ATOM     16  C   UNL     1      41.071  21.842 225.835  1.00  0.00    -0.000 C 
BRANCH  16  17
ATOM     17  C   UNL     1      40.930  20.797 224.719  1.00  0.00    -0.000 C 
BRANCH  17  18
ATOM     18  C   UNL     1      42.007  20.993 223.644  1.00  0.00    -0.003 C 
ATOM     19  C   UNL     1      42.963  22.121 224.022  1.00  0.00     0.004 C 
ENDBRANCH  17  18
ENDBRANCH  16  17
ENDBRANCH  15  16
ENDBRANCH  14  15
ENDBRANCH  13  14
ENDBRANCH  12  13
ENDBRANCH   1  12
TORSDOF 14
ENDMDL
MODEL 5
REMARK VINA RESULT:    -3.683      3.610      6.446
REMARK INTER + INTRA:          -8.733
REMARK INTER:                  -6.898
REMARK INTRA:                  -1.835
REMARK UNBOUND:                -2.035
REMARK SMILES CCCCCCCCCCCCCC[C@H](C)C(=O)[O-]
REMARK SMILES IDX 9 1 10 2 11 3 12 4 13 5 14 6 15 7 16 8 17 9 18 10 19 11 8 12
REMARK SMILES IDX 7 13 6 14 5 15 4 16 3 17 2 18 1 19
REMARK H PARENT
REMARK Flexibility Score: inf
ROOT
ATOM      1  C   UNL     1      39.389  23.993 225.736  1.00  0.00     0.000 C 
ENDROOT
BRANCH   1   2
ATOM      2  C   UNL     1      37.910  23.583 225.788  1.00  0.00     0.000 C 
BRANCH   2   3
ATOM      3  C   UNL     1      37.244  23.758 224.418  1.00  0.00     0.000 C 
BRANCH   3   4
ATOM      4  C   UNL     1      37.353  22.475 223.583  1.00  0.00     0.000 C 
BRANCH   4   5
ATOM      5  C   UNL     1      36.435  22.488 222.349  1.00  0.00     0.001 C 
BRANCH   5   6
ATOM      6  C   UNL     1      36.935  23.415 221.218  1.00  0.00     0.009 C 
BRANCH   6   7
ATOM      7  C   UNL     1      35.820  24.310 220.623  1.00  0.00     0.032 C 
ATOM      8  C   UNL     1      34.463  24.051 221.295  1.00  0.00     0.014 C 
BRANCH   7   9
ATOM      9  C   UNL     1      35.705  24.081 219.142  1.00  0.00     0.044 C 
ATOM     10  O   UNL     1      34.582  24.136 218.571  1.00  0.00    -0.550 OA
ATOM     11  O   UNL     1      36.840  23.799 218.393  1.00  0.00    -0.550 OA
ENDBRANCH   7   9
ENDBRANCH   6   7
ENDBRANCH   5   6
ENDBRANCH   4   5
ENDBRANCH   3   4
ENDBRANCH   2   3
ENDBRANCH   1   2
BRANCH   1  12
ATOM     12  C   UNL     1      39.713  24.918 224.548  1.00  0.00     0.000 C 
BRANCH  12  13
ATOM     13  C   UNL     1      40.921  24.484 223.690  1.00  0.00    -0.000 C 
BRANCH  13  14
ATOM     14  C   UNL     1      40.570  23.972 222.280  1.00  0.00    -0.000 C 
BRANCH  14  15
ATOM     15  C   UNL     1      40.507  22.438 222.145  1.00  0.00    -0.000 C 
BRANCH  15  16
ATOM     16  C   UNL     1      40.974  21.684 223.409  1.00  0.00    -0.000 C 
BRANCH  16  17
ATOM     17  C   UNL     1      41.412  20.243 223.108  1.00  0.00    -0.000 C 
BRANCH  17  18
ATOM     18  C   UNL     1      42.307  20.192 221.864  1.00  0.00    -0.003 C 
ATOM     19  C   UNL     1      43.766  20.460 222.223  1.00  0.00     0.004 C 
ENDBRANCH  17  18
ENDBRANCH  16  17
ENDBRANCH  15  16
ENDBRANCH  14  15
ENDBRANCH  13  14
ENDBRANCH  12  13
ENDBRANCH   1  12
TORSDOF 14
ENDMDL
MODEL 6
REMARK VINA RESULT:    -3.653      1.860      2.520
REMARK INTER + INTRA:          -8.678
REMARK INTER:                  -7.099
REMARK INTRA:                  -1.579
REMARK UNBOUND:                -2.035
REMARK SMILES CCCCCCCCCCCCCC[C@H](C)C(=O)[O-]
REMARK SMILES IDX 9 1 10 2 11 3 12 4 13 5 14 6 15 7 16 8 17 9 18 10 19 11 8 12
REMARK SMILES IDX 7 13 6 14 5 15 4 16 3 17 2 18 1 19
REMARK H PARENT
REMARK Flexibility Score: inf
ROOT
ATOM      1  C   UNL     1      38.814  25.532 223.643  1.00  0.00     0.000 C 
ENDROOT
BRANCH   1   2
ATOM      2  C   UNL     1      40.074  25.386 224.508  1.00  0.00     0.000 C 
BRANCH   2   3
ATOM      3  C   UNL     1      40.959  24.242 223.997  1.00  0.00     0.000 C 
BRANCH   3   4
ATOM      4  C   UNL     1      41.502  23.401 225.161  1.00  0.00     0.000 C 
BRANCH   4   5
ATOM      5  C   UNL     1      41.442  21.890 224.881  1.00  0.00     0.001 C 
BRANCH   5   6
ATOM      6  C   UNL     1      40.016  21.374 224.576  1.00  0.00     0.009 C 
BRANCH   6   7
ATOM      7  C   UNL     1      39.976  20.327 223.437  1.00  0.00     0.032 C 
ATOM      8  C   UNL     1      40.298  18.915 223.949  1.00  0.00     0.014 C 
BRANCH   7   9
ATOM      9  C   UNL     1      40.942  20.704 222.349  1.00  0.00     0.044 C 
ATOM     10  O   UNL     1      41.980  20.018 222.147  1.00  0.00    -0.550 OA
ATOM     11  O   UNL     1      40.697  21.822 221.560  1.00  0.00    -0.550 OA
ENDBRANCH   7   9
ENDBRANCH   6   7
ENDBRANCH   5   6
ENDBRANCH   4   5
ENDBRANCH   3   4
ENDBRANCH   2   3
ENDBRANCH   1   2
BRANCH   1  12
ATOM     12  C   UNL     1      38.478  24.255 222.852  1.00  0.00     0.000 C 
BRANCH  12  13
ATOM     13  C   UNL     1      37.288  23.438 223.400  1.00  0.00    -0.000 C 
BRANCH  13  14
ATOM     14  C   UNL     1      36.370  22.821 222.329  1.00  0.00    -0.000 C 
BRANCH  14  15
ATOM     15  C   UNL     1      35.338  23.791 221.723  1.00  0.00    -0.000 C 
BRANCH  15  16
ATOM     16  C   UNL     1      35.845  24.530 220.465  1.00  0.00    -0.000 C 
BRANCH  16  17
ATOM     17  C   UNL     1      35.185  24.019 219.175  1.00  0.00    -0.000 C 
BRANCH  17  18
ATOM     18  C   UNL     1      36.241  23.689 218.113  1.00  0.00    -0.003 C 
ATOM     19  C   UNL     1      37.424  22.943 218.724  1.00  0.00     0.004 C 
ENDBRANCH  17  18
ENDBRANCH  16  17
ENDBRANCH  15  16
ENDBRANCH  14  15
ENDBRANCH  13  14
ENDBRANCH  12  13
ENDBRANCH   1  12
TORSDOF 14
ENDMDL
MODEL 7
REMARK VINA RESULT:    -3.620      3.036      6.080
REMARK INTER + INTRA:          -8.618
REMARK INTER:                  -6.445
REMARK INTRA:                  -2.173
REMARK UNBOUND:                -2.035
REMARK SMILES CCCCCCCCCCCCCC[C@H](C)C(=O)[O-]
REMARK SMILES IDX 9 1 10 2 11 3 12 4 13 5 14 6 15 7 16 8 17 9 18 10 19 11 8 12
REMARK SMILES IDX 7 13 6 14 5 15 4 16 3 17 2 18 1 19
REMARK H PARENT
REMARK Flexibility Score: inf
ROOT
ATOM      1  C   UNL     1      41.169  22.547 224.674  1.00  0.00     0.000 C 
ENDROOT
BRANCH   1   2
ATOM      2  C   UNL     1      40.474  23.716 225.388  1.00  0.00     0.000 C 
BRANCH   2   3
ATOM      3  C   UNL     1      40.467  24.971 224.507  1.00  0.00     0.000 C 
BRANCH   3   4
ATOM      4  C   UNL     1      39.203  25.808 224.749  1.00  0.00     0.000 C 
BRANCH   4   5
ATOM      5  C   UNL     1      38.347  25.973 223.482  1.00  0.00     0.001 C 
BRANCH   5   6
ATOM      6  C   UNL     1      38.376  24.739 222.552  1.00  0.00     0.009 C 
BRANCH   6   7
ATOM      7  C   UNL     1      37.206  23.757 222.804  1.00  0.00     0.032 C 
ATOM      8  C   UNL     1      37.709  22.354 223.176  1.00  0.00     0.014 C 
BRANCH   7   9
ATOM      9  C   UNL     1      36.327  23.674 221.587  1.00  0.00     0.044 C 
ATOM     10  O   UNL     1      36.807  23.336 220.471  1.00  0.00    -0.550 OA
ATOM     11  O   UNL     1      34.974  23.976 221.687  1.00  0.00    -0.550 OA
ENDBRANCH   7   9
ENDBRANCH   6   7
ENDBRANCH   5   6
ENDBRANCH   4   5
ENDBRANCH   3   4
ENDBRANCH   2   3
ENDBRANCH   1   2
BRANCH   1  12
ATOM     12  C   UNL     1      41.779  22.951 223.319  1.00  0.00     0.000 C 
BRANCH  12  13
ATOM     13  C   UNL     1      41.220  22.192 222.096  1.00  0.00    -0.000 C 
BRANCH  13  14
ATOM     14  C   UNL     1      42.110  21.048 221.574  1.00  0.00    -0.000 C 
BRANCH  14  15
ATOM     15  C   UNL     1      42.012  19.735 222.373  1.00  0.00    -0.000 C 
BRANCH  15  16
ATOM     16  C   UNL     1      40.578  19.394 222.834  1.00  0.00    -0.000 C 
BRANCH  16  17
ATOM     17  C   UNL     1      40.540  18.793 224.247  1.00  0.00    -0.000 C 
BRANCH  17  18
ATOM     18  C   UNL     1      39.118  18.355 224.619  1.00  0.00    -0.003 C 
ATOM     19  C   UNL     1      38.357  19.483 225.310  1.00  0.00     0.004 C 
ENDBRANCH  17  18
ENDBRANCH  16  17
ENDBRANCH  15  16
ENDBRANCH  14  15
ENDBRANCH  13  14
ENDBRANCH  12  13
ENDBRANCH   1  12
TORSDOF 14
ENDMDL
MODEL 8
REMARK VINA RESULT:    -3.583      1.530      2.122
REMARK INTER + INTRA:          -8.551
REMARK INTER:                  -6.653
REMARK INTRA:                  -1.898
REMARK UNBOUND:                -2.035
REMARK SMILES CCCCCCCCCCCCCC[C@H](C)C(=O)[O-]
REMARK SMILES IDX 9 1 10 2 11 3 12 4 13 5 14 6 15 7 16 8 17 9 18 10 19 11 8 12
REMARK SMILES IDX 7 13 6 14 5 15 4 16 3 17 2 18 1 19
REMARK H PARENT
REMARK Flexibility Score: inf
ROOT
ATOM      1  C   UNL     1      38.729  23.582 224.564  1.00  0.00     0.000 C 
ENDROOT
BRANCH   1   2
ATOM      2  C   UNL     1      39.257  24.784 223.766  1.00  0.00     0.000 C 
BRANCH   2   3
ATOM      3  C   UNL     1      39.722  24.353 222.370  1.00  0.00     0.000 C 
BRANCH   3   4
ATOM      4  C   UNL     1      39.625  22.830 222.202  1.00  0.00     0.000 C 
BRANCH   4   5
ATOM      5  C   UNL     1      40.992  22.171 221.946  1.00  0.00     0.001 C 
BRANCH   5   6
ATOM      6  C   UNL     1      41.680  21.659 223.232  1.00  0.00     0.009 C 
BRANCH   6   7
ATOM      7  C   UNL     1      41.158  20.278 223.697  1.00  0.00     0.032 C 
ATOM      8  C   UNL     1      40.557  20.341 225.109  1.00  0.00     0.014 C 
BRANCH   7   9
ATOM      9  C   UNL     1      42.267  19.264 223.662  1.00  0.00     0.044 C 
ATOM     10  O   UNL     1      42.283  18.304 224.479  1.00  0.00    -0.550 OA
ATOM     11  O   UNL     1      43.289  19.385 222.728  1.00  0.00    -0.550 OA
ENDBRANCH   7   9
ENDBRANCH   6   7
ENDBRANCH   5   6
ENDBRANCH   4   5
ENDBRANCH   3   4
ENDBRANCH   2   3
ENDBRANCH   1   2
BRANCH   1  12
ATOM     12  C   UNL     1      37.266  23.756 225.012  1.00  0.00     0.000 C 
BRANCH  12  13
ATOM     13  C   UNL     1      36.688  25.175 224.825  1.00  0.00    -0.000 C 
BRANCH  13  14
ATOM     14  C   UNL     1      35.412  25.252 223.965  1.00  0.00    -0.000 C 
BRANCH  14  15
ATOM     15  C   UNL     1      35.373  24.275 222.775  1.00  0.00    -0.000 C 
BRANCH  15  16
ATOM     16  C   UNL     1      36.192  24.750 221.554  1.00  0.00    -0.000 C 
BRANCH  16  17
ATOM     17  C   UNL     1      36.374  23.647 220.501  1.00  0.00    -0.000 C 
BRANCH  17  18
ATOM     18  C   UNL     1      35.598  23.977 219.221  1.00  0.00    -0.003 C 
ATOM     19  C   UNL     1      36.356  23.509 217.981  1.00  0.00     0.004 C 
ENDBRANCH  17  18
ENDBRANCH  16  17
ENDBRANCH  15  16
ENDBRANCH  14  15
ENDBRANCH  13  14
ENDBRANCH  12  13
ENDBRANCH   1  12
TORSDOF 14
ENDMDL
MODEL 9
REMARK VINA RESULT:    -3.569      3.450      5.644
REMARK INTER + INTRA:          -8.526
REMARK INTER:                  -5.889
REMARK INTRA:                  -2.636
REMARK UNBOUND:                -2.035
REMARK SMILES CCCCCCCCCCCCCC[C@H](C)C(=O)[O-]
REMARK SMILES IDX 9 1 10 2 11 3 12 4 13 5 14 6 15 7 16 8 17 9 18 10 19 11 8 12
REMARK SMILES IDX 7 13 6 14 5 15 4 16 3 17 2 18 1 19
REMARK H PARENT
REMARK Flexibility Score: inf
ROOT
ATOM      1  C   UNL     1      39.630  25.860 224.282  1.00  0.00     0.000 C 
ENDROOT
BRANCH   1   2
ATOM      2  C   UNL     1      40.674  24.751 224.482  1.00  0.00     0.000 C 
BRANCH   2   3
ATOM      3  C   UNL     1      40.800  23.884 223.224  1.00  0.00     0.000 C 
BRANCH   3   4
ATOM      4  C   UNL     1      39.828  24.352 222.131  1.00  0.00     0.000 C 
BRANCH   4   5
ATOM      5  C   UNL     1      38.999  23.200 221.539  1.00  0.00     0.001 C 
BRANCH   5   6
ATOM      6  C   UNL     1      37.562  23.120 222.104  1.00  0.00     0.009 C 
BRANCH   6   7
ATOM      7  C   UNL     1      36.712  24.375 221.792  1.00  0.00     0.032 C 
ATOM      8  C   UNL     1      36.031  24.931 223.052  1.00  0.00     0.014 C 
BRANCH   7   9
ATOM      9  C   UNL     1      35.673  24.054 220.754  1.00  0.00     0.044 C 
ATOM     10  O   UNL     1      34.465  23.903 221.082  1.00  0.00    -0.550 OA
ATOM     11  O   UNL     1      36.042  23.917 219.421  1.00  0.00    -0.550 OA
ENDBRANCH   7   9
ENDBRANCH   6   7
ENDBRANCH   5   6
ENDBRANCH   4   5
ENDBRANCH   3   4
ENDBRANCH   2   3
ENDBRANCH   1   2
BRANCH   1  12
ATOM     12  C   UNL     1      39.590  26.863 225.450  1.00  0.00     0.000 C 
BRANCH  12  13
ATOM     13  C   UNL     1      38.774  26.407 226.678  1.00  0.00    -0.000 C 
BRANCH  13  14
ATOM     14  C   UNL     1      37.595  25.465 226.366  1.00  0.00    -0.000 C 
BRANCH  14  15
ATOM     15  C   UNL     1      37.765  24.023 226.882  1.00  0.00    -0.000 C 
BRANCH  15  16
ATOM     16  C   UNL     1      37.657  22.951 225.775  1.00  0.00    -0.000 C 
BRANCH  16  17
ATOM     17  C   UNL     1      38.544  21.728 226.051  1.00  0.00    -0.000 C 
BRANCH  17  18
ATOM     18  C   UNL     1      38.912  21.012 224.746  1.00  0.00    -0.003 C 
ATOM     19  C   UNL     1      40.368  20.556 224.759  1.00  0.00     0.004 C 
ENDBRANCH  17  18
ENDBRANCH  16  17
ENDBRANCH  15  16
ENDBRANCH  14  15
ENDBRANCH  13  14
ENDBRANCH  12  13
ENDBRANCH   1  12
TORSDOF 14
ENDMDL
