MODEL 1
REMARK VINA RESULT:     1.304      0.000      0.000
REMARK INTER + INTRA:           2.060
REMARK INTER:                   2.828
REMARK INTRA:                  -0.768
REMARK UNBOUND:                -0.768
REMARK SMILES CCCCCCCCCCCCCCCCCCCCCC(=O)[O-]
REMARK SMILES IDX 12 1 11 2 10 3 9 4 8 5 7 6 6 7 5 8 4 9 3 10 2 11 1 12 13 13
REMARK SMILES IDX 14 14 15 15 16 16 17 17 18 18 19 19 20 20 21 21 22 22 23 23
REMARK SMILES IDX 24 24
REMARK H PARENT
REMARK Flexibility Score: inf
ROOT
ATOM      1  C   UNL     1      17.022  19.878  15.940  1.00  0.00     0.000 C 
ENDROOT
BRANCH   1   2
ATOM      2  C   UNL     1      16.233  20.290  17.201  1.00  0.00     0.000 C 
BRANCH   2   3
ATOM      3  C   UNL     1      15.156  21.346  16.890  1.00  0.00     0.000 C 
BRANCH   3   4
ATOM      4  C   UNL     1      13.847  20.724  16.381  1.00  0.00    -0.000 C 
BRANCH   4   5
ATOM      5  C   UNL     1      12.984  20.152  17.517  1.00  0.00    -0.000 C 
BRANCH   5   6
ATOM      6  C   UNL     1      11.531  20.655  17.467  1.00  0.00    -0.000 C 
BRANCH   6   7
ATOM      7  C   UNL     1      10.827  20.741  18.836  1.00  0.00    -0.000 C 
BRANCH   7   8
ATOM      8  C   UNL     1      11.525  21.642  19.875  1.00  0.00    -0.000 C 
BRANCH   8   9
ATOM      9  C   UNL     1      10.593  22.615  20.618  1.00  0.00    -0.000 C 
BRANCH   9  10
ATOM     10  C   UNL     1       9.875  21.956  21.809  1.00  0.00    -0.000 C 
BRANCH  10  11
ATOM     11  C   UNL     1      10.676  22.076  23.115  1.00  0.00    -0.003 C 
ATOM     12  C   UNL     1      11.619  20.894  23.339  1.00  0.00     0.004 C 
ENDBRANCH  10  11
ENDBRANCH   9  10
ENDBRANCH   8   9
ENDBRANCH   7   8
ENDBRANCH   6   7
ENDBRANCH   5   6
ENDBRANCH   4   5
ENDBRANCH   3   4
ENDBRANCH   2   3
ENDBRANCH   1   2
BRANCH   1  13
ATOM     13  C   UNL     1      18.548  19.897  16.134  1.00  0.00     0.000 C 
BRANCH  13  14
ATOM     14  C   UNL     1      19.318  19.946  14.805  1.00  0.00     0.000 C 
BRANCH  14  15
ATOM     15  C   UNL     1      20.841  19.876  15.003  1.00  0.00     0.000 C 
BRANCH  15  16
ATOM     16  C   UNL     1      21.622  20.276  13.739  1.00  0.00     0.000 C 
BRANCH  16  17
ATOM     17  C   UNL     1      22.997  20.888  14.060  1.00  0.00     0.000 C 
BRANCH  17  18
ATOM     18  C   UNL     1      24.016  19.911  14.676  1.00  0.00     0.000 C 
BRANCH  18  19
ATOM     19  C   UNL     1      24.449  20.315  16.096  1.00  0.00     0.000 C 
BRANCH  19  20
ATOM     20  C   UNL     1      25.923  19.984  16.377  1.00  0.00     0.006 C 
BRANCH  20  21
ATOM     21  C   UNL     1      26.838  20.306  15.188  1.00  0.00     0.053 C 
BRANCH  21  22
ATOM     22  C   UNL     1      28.256  20.446  15.645  1.00  0.00     0.041 C 
ATOM     23  O   UNL     1      29.203  20.219  14.847  1.00  0.00    -0.550 OA
ATOM     24  O   UNL     1      28.531  20.876  16.937  1.00  0.00    -0.550 OA
ENDBRANCH  21  22
ENDBRANCH  20  21
ENDBRANCH  19  20
ENDBRANCH  18  19
ENDBRANCH  17  18
ENDBRANCH  16  17
ENDBRANCH  15  16
ENDBRANCH  14  15
ENDBRANCH  13  14
ENDBRANCH   1  13
TORSDOF 20
ENDMDL
MODEL 2
REMARK VINA RESULT:     1.646      2.002      3.838
REMARK INTER + INTRA:           2.803
REMARK INTER:                   3.568
REMARK INTRA:                  -0.764
REMARK UNBOUND:                -0.768
REMARK SMILES CCCCCCCCCCCCCCCCCCCCCC(=O)[O-]
REMARK SMILES IDX 12 1 11 2 10 3 9 4 8 5 7 6 6 7 5 8 4 9 3 10 2 11 1 12 13 13
REMARK SMILES IDX 14 14 15 15 16 16 17 17 18 18 19 19 20 20 21 21 22 22 23 23
REMARK SMILES IDX 24 24
REMARK H PARENT
REMARK Flexibility Score: inf
ROOT
ATOM      1  C   UNL     1      20.489  20.785  15.213  1.00  0.00     0.000 C 
ENDROOT
BRANCH   1   2
ATOM      2  C   UNL     1      19.246  19.875  15.114  1.00  0.00     0.000 C 
BRANCH   2   3
ATOM      3  C   UNL     1      18.404  19.905  16.402  1.00  0.00     0.000 C 
BRANCH   3   4
ATOM      4  C   UNL     1      16.965  20.385  16.156  1.00  0.00    -0.000 C 
BRANCH   4   5
ATOM      5  C   UNL     1      15.982  19.875  17.223  1.00  0.00    -0.000 C 
BRANCH   5   6
ATOM      6  C   UNL     1      14.708  20.734  17.313  1.00  0.00    -0.000 C 
BRANCH   6   7
ATOM      7  C   UNL     1      13.426  20.046  16.805  1.00  0.00    -0.000 C 
BRANCH   7   8
ATOM      8  C   UNL     1      12.133  20.873  16.961  1.00  0.00    -0.000 C 
BRANCH   8   9
ATOM      9  C   UNL     1      11.852  21.368  18.391  1.00  0.00    -0.000 C 
BRANCH   9  10
ATOM     10  C   UNL     1      11.824  20.225  19.420  1.00  0.00    -0.000 C 
BRANCH  10  11
ATOM     11  C   UNL     1      11.706  20.738  20.864  1.00  0.00    -0.003 C 
ATOM     12  C   UNL     1      10.666  21.849  21.010  1.00  0.00     0.004 C 
ENDBRANCH  10  11
ENDBRANCH   9  10
ENDBRANCH   8   9
ENDBRANCH   7   8
ENDBRANCH   6   7
ENDBRANCH   5   6
ENDBRANCH   4   5
ENDBRANCH   3   4
ENDBRANCH   2   3
ENDBRANCH   1   2
BRANCH   1  13
ATOM     13  C   UNL     1      21.785  20.024  15.544  1.00  0.00     0.000 C 
BRANCH  13  14
ATOM     14  C   UNL     1      23.012  20.945  15.630  1.00  0.00     0.000 C 
BRANCH  14  15
ATOM     15  C   UNL     1      24.153  20.331  16.457  1.00  0.00     0.000 C 
BRANCH  15  16
ATOM     16  C   UNL     1      25.502  20.358  15.718  1.00  0.00     0.000 C 
BRANCH  16  17
ATOM     17  C   UNL     1      26.706  20.308  16.677  1.00  0.00     0.000 C 
BRANCH  17  18
ATOM     18  C   UNL     1      28.049  20.739  16.057  1.00  0.00     0.000 C 
BRANCH  18  19
ATOM     19  C   UNL     1      27.887  21.808  14.963  1.00  0.00     0.000 C 
BRANCH  19  20
ATOM     20  C   UNL     1      28.792  21.547  13.748  1.00  0.00     0.006 C 
BRANCH  20  21
ATOM     21  C   UNL     1      28.000  21.395  12.443  1.00  0.00     0.053 C 
BRANCH  21  22
ATOM     22  C   UNL     1      28.853  21.764  11.270  1.00  0.00     0.041 C 
ATOM     23  O   UNL     1      29.708  22.682  11.374  1.00  0.00    -0.550 OA
ATOM     24  O   UNL     1      28.738  21.060  10.078  1.00  0.00    -0.550 OA
ENDBRANCH  21  22
ENDBRANCH  20  21
ENDBRANCH  19  20
ENDBRANCH  18  19
ENDBRANCH  17  18
ENDBRANCH  16  17
ENDBRANCH  15  16
ENDBRANCH  14  15
ENDBRANCH  13  14
ENDBRANCH   1  13
TORSDOF 20
ENDMDL
MODEL 3
REMARK VINA RESULT:     1.683      5.642     14.143
REMARK INTER + INTRA:           2.883
REMARK INTER:                   3.608
REMARK INTRA:                  -0.725
REMARK UNBOUND:                -0.768
REMARK SMILES CCCCCCCCCCCCCCCCCCCCCC(=O)[O-]
REMARK SMILES IDX 12 1 11 2 10 3 9 4 8 5 7 6 6 7 5 8 4 9 3 10 2 11 1 12 13 13
REMARK SMILES IDX 14 14 15 15 16 16 17 17 18 18 19 19 20 20 21 21 22 22 23 23
REMARK SMILES IDX 24 24
REMARK H PARENT
REMARK Flexibility Score: inf
ROOT
ATOM      1  C   UNL     1      20.848  20.044  15.697  1.00  0.00     0.000 C 
ENDROOT
BRANCH   1   2
ATOM      2  C   UNL     1      21.728  19.928  14.435  1.00  0.00     0.000 C 
BRANCH   2   3
ATOM      3  C   UNL     1      22.893  20.935  14.447  1.00  0.00     0.000 C 
BRANCH   3   4
ATOM      4  C   UNL     1      24.245  20.271  14.743  1.00  0.00    -0.000 C 
BRANCH   4   5
ATOM      5  C   UNL     1      24.565  20.229  16.247  1.00  0.00    -0.000 C 
BRANCH   5   6
ATOM      6  C   UNL     1      26.050  20.506  16.544  1.00  0.00    -0.000 C 
BRANCH   6   7
ATOM      7  C   UNL     1      27.023  20.094  15.422  1.00  0.00    -0.000 C 
BRANCH   7   8
ATOM      8  C   UNL     1      28.486  20.537  15.629  1.00  0.00    -0.000 C 
BRANCH   8   9
ATOM      9  C   UNL     1      29.249  20.871  14.335  1.00  0.00    -0.000 C 
BRANCH   9  10
ATOM     10  C   UNL     1      29.159  22.361  13.961  1.00  0.00    -0.000 C 
BRANCH  10  11
ATOM     11  C   UNL     1      28.668  22.575  12.520  1.00  0.00    -0.003 C 
ATOM     12  C   UNL     1      29.471  23.642  11.776  1.00  0.00     0.004 C 
ENDBRANCH  10  11
ENDBRANCH   9  10
ENDBRANCH   8   9
ENDBRANCH   7   8
ENDBRANCH   6   7
ENDBRANCH   5   6
ENDBRANCH   4   5
ENDBRANCH   3   4
ENDBRANCH   2   3
ENDBRANCH   1   2
BRANCH   1  13
ATOM     13  C   UNL     1      19.515  20.774  15.454  1.00  0.00     0.000 C 
BRANCH  13  14
ATOM     14  C   UNL     1      18.291  19.879  15.706  1.00  0.00     0.000 C 
BRANCH  14  15
ATOM     15  C   UNL     1      17.328  20.477  16.745  1.00  0.00     0.000 C 
BRANCH  15  16
ATOM     16  C   UNL     1      15.936  20.772  16.161  1.00  0.00     0.000 C 
BRANCH  16  17
ATOM     17  C   UNL     1      14.814  20.645  17.207  1.00  0.00     0.000 C 
BRANCH  17  18
ATOM     18  C   UNL     1      13.386  20.801  16.652  1.00  0.00     0.000 C 
BRANCH  18  19
ATOM     19  C   UNL     1      12.371  19.875  17.344  1.00  0.00     0.000 C 
BRANCH  19  20
ATOM     20  C   UNL     1      11.871  20.448  18.680  1.00  0.00     0.006 C 
BRANCH  20  21
ATOM     21  C   UNL     1      10.880  21.604  18.494  1.00  0.00     0.053 C 
BRANCH  21  22
ATOM     22  C   UNL     1      10.688  22.338  19.784  1.00  0.00     0.041 C 
ATOM     23  O   UNL     1      10.574  23.592  19.786  1.00  0.00    -0.550 OA
ATOM     24  O   UNL     1      10.584  21.634  20.977  1.00  0.00    -0.550 OA
ENDBRANCH  21  22
ENDBRANCH  20  21
ENDBRANCH  19  20
ENDBRANCH  18  19
ENDBRANCH  17  18
ENDBRANCH  16  17
ENDBRANCH  15  16
ENDBRANCH  14  15
ENDBRANCH  13  14
ENDBRANCH   1  13
TORSDOF 20
ENDMDL
MODEL 4
REMARK VINA RESULT:     1.729      5.638     14.270
REMARK INTER + INTRA:           2.983
REMARK INTER:                   3.876
REMARK INTRA:                  -0.893
REMARK UNBOUND:                -0.768
REMARK SMILES CCCCCCCCCCCCCCCCCCCCCC(=O)[O-]
REMARK SMILES IDX 12 1 11 2 10 3 9 4 8 5 7 6 6 7 5 8 4 9 3 10 2 11 1 12 13 13
REMARK SMILES IDX 14 14 15 15 16 16 17 17 18 18 19 19 20 20 21 21 22 22 23 23
REMARK SMILES IDX 24 24
REMARK H PARENT
REMARK Flexibility Score: inf
ROOT
ATOM      1  C   UNL     1      21.225  19.973  15.832  1.00  0.00     0.000 C 
ENDROOT
BRANCH   1   2
ATOM      2  C   UNL     1      22.366  20.220  14.822  1.00  0.00     0.000 C 
BRANCH   2   3
ATOM      3  C   UNL     1      23.578  20.910  15.475  1.00  0.00     0.000 C 
BRANCH   3   4
ATOM      4  C   UNL     1      24.427  19.942  16.313  1.00  0.00    -0.000 C 
BRANCH   4   5
ATOM      5  C   UNL     1      25.888  19.875  15.838  1.00  0.00    -0.000 C 
BRANCH   5   6
ATOM      6  C   UNL     1      26.046  20.259  14.356  1.00  0.00    -0.000 C 
BRANCH   6   7
ATOM      7  C   UNL     1      27.504  20.405  13.877  1.00  0.00    -0.000 C 
BRANCH   7   8
ATOM      8  C   UNL     1      28.238  21.663  14.384  1.00  0.00    -0.000 C 
BRANCH   8   9
ATOM      9  C   UNL     1      29.272  22.247  13.406  1.00  0.00    -0.000 C 
BRANCH   9  10
ATOM     10  C   UNL     1      28.692  22.483  12.000  1.00  0.00    -0.000 C 
BRANCH  10  11
ATOM     11  C   UNL     1      29.400  21.644  10.925  1.00  0.00    -0.003 C 
ATOM     12  C   UNL     1      28.563  20.451  10.463  1.00  0.00     0.004 C 
ENDBRANCH  10  11
ENDBRANCH   9  10
ENDBRANCH   8   9
ENDBRANCH   7   8
ENDBRANCH   6   7
ENDBRANCH   5   6
ENDBRANCH   4   5
ENDBRANCH   3   4
ENDBRANCH   2   3
ENDBRANCH   1   2
BRANCH   1  13
ATOM     13  C   UNL     1      19.823  20.238  15.256  1.00  0.00     0.000 C 
BRANCH  13  14
ATOM     14  C   UNL     1      18.697  19.887  16.242  1.00  0.00     0.000 C 
BRANCH  14  15
ATOM     15  C   UNL     1      17.402  20.663  15.956  1.00  0.00     0.000 C 
BRANCH  15  16
ATOM     16  C   UNL     1      16.151  19.945  16.491  1.00  0.00     0.000 C 
BRANCH  16  17
ATOM     17  C   UNL     1      15.042  20.922  16.920  1.00  0.00     0.000 C 
BRANCH  17  18
ATOM     18  C   UNL     1      13.613  20.493  16.539  1.00  0.00     0.000 C 
BRANCH  18  19
ATOM     19  C   UNL     1      12.835  19.887  17.720  1.00  0.00     0.000 C 
BRANCH  19  20
ATOM     20  C   UNL     1      11.988  20.932  18.463  1.00  0.00     0.006 C 
BRANCH  20  21
ATOM     21  C   UNL     1      12.446  21.142  19.912  1.00  0.00     0.053 C 
BRANCH  21  22
ATOM     22  C   UNL     1      11.290  20.990  20.850  1.00  0.00     0.041 C 
ATOM     23  O   UNL     1      10.209  20.486  20.446  1.00  0.00    -0.550 OA
ATOM     24  O   UNL     1      11.424  21.358  22.183  1.00  0.00    -0.550 OA
ENDBRANCH  21  22
ENDBRANCH  20  21
ENDBRANCH  19  20
ENDBRANCH  18  19
ENDBRANCH  17  18
ENDBRANCH  16  17
ENDBRANCH  15  16
ENDBRANCH  14  15
ENDBRANCH  13  14
ENDBRANCH   1  13
TORSDOF 20
ENDMDL
MODEL 5
REMARK VINA RESULT:     1.748      1.609      2.183
REMARK INTER + INTRA:           3.024
REMARK INTER:                   3.871
REMARK INTRA:                  -0.847
REMARK UNBOUND:                -0.768
REMARK SMILES CCCCCCCCCCCCCCCCCCCCCC(=O)[O-]
REMARK SMILES IDX 12 1 11 2 10 3 9 4 8 5 7 6 6 7 5 8 4 9 3 10 2 11 1 12 13 13
REMARK SMILES IDX 14 14 15 15 16 16 17 17 18 18 19 19 20 20 21 21 22 22 23 23
REMARK SMILES IDX 24 24
REMARK H PARENT
REMARK Flexibility Score: inf
ROOT
ATOM      1  C   UNL     1      17.959  20.502  16.007  1.00  0.00     0.000 C 
ENDROOT
BRANCH   1   2
ATOM      2  C   UNL     1      16.879  19.911  16.940  1.00  0.00     0.000 C 
BRANCH   2   3
ATOM      3  C   UNL     1      15.816  20.955  17.328  1.00  0.00     0.000 C 
BRANCH   3   4
ATOM      4  C   UNL     1      15.106  21.557  16.105  1.00  0.00    -0.000 C 
BRANCH   4   5
ATOM      5  C   UNL     1      13.636  21.118  16.002  1.00  0.00    -0.000 C 
BRANCH   5   6
ATOM      6  C   UNL     1      13.030  20.751  17.368  1.00  0.00    -0.000 C 
BRANCH   6   7
ATOM      7  C   UNL     1      11.546  21.130  17.541  1.00  0.00    -0.000 C 
BRANCH   7   8
ATOM      8  C   UNL     1      10.861  20.541  18.791  1.00  0.00    -0.000 C 
BRANCH   8   9
ATOM      9  C   UNL     1      11.155  21.290  20.103  1.00  0.00    -0.000 C 
BRANCH   9  10
ATOM     10  C   UNL     1      12.028  20.471  21.071  1.00  0.00    -0.000 C 
BRANCH  10  11
ATOM     11  C   UNL     1      11.648  20.701  22.542  1.00  0.00    -0.003 C 
ATOM     12  C   UNL     1      11.219  22.142  22.821  1.00  0.00     0.004 C 
ENDBRANCH  10  11
ENDBRANCH   9  10
ENDBRANCH   8   9
ENDBRANCH   7   8
ENDBRANCH   6   7
ENDBRANCH   5   6
ENDBRANCH   4   5
ENDBRANCH   3   4
ENDBRANCH   2   3
ENDBRANCH   1   2
BRANCH   1  13
ATOM     13  C   UNL     1      19.358  19.901  16.226  1.00  0.00     0.000 C 
BRANCH  13  14
ATOM     14  C   UNL     1      20.247  19.989  14.975  1.00  0.00     0.000 C 
BRANCH  14  15
ATOM     15  C   UNL     1      21.547  20.768  15.231  1.00  0.00     0.000 C 
BRANCH  15  16
ATOM     16  C   UNL     1      22.798  19.875  15.149  1.00  0.00     0.000 C 
BRANCH  16  17
ATOM     17  C   UNL     1      24.001  20.594  14.512  1.00  0.00     0.000 C 
BRANCH  17  18
ATOM     18  C   UNL     1      25.316  20.489  15.305  1.00  0.00     0.000 C 
BRANCH  18  19
ATOM     19  C   UNL     1      26.527  20.162  14.415  1.00  0.00     0.000 C 
BRANCH  19  20
ATOM     20  C   UNL     1      26.146  20.029  12.931  1.00  0.00     0.006 C 
BRANCH  20  21
ATOM     21  C   UNL     1      27.365  20.080  12.001  1.00  0.00     0.053 C 
BRANCH  21  22
ATOM     22  C   UNL     1      28.222  21.263  12.329  1.00  0.00     0.041 C 
ATOM     23  O   UNL     1      29.383  21.094  12.786  1.00  0.00    -0.550 OA
ATOM     24  O   UNL     1      27.757  22.548  12.083  1.00  0.00    -0.550 OA
ENDBRANCH  21  22
ENDBRANCH  20  21
ENDBRANCH  19  20
ENDBRANCH  18  19
ENDBRANCH  17  18
ENDBRANCH  16  17
ENDBRANCH  15  16
ENDBRANCH  14  15
ENDBRANCH  13  14
ENDBRANCH   1  13
TORSDOF 20
ENDMDL
MODEL 6
REMARK VINA RESULT:     1.889      2.211      3.243
REMARK INTER + INTRA:           3.329
REMARK INTER:                   4.405
REMARK INTRA:                  -1.076
REMARK UNBOUND:                -0.768
REMARK SMILES CCCCCCCCCCCCCCCCCCCCCC(=O)[O-]
REMARK SMILES IDX 12 1 11 2 10 3 9 4 8 5 7 6 6 7 5 8 4 9 3 10 2 11 1 12 13 13
REMARK SMILES IDX 14 14 15 15 16 16 17 17 18 18 19 19 20 20 21 21 22 22 23 23
REMARK SMILES IDX 24 24
REMARK H PARENT
REMARK Flexibility Score: inf
ROOT
ATOM      1  C   UNL     1      18.266  20.422  15.982  1.00  0.00     0.000 C 
ENDROOT
BRANCH   1   2
ATOM      2  C   UNL     1      17.298  19.941  17.084  1.00  0.00     0.000 C 
BRANCH   2   3
ATOM      3  C   UNL     1      16.050  20.837  17.188  1.00  0.00     0.000 C 
BRANCH   3   4
ATOM      4  C   UNL     1      15.220  20.847  15.895  1.00  0.00    -0.000 C 
BRANCH   4   5
ATOM      5  C   UNL     1      13.790  20.323  16.108  1.00  0.00    -0.000 C 
BRANCH   5   6
ATOM      6  C   UNL     1      13.504  19.965  17.577  1.00  0.00    -0.000 C 
BRANCH   6   7
ATOM      7  C   UNL     1      12.493  20.891  18.284  1.00  0.00    -0.000 C 
BRANCH   7   8
ATOM      8  C   UNL     1      11.018  20.456  18.171  1.00  0.00    -0.000 C 
BRANCH   8   9
ATOM      9  C   UNL     1       9.993  21.579  18.409  1.00  0.00    -0.000 C 
BRANCH   9  10
ATOM     10  C   UNL     1       9.994  22.631  17.285  1.00  0.00    -0.000 C 
BRANCH  10  11
ATOM     11  C   UNL     1      10.108  21.997  15.890  1.00  0.00    -0.003 C 
ATOM     12  C   UNL     1      11.021  22.791  14.955  1.00  0.00     0.004 C 
ENDBRANCH  10  11
ENDBRANCH   9  10
ENDBRANCH   8   9
ENDBRANCH   7   8
ENDBRANCH   6   7
ENDBRANCH   5   6
ENDBRANCH   4   5
ENDBRANCH   3   4
ENDBRANCH   2   3
ENDBRANCH   1   2
BRANCH   1  13
ATOM     13  C   UNL     1      19.697  19.880  16.140  1.00  0.00     0.000 C 
BRANCH  13  14
ATOM     14  C   UNL     1      20.666  20.434  15.083  1.00  0.00     0.000 C 
BRANCH  14  15
ATOM     15  C   UNL     1      21.830  21.222  15.706  1.00  0.00     0.000 C 
BRANCH  15  16
ATOM     16  C   UNL     1      23.069  20.345  15.959  1.00  0.00     0.000 C 
BRANCH  16  17
ATOM     17  C   UNL     1      24.386  21.136  15.863  1.00  0.00     0.000 C 
BRANCH  17  18
ATOM     18  C   UNL     1      25.662  20.305  16.093  1.00  0.00     0.000 C 
BRANCH  18  19
ATOM     19  C   UNL     1      26.347  19.886  14.781  1.00  0.00     0.000 C 
BRANCH  19  20
ATOM     20  C   UNL     1      27.879  19.994  14.858  1.00  0.00     0.006 C 
BRANCH  20  21
ATOM     21  C   UNL     1      28.380  21.432  14.677  1.00  0.00     0.053 C 
BRANCH  21  22
ATOM     22  C   UNL     1      28.753  21.678  13.248  1.00  0.00     0.041 C 
ATOM     23  O   UNL     1      29.910  22.079  12.957  1.00  0.00    -0.550 OA
ATOM     24  O   UNL     1      27.838  21.414  12.236  1.00  0.00    -0.550 OA
ENDBRANCH  21  22
ENDBRANCH  20  21
ENDBRANCH  19  20
ENDBRANCH  18  19
ENDBRANCH  17  18
ENDBRANCH  16  17
ENDBRANCH  15  16
ENDBRANCH  14  15
ENDBRANCH  13  14
ENDBRANCH   1  13
TORSDOF 20
ENDMDL
MODEL 7
REMARK VINA RESULT:     1.911      5.280     13.533
REMARK INTER + INTRA:           3.378
REMARK INTER:                   4.378
REMARK INTRA:                  -1.000
REMARK UNBOUND:                -0.768
REMARK SMILES CCCCCCCCCCCCCCCCCCCCCC(=O)[O-]
REMARK SMILES IDX 12 1 11 2 10 3 9 4 8 5 7 6 6 7 5 8 4 9 3 10 2 11 1 12 13 13
REMARK SMILES IDX 14 14 15 15 16 16 17 17 18 18 19 19 20 20 21 21 22 22 23 23
REMARK SMILES IDX 24 24
REMARK H PARENT
REMARK Flexibility Score: inf
ROOT
ATOM      1  C   UNL     1      20.131  19.877  15.372  1.00  0.00     0.000 C 
ENDROOT
BRANCH   1   2
ATOM      2  C   UNL     1      20.867  19.908  14.016  1.00  0.00     0.000 C 
BRANCH   2   3
ATOM      3  C   UNL     1      22.262  20.551  14.130  1.00  0.00     0.000 C 
BRANCH   3   4
ATOM      4  C   UNL     1      23.043  20.053  15.356  1.00  0.00    -0.000 C 
BRANCH   4   5
ATOM      5  C   UNL     1      23.307  21.169  16.380  1.00  0.00    -0.000 C 
BRANCH   5   6
ATOM      6  C   UNL     1      24.803  21.331  16.706  1.00  0.00    -0.000 C 
BRANCH   6   7
ATOM      7  C   UNL     1      25.739  20.364  15.955  1.00  0.00    -0.000 C 
BRANCH   7   8
ATOM      8  C   UNL     1      27.210  20.387  16.415  1.00  0.00    -0.000 C 
BRANCH   8   9
ATOM      9  C   UNL     1      28.244  20.284  15.279  1.00  0.00    -0.000 C 
BRANCH   9  10
ATOM     10  C   UNL     1      28.430  21.612  14.523  1.00  0.00    -0.000 C 
BRANCH  10  11
ATOM     11  C   UNL     1      28.433  21.422  12.999  1.00  0.00    -0.003 C 
ATOM     12  C   UNL     1      29.267  20.221  12.556  1.00  0.00     0.004 C 
ENDBRANCH  10  11
ENDBRANCH   9  10
ENDBRANCH   8   9
ENDBRANCH   7   8
ENDBRANCH   6   7
ENDBRANCH   5   6
ENDBRANCH   4   5
ENDBRANCH   3   4
ENDBRANCH   2   3
ENDBRANCH   1   2
BRANCH   1  13
ATOM     13  C   UNL     1      18.720  20.487  15.321  1.00  0.00     0.000 C 
BRANCH  13  14
ATOM     14  C   UNL     1      17.767  19.875  16.361  1.00  0.00     0.000 C 
BRANCH  14  15
ATOM     15  C   UNL     1      16.808  20.914  16.965  1.00  0.00     0.000 C 
BRANCH  15  16
ATOM     16  C   UNL     1      15.502  21.051  16.163  1.00  0.00     0.000 C 
BRANCH  16  17
ATOM     17  C   UNL     1      14.415  20.065  16.626  1.00  0.00     0.000 C 
BRANCH  17  18
ATOM     18  C   UNL     1      13.923  20.271  18.071  1.00  0.00     0.000 C 
BRANCH  18  19
ATOM     19  C   UNL     1      12.396  20.142  18.207  1.00  0.00     0.000 C 
BRANCH  19  20
ATOM     20  C   UNL     1      11.676  21.490  18.037  1.00  0.00     0.006 C 
BRANCH  20  21
ATOM     21  C   UNL     1      10.526  21.422  17.024  1.00  0.00     0.053 C 
BRANCH  21  22
ATOM     22  C   UNL     1      10.901  22.135  15.762  1.00  0.00     0.041 C 
ATOM     23  O   UNL     1      10.143  23.020  15.287  1.00  0.00    -0.550 OA
ATOM     24  O   UNL     1      12.111  21.856  15.140  1.00  0.00    -0.550 OA
ENDBRANCH  21  22
ENDBRANCH  20  21
ENDBRANCH  19  20
ENDBRANCH  18  19
ENDBRANCH  17  18
ENDBRANCH  16  17
ENDBRANCH  15  16
ENDBRANCH  14  15
ENDBRANCH  13  14
ENDBRANCH   1  13
TORSDOF 20
ENDMDL
