MODEL 1
REMARK VINA RESULT:    -2.518      0.000      0.000
REMARK INTER + INTRA:          -2.723
REMARK INTER:                  -2.665
REMARK INTRA:                  -0.058
REMARK UNBOUND:                -0.058
REMARK SMILES CC1=C[C@H]2C(=C(C)CC[C@H]2C(C)C)CC1
REMARK SMILES IDX 1 1 2 2 3 3 4 4 10 5 9 6 8 7 6 8 5 9 14 10 15 11 7 12 11 13
REMARK SMILES IDX 12 14 13 15
REMARK H PARENT
REMARK Flexibility Score: inf
ROOT
ATOM      1  C   UNL     1     165.491 176.121 139.265  1.00  0.00     0.039 C 
ATOM      2  C   UNL     1     166.725 175.353 138.875  1.00  0.00    -0.076 C 
ATOM      3  C   UNL     1     166.644 174.073 138.477  1.00  0.00    -0.020 C 
ATOM      4  C   UNL     1     167.879 173.288 138.088  1.00  0.00     0.041 C 
ATOM      5  C   UNL     1     167.707 171.749 138.239  1.00  0.00     0.003 C 
ATOM      6  C   UNL     1     168.940 171.139 137.535  1.00  0.00     0.009 C 
ATOM      7  C   UNL     1     170.252 171.553 138.225  1.00  0.00     0.031 C 
ATOM      8  C   UNL     1     170.264 172.971 138.788  1.00  0.00    -0.073 C 
ATOM      9  C   UNL     1     169.152 173.767 138.781  1.00  0.00    -0.064 C 
ATOM     10  C   UNL     1     169.160 175.145 139.431  1.00  0.00     0.036 C 
ATOM     11  C   UNL     1     168.060 176.050 138.869  1.00  0.00     0.035 C 
ATOM     12  C   UNL     1     171.544 173.419 139.452  1.00  0.00     0.039 C 
ENDROOT
BRANCH   5  13
ATOM     13  C   UNL     1     167.550 171.225 139.721  1.00  0.00    -0.013 C 
ATOM     14  C   UNL     1     167.741 169.696 139.805  1.00  0.00     0.007 C 
ATOM     15  C   UNL     1     166.189 171.576 140.347  1.00  0.00     0.007 C 
ENDBRANCH   5  13
TORSDOF 1
ENDMDL
MODEL 2
REMARK VINA RESULT:    -2.505     11.880     15.779
REMARK INTER + INTRA:          -2.709
REMARK INTER:                  -2.653
REMARK INTRA:                  -0.057
REMARK UNBOUND:                -0.058
REMARK SMILES CC1=C[C@H]2C(=C(C)CC[C@H]2C(C)C)CC1
REMARK SMILES IDX 1 1 2 2 3 3 4 4 10 5 9 6 8 7 6 8 5 9 14 10 15 11 7 12 11 13
REMARK SMILES IDX 12 14 13 15
REMARK H PARENT
REMARK Flexibility Score: inf
ROOT
ATOM      1  C   UNL     1     166.462 155.875 139.251  1.00  0.00     0.039 C 
ATOM      2  C   UNL     1     165.225 156.634 138.852  1.00  0.00    -0.076 C 
ATOM      3  C   UNL     1     165.305 157.898 138.402  1.00  0.00    -0.020 C 
ATOM      4  C   UNL     1     164.068 158.673 138.004  1.00  0.00     0.041 C 
ATOM      5  C   UNL     1     164.250 160.216 138.092  1.00  0.00     0.003 C 
ATOM      6  C   UNL     1     163.008 160.804 137.385  1.00  0.00     0.009 C 
ATOM      7  C   UNL     1     161.706 160.425 138.114  1.00  0.00     0.031 C 
ATOM      8  C   UNL     1     161.697 159.030 138.732  1.00  0.00    -0.073 C 
ATOM      9  C   UNL     1     162.805 158.229 138.737  1.00  0.00    -0.064 C 
ATOM     10  C   UNL     1     162.801 156.877 139.440  1.00  0.00     0.036 C 
ATOM     11  C   UNL     1     163.887 155.945 138.895  1.00  0.00     0.035 C 
ATOM     12  C   UNL     1     160.426 158.616 139.434  1.00  0.00     0.039 C 
ENDROOT
BRANCH   5  13
ATOM     13  C   UNL     1     164.435 160.797 139.550  1.00  0.00    -0.013 C 
ATOM     14  C   UNL     1     164.141 162.310 139.598  1.00  0.00     0.007 C 
ATOM     15  C   UNL     1     165.844 160.561 140.122  1.00  0.00     0.007 C 
ENDBRANCH   5  13
TORSDOF 1
ENDMDL
MODEL 3
REMARK VINA RESULT:    -2.380      1.946      4.369
REMARK INTER + INTRA:          -2.578
REMARK INTER:                  -2.525
REMARK INTRA:                  -0.053
REMARK UNBOUND:                -0.058
REMARK SMILES CC1=C[C@H]2C(=C(C)CC[C@H]2C(C)C)CC1
REMARK SMILES IDX 1 1 2 2 3 3 4 4 10 5 9 6 8 7 6 8 5 9 14 10 15 11 7 12 11 13
REMARK SMILES IDX 12 14 13 15
REMARK H PARENT
REMARK Flexibility Score: inf
ROOT
ATOM      1  C   UNL     1     168.230 171.178 143.195  1.00  0.00     0.039 C 
ATOM      2  C   UNL     1     168.495 172.020 141.976  1.00  0.00    -0.076 C 
ATOM      3  C   UNL     1     167.989 173.261 141.871  1.00  0.00    -0.020 C 
ATOM      4  C   UNL     1     168.243 174.115 140.648  1.00  0.00     0.041 C 
ATOM      5  C   UNL     1     167.155 175.204 140.417  1.00  0.00     0.003 C 
ATOM      6  C   UNL     1     167.740 176.125 139.322  1.00  0.00     0.009 C 
ATOM      7  C   UNL     1     167.960 175.368 138.000  1.00  0.00     0.031 C 
ATOM      8  C   UNL     1     168.405 173.917 138.155  1.00  0.00    -0.073 C 
ATOM      9  C   UNL     1     168.486 173.307 139.376  1.00  0.00    -0.064 C 
ATOM     10  C   UNL     1     168.843 171.831 139.502  1.00  0.00     0.036 C 
ATOM     11  C   UNL     1     169.393 171.490 140.890  1.00  0.00     0.035 C 
ATOM     12  C   UNL     1     168.654 173.151 136.878  1.00  0.00     0.039 C 
ENDROOT
BRANCH   5  13
ATOM     13  C   UNL     1     165.722 174.662 140.033  1.00  0.00    -0.013 C 
ATOM     14  C   UNL     1     164.806 175.793 139.523  1.00  0.00     0.007 C 
ATOM     15  C   UNL     1     165.009 173.955 141.200  1.00  0.00     0.007 C 
ENDBRANCH   5  13
TORSDOF 1
ENDMDL
MODEL 4
REMARK VINA RESULT:    -2.249     14.236     15.338
REMARK INTER + INTRA:          -2.439
REMARK INTER:                  -2.382
REMARK INTRA:                  -0.057
REMARK UNBOUND:                -0.058
REMARK SMILES CC1=C[C@H]2C(=C(C)CC[C@H]2C(C)C)CC1
REMARK SMILES IDX 1 1 2 2 3 3 4 4 10 5 9 6 8 7 6 8 5 9 14 10 15 11 7 12 11 13
REMARK SMILES IDX 12 14 13 15
REMARK H PARENT
REMARK Flexibility Score: inf
ROOT
ATOM      1  C   UNL     1     162.362 160.255 143.335  1.00  0.00     0.039 C 
ATOM      2  C   UNL     1     162.889 159.885 141.975  1.00  0.00    -0.076 C 
ATOM      3  C   UNL     1     162.418 160.481 140.866  1.00  0.00    -0.020 C 
ATOM      4  C   UNL     1     162.936 160.112 139.492  1.00  0.00     0.041 C 
ATOM      5  C   UNL     1     161.925 160.418 138.348  1.00  0.00     0.003 C 
ATOM      6  C   UNL     1     162.737 160.247 137.044  1.00  0.00     0.009 C 
ATOM      7  C   UNL     1     163.244 158.803 136.875  1.00  0.00     0.031 C 
ATOM      8  C   UNL     1     163.644 158.105 138.171  1.00  0.00    -0.073 C 
ATOM      9  C   UNL     1     163.454 158.680 139.397  1.00  0.00    -0.064 C 
ATOM     10  C   UNL     1     163.775 157.929 140.683  1.00  0.00     0.036 C 
ATOM     11  C   UNL     1     164.005 158.880 141.860  1.00  0.00     0.035 C 
ATOM     12  C   UNL     1     164.168 156.695 138.039  1.00  0.00     0.039 C 
ENDROOT
BRANCH   5  13
ATOM     13  C   UNL     1     160.612 159.540 138.349  1.00  0.00    -0.013 C 
ATOM     14  C   UNL     1     159.889 159.600 136.989  1.00  0.00     0.007 C 
ATOM     15  C   UNL     1     159.612 159.949 139.446  1.00  0.00     0.007 C 
ENDBRANCH   5  13
TORSDOF 1
ENDMDL
MODEL 5
REMARK VINA RESULT:    -2.240     14.402     15.349
REMARK INTER + INTRA:          -2.429
REMARK INTER:                  -2.430
REMARK INTRA:                   0.001
REMARK UNBOUND:                -0.058
REMARK SMILES CC1=C[C@H]2C(=C(C)CC[C@H]2C(C)C)CC1
REMARK SMILES IDX 1 1 2 2 3 3 4 4 10 5 9 6 8 7 6 8 5 9 14 10 15 11 7 12 11 13
REMARK SMILES IDX 12 14 13 15
REMARK H PARENT
REMARK Flexibility Score: inf
ROOT
ATOM      1  C   UNL     1     161.072 159.654 136.917  1.00  0.00     0.039 C 
ATOM      2  C   UNL     1     162.033 159.743 138.071  1.00  0.00    -0.076 C 
ATOM      3  C   UNL     1     163.298 159.302 137.953  1.00  0.00    -0.020 C 
ATOM      4  C   UNL     1     164.271 159.380 139.109  1.00  0.00     0.041 C 
ATOM      5  C   UNL     1     165.423 158.336 139.019  1.00  0.00     0.003 C 
ATOM      6  C   UNL     1     166.435 158.766 140.105  1.00  0.00     0.009 C 
ATOM      7  C   UNL     1     165.821 158.695 141.515  1.00  0.00     0.031 C 
ATOM      8  C   UNL     1     164.344 159.072 141.594  1.00  0.00    -0.073 C 
ATOM      9  C   UNL     1     163.600 159.337 140.479  1.00  0.00    -0.064 C 
ATOM     10  C   UNL     1     162.106 159.621 140.573  1.00  0.00     0.036 C 
ATOM     11  C   UNL     1     161.591 160.393 139.356  1.00  0.00     0.035 C 
ATOM     12  C   UNL     1     163.716 159.036 142.967  1.00  0.00     0.039 C 
ENDROOT
BRANCH   5  13
ATOM     13  C   UNL     1     164.985 156.827 139.179  1.00  0.00    -0.013 C 
ATOM     14  C   UNL     1     166.199 155.876 139.123  1.00  0.00     0.007 C 
ATOM     15  C   UNL     1     163.969 156.375 138.115  1.00  0.00     0.007 C 
ENDBRANCH   5  13
TORSDOF 1
ENDMDL
MODEL 6
REMARK VINA RESULT:    -2.229      1.739      2.413
REMARK INTER + INTRA:          -2.418
REMARK INTER:                  -2.368
REMARK INTRA:                  -0.050
REMARK UNBOUND:                -0.058
REMARK SMILES CC1=C[C@H]2C(=C(C)CC[C@H]2C(C)C)CC1
REMARK SMILES IDX 1 1 2 2 3 3 4 4 10 5 9 6 8 7 6 8 5 9 14 10 15 11 7 12 11 13
REMARK SMILES IDX 12 14 13 15
REMARK H PARENT
REMARK Flexibility Score: inf
ROOT
ATOM      1  C   UNL     1     164.638 176.125 139.475  1.00  0.00     0.039 C 
ATOM      2  C   UNL     1     165.942 175.481 139.859  1.00  0.00    -0.076 C 
ATOM      3  C   UNL     1     166.762 174.971 138.924  1.00  0.00    -0.020 C 
ATOM      4  C   UNL     1     168.074 174.314 139.299  1.00  0.00     0.041 C 
ATOM      5  C   UNL     1     168.579 173.292 138.239  1.00  0.00     0.003 C 
ATOM      6  C   UNL     1     170.029 172.966 138.661  1.00  0.00     0.009 C 
ATOM      7  C   UNL     1     170.082 172.299 140.046  1.00  0.00     0.031 C 
ATOM      8  C   UNL     1     169.047 172.806 141.046  1.00  0.00    -0.073 C 
ATOM      9  C   UNL     1     168.074 173.700 140.696  1.00  0.00    -0.064 C 
ATOM     10  C   UNL     1     166.994 174.124 141.684  1.00  0.00     0.036 C 
ATOM     11  C   UNL     1     166.365 175.466 141.304  1.00  0.00     0.035 C 
ATOM     12  C   UNL     1     169.086 172.189 142.424  1.00  0.00     0.039 C 
ENDROOT
BRANCH   5  13
ATOM     13  C   UNL     1     167.699 171.989 138.079  1.00  0.00    -0.013 C 
ATOM     14  C   UNL     1     168.411 170.928 137.217  1.00  0.00     0.007 C 
ATOM     15  C   UNL     1     166.316 172.264 137.462  1.00  0.00     0.007 C 
ENDBRANCH   5  13
TORSDOF 1
ENDMDL
MODEL 7
REMARK VINA RESULT:    -2.154      2.067      4.051
REMARK INTER + INTRA:          -2.338
REMARK INTER:                  -2.279
REMARK INTRA:                  -0.059
REMARK UNBOUND:                -0.058
REMARK SMILES CC1=C[C@H]2C(=C(C)CC[C@H]2C(C)C)CC1
REMARK SMILES IDX 1 1 2 2 3 3 4 4 10 5 9 6 8 7 6 8 5 9 14 10 15 11 7 12 11 13
REMARK SMILES IDX 12 14 13 15
REMARK H PARENT
REMARK Flexibility Score: inf
ROOT
ATOM      1  C   UNL     1     168.997 172.227 143.781  1.00  0.00     0.039 C 
ATOM      2  C   UNL     1     168.663 172.483 142.337  1.00  0.00    -0.076 C 
ATOM      3  C   UNL     1     169.315 171.840 141.353  1.00  0.00    -0.020 C 
ATOM      4  C   UNL     1     168.992 172.095 139.896  1.00  0.00     0.041 C 
ATOM      5  C   UNL     1     170.172 171.766 138.935  1.00  0.00     0.003 C 
ATOM      6  C   UNL     1     169.556 171.814 137.518  1.00  0.00     0.009 C 
ATOM      7  C   UNL     1     169.024 173.217 137.176  1.00  0.00     0.031 C 
ATOM      8  C   UNL     1     168.410 173.977 138.348  1.00  0.00    -0.073 C 
ATOM      9  C   UNL     1     168.439 173.491 139.626  1.00  0.00    -0.064 C 
ATOM     10  C   UNL     1     167.903 174.307 140.795  1.00  0.00     0.036 C 
ATOM     11  C   UNL     1     167.538 173.423 141.991  1.00  0.00     0.035 C 
ATOM     12  C   UNL     1     167.857 175.348 138.042  1.00  0.00     0.039 C 
ENDROOT
BRANCH   5  13
ATOM     13  C   UNL     1     171.436 172.705 139.064  1.00  0.00    -0.013 C 
ATOM     14  C   UNL     1     172.360 172.584 137.836  1.00  0.00     0.007 C 
ATOM     15  C   UNL     1     172.271 172.424 140.326  1.00  0.00     0.007 C 
ENDBRANCH   5  13
TORSDOF 1
ENDMDL
MODEL 8
REMARK VINA RESULT:    -2.147     13.782     15.206
REMARK INTER + INTRA:          -2.331
REMARK INTER:                  -2.312
REMARK INTRA:                  -0.019
REMARK UNBOUND:                -0.058
REMARK SMILES CC1=C[C@H]2C(=C(C)CC[C@H]2C(C)C)CC1
REMARK SMILES IDX 1 1 2 2 3 3 4 4 10 5 9 6 8 7 6 8 5 9 14 10 15 11 7 12 11 13
REMARK SMILES IDX 12 14 13 15
REMARK H PARENT
REMARK Flexibility Score: inf
ROOT
ATOM      1  C   UNL     1     159.852 159.679 138.315  1.00  0.00     0.039 C 
ATOM      2  C   UNL     1     161.283 159.235 138.178  1.00  0.00    -0.076 C 
ATOM      3  C   UNL     1     161.865 158.478 139.123  1.00  0.00    -0.020 C 
ATOM      4  C   UNL     1     163.305 158.031 139.000  1.00  0.00     0.041 C 
ATOM      5  C   UNL     1     163.974 157.710 140.369  1.00  0.00     0.003 C 
ATOM      6  C   UNL     1     165.305 157.013 140.008  1.00  0.00     0.009 C 
ATOM      7  C   UNL     1     166.239 157.946 139.216  1.00  0.00     0.031 C 
ATOM      8  C   UNL     1     165.535 158.890 138.247  1.00  0.00    -0.073 C 
ATOM      9  C   UNL     1     164.173 158.980 138.177  1.00  0.00    -0.064 C 
ATOM     10  C   UNL     1     163.491 159.994 137.268  1.00  0.00     0.036 C 
ATOM     11  C   UNL     1     162.053 159.590 136.933  1.00  0.00     0.035 C 
ATOM     12  C   UNL     1     166.424 159.803 137.435  1.00  0.00     0.039 C 
ENDROOT
BRANCH   5  13
ATOM     13  C   UNL     1     164.192 158.949 141.325  1.00  0.00    -0.013 C 
ATOM     14  C   UNL     1     164.968 158.553 142.597  1.00  0.00     0.007 C 
ATOM     15  C   UNL     1     162.875 159.623 141.753  1.00  0.00     0.007 C 
ENDBRANCH   5  13
TORSDOF 1
ENDMDL
MODEL 9
REMARK VINA RESULT:    -1.689     13.786     15.662
REMARK INTER + INTRA:          -1.846
REMARK INTER:                  -1.791
REMARK INTRA:                  -0.056
REMARK UNBOUND:                -0.058
REMARK SMILES CC1=C[C@H]2C(=C(C)CC[C@H]2C(C)C)CC1
REMARK SMILES IDX 1 1 2 2 3 3 4 4 10 5 9 6 8 7 6 8 5 9 14 10 15 11 7 12 11 13
REMARK SMILES IDX 12 14 13 15
REMARK H PARENT
REMARK Flexibility Score: inf
ROOT
ATOM      1  C   UNL     1     164.222 160.879 143.152  1.00  0.00     0.039 C 
ATOM      2  C   UNL     1     163.836 160.055 141.954  1.00  0.00    -0.076 C 
ATOM      3  C   UNL     1     164.217 158.771 141.846  1.00  0.00    -0.020 C 
ATOM      4  C   UNL     1     163.841 157.935 140.642  1.00  0.00     0.041 C 
ATOM      5  C   UNL     1     164.811 156.745 140.388  1.00  0.00     0.003 C 
ATOM      6  C   UNL     1     164.104 155.875 139.324  1.00  0.00     0.009 C 
ATOM      7  C   UNL     1     163.911 156.638 138.002  1.00  0.00     0.031 C 
ATOM      8  C   UNL     1     163.612 158.126 138.155  1.00  0.00    -0.073 C 
ATOM      9  C   UNL     1     163.632 158.752 139.370  1.00  0.00    -0.064 C 
ATOM     10  C   UNL     1     163.421 160.256 139.490  1.00  0.00     0.036 C 
ATOM     11  C   UNL     1     162.955 160.660 140.892  1.00  0.00     0.035 C 
ATOM     12  C   UNL     1     163.393 158.901 136.877  1.00  0.00     0.039 C 
ENDROOT
BRANCH   5  13
ATOM     13  C   UNL     1     166.276 157.144 139.950  1.00  0.00    -0.013 C 
ATOM     14  C   UNL     1     167.060 155.927 139.420  1.00  0.00     0.007 C 
ATOM     15  C   UNL     1     167.093 157.788 141.085  1.00  0.00     0.007 C 
ENDBRANCH   5  13
TORSDOF 1
ENDMDL
