MODEL 1
REMARK VINA RESULT:    -5.904      0.000      0.000
REMARK INTER + INTRA:          -6.727
REMARK INTER:                  -6.594
REMARK INTRA:                  -0.133
REMARK UNBOUND:                -0.133
REMARK SMILES O=C([O-])C=Cc1ccccc1
REMARK SMILES IDX 4 1 5 2 2 3 1 4 3 5 6 6 7 7 11 8 8 9 10 10 9 11
REMARK H PARENT
REMARK Flexibility Score: inf
ROOT
ATOM      1  C   UNL     1     -42.767 -39.477 104.418  1.00  0.00     0.025 C 
ATOM      2  C   UNL     1     -43.663 -38.506 104.648  1.00  0.00     0.010 C 
ENDROOT
BRANCH   1   3
ATOM      3  C   UNL     1     -43.040 -40.581 103.484  1.00  0.00     0.064 C 
ATOM      4  O   UNL     1     -44.002 -40.490 102.678  1.00  0.00    -0.545 OA
ATOM      5  O   UNL     1     -42.251 -41.726 103.477  1.00  0.00    -0.545 OA
ENDBRANCH   1   3
BRANCH   2   6
ATOM      6  C   UNL     1     -43.457 -37.361 105.576  1.00  0.00    -0.026 A 
ATOM      7  C   UNL     1     -44.589 -36.796 106.194  1.00  0.00     0.008 A 
ATOM      8  C   UNL     1     -42.187 -36.815 105.866  1.00  0.00     0.008 A 
ATOM      9  C   UNL     1     -44.458 -35.719 107.076  1.00  0.00     0.001 A 
ATOM     10  C   UNL     1     -42.064 -35.738 106.749  1.00  0.00     0.001 A 
ATOM     11  C   UNL     1     -43.198 -35.190 107.353  1.00  0.00     0.000 A 
ENDBRANCH   2   6
TORSDOF 2
ENDMDL
MODEL 2
REMARK VINA RESULT:    -5.903      0.579      1.816
REMARK INTER + INTRA:          -6.726
REMARK INTER:                  -6.592
REMARK INTRA:                  -0.134
REMARK UNBOUND:                -0.133
REMARK SMILES O=C([O-])C=Cc1ccccc1
REMARK SMILES IDX 4 1 5 2 2 3 1 4 3 5 6 6 7 7 11 8 8 9 10 10 9 11
REMARK H PARENT
REMARK Flexibility Score: inf
ROOT
ATOM      1  C   UNL     1     -43.868 -39.123 104.026  1.00  0.00     0.025 C 
ATOM      2  C   UNL     1     -42.944 -38.562 104.817  1.00  0.00     0.010 C 
ENDROOT
BRANCH   1   3
ATOM      3  C   UNL     1     -43.578 -40.319 103.219  1.00  0.00     0.064 C 
ATOM      4  O   UNL     1     -42.533 -40.983 103.445  1.00  0.00    -0.545 OA
ATOM      5  O   UNL     1     -44.440 -40.729 102.207  1.00  0.00    -0.545 OA
ENDBRANCH   1   3
BRANCH   2   6
ATOM      6  C   UNL     1     -43.165 -37.355 105.661  1.00  0.00    -0.026 A 
ATOM      7  C   UNL     1     -42.036 -36.680 106.162  1.00  0.00     0.008 A 
ATOM      8  C   UNL     1     -44.448 -36.856 105.981  1.00  0.00     0.008 A 
ATOM      9  C   UNL     1     -42.181 -35.541 106.959  1.00  0.00     0.001 A 
ATOM     10  C   UNL     1     -44.585 -35.716 106.779  1.00  0.00     0.001 A 
ATOM     11  C   UNL     1     -43.453 -35.059 107.268  1.00  0.00     0.000 A 
ENDBRANCH   2   6
TORSDOF 2
ENDMDL
MODEL 3
REMARK VINA RESULT:    -5.823      4.341      7.790
REMARK INTER + INTRA:          -6.637
REMARK INTER:                  -6.503
REMARK INTRA:                  -0.134
REMARK UNBOUND:                -0.133
REMARK SMILES O=C([O-])C=Cc1ccccc1
REMARK SMILES IDX 4 1 5 2 2 3 1 4 3 5 6 6 7 7 11 8 8 9 10 10 9 11
REMARK H PARENT
REMARK Flexibility Score: inf
ROOT
ATOM      1  C   UNL     1     -42.027 -41.893 103.651  1.00  0.00     0.025 C 
ATOM      2  C   UNL     1     -41.457 -42.658 102.709  1.00  0.00     0.010 C 
ENDROOT
BRANCH   1   3
ATOM      3  C   UNL     1     -42.838 -40.714 103.308  1.00  0.00     0.064 C 
ATOM      4  O   UNL     1     -43.613 -40.759 102.317  1.00  0.00    -0.545 OA
ATOM      5  O   UNL     1     -42.762 -39.547 104.061  1.00  0.00    -0.545 OA
ENDBRANCH   1   3
BRANCH   2   6
ATOM      6  C   UNL     1     -40.626 -43.864 102.980  1.00  0.00    -0.026 A 
ATOM      7  C   UNL     1     -40.206 -44.639 101.883  1.00  0.00     0.008 A 
ATOM      8  C   UNL     1     -40.239 -44.264 104.278  1.00  0.00     0.008 A 
ATOM      9  C   UNL     1     -39.423 -45.782 102.075  1.00  0.00     0.001 A 
ATOM     10  C   UNL     1     -39.456 -45.408 104.462  1.00  0.00     0.001 A 
ATOM     11  C   UNL     1     -39.048 -46.166 103.363  1.00  0.00     0.000 A 
ENDBRANCH   2   6
TORSDOF 2
ENDMDL
MODEL 4
REMARK VINA RESULT:    -5.778      4.319      7.760
REMARK INTER + INTRA:          -6.586
REMARK INTER:                  -6.442
REMARK INTRA:                  -0.144
REMARK UNBOUND:                -0.133
REMARK SMILES O=C([O-])C=Cc1ccccc1
REMARK SMILES IDX 4 1 5 2 2 3 1 4 3 5 6 6 7 7 11 8 8 9 10 10 9 11
REMARK H PARENT
REMARK Flexibility Score: inf
ROOT
ATOM      1  C   UNL     1     -41.912 -41.882 104.025  1.00  0.00     0.025 C 
ATOM      2  C   UNL     1     -41.362 -42.493 102.966  1.00  0.00     0.010 C 
ENDROOT
BRANCH   1   3
ATOM      3  C   UNL     1     -42.671 -40.629 103.891  1.00  0.00     0.064 C 
ATOM      4  O   UNL     1     -42.129 -39.536 104.201  1.00  0.00    -0.545 OA
ATOM      5  O   UNL     1     -43.983 -40.630 103.426  1.00  0.00    -0.545 OA
ENDBRANCH   1   3
BRANCH   2   6
ATOM      6  C   UNL     1     -40.583 -43.760 103.024  1.00  0.00    -0.026 A 
ATOM      7  C   UNL     1     -40.244 -44.273 104.290  1.00  0.00     0.008 A 
ATOM      8  C   UNL     1     -40.170 -44.471 101.875  1.00  0.00     0.008 A 
ATOM      9  C   UNL     1     -39.515 -45.460 104.409  1.00  0.00     0.001 A 
ATOM     10  C   UNL     1     -39.440 -45.657 102.001  1.00  0.00     0.001 A 
ATOM     11  C   UNL     1     -39.113 -46.151 103.265  1.00  0.00     0.000 A 
ENDBRANCH   2   6
TORSDOF 2
ENDMDL
MODEL 5
REMARK VINA RESULT:    -5.581     13.893     14.454
REMARK INTER + INTRA:          -6.367
REMARK INTER:                  -6.222
REMARK INTRA:                  -0.145
REMARK UNBOUND:                -0.133
REMARK SMILES O=C([O-])C=Cc1ccccc1
REMARK SMILES IDX 4 1 5 2 2 3 1 4 3 5 6 6 7 7 11 8 8 9 10 10 9 11
REMARK H PARENT
REMARK Flexibility Score: inf
ROOT
ATOM      1  C   UNL     1     -33.436 -41.250 114.159  1.00  0.00     0.025 C 
ATOM      2  C   UNL     1     -32.616 -40.219 113.909  1.00  0.00     0.010 C 
ENDROOT
BRANCH   1   3
ATOM      3  C   UNL     1     -34.325 -41.269 115.331  1.00  0.00     0.064 C 
ATOM      4  O   UNL     1     -34.233 -42.207 116.166  1.00  0.00    -0.545 OA
ATOM      5  O   UNL     1     -35.268 -40.267 115.533  1.00  0.00    -0.545 OA
ENDBRANCH   1   3
BRANCH   2   6
ATOM      6  C   UNL     1     -31.691 -40.129 112.746  1.00  0.00    -0.026 A 
ATOM      7  C   UNL     1     -31.660 -41.204 111.838  1.00  0.00     0.008 A 
ATOM      8  C   UNL     1     -30.848 -39.020 112.509  1.00  0.00     0.008 A 
ATOM      9  C   UNL     1     -30.813 -41.176 110.726  1.00  0.00     0.001 A 
ATOM     10  C   UNL     1     -30.002 -39.000 111.395  1.00  0.00     0.001 A 
ATOM     11  C   UNL     1     -29.985 -40.076 110.505  1.00  0.00     0.000 A 
ENDBRANCH   2   6
TORSDOF 2
ENDMDL
MODEL 6
REMARK VINA RESULT:    -5.533     13.224     14.060
REMARK INTER + INTRA:          -6.313
REMARK INTER:                  -6.171
REMARK INTRA:                  -0.142
REMARK UNBOUND:                -0.133
REMARK SMILES O=C([O-])C=Cc1ccccc1
REMARK SMILES IDX 4 1 5 2 2 3 1 4 3 5 6 6 7 7 11 8 8 9 10 10 9 11
REMARK H PARENT
REMARK Flexibility Score: inf
ROOT
ATOM      1  C   UNL     1     -32.175 -40.101 112.619  1.00  0.00     0.025 C 
ATOM      2  C   UNL     1     -32.238 -40.860 113.721  1.00  0.00     0.010 C 
ENDROOT
BRANCH   1   3
ATOM      3  C   UNL     1     -30.948 -40.002 111.812  1.00  0.00     0.064 C 
ATOM      4  O   UNL     1     -30.166 -39.031 111.985  1.00  0.00    -0.545 OA
ATOM      5  O   UNL     1     -30.636 -40.965 110.859  1.00  0.00    -0.545 OA
ENDBRANCH   1   3
BRANCH   2   6
ATOM      6  C   UNL     1     -33.441 -41.009 114.585  1.00  0.00    -0.026 A 
ATOM      7  C   UNL     1     -34.399 -39.978 114.572  1.00  0.00     0.008 A 
ATOM      8  C   UNL     1     -33.669 -42.132 115.412  1.00  0.00     0.008 A 
ATOM      9  C   UNL     1     -35.550 -40.062 115.361  1.00  0.00     0.001 A 
ATOM     10  C   UNL     1     -34.822 -42.209 116.199  1.00  0.00     0.001 A 
ATOM     11  C   UNL     1     -35.762 -41.176 116.173  1.00  0.00     0.000 A 
ENDBRANCH   2   6
TORSDOF 2
ENDMDL
MODEL 7
REMARK VINA RESULT:    -5.473      3.331      3.650
REMARK INTER + INTRA:          -6.246
REMARK INTER:                  -6.100
REMARK INTRA:                  -0.146
REMARK UNBOUND:                -0.133
REMARK SMILES O=C([O-])C=Cc1ccccc1
REMARK SMILES IDX 4 1 5 2 2 3 1 4 3 5 6 6 7 7 11 8 8 9 10 10 9 11
REMARK H PARENT
REMARK Flexibility Score: inf
ROOT
ATOM      1  C   UNL     1     -42.059 -41.731 104.471  1.00  0.00     0.025 C 
ATOM      2  C   UNL     1     -41.828 -41.327 105.727  1.00  0.00     0.010 C 
ENDROOT
BRANCH   1   3
ATOM      3  C   UNL     1     -41.038 -42.437 103.681  1.00  0.00     0.064 C 
ATOM      4  O   UNL     1     -39.861 -41.992 103.647  1.00  0.00    -0.545 OA
ATOM      5  O   UNL     1     -41.351 -43.590 102.968  1.00  0.00    -0.545 OA
ENDBRANCH   1   3
BRANCH   2   6
ATOM      6  C   UNL     1     -42.811 -40.610 106.586  1.00  0.00    -0.026 A 
ATOM      7  C   UNL     1     -44.156 -40.584 106.173  1.00  0.00     0.008 A 
ATOM      8  C   UNL     1     -42.460 -39.959 107.790  1.00  0.00     0.008 A 
ATOM      9  C   UNL     1     -45.125 -39.928 106.939  1.00  0.00     0.001 A 
ATOM     10  C   UNL     1     -43.434 -39.304 108.550  1.00  0.00     0.001 A 
ATOM     11  C   UNL     1     -44.765 -39.288 108.125  1.00  0.00     0.000 A 
ENDBRANCH   2   6
TORSDOF 2
ENDMDL
MODEL 8
REMARK VINA RESULT:    -5.448      3.266      3.768
REMARK INTER + INTRA:          -6.219
REMARK INTER:                  -6.087
REMARK INTRA:                  -0.132
REMARK UNBOUND:                -0.133
REMARK SMILES O=C([O-])C=Cc1ccccc1
REMARK SMILES IDX 4 1 5 2 2 3 1 4 3 5 6 6 7 7 11 8 8 9 10 10 9 11
REMARK H PARENT
REMARK Flexibility Score: inf
ROOT
ATOM      1  C   UNL     1     -42.024 -41.748 104.512  1.00  0.00     0.025 C 
ATOM      2  C   UNL     1     -41.873 -41.378 105.792  1.00  0.00     0.010 C 
ENDROOT
BRANCH   1   3
ATOM      3  C   UNL     1     -40.989 -42.509 103.795  1.00  0.00     0.064 C 
ATOM      4  O   UNL     1     -41.327 -43.450 103.031  1.00  0.00    -0.545 OA
ATOM      5  O   UNL     1     -39.640 -42.207 103.949  1.00  0.00    -0.545 OA
ENDBRANCH   1   3
BRANCH   2   6
ATOM      6  C   UNL     1     -42.875 -40.609 106.580  1.00  0.00    -0.026 A 
ATOM      7  C   UNL     1     -42.450 -39.995 107.773  1.00  0.00     0.008 A 
ATOM      8  C   UNL     1     -44.225 -40.467 106.190  1.00  0.00     0.008 A 
ATOM      9  C   UNL     1     -43.345 -39.258 108.555  1.00  0.00     0.001 A 
ATOM     10  C   UNL     1     -45.115 -39.729 106.978  1.00  0.00     0.001 A 
ATOM     11  C   UNL     1     -44.676 -39.126 108.158  1.00  0.00     0.000 A 
ENDBRANCH   2   6
TORSDOF 2
ENDMDL
