MODEL 1
REMARK VINA RESULT:    -5.744      0.000      0.000
REMARK INTER + INTRA:         -16.027
REMARK INTER:                 -12.461
REMARK INTRA:                  -3.566
REMARK UNBOUND:                -3.566
REMARK SMILES CCCCCCCCCCCCCCCCCCCCCC(=O)[O-]
REMARK SMILES IDX 12 1 11 2 10 3 9 4 8 5 7 6 6 7 5 8 4 9 3 10 2 11 1 12 13 13
REMARK SMILES IDX 14 14 15 15 16 16 17 17 18 18 19 19 20 20 21 21 22 22 23 23
REMARK SMILES IDX 24 24
REMARK H PARENT
REMARK Flexibility Score: inf
ROOT
ATOM      1  C   UNL     1     101.950 104.456 228.893  1.00  0.00     0.000 C 
ENDROOT
BRANCH   1   2
ATOM      2  C   UNL     1     102.035 104.907 227.421  1.00  0.00     0.000 C 
BRANCH   2   3
ATOM      3  C   UNL     1     103.383 105.525 227.001  1.00  0.00     0.000 C 
BRANCH   3   4
ATOM      4  C   UNL     1     104.621 104.929 227.697  1.00  0.00    -0.000 C 
BRANCH   4   5
ATOM      5  C   UNL     1     105.373 105.955 228.560  1.00  0.00    -0.000 C 
BRANCH   5   6
ATOM      6  C   UNL     1     104.775 107.370 228.471  1.00  0.00    -0.000 C 
BRANCH   6   7
ATOM      7  C   UNL     1     104.645 108.119 229.811  1.00  0.00    -0.000 C 
BRANCH   7   8
ATOM      8  C   UNL     1     103.321 107.825 230.538  1.00  0.00    -0.000 C 
BRANCH   8   9
ATOM      9  C   UNL     1     103.420 106.613 231.476  1.00  0.00    -0.000 C 
BRANCH   9  10
ATOM     10  C   UNL     1     104.701 106.628 232.330  1.00  0.00    -0.000 C 
BRANCH  10  11
ATOM     11  C   UNL     1     104.472 106.067 233.742  1.00  0.00    -0.003 C 
ATOM     12  C   UNL     1     102.991 105.982 234.107  1.00  0.00     0.004 C 
ENDBRANCH  10  11
ENDBRANCH   9  10
ENDBRANCH   8   9
ENDBRANCH   7   8
ENDBRANCH   6   7
ENDBRANCH   5   6
ENDBRANCH   4   5
ENDBRANCH   3   4
ENDBRANCH   2   3
ENDBRANCH   1   2
BRANCH   1  13
ATOM     13  C   UNL     1     100.950 103.318 229.167  1.00  0.00     0.000 C 
BRANCH  13  14
ATOM     14  C   UNL     1     101.269 102.541 230.452  1.00  0.00     0.000 C 
BRANCH  14  15
ATOM     15  C   UNL     1     102.533 103.091 231.128  1.00  0.00     0.000 C 
BRANCH  15  16
ATOM     16  C   UNL     1     103.793 102.261 230.811  1.00  0.00     0.000 C 
BRANCH  16  17
ATOM     17  C   UNL     1     105.112 103.054 230.833  1.00  0.00     0.000 C 
BRANCH  17  18
ATOM     18  C   UNL     1     106.107 102.536 231.887  1.00  0.00     0.000 C 
BRANCH  18  19
ATOM     19  C   UNL     1     107.025 103.658 232.419  1.00  0.00     0.000 C 
BRANCH  19  20
ATOM     20  C   UNL     1     107.553 104.597 231.322  1.00  0.00     0.006 C 
BRANCH  20  21
ATOM     21  C   UNL     1     108.979 104.250 230.877  1.00  0.00     0.053 C 
BRANCH  21  22
ATOM     22  C   UNL     1     108.953 103.187 229.826  1.00  0.00     0.041 C 
ATOM     23  O   UNL     1     109.850 102.304 229.794  1.00  0.00    -0.550 OA
ATOM     24  O   UNL     1     107.966 103.199 228.850  1.00  0.00    -0.550 OA
ENDBRANCH  21  22
ENDBRANCH  20  21
ENDBRANCH  19  20
ENDBRANCH  18  19
ENDBRANCH  17  18
ENDBRANCH  16  17
ENDBRANCH  15  16
ENDBRANCH  14  15
ENDBRANCH  13  14
ENDBRANCH   1  13
TORSDOF 20
ENDMDL
MODEL 2
REMARK VINA RESULT:    -5.652      1.300      3.767
REMARK INTER + INTRA:         -15.827
REMARK INTER:                 -12.365
REMARK INTRA:                  -3.461
REMARK UNBOUND:                -3.566
REMARK SMILES CCCCCCCCCCCCCCCCCCCCCC(=O)[O-]
REMARK SMILES IDX 12 1 11 2 10 3 9 4 8 5 7 6 6 7 5 8 4 9 3 10 2 11 1 12 13 13
REMARK SMILES IDX 14 14 15 15 16 16 17 17 18 18 19 19 20 20 21 21 22 22 23 23
REMARK SMILES IDX 24 24
REMARK H PARENT
REMARK Flexibility Score: inf
ROOT
ATOM      1  C   UNL     1     104.999 107.976 229.943  1.00  0.00     0.000 C 
ENDROOT
BRANCH   1   2
ATOM      2  C   UNL     1     105.168 107.345 228.546  1.00  0.00     0.000 C 
BRANCH   2   3
ATOM      3  C   UNL     1     105.113 105.805 228.511  1.00  0.00     0.000 C 
BRANCH   3   4
ATOM      4  C   UNL     1     104.639 105.197 227.178  1.00  0.00    -0.000 C 
BRANCH   4   5
ATOM      5  C   UNL     1     103.148 105.451 226.903  1.00  0.00    -0.000 C 
BRANCH   5   6
ATOM      6  C   UNL     1     102.266 105.264 228.150  1.00  0.00    -0.000 C 
BRANCH   6   7
ATOM      7  C   UNL     1     101.321 104.048 228.116  1.00  0.00    -0.000 C 
BRANCH   7   8
ATOM      8  C   UNL     1     100.871 103.598 229.517  1.00  0.00    -0.000 C 
BRANCH   8   9
ATOM      9  C   UNL     1     101.661 104.286 230.640  1.00  0.00    -0.000 C 
BRANCH   9  10
ATOM     10  C   UNL     1     102.611 103.323 231.373  1.00  0.00    -0.000 C 
BRANCH  10  11
ATOM     11  C   UNL     1     103.897 103.049 230.579  1.00  0.00    -0.003 C 
ATOM     12  C   UNL     1     104.389 101.612 230.734  1.00  0.00     0.004 C 
ENDBRANCH  10  11
ENDBRANCH   9  10
ENDBRANCH   8   9
ENDBRANCH   7   8
ENDBRANCH   6   7
ENDBRANCH   5   6
ENDBRANCH   4   5
ENDBRANCH   3   4
ENDBRANCH   2   3
ENDBRANCH   1   2
BRANCH   1  13
ATOM     13  C   UNL     1     103.695 107.603 230.671  1.00  0.00     0.000 C 
BRANCH  13  14
ATOM     14  C   UNL     1     103.941 106.850 231.986  1.00  0.00     0.000 C 
BRANCH  14  15
ATOM     15  C   UNL     1     105.415 106.438 232.117  1.00  0.00     0.000 C 
BRANCH  15  16
ATOM     16  C   UNL     1     105.649 105.394 233.226  1.00  0.00     0.000 C 
BRANCH  16  17
ATOM     17  C   UNL     1     106.679 104.303 232.881  1.00  0.00     0.000 C 
BRANCH  17  18
ATOM     18  C   UNL     1     107.300 104.483 231.485  1.00  0.00     0.000 C 
BRANCH  18  19
ATOM     19  C   UNL     1     107.623 103.130 230.814  1.00  0.00     0.000 C 
BRANCH  19  20
ATOM     20  C   UNL     1     108.422 103.262 229.508  1.00  0.00     0.006 C 
BRANCH  20  21
ATOM     21  C   UNL     1     109.770 102.534 229.558  1.00  0.00     0.053 C 
BRANCH  21  22
ATOM     22  C   UNL     1     110.795 103.278 228.762  1.00  0.00     0.041 C 
ATOM     23  O   UNL     1     111.803 103.772 229.330  1.00  0.00    -0.550 OA
ATOM     24  O   UNL     1     110.610 103.470 227.399  1.00  0.00    -0.550 OA
ENDBRANCH  21  22
ENDBRANCH  20  21
ENDBRANCH  19  20
ENDBRANCH  18  19
ENDBRANCH  17  18
ENDBRANCH  16  17
ENDBRANCH  15  16
ENDBRANCH  14  15
ENDBRANCH  13  14
ENDBRANCH   1  13
TORSDOF 20
ENDMDL
MODEL 3
REMARK VINA RESULT:    -5.647      1.153      2.578
REMARK INTER + INTRA:         -15.816
REMARK INTER:                 -12.459
REMARK INTRA:                  -3.358
REMARK UNBOUND:                -3.566
REMARK SMILES CCCCCCCCCCCCCCCCCCCCCC(=O)[O-]
REMARK SMILES IDX 12 1 11 2 10 3 9 4 8 5 7 6 6 7 5 8 4 9 3 10 2 11 1 12 13 13
REMARK SMILES IDX 14 14 15 15 16 16 17 17 18 18 19 19 20 20 21 21 22 22 23 23
REMARK SMILES IDX 24 24
REMARK H PARENT
REMARK Flexibility Score: inf
ROOT
ATOM      1  C   UNL     1     103.348 105.540 226.934  1.00  0.00     0.000 C 
ENDROOT
BRANCH   1   2
ATOM      2  C   UNL     1     104.522 104.951 227.743  1.00  0.00     0.000 C 
BRANCH   2   3
ATOM      3  C   UNL     1     105.334 105.975 228.559  1.00  0.00     0.000 C 
BRANCH   3   4
ATOM      4  C   UNL     1     104.729 107.391 228.621  1.00  0.00    -0.000 C 
BRANCH   4   5
ATOM      5  C   UNL     1     104.657 107.947 230.052  1.00  0.00    -0.000 C 
BRANCH   5   6
ATOM      6  C   UNL     1     104.098 106.933 231.065  1.00  0.00    -0.000 C 
BRANCH   6   7
ATOM      7  C   UNL     1     105.036 106.581 232.236  1.00  0.00    -0.000 C 
BRANCH   7   8
ATOM      8  C   UNL     1     104.290 105.998 233.449  1.00  0.00    -0.000 C 
BRANCH   8   9
ATOM      9  C   UNL     1     102.817 105.688 233.142  1.00  0.00    -0.000 C 
BRANCH   9  10
ATOM     10  C   UNL     1     101.850 106.376 234.123  1.00  0.00    -0.000 C 
BRANCH  10  11
ATOM     11  C   UNL     1     100.517 106.757 233.461  1.00  0.00    -0.003 C 
ATOM     12  C   UNL     1     100.329 106.099 232.096  1.00  0.00     0.004 C 
ENDBRANCH  10  11
ENDBRANCH   9  10
ENDBRANCH   8   9
ENDBRANCH   7   8
ENDBRANCH   6   7
ENDBRANCH   5   6
ENDBRANCH   4   5
ENDBRANCH   3   4
ENDBRANCH   2   3
ENDBRANCH   1   2
BRANCH   1  13
ATOM     13  C   UNL     1     101.951 105.081 227.390  1.00  0.00     0.000 C 
BRANCH  13  14
ATOM     14  C   UNL     1     101.861 104.866 228.908  1.00  0.00     0.000 C 
BRANCH  14  15
ATOM     15  C   UNL     1     101.368 103.449 229.235  1.00  0.00     0.000 C 
BRANCH  15  16
ATOM     16  C   UNL     1     101.958 102.896 230.547  1.00  0.00     0.000 C 
BRANCH  16  17
ATOM     17  C   UNL     1     103.486 103.030 230.677  1.00  0.00     0.000 C 
BRANCH  17  18
ATOM     18  C   UNL     1     104.196 101.675 230.845  1.00  0.00     0.000 C 
BRANCH  18  19
ATOM     19  C   UNL     1     105.718 101.839 231.050  1.00  0.00     0.000 C 
BRANCH  19  20
ATOM     20  C   UNL     1     106.338 102.968 230.210  1.00  0.00     0.006 C 
BRANCH  20  21
ATOM     21  C   UNL     1     107.527 103.643 230.903  1.00  0.00     0.053 C 
BRANCH  21  22
ATOM     22  C   UNL     1     108.815 103.169 230.309  1.00  0.00     0.041 C 
ATOM     23  O   UNL     1     108.917 101.995 229.869  1.00  0.00    -0.550 OA
ATOM     24  O   UNL     1     109.920 104.009 230.288  1.00  0.00    -0.550 OA
ENDBRANCH  21  22
ENDBRANCH  20  21
ENDBRANCH  19  20
ENDBRANCH  18  19
ENDBRANCH  17  18
ENDBRANCH  16  17
ENDBRANCH  15  16
ENDBRANCH  14  15
ENDBRANCH  13  14
ENDBRANCH   1  13
TORSDOF 20
ENDMDL
MODEL 4
REMARK VINA RESULT:    -5.635      1.394      3.982
REMARK INTER + INTRA:         -15.789
REMARK INTER:                 -11.988
REMARK INTRA:                  -3.801
REMARK UNBOUND:                -3.566
REMARK SMILES CCCCCCCCCCCCCCCCCCCCCC(=O)[O-]
REMARK SMILES IDX 12 1 11 2 10 3 9 4 8 5 7 6 6 7 5 8 4 9 3 10 2 11 1 12 13 13
REMARK SMILES IDX 14 14 15 15 16 16 17 17 18 18 19 19 20 20 21 21 22 22 23 23
REMARK SMILES IDX 24 24
REMARK H PARENT
REMARK Flexibility Score: inf
ROOT
ATOM      1  C   UNL     1     101.459 106.450 232.799  1.00  0.00     0.000 C 
ENDROOT
BRANCH   1   2
ATOM      2  C   UNL     1     102.539 105.602 233.502  1.00  0.00     0.000 C 
BRANCH   2   3
ATOM      3  C   UNL     1     103.925 106.268 233.613  1.00  0.00     0.000 C 
BRANCH   3   4
ATOM      4  C   UNL     1     105.064 105.534 232.881  1.00  0.00    -0.000 C 
BRANCH   4   5
ATOM      5  C   UNL     1     105.144 105.894 231.389  1.00  0.00    -0.000 C 
BRANCH   5   6
ATOM      6  C   UNL     1     105.029 107.406 231.127  1.00  0.00    -0.000 C 
BRANCH   6   7
ATOM      7  C   UNL     1     104.309 107.799 229.823  1.00  0.00    -0.000 C 
BRANCH   7   8
ATOM      8  C   UNL     1     104.866 107.072 228.587  1.00  0.00    -0.000 C 
BRANCH   8   9
ATOM      9  C   UNL     1     103.781 106.309 227.813  1.00  0.00    -0.000 C 
BRANCH   9  10
ATOM     10  C   UNL     1     104.347 105.119 227.017  1.00  0.00    -0.000 C 
BRANCH  10  11
ATOM     11  C   UNL     1     105.687 104.621 227.580  1.00  0.00    -0.003 C 
ATOM     12  C   UNL     1     106.470 103.780 226.575  1.00  0.00     0.004 C 
ENDBRANCH  10  11
ENDBRANCH   9  10
ENDBRANCH   8   9
ENDBRANCH   7   8
ENDBRANCH   6   7
ENDBRANCH   5   6
ENDBRANCH   4   5
ENDBRANCH   3   4
ENDBRANCH   2   3
ENDBRANCH   1   2
BRANCH   1  13
ATOM     13  C   UNL     1     101.358 106.240 231.278  1.00  0.00     0.000 C 
BRANCH  13  14
ATOM     14  C   UNL     1     100.229 105.276 230.884  1.00  0.00     0.000 C 
BRANCH  14  15
ATOM     15  C   UNL     1     100.787 104.037 230.169  1.00  0.00     0.000 C 
BRANCH  15  16
ATOM     16  C   UNL     1     102.327 104.028 230.098  1.00  0.00     0.000 C 
BRANCH  16  17
ATOM     17  C   UNL     1     102.998 102.812 230.761  1.00  0.00     0.000 C 
BRANCH  17  18
ATOM     18  C   UNL     1     104.434 102.572 230.262  1.00  0.00     0.000 C 
BRANCH  18  19
ATOM     19  C   UNL     1     105.158 101.481 231.080  1.00  0.00     0.000 C 
BRANCH  19  20
ATOM     20  C   UNL     1     106.600 101.851 231.465  1.00  0.00     0.006 C 
BRANCH  20  21
ATOM     21  C   UNL     1     107.195 102.942 230.568  1.00  0.00     0.053 C 
BRANCH  21  22
ATOM     22  C   UNL     1     108.450 102.456 229.918  1.00  0.00     0.041 C 
ATOM     23  O   UNL     1     109.003 101.398 230.317  1.00  0.00    -0.550 OA
ATOM     24  O   UNL     1     109.039 103.199 228.903  1.00  0.00    -0.550 OA
ENDBRANCH  21  22
ENDBRANCH  20  21
ENDBRANCH  19  20
ENDBRANCH  18  19
ENDBRANCH  17  18
ENDBRANCH  16  17
ENDBRANCH  15  16
ENDBRANCH  14  15
ENDBRANCH  13  14
ENDBRANCH   1  13
TORSDOF 20
ENDMDL
MODEL 5
REMARK VINA RESULT:    -5.622      1.043      4.040
REMARK INTER + INTRA:         -15.761
REMARK INTER:                 -12.071
REMARK INTRA:                  -3.690
REMARK UNBOUND:                -3.566
REMARK SMILES CCCCCCCCCCCCCCCCCCCCCC(=O)[O-]
REMARK SMILES IDX 12 1 11 2 10 3 9 4 8 5 7 6 6 7 5 8 4 9 3 10 2 11 1 12 13 13
REMARK SMILES IDX 14 14 15 15 16 16 17 17 18 18 19 19 20 20 21 21 22 22 23 23
REMARK SMILES IDX 24 24
REMARK H PARENT
REMARK Flexibility Score: inf
ROOT
ATOM      1  C   UNL     1     104.866 107.025 228.764  1.00  0.00     0.000 C 
ENDROOT
BRANCH   1   2
ATOM      2  C   UNL     1     105.150 105.521 228.574  1.00  0.00     0.000 C 
BRANCH   2   3
ATOM      3  C   UNL     1     104.437 104.866 227.374  1.00  0.00     0.000 C 
BRANCH   3   4
ATOM      4  C   UNL     1     103.174 105.599 226.884  1.00  0.00    -0.000 C 
BRANCH   4   5
ATOM      5  C   UNL     1     101.876 104.980 227.426  1.00  0.00    -0.000 C 
BRANCH   5   6
ATOM      6  C   UNL     1     101.431 105.593 228.766  1.00  0.00    -0.000 C 
BRANCH   6   7
ATOM      7  C   UNL     1     101.229 104.590 229.918  1.00  0.00    -0.000 C 
BRANCH   7   8
ATOM      8  C   UNL     1     101.233 103.125 229.446  1.00  0.00    -0.000 C 
BRANCH   8   9
ATOM      9  C   UNL     1     101.578 102.143 230.575  1.00  0.00    -0.000 C 
BRANCH   9  10
ATOM     10  C   UNL     1     102.893 102.501 231.290  1.00  0.00    -0.000 C 
BRANCH  10  11
ATOM     11  C   UNL     1     104.121 102.329 230.382  1.00  0.00    -0.003 C 
ATOM     12  C   UNL     1     104.935 101.083 230.724  1.00  0.00     0.004 C 
ENDBRANCH  10  11
ENDBRANCH   9  10
ENDBRANCH   8   9
ENDBRANCH   7   8
ENDBRANCH   6   7
ENDBRANCH   5   6
ENDBRANCH   4   5
ENDBRANCH   3   4
ENDBRANCH   2   3
ENDBRANCH   1   2
BRANCH   1  13
ATOM     13  C   UNL     1     105.786 107.737 229.771  1.00  0.00     0.000 C 
BRANCH  13  14
ATOM     14  C   UNL     1     105.028 108.274 230.994  1.00  0.00     0.000 C 
BRANCH  14  15
ATOM     15  C   UNL     1     103.619 107.670 231.078  1.00  0.00     0.000 C 
BRANCH  15  16
ATOM     16  C   UNL     1     103.421 106.782 232.322  1.00  0.00     0.000 C 
BRANCH  16  17
ATOM     17  C   UNL     1     104.318 105.533 232.376  1.00  0.00     0.000 C 
BRANCH  17  18
ATOM     18  C   UNL     1     105.511 105.690 233.335  1.00  0.00     0.000 C 
BRANCH  18  19
ATOM     19  C   UNL     1     106.680 104.752 232.965  1.00  0.00     0.000 C 
BRANCH  19  20
ATOM     20  C   UNL     1     106.818 104.501 231.454  1.00  0.00     0.006 C 
BRANCH  20  21
ATOM     21  C   UNL     1     108.265 104.229 231.026  1.00  0.00     0.053 C 
BRANCH  21  22
ATOM     22  C   UNL     1     108.331 103.017 230.153  1.00  0.00     0.041 C 
ATOM     23  O   UNL     1     108.435 103.138 228.904  1.00  0.00    -0.550 OA
ATOM     24  O   UNL     1     108.225 101.751 230.714  1.00  0.00    -0.550 OA
ENDBRANCH  21  22
ENDBRANCH  20  21
ENDBRANCH  19  20
ENDBRANCH  18  19
ENDBRANCH  17  18
ENDBRANCH  16  17
ENDBRANCH  15  16
ENDBRANCH  14  15
ENDBRANCH  13  14
ENDBRANCH   1  13
TORSDOF 20
ENDMDL
MODEL 6
REMARK VINA RESULT:    -5.591      1.364      3.434
REMARK INTER + INTRA:         -15.693
REMARK INTER:                 -11.715
REMARK INTRA:                  -3.979
REMARK UNBOUND:                -3.566
REMARK SMILES CCCCCCCCCCCCCCCCCCCCCC(=O)[O-]
REMARK SMILES IDX 12 1 11 2 10 3 9 4 8 5 7 6 6 7 5 8 4 9 3 10 2 11 1 12 13 13
REMARK SMILES IDX 14 14 15 15 16 16 17 17 18 18 19 19 20 20 21 21 22 22 23 23
REMARK SMILES IDX 24 24
REMARK H PARENT
REMARK Flexibility Score: inf
ROOT
ATOM      1  C   UNL     1     101.106 104.266 229.769  1.00  0.00     0.000 C 
ENDROOT
BRANCH   1   2
ATOM      2  C   UNL     1     100.465 105.385 230.615  1.00  0.00     0.000 C 
BRANCH   2   3
ATOM      3  C   UNL     1     101.456 106.396 231.223  1.00  0.00     0.000 C 
BRANCH   3   4
ATOM      4  C   UNL     1     101.443 106.481 232.761  1.00  0.00    -0.000 C 
BRANCH   4   5
ATOM      5  C   UNL     1     102.761 106.008 233.396  1.00  0.00    -0.000 C 
BRANCH   5   6
ATOM      6  C   UNL     1     103.860 105.720 232.358  1.00  0.00    -0.000 C 
BRANCH   6   7
ATOM      7  C   UNL     1     104.792 106.904 232.036  1.00  0.00    -0.000 C 
BRANCH   7   8
ATOM      8  C   UNL     1     105.364 106.846 230.609  1.00  0.00    -0.000 C 
BRANCH   8   9
ATOM      9  C   UNL     1     104.915 105.593 229.843  1.00  0.00    -0.000 C 
BRANCH   9  10
ATOM     10  C   UNL     1     104.315 105.924 228.465  1.00  0.00    -0.000 C 
BRANCH  10  11
ATOM     11  C   UNL     1     104.758 104.932 227.378  1.00  0.00    -0.003 C 
ATOM     12  C   UNL     1     105.983 104.119 227.790  1.00  0.00     0.004 C 
ENDBRANCH  10  11
ENDBRANCH   9  10
ENDBRANCH   8   9
ENDBRANCH   7   8
ENDBRANCH   6   7
ENDBRANCH   5   6
ENDBRANCH   4   5
ENDBRANCH   3   4
ENDBRANCH   2   3
ENDBRANCH   1   2
BRANCH   1  13
ATOM     13  C   UNL     1     101.594 103.045 230.569  1.00  0.00     0.000 C 
BRANCH  13  14
ATOM     14  C   UNL     1     102.931 102.493 230.056  1.00  0.00     0.000 C 
BRANCH  14  15
ATOM     15  C   UNL     1     103.946 102.357 231.201  1.00  0.00     0.000 C 
BRANCH  15  16
ATOM     16  C   UNL     1     105.193 101.543 230.803  1.00  0.00     0.000 C 
BRANCH  16  17
ATOM     17  C   UNL     1     106.538 102.219 231.124  1.00  0.00     0.000 C 
BRANCH  17  18
ATOM     18  C   UNL     1     106.492 103.068 232.407  1.00  0.00     0.000 C 
BRANCH  18  19
ATOM     19  C   UNL     1     107.450 104.277 232.337  1.00  0.00     0.000 C 
BRANCH  19  20
ATOM     20  C   UNL     1     108.230 104.373 231.015  1.00  0.00     0.006 C 
BRANCH  20  21
ATOM     21  C   UNL     1     109.703 104.744 231.218  1.00  0.00     0.053 C 
BRANCH  21  22
ATOM     22  C   UNL     1     110.586 103.814 230.449  1.00  0.00     0.041 C 
ATOM     23  O   UNL     1     111.822 104.035 230.365  1.00  0.00    -0.550 OA
ATOM     24  O   UNL     1     110.035 102.729 229.780  1.00  0.00    -0.550 OA
ENDBRANCH  21  22
ENDBRANCH  20  21
ENDBRANCH  19  20
ENDBRANCH  18  19
ENDBRANCH  17  18
ENDBRANCH  16  17
ENDBRANCH  15  16
ENDBRANCH  14  15
ENDBRANCH  13  14
ENDBRANCH   1  13
TORSDOF 20
ENDMDL
MODEL 7
REMARK VINA RESULT:    -5.588      1.634      4.820
REMARK INTER + INTRA:         -15.686
REMARK INTER:                 -12.260
REMARK INTRA:                  -3.426
REMARK UNBOUND:                -3.566
REMARK SMILES CCCCCCCCCCCCCCCCCCCCCC(=O)[O-]
REMARK SMILES IDX 12 1 11 2 10 3 9 4 8 5 7 6 6 7 5 8 4 9 3 10 2 11 1 12 13 13
REMARK SMILES IDX 14 14 15 15 16 16 17 17 18 18 19 19 20 20 21 21 22 22 23 23
REMARK SMILES IDX 24 24
REMARK H PARENT
REMARK Flexibility Score: inf
ROOT
ATOM      1  C   UNL     1     106.541 103.154 231.570  1.00  0.00     0.000 C 
ENDROOT
BRANCH   1   2
ATOM      2  C   UNL     1     106.104 101.679 231.460  1.00  0.00     0.000 C 
BRANCH   2   3
ATOM      3  C   UNL     1     104.822 101.434 230.641  1.00  0.00     0.000 C 
BRANCH   3   4
ATOM      4  C   UNL     1     103.944 102.679 230.412  1.00  0.00    -0.000 C 
BRANCH   4   5
ATOM      5  C   UNL     1     102.579 102.584 231.112  1.00  0.00    -0.000 C 
BRANCH   5   6
ATOM      6  C   UNL     1     101.393 102.683 230.136  1.00  0.00    -0.000 C 
BRANCH   6   7
ATOM      7  C   UNL     1     101.509 103.786 229.066  1.00  0.00    -0.000 C 
BRANCH   7   8
ATOM      8  C   UNL     1     100.553 104.966 229.314  1.00  0.00    -0.000 C 
BRANCH   8   9
ATOM      9  C   UNL     1     101.296 106.258 229.685  1.00  0.00    -0.000 C 
BRANCH   9  10
ATOM     10  C   UNL     1     101.820 106.245 231.133  1.00  0.00    -0.000 C 
BRANCH  10  11
ATOM     11  C   UNL     1     100.705 105.990 232.158  1.00  0.00    -0.003 C 
ATOM     12  C   UNL     1     101.001 106.620 233.517  1.00  0.00     0.004 C 
ENDBRANCH  10  11
ENDBRANCH   9  10
ENDBRANCH   8   9
ENDBRANCH   7   8
ENDBRANCH   6   7
ENDBRANCH   5   6
ENDBRANCH   4   5
ENDBRANCH   3   4
ENDBRANCH   2   3
ENDBRANCH   1   2
BRANCH   1  13
ATOM     13  C   UNL     1     106.899 103.621 232.992  1.00  0.00     0.000 C 
BRANCH  13  14
ATOM     14  C   UNL     1     106.540 105.093 233.243  1.00  0.00     0.000 C 
BRANCH  14  15
ATOM     15  C   UNL     1     105.116 105.403 232.760  1.00  0.00     0.000 C 
BRANCH  15  16
ATOM     16  C   UNL     1     105.040 106.677 231.895  1.00  0.00     0.000 C 
BRANCH  16  17
ATOM     17  C   UNL     1     105.754 106.579 230.535  1.00  0.00     0.000 C 
BRANCH  17  18
ATOM     18  C   UNL     1     105.226 107.592 229.505  1.00  0.00     0.000 C 
BRANCH  18  19
ATOM     19  C   UNL     1     104.709 106.902 228.224  1.00  0.00     0.000 C 
BRANCH  19  20
ATOM     20  C   UNL     1     104.758 105.367 228.286  1.00  0.00     0.006 C 
BRANCH  20  21
ATOM     21  C   UNL     1     105.164 104.729 226.952  1.00  0.00     0.053 C 
BRANCH  21  22
ATOM     22  C   UNL     1     106.469 104.013 227.092  1.00  0.00     0.041 C 
ATOM     23  O   UNL     1     106.799 103.503 228.195  1.00  0.00    -0.550 OA
ATOM     24  O   UNL     1     107.346 103.952 226.017  1.00  0.00    -0.550 OA
ENDBRANCH  21  22
ENDBRANCH  20  21
ENDBRANCH  19  20
ENDBRANCH  18  19
ENDBRANCH  17  18
ENDBRANCH  16  17
ENDBRANCH  15  16
ENDBRANCH  14  15
ENDBRANCH  13  14
ENDBRANCH   1  13
TORSDOF 20
ENDMDL
MODEL 8
REMARK VINA RESULT:    -5.555      1.496      2.151
REMARK INTER + INTRA:         -15.617
REMARK INTER:                 -12.244
REMARK INTRA:                  -3.373
REMARK UNBOUND:                -3.566
REMARK SMILES CCCCCCCCCCCCCCCCCCCCCC(=O)[O-]
REMARK SMILES IDX 12 1 11 2 10 3 9 4 8 5 7 6 6 7 5 8 4 9 3 10 2 11 1 12 13 13
REMARK SMILES IDX 14 14 15 15 16 16 17 17 18 18 19 19 20 20 21 21 22 22 23 23
REMARK SMILES IDX 24 24
REMARK H PARENT
REMARK Flexibility Score: inf
ROOT
ATOM      1  C   UNL     1     101.566 103.664 229.231  1.00  0.00     0.000 C 
ENDROOT
BRANCH   1   2
ATOM      2  C   UNL     1     102.393 104.925 228.913  1.00  0.00     0.000 C 
BRANCH   2   3
ATOM      3  C   UNL     1     102.739 105.125 227.424  1.00  0.00     0.000 C 
BRANCH   3   4
ATOM      4  C   UNL     1     104.243 105.213 227.107  1.00  0.00    -0.000 C 
BRANCH   4   5
ATOM      5  C   UNL     1     105.113 105.336 228.369  1.00  0.00    -0.000 C 
BRANCH   5   6
ATOM      6  C   UNL     1     105.289 106.790 228.840  1.00  0.00    -0.000 C 
BRANCH   6   7
ATOM      7  C   UNL     1     105.781 106.961 230.290  1.00  0.00    -0.000 C 
BRANCH   7   8
ATOM      8  C   UNL     1     104.639 107.242 231.282  1.00  0.00    -0.000 C 
BRANCH   8   9
ATOM      9  C   UNL     1     104.595 106.228 232.434  1.00  0.00    -0.000 C 
BRANCH   9  10
ATOM     10  C   UNL     1     103.173 106.014 232.983  1.00  0.00    -0.000 C 
BRANCH  10  11
ATOM     11  C   UNL     1     102.095 106.619 232.069  1.00  0.00    -0.003 C 
ATOM     12  C   UNL     1     100.722 105.984 232.281  1.00  0.00     0.004 C 
ENDBRANCH  10  11
ENDBRANCH   9  10
ENDBRANCH   8   9
ENDBRANCH   7   8
ENDBRANCH   6   7
ENDBRANCH   5   6
ENDBRANCH   4   5
ENDBRANCH   3   4
ENDBRANCH   2   3
ENDBRANCH   1   2
BRANCH   1  13
ATOM     13  C   UNL     1     102.061 102.850 230.439  1.00  0.00     0.000 C 
BRANCH  13  14
ATOM     14  C   UNL     1     103.563 103.033 230.705  1.00  0.00     0.000 C 
BRANCH  14  15
ATOM     15  C   UNL     1     104.341 101.752 230.374  1.00  0.00     0.000 C 
BRANCH  15  16
ATOM     16  C   UNL     1     105.653 101.623 231.173  1.00  0.00     0.000 C 
BRANCH  16  17
ATOM     17  C   UNL     1     106.154 102.931 231.810  1.00  0.00     0.000 C 
BRANCH  17  18
ATOM     18  C   UNL     1     107.266 103.610 230.991  1.00  0.00     0.000 C 
BRANCH  18  19
ATOM     19  C   UNL     1     107.908 102.645 229.971  1.00  0.00     0.000 C 
BRANCH  19  20
ATOM     20  C   UNL     1     109.103 103.248 229.214  1.00  0.00     0.006 C 
BRANCH  20  21
ATOM     21  C   UNL     1     110.454 102.850 229.820  1.00  0.00     0.053 C 
BRANCH  21  22
ATOM     22  C   UNL     1     111.200 104.064 230.273  1.00  0.00     0.041 C 
ATOM     23  O   UNL     1     112.392 104.248 229.912  1.00  0.00    -0.550 OA
ATOM     24  O   UNL     1     110.596 104.968 231.137  1.00  0.00    -0.550 OA
ENDBRANCH  21  22
ENDBRANCH  20  21
ENDBRANCH  19  20
ENDBRANCH  18  19
ENDBRANCH  17  18
ENDBRANCH  16  17
ENDBRANCH  15  16
ENDBRANCH  14  15
ENDBRANCH  13  14
ENDBRANCH   1  13
TORSDOF 20
ENDMDL
MODEL 9
REMARK VINA RESULT:    -5.506      2.468      6.480
REMARK INTER + INTRA:         -15.510
REMARK INTER:                 -12.363
REMARK INTRA:                  -3.146
REMARK UNBOUND:                -3.566
REMARK SMILES CCCCCCCCCCCCCCCCCCCCCC(=O)[O-]
REMARK SMILES IDX 12 1 11 2 10 3 9 4 8 5 7 6 6 7 5 8 4 9 3 10 2 11 1 12 13 13
REMARK SMILES IDX 14 14 15 15 16 16 17 17 18 18 19 19 20 20 21 21 22 22 23 23
REMARK SMILES IDX 24 24
REMARK H PARENT
REMARK Flexibility Score: inf
ROOT
ATOM      1  C   UNL     1     103.051 105.809 232.141  1.00  0.00     0.000 C 
ENDROOT
BRANCH   1   2
ATOM      2  C   UNL     1     103.566 105.881 233.593  1.00  0.00     0.000 C 
BRANCH   2   3
ATOM      3  C   UNL     1     105.097 105.988 233.740  1.00  0.00     0.000 C 
BRANCH   3   4
ATOM      4  C   UNL     1     105.907 105.502 232.524  1.00  0.00    -0.000 C 
BRANCH   4   5
ATOM      5  C   UNL     1     106.899 104.382 232.877  1.00  0.00    -0.000 C 
BRANCH   5   6
ATOM      6  C   UNL     1     106.529 103.029 232.245  1.00  0.00    -0.000 C 
BRANCH   6   7
ATOM      7  C   UNL     1     106.139 103.079 230.755  1.00  0.00    -0.000 C 
BRANCH   7   8
ATOM      8  C   UNL     1     107.329 103.396 229.833  1.00  0.00    -0.000 C 
BRANCH   8   9
ATOM      9  C   UNL     1     108.516 102.445 230.053  1.00  0.00    -0.000 C 
BRANCH   9  10
ATOM     10  C   UNL     1     109.827 102.986 229.455  1.00  0.00    -0.000 C 
BRANCH  10  11
ATOM     11  C   UNL     1     110.524 103.992 230.383  1.00  0.00    -0.003 C 
ATOM     12  C   UNL     1     112.029 104.075 230.135  1.00  0.00     0.004 C 
ENDBRANCH  10  11
ENDBRANCH   9  10
ENDBRANCH   8   9
ENDBRANCH   7   8
ENDBRANCH   6   7
ENDBRANCH   5   6
ENDBRANCH   4   5
ENDBRANCH   3   4
ENDBRANCH   2   3
ENDBRANCH   1   2
BRANCH   1  13
ATOM     13  C   UNL     1     102.205 107.014 231.692  1.00  0.00     0.000 C 
BRANCH  13  14
ATOM     14  C   UNL     1     102.691 107.622 230.368  1.00  0.00     0.000 C 
BRANCH  14  15
ATOM     15  C   UNL     1     104.144 108.106 230.485  1.00  0.00     0.000 C 
BRANCH  15  16
ATOM     16  C   UNL     1     105.032 107.623 229.323  1.00  0.00     0.000 C 
BRANCH  16  17
ATOM     17  C   UNL     1     104.895 106.128 228.980  1.00  0.00     0.000 C 
BRANCH  17  18
ATOM     18  C   UNL     1     104.487 105.882 227.517  1.00  0.00     0.000 C 
BRANCH  18  19
ATOM     19  C   UNL     1     103.095 105.223 227.406  1.00  0.00     0.000 C 
BRANCH  19  20
ATOM     20  C   UNL     1     102.687 104.424 228.655  1.00  0.00     0.006 C 
BRANCH  20  21
ATOM     21  C   UNL     1     101.184 104.128 228.709  1.00  0.00     0.053 C 
BRANCH  21  22
ATOM     22  C   UNL     1     100.827 103.474 230.005  1.00  0.00     0.041 C 
ATOM     23  O   UNL     1      99.936 103.971 230.742  1.00  0.00    -0.550 OA
ATOM     24  O   UNL     1     101.515 102.343 230.424  1.00  0.00    -0.550 OA
ENDBRANCH  21  22
ENDBRANCH  20  21
ENDBRANCH  19  20
ENDBRANCH  18  19
ENDBRANCH  17  18
ENDBRANCH  16  17
ENDBRANCH  15  16
ENDBRANCH  14  15
ENDBRANCH  13  14
ENDBRANCH   1  13
TORSDOF 20
ENDMDL
