MODEL 1
REMARK VINA RESULT:    -6.850      0.000      0.000
REMARK INTER + INTRA:          -8.582
REMARK INTER:                  -8.251
REMARK INTRA:                  -0.331
REMARK UNBOUND:                -0.331
REMARK SMILES O=c1c(O)c(-c2ccc(O)c(O)c2)oc2cc(O)cc(O)c12
REMARK SMILES IDX 5 1 3 2 2 3 1 4 22 5 20 6 19 7 17 8 16 9 15 10 14 11 6 12
REMARK SMILES IDX 7 13 8 14 9 15 13 16 11 17 10 18 12 20 4 22 21 24 18 26
REMARK H PARENT 10 19 12 21 4 23 21 25 18 27
REMARK Flexibility Score: inf
ROOT
ATOM      1  C   UNL     1      19.108  18.064   8.525  1.00  0.00     0.180 A 
ATOM      2  C   UNL     1      18.158  19.010   8.946  1.00  0.00     0.208 A 
ATOM      3  C   UNL     1      17.251  19.528   8.007  1.00  0.00     0.238 A 
ATOM      4  O   UNL     1      16.452  20.429   8.374  1.00  0.00    -0.285 OA
ATOM      5  C   UNL     1      17.269  19.053   6.673  1.00  0.00     0.111 A 
ATOM      6  C   UNL     1      16.367  19.474   5.649  1.00  0.00     0.134 A 
ATOM      7  C   UNL     1      16.547  19.014   4.338  1.00  0.00     0.093 A 
ATOM      8  C   UNL     1      17.553  18.101   4.027  1.00  0.00     0.123 A 
ATOM      9  C   UNL     1      18.405  17.640   5.031  1.00  0.00     0.094 A 
ATOM     10  C   UNL     1      18.276  18.110   6.340  1.00  0.00     0.146 A 
ATOM     11  O   UNL     1      19.121  17.662   7.260  1.00  0.00    -0.452 OA
ENDROOT
BRANCH   1  12
ATOM     12  C   UNL     1      20.105  17.484   9.453  1.00  0.00     0.025 A 
ATOM     13  C   UNL     1      19.846  16.243  10.056  1.00  0.00     0.016 A 
ATOM     14  C   UNL     1      20.782  15.665  10.919  1.00  0.00     0.051 A 
ATOM     15  C   UNL     1      21.995  16.309  11.178  1.00  0.00     0.157 A 
ATOM     16  C   UNL     1      21.335  18.119   9.699  1.00  0.00     0.062 A 
ATOM     17  C   UNL     1      22.277  17.540  10.562  1.00  0.00     0.158 A 
BRANCH  15  18
ATOM     18  O   UNL     1      22.909  15.710  12.045  1.00  0.00    -0.504 OA
ATOM     19  H   UNL     1      23.074  14.711  12.043  1.00  0.00     0.293 HD
ENDBRANCH  15  18
BRANCH  17  20
ATOM     20  O   UNL     1      23.491  18.180  10.805  1.00  0.00    -0.504 OA
ATOM     21  H   UNL     1      24.335  17.928  10.303  1.00  0.00     0.293 HD
ENDBRANCH  17  20
ENDBRANCH   1  12
BRANCH   2  22
ATOM     22  O   UNL     1      18.106  19.409  10.284  1.00  0.00    -0.502 OA
ATOM     23  H   UNL     1      18.939  19.594  10.829  1.00  0.00     0.293 HD
ENDBRANCH   2  22
BRANCH   6  24
ATOM     24  O   UNL     1      15.272  20.316   5.867  1.00  0.00    -0.507 OA
ATOM     25  H   UNL     1      15.167  20.935   6.655  1.00  0.00     0.293 HD
ENDBRANCH   6  24
BRANCH   8  26
ATOM     26  O   UNL     1      17.692  17.652   2.716  1.00  0.00    -0.508 OA
ATOM     27  H   UNL     1      17.280  16.777   2.408  1.00  0.00     0.293 HD
ENDBRANCH   8  26
TORSDOF 6
ENDMDL
MODEL 2
REMARK VINA RESULT:    -6.584      2.186      6.752
REMARK INTER + INTRA:          -8.262
REMARK INTER:                  -7.966
REMARK INTRA:                  -0.296
REMARK UNBOUND:                -0.331
REMARK SMILES O=c1c(O)c(-c2ccc(O)c(O)c2)oc2cc(O)cc(O)c12
REMARK SMILES IDX 5 1 3 2 2 3 1 4 22 5 20 6 19 7 17 8 16 9 15 10 14 11 6 12
REMARK SMILES IDX 7 13 8 14 9 15 13 16 11 17 10 18 12 20 4 22 21 24 18 26
REMARK H PARENT 10 19 12 21 4 23 21 25 18 27
REMARK Flexibility Score: inf
ROOT
ATOM      1  C   UNL     1      18.834  18.038   7.835  1.00  0.00     0.180 A 
ATOM      2  C   UNL     1      19.575  18.063   6.642  1.00  0.00     0.208 A 
ATOM      3  C   UNL     1      20.977  18.049   6.711  1.00  0.00     0.238 A 
ATOM      4  O   UNL     1      21.635  18.147   5.642  1.00  0.00    -0.285 OA
ATOM      5  C   UNL     1      21.621  17.954   7.969  1.00  0.00     0.111 A 
ATOM      6  C   UNL     1      23.035  17.888   8.156  1.00  0.00     0.134 A 
ATOM      7  C   UNL     1      23.562  17.902   9.453  1.00  0.00     0.093 A 
ATOM      8  C   UNL     1      22.728  17.917  10.570  1.00  0.00     0.123 A 
ATOM      9  C   UNL     1      21.343  17.927  10.399  1.00  0.00     0.094 A 
ATOM     10  C   UNL     1      20.787  17.952   9.118  1.00  0.00     0.146 A 
ATOM     11  O   UNL     1      19.466  17.981   9.002  1.00  0.00    -0.452 OA
ENDROOT
BRANCH   1  12
ATOM     12  C   UNL     1      17.354  18.064   7.844  1.00  0.00     0.025 A 
ATOM     13  C   UNL     1      16.644  16.887   8.130  1.00  0.00     0.016 A 
ATOM     14  C   UNL     1      15.247  16.893   8.165  1.00  0.00     0.051 A 
ATOM     15  C   UNL     1      14.539  18.076   7.931  1.00  0.00     0.157 A 
ATOM     16  C   UNL     1      16.640  19.257   7.630  1.00  0.00     0.062 A 
ATOM     17  C   UNL     1      15.238  19.266   7.667  1.00  0.00     0.158 A 
BRANCH  15  18
ATOM     18  O   UNL     1      13.146  18.050   7.970  1.00  0.00    -0.504 OA
ATOM     19  H   UNL     1      12.617  17.219   7.735  1.00  0.00     0.293 HD
ENDBRANCH  15  18
BRANCH  17  20
ATOM     20  O   UNL     1      14.539  20.451   7.447  1.00  0.00    -0.504 OA
ATOM     21  H   UNL     1      13.818  20.519   6.738  1.00  0.00     0.293 HD
ENDBRANCH  17  20
ENDBRANCH   1  12
BRANCH   2  22
ATOM     22  O   UNL     1      18.921  18.079   5.407  1.00  0.00    -0.502 OA
ATOM     23  H   UNL     1      18.740  18.935   4.898  1.00  0.00     0.293 HD
ENDBRANCH   2  22
BRANCH   6  24
ATOM     24  O   UNL     1      23.959  17.780   7.111  1.00  0.00    -0.507 OA
ATOM     25  H   UNL     1      24.696  17.095   7.060  1.00  0.00     0.293 HD
ENDBRANCH   6  24
BRANCH   8  26
ATOM     26  O   UNL     1      23.287  17.915  11.845  1.00  0.00    -0.508 OA
ATOM     27  H   UNL     1      23.088  17.175  12.510  1.00  0.00     0.293 HD
ENDBRANCH   8  26
TORSDOF 6
ENDMDL
MODEL 3
REMARK VINA RESULT:    -6.406      2.455      6.135
REMARK INTER + INTRA:          -8.048
REMARK INTER:                  -7.761
REMARK INTRA:                  -0.286
REMARK UNBOUND:                -0.331
REMARK SMILES O=c1c(O)c(-c2ccc(O)c(O)c2)oc2cc(O)cc(O)c12
REMARK SMILES IDX 5 1 3 2 2 3 1 4 22 5 20 6 19 7 17 8 16 9 15 10 14 11 6 12
REMARK SMILES IDX 7 13 8 14 9 15 13 16 11 17 10 18 12 20 4 22 21 24 18 26
REMARK H PARENT 10 19 12 21 4 23 21 25 18 27
REMARK Flexibility Score: inf
ROOT
ATOM      1  C   UNL     1      18.726  18.148   7.947  1.00  0.00     0.180 A 
ATOM      2  C   UNL     1      19.320  18.449   9.184  1.00  0.00     0.208 A 
ATOM      3  C   UNL     1      20.716  18.355   9.309  1.00  0.00     0.238 A 
ATOM      4  O   UNL     1      21.234  18.554  10.438  1.00  0.00    -0.285 OA
ATOM      5  C   UNL     1      21.504  18.018   8.182  1.00  0.00     0.111 A 
ATOM      6  C   UNL     1      22.930  17.938   8.182  1.00  0.00     0.134 A 
ATOM      7  C   UNL     1      23.597  17.491   7.035  1.00  0.00     0.093 A 
ATOM      8  C   UNL     1      22.898  17.181   5.869  1.00  0.00     0.123 A 
ATOM      9  C   UNL     1      21.509  17.308   5.841  1.00  0.00     0.094 A 
ATOM     10  C   UNL     1      20.811  17.715   6.981  1.00  0.00     0.146 A 
ATOM     11  O   UNL     1      19.489  17.802   6.916  1.00  0.00    -0.452 OA
ENDROOT
BRANCH   1  12
ATOM     12  C   UNL     1      17.261  18.209   7.741  1.00  0.00     0.025 A 
ATOM     13  C   UNL     1      16.455  17.160   8.210  1.00  0.00     0.016 A 
ATOM     14  C   UNL     1      15.067  17.205   8.045  1.00  0.00     0.051 A 
ATOM     15  C   UNL     1      14.465  18.305   7.427  1.00  0.00     0.157 A 
ATOM     16  C   UNL     1      16.651  19.323   7.138  1.00  0.00     0.062 A 
ATOM     17  C   UNL     1      15.258  19.372   6.975  1.00  0.00     0.158 A 
BRANCH  15  18
ATOM     18  O   UNL     1      13.078  18.321   7.275  1.00  0.00    -0.504 OA
ATOM     19  H   UNL     1      12.451  18.247   8.067  1.00  0.00     0.293 HD
ENDBRANCH  15  18
BRANCH  17  20
ATOM     20  O   UNL     1      14.663  20.478   6.371  1.00  0.00    -0.504 OA
ATOM     21  H   UNL     1      14.745  21.408   6.765  1.00  0.00     0.293 HD
ENDBRANCH  17  20
ENDBRANCH   1  12
BRANCH   2  22
ATOM     22  O   UNL     1      18.532  18.855  10.263  1.00  0.00    -0.502 OA
ATOM     23  H   UNL     1      18.334  19.829  10.457  1.00  0.00     0.293 HD
ENDBRANCH   2  22
BRANCH   6  24
ATOM     24  O   UNL     1      23.735  18.308   9.264  1.00  0.00    -0.507 OA
ATOM     25  H   UNL     1      24.364  17.691   9.755  1.00  0.00     0.293 HD
ENDBRANCH   6  24
BRANCH   8  26
ATOM     26  O   UNL     1      23.596  16.755   4.742  1.00  0.00    -0.508 OA
ATOM     27  H   UNL     1      23.378  15.877   4.284  1.00  0.00     0.293 HD
ENDBRANCH   8  26
TORSDOF 6
ENDMDL
MODEL 4
REMARK VINA RESULT:    -6.343      1.426      3.327
REMARK INTER + INTRA:          -7.971
REMARK INTER:                  -7.916
REMARK INTRA:                  -0.055
REMARK UNBOUND:                -0.331
REMARK SMILES O=c1c(O)c(-c2ccc(O)c(O)c2)oc2cc(O)cc(O)c12
REMARK SMILES IDX 5 1 3 2 2 3 1 4 22 5 20 6 19 7 17 8 16 9 15 10 14 11 6 12
REMARK SMILES IDX 7 13 8 14 9 15 13 16 11 17 10 18 12 20 4 22 21 24 18 26
REMARK H PARENT 10 19 12 21 4 23 21 25 18 27
REMARK Flexibility Score: inf
ROOT
ATOM      1  C   UNL     1      20.126  17.972   7.193  1.00  0.00     0.180 A 
ATOM      2  C   UNL     1      20.403  17.489   5.903  1.00  0.00     0.208 A 
ATOM      3  C   UNL     1      19.453  17.677   4.887  1.00  0.00     0.238 A 
ATOM      4  O   UNL     1      19.675  17.178   3.754  1.00  0.00    -0.285 OA
ATOM      5  C   UNL     1      18.262  18.395   5.159  1.00  0.00     0.111 A 
ATOM      6  C   UNL     1      17.250  18.684   4.194  1.00  0.00     0.134 A 
ATOM      7  C   UNL     1      16.065  19.310   4.602  1.00  0.00     0.093 A 
ATOM      8  C   UNL     1      15.882  19.713   5.924  1.00  0.00     0.123 A 
ATOM      9  C   UNL     1      16.887  19.484   6.864  1.00  0.00     0.094 A 
ATOM     10  C   UNL     1      18.064  18.828   6.496  1.00  0.00     0.146 A 
ATOM     11  O   UNL     1      18.986  18.612   7.426  1.00  0.00    -0.452 OA
ENDROOT
BRANCH   1  12
ATOM     12  C   UNL     1      21.071  17.798   8.319  1.00  0.00     0.025 A 
ATOM     13  C   UNL     1      22.376  18.303   8.208  1.00  0.00     0.016 A 
ATOM     14  C   UNL     1      23.280  18.170   9.266  1.00  0.00     0.051 A 
ATOM     15  C   UNL     1      22.889  17.546  10.455  1.00  0.00     0.157 A 
ATOM     16  C   UNL     1      20.674  17.191   9.524  1.00  0.00     0.062 A 
ATOM     17  C   UNL     1      21.579  17.059  10.588  1.00  0.00     0.158 A 
BRANCH  15  18
ATOM     18  O   UNL     1      23.813  17.426  11.492  1.00  0.00    -0.504 OA
ATOM     19  H   UNL     1      24.241  18.235  11.927  1.00  0.00     0.293 HD
ENDBRANCH  15  18
BRANCH  17  20
ATOM     20  O   UNL     1      21.178  16.449  11.775  1.00  0.00    -0.504 OA
ATOM     21  H   UNL     1      20.731  15.539  11.781  1.00  0.00     0.293 HD
ENDBRANCH  17  20
ENDBRANCH   1  12
BRANCH   2  22
ATOM     22  O   UNL     1      21.617  16.851   5.636  1.00  0.00    -0.502 OA
ATOM     23  H   UNL     1      22.493  17.355   5.566  1.00  0.00     0.293 HD
ENDBRANCH   2  22
BRANCH   6  24
ATOM     24  O   UNL     1      17.366  18.405   2.829  1.00  0.00    -0.507 OA
ATOM     25  H   UNL     1      17.323  19.092   2.093  1.00  0.00     0.293 HD
ENDBRANCH   6  24
BRANCH   8  26
ATOM     26  O   UNL     1      14.697  20.347   6.291  1.00  0.00    -0.508 OA
ATOM     27  H   UNL     1      14.632  20.900   7.138  1.00  0.00     0.293 HD
ENDBRANCH   8  26
TORSDOF 6
ENDMDL
MODEL 5
REMARK VINA RESULT:    -6.274      2.878      4.613
REMARK INTER + INTRA:          -7.888
REMARK INTER:                  -7.728
REMARK INTRA:                  -0.160
REMARK UNBOUND:                -0.331
REMARK SMILES O=c1c(O)c(-c2ccc(O)c(O)c2)oc2cc(O)cc(O)c12
REMARK SMILES IDX 5 1 3 2 2 3 1 4 22 5 20 6 19 7 17 8 16 9 15 10 14 11 6 12
REMARK SMILES IDX 7 13 8 14 9 15 13 16 11 17 10 18 12 20 4 22 21 24 18 26
REMARK H PARENT 10 19 12 21 4 23 21 25 18 27
REMARK Flexibility Score: inf
ROOT
ATOM      1  C   UNL     1      21.830  17.001   6.849  1.00  0.00     0.180 A 
ATOM      2  C   UNL     1      22.787  16.456   5.977  1.00  0.00     0.208 A 
ATOM      3  C   UNL     1      22.493  16.380   4.606  1.00  0.00     0.238 A 
ATOM      4  O   UNL     1      23.324  15.823   3.841  1.00  0.00    -0.285 OA
ATOM      5  C   UNL     1      21.271  16.902   4.116  1.00  0.00     0.111 A 
ATOM      6  C   UNL     1      20.889  16.919   2.740  1.00  0.00     0.134 A 
ATOM      7  C   UNL     1      19.609  17.365   2.384  1.00  0.00     0.093 A 
ATOM      8  C   UNL     1      18.723  17.851   3.344  1.00  0.00     0.123 A 
ATOM      9  C   UNL     1      19.107  17.890   4.685  1.00  0.00     0.094 A 
ATOM     10  C   UNL     1      20.362  17.417   5.077  1.00  0.00     0.146 A 
ATOM     11  O   UNL     1      20.679  17.453   6.364  1.00  0.00    -0.452 OA
ENDROOT
BRANCH   1  12
ATOM     12  C   UNL     1      22.060  17.101   8.308  1.00  0.00     0.025 A 
ATOM     13  C   UNL     1      23.062  17.957   8.791  1.00  0.00     0.016 A 
ATOM     14  C   UNL     1      23.284  18.084  10.165  1.00  0.00     0.051 A 
ATOM     15  C   UNL     1      22.498  17.371  11.076  1.00  0.00     0.157 A 
ATOM     16  C   UNL     1      21.257  16.402   9.227  1.00  0.00     0.062 A 
ATOM     17  C   UNL     1      21.476  16.530  10.607  1.00  0.00     0.158 A 
BRANCH  15  18
ATOM     18  O   UNL     1      22.744  17.516  12.441  1.00  0.00    -0.504 OA
ATOM     19  H   UNL     1      23.649  17.313  12.849  1.00  0.00     0.293 HD
ENDBRANCH  15  18
BRANCH  17  20
ATOM     20  O   UNL     1      20.680  15.828  11.510  1.00  0.00    -0.504 OA
ATOM     21  H   UNL     1      21.069  15.121  12.124  1.00  0.00     0.293 HD
ENDBRANCH  17  20
ENDBRANCH   1  12
BRANCH   2  22
ATOM     22  O   UNL     1      24.019  16.017   6.469  1.00  0.00    -0.502 OA
ATOM     23  H   UNL     1      24.398  16.338   7.351  1.00  0.00     0.293 HD
ENDBRANCH   2  22
BRANCH   6  24
ATOM     24  O   UNL     1      21.728  16.539   1.689  1.00  0.00    -0.507 OA
ATOM     25  H   UNL     1      22.593  16.031   1.794  1.00  0.00     0.293 HD
ENDBRANCH   6  24
BRANCH   8  26
ATOM     26  O   UNL     1      17.465  18.301   2.952  1.00  0.00    -0.508 OA
ATOM     27  H   UNL     1      17.352  19.135   2.385  1.00  0.00     0.293 HD
ENDBRANCH   8  26
TORSDOF 6
ENDMDL
MODEL 6
REMARK VINA RESULT:    -6.120      1.643      7.177
REMARK INTER + INTRA:          -7.703
REMARK INTER:                  -7.503
REMARK INTRA:                  -0.200
REMARK UNBOUND:                -0.331
REMARK SMILES O=c1c(O)c(-c2ccc(O)c(O)c2)oc2cc(O)cc(O)c12
REMARK SMILES IDX 5 1 3 2 2 3 1 4 22 5 20 6 19 7 17 8 16 9 15 10 14 11 6 12
REMARK SMILES IDX 7 13 8 14 9 15 13 16 11 17 10 18 12 20 4 22 21 24 18 26
REMARK H PARENT 10 19 12 21 4 23 21 25 18 27
REMARK Flexibility Score: inf
ROOT
ATOM      1  C   UNL     1      18.921  17.425   8.512  1.00  0.00     0.180 A 
ATOM      2  C   UNL     1      18.843  16.023   8.466  1.00  0.00     0.208 A 
ATOM      3  C   UNL     1      19.759  15.266   9.214  1.00  0.00     0.238 A 
ATOM      4  O   UNL     1      19.731  14.012   9.111  1.00  0.00    -0.285 OA
ATOM      5  C   UNL     1      20.706  15.919  10.041  1.00  0.00     0.111 A 
ATOM      6  C   UNL     1      21.653  15.251  10.876  1.00  0.00     0.134 A 
ATOM      7  C   UNL     1      22.611  16.001  11.570  1.00  0.00     0.093 A 
ATOM      8  C   UNL     1      22.618  17.393  11.510  1.00  0.00     0.123 A 
ATOM      9  C   UNL     1      21.663  18.058  10.740  1.00  0.00     0.094 A 
ATOM     10  C   UNL     1      20.718  17.338  10.006  1.00  0.00     0.146 A 
ATOM     11  O   UNL     1      19.841  18.009   9.271  1.00  0.00    -0.452 OA
ENDROOT
BRANCH   1  12
ATOM     12  C   UNL     1      18.001  18.291   7.740  1.00  0.00     0.025 A 
ATOM     13  C   UNL     1      18.086  18.313   6.339  1.00  0.00     0.016 A 
ATOM     14  C   UNL     1      17.214  19.107   5.589  1.00  0.00     0.051 A 
ATOM     15  C   UNL     1      16.234  19.875   6.225  1.00  0.00     0.157 A 
ATOM     16  C   UNL     1      17.000  19.048   8.376  1.00  0.00     0.062 A 
ATOM     17  C   UNL     1      16.122  19.843   7.624  1.00  0.00     0.158 A 
BRANCH  15  18
ATOM     18  O   UNL     1      15.379  20.659   5.450  1.00  0.00    -0.504 OA
ATOM     19  H   UNL     1      14.645  21.222   5.862  1.00  0.00     0.293 HD
ENDBRANCH  15  18
BRANCH  17  20
ATOM     20  O   UNL     1      15.139  20.595   8.263  1.00  0.00    -0.504 OA
ATOM     21  H   UNL     1      14.272  20.841   7.799  1.00  0.00     0.293 HD
ENDBRANCH  17  20
ENDBRANCH   1  12
BRANCH   2  22
ATOM     22  O   UNL     1      17.852  15.397   7.705  1.00  0.00    -0.502 OA
ATOM     23  H   UNL     1      16.922  15.783   7.600  1.00  0.00     0.293 HD
ENDBRANCH   2  22
BRANCH   6  24
ATOM     24  O   UNL     1      21.680  13.868  11.079  1.00  0.00    -0.507 OA
ATOM     25  H   UNL     1      22.418  13.253  10.774  1.00  0.00     0.293 HD
ENDBRANCH   6  24
BRANCH   8  26
ATOM     26  O   UNL     1      23.575  18.107  12.226  1.00  0.00    -0.508 OA
ATOM     27  H   UNL     1      24.072  18.889  11.814  1.00  0.00     0.293 HD
ENDBRANCH   8  26
TORSDOF 6
ENDMDL
MODEL 7
REMARK VINA RESULT:    -6.014      4.559      6.806
REMARK INTER + INTRA:          -7.575
REMARK INTER:                  -7.406
REMARK INTRA:                  -0.169
REMARK UNBOUND:                -0.331
REMARK SMILES O=c1c(O)c(-c2ccc(O)c(O)c2)oc2cc(O)cc(O)c12
REMARK SMILES IDX 5 1 3 2 2 3 1 4 22 5 20 6 19 7 17 8 16 9 15 10 14 11 6 12
REMARK SMILES IDX 7 13 8 14 9 15 13 16 11 17 10 18 12 20 4 22 21 24 18 26
REMARK H PARENT 10 19 12 21 4 23 21 25 18 27
REMARK Flexibility Score: inf
ROOT
ATOM      1  C   UNL     1      20.862  15.327   7.778  1.00  0.00     0.180 A 
ATOM      2  C   UNL     1      20.644  13.998   8.180  1.00  0.00     0.208 A 
ATOM      3  C   UNL     1      21.413  12.977   7.601  1.00  0.00     0.238 A 
ATOM      4  O   UNL     1      21.162  11.783   7.910  1.00  0.00    -0.285 OA
ATOM      5  C   UNL     1      22.429  13.301   6.669  1.00  0.00     0.111 A 
ATOM      6  C   UNL     1      23.300  12.351   6.052  1.00  0.00     0.134 A 
ATOM      7  C   UNL     1      24.198  12.776   5.065  1.00  0.00     0.093 A 
ATOM      8  C   UNL     1      24.302  14.122   4.717  1.00  0.00     0.123 A 
ATOM      9  C   UNL     1      23.495  15.066   5.353  1.00  0.00     0.094 A 
ATOM     10  C   UNL     1      22.562  14.669   6.314  1.00  0.00     0.146 A 
ATOM     11  O   UNL     1      21.800  15.597   6.878  1.00  0.00    -0.452 OA
ENDROOT
BRANCH   1  12
ATOM     12  C   UNL     1      20.081  16.456   8.332  1.00  0.00     0.025 A 
ATOM     13  C   UNL     1      20.747  17.485   9.017  1.00  0.00     0.016 A 
ATOM     14  C   UNL     1      20.034  18.571   9.531  1.00  0.00     0.051 A 
ATOM     15  C   UNL     1      18.649  18.654   9.355  1.00  0.00     0.157 A 
ATOM     16  C   UNL     1      18.692  16.552   8.138  1.00  0.00     0.062 A 
ATOM     17  C   UNL     1      17.974  17.644   8.651  1.00  0.00     0.158 A 
BRANCH  15  18
ATOM     18  O   UNL     1      17.964  19.749   9.880  1.00  0.00    -0.504 OA
ATOM     19  H   UNL     1      18.364  20.680   9.888  1.00  0.00     0.293 HD
ENDBRANCH  15  18
BRANCH  17  20
ATOM     20  O   UNL     1      16.596  17.727   8.459  1.00  0.00    -0.504 OA
ATOM     21  H   UNL     1      16.135  18.615   8.296  1.00  0.00     0.293 HD
ENDBRANCH  17  20
ENDBRANCH   1  12
BRANCH   2  22
ATOM     22  O   UNL     1      19.689  13.706   9.158  1.00  0.00    -0.502 OA
ATOM     23  H   UNL     1      19.323  14.409   9.788  1.00  0.00     0.293 HD
ENDBRANCH   2  22
BRANCH   6  24
ATOM     24  O   UNL     1      23.342  10.994   6.388  1.00  0.00    -0.507 OA
ATOM     25  H   UNL     1      22.534  10.408   6.526  1.00  0.00     0.293 HD
ENDBRANCH   6  24
BRANCH   8  26
ATOM     26  O   UNL     1      25.218  14.510   3.743  1.00  0.00    -0.508 OA
ATOM     27  H   UNL     1      25.657  15.424   3.762  1.00  0.00     0.293 HD
ENDBRANCH   8  26
TORSDOF 6
ENDMDL
MODEL 8
REMARK VINA RESULT:    -5.901      4.772      6.795
REMARK INTER + INTRA:          -7.439
REMARK INTER:                  -7.205
REMARK INTRA:                  -0.234
REMARK UNBOUND:                -0.331
REMARK SMILES O=c1c(O)c(-c2ccc(O)c(O)c2)oc2cc(O)cc(O)c12
REMARK SMILES IDX 5 1 3 2 2 3 1 4 22 5 20 6 19 7 17 8 16 9 15 10 14 11 6 12
REMARK SMILES IDX 7 13 8 14 9 15 13 16 11 17 10 18 12 20 4 22 21 24 18 26
REMARK H PARENT 10 19 12 21 4 23 21 25 18 27
REMARK Flexibility Score: inf
ROOT
ATOM      1  C   UNL     1      21.766  15.986   6.938  1.00  0.00     0.180 A 
ATOM      2  C   UNL     1      22.457  16.452   5.807  1.00  0.00     0.208 A 
ATOM      3  C   UNL     1      23.177  15.535   5.024  1.00  0.00     0.238 A 
ATOM      4  O   UNL     1      23.853  15.969   4.056  1.00  0.00    -0.285 OA
ATOM      5  C   UNL     1      23.151  14.157   5.349  1.00  0.00     0.111 A 
ATOM      6  C   UNL     1      23.807  13.133   4.600  1.00  0.00     0.134 A 
ATOM      7  C   UNL     1      23.800  11.816   5.077  1.00  0.00     0.093 A 
ATOM      8  C   UNL     1      23.110  11.474   6.239  1.00  0.00     0.123 A 
ATOM      9  C   UNL     1      22.420  12.457   6.949  1.00  0.00     0.094 A 
ATOM     10  C   UNL     1      22.440  13.786   6.520  1.00  0.00     0.146 A 
ATOM     11  O   UNL     1      21.787  14.693   7.237  1.00  0.00    -0.452 OA
ENDROOT
BRANCH   1  12
ATOM     12  C   UNL     1      20.998  16.894   7.820  1.00  0.00     0.025 A 
ATOM     13  C   UNL     1      19.770  17.410   7.377  1.00  0.00     0.016 A 
ATOM     14  C   UNL     1      19.017  18.252   8.201  1.00  0.00     0.051 A 
ATOM     15  C   UNL     1      19.470  18.576   9.483  1.00  0.00     0.157 A 
ATOM     16  C   UNL     1      21.441  17.205   9.118  1.00  0.00     0.062 A 
ATOM     17  C   UNL     1      20.685  18.047   9.948  1.00  0.00     0.158 A 
BRANCH  15  18
ATOM     18  O   UNL     1      18.698  19.420  10.281  1.00  0.00    -0.504 OA
ATOM     19  H   UNL     1      19.099  19.952  11.044  1.00  0.00     0.293 HD
ENDBRANCH  15  18
BRANCH  17  20
ATOM     20  O   UNL     1      21.137  18.355  11.230  1.00  0.00    -0.504 OA
ATOM     21  H   UNL     1      22.118  18.295  11.476  1.00  0.00     0.293 HD
ENDBRANCH  17  20
ENDBRANCH   1  12
BRANCH   2  22
ATOM     22  O   UNL     1      22.407  17.804   5.458  1.00  0.00    -0.502 OA
ATOM     23  H   UNL     1      23.201  18.423   5.564  1.00  0.00     0.293 HD
ENDBRANCH   2  22
BRANCH   6  24
ATOM     24  O   UNL     1      24.453  13.348   3.378  1.00  0.00    -0.507 OA
ATOM     25  H   UNL     1      23.987  13.471   2.493  1.00  0.00     0.293 HD
ENDBRANCH   6  24
BRANCH   8  26
ATOM     26  O   UNL     1      23.111  10.151   6.674  1.00  0.00    -0.508 OA
ATOM     27  H   UNL     1      22.914   9.911   7.640  1.00  0.00     0.293 HD
ENDBRANCH   8  26
TORSDOF 6
ENDMDL
MODEL 9
REMARK VINA RESULT:    -5.837      2.078      2.898
REMARK INTER + INTRA:          -7.362
REMARK INTER:                  -7.141
REMARK INTRA:                  -0.222
REMARK UNBOUND:                -0.331
REMARK SMILES O=c1c(O)c(-c2ccc(O)c(O)c2)oc2cc(O)cc(O)c12
REMARK SMILES IDX 5 1 3 2 2 3 1 4 22 5 20 6 19 7 17 8 16 9 15 10 14 11 6 12
REMARK SMILES IDX 7 13 8 14 9 15 13 16 11 17 10 18 12 20 4 22 21 24 18 26
REMARK H PARENT 10 19 12 21 4 23 21 25 18 27
REMARK Flexibility Score: inf
ROOT
ATOM      1  C   UNL     1      18.423  17.750   8.015  1.00  0.00     0.180 A 
ATOM      2  C   UNL     1      17.552  16.694   8.332  1.00  0.00     0.208 A 
ATOM      3  C   UNL     1      16.243  16.717   7.825  1.00  0.00     0.238 A 
ATOM      4  O   UNL     1      15.445  15.807   8.174  1.00  0.00    -0.285 OA
ATOM      5  C   UNL     1      15.839  17.764   6.961  1.00  0.00     0.111 A 
ATOM      6  C   UNL     1      14.550  17.864   6.353  1.00  0.00     0.134 A 
ATOM      7  C   UNL     1      14.228  19.000   5.600  1.00  0.00     0.093 A 
ATOM      8  C   UNL     1      15.165  20.009   5.382  1.00  0.00     0.123 A 
ATOM      9  C   UNL     1      16.444  19.895   5.926  1.00  0.00     0.094 A 
ATOM     10  C   UNL     1      16.784  18.793   6.713  1.00  0.00     0.146 A 
ATOM     11  O   UNL     1      18.005  18.735   7.229  1.00  0.00    -0.452 OA
ENDROOT
BRANCH   1  12
ATOM     12  C   UNL     1      19.812  17.804   8.523  1.00  0.00     0.025 A 
ATOM     13  C   UNL     1      20.882  17.715   7.619  1.00  0.00     0.016 A 
ATOM     14  C   UNL     1      22.202  17.785   8.074  1.00  0.00     0.051 A 
ATOM     15  C   UNL     1      22.472  17.961   9.434  1.00  0.00     0.157 A 
ATOM     16  C   UNL     1      20.087  18.003   9.888  1.00  0.00     0.062 A 
ATOM     17  C   UNL     1      21.411  18.076  10.346  1.00  0.00     0.158 A 
BRANCH  15  18
ATOM     18  O   UNL     1      23.799  18.025   9.858  1.00  0.00    -0.504 OA
ATOM     19  H   UNL     1      24.531  17.481   9.417  1.00  0.00     0.293 HD
ENDBRANCH  15  18
BRANCH  17  20
ATOM     20  O   UNL     1      21.673  18.266  11.702  1.00  0.00    -0.504 OA
ATOM     21  H   UNL     1      21.404  19.118  12.181  1.00  0.00     0.293 HD
ENDBRANCH  17  20
ENDBRANCH   1  12
BRANCH   2  22
ATOM     22  O   UNL     1      17.993  15.631   9.123  1.00  0.00    -0.502 OA
ATOM     23  H   UNL     1      18.963  15.518   9.392  1.00  0.00     0.293 HD
ENDBRANCH   2  22
BRANCH   6  24
ATOM     24  O   UNL     1      13.567  16.872   6.433  1.00  0.00    -0.507 OA
ATOM     25  H   UNL     1      13.709  15.946   6.804  1.00  0.00     0.293 HD
ENDBRANCH   6  24
BRANCH   8  26
ATOM     26  O   UNL     1      14.814  21.117   4.615  1.00  0.00    -0.508 OA
ATOM     27  H   UNL     1      14.769  22.047   5.016  1.00  0.00     0.293 HD
ENDBRANCH   8  26
TORSDOF 6
ENDMDL
