MODEL 1
REMARK VINA RESULT:    13.190      0.000      0.000
REMARK INTER + INTRA:          20.925
REMARK INTER:                  18.588
REMARK INTRA:                   2.337
REMARK UNBOUND:                 2.337
REMARK SMILES CC1=CCCC(C)=CCC(C)(C)C=CC1
REMARK SMILES IDX 2 1 3 2 1 3 4 4 5 5 6 6 7 7 8 8 15 10 14 11 13 12 10 13
REMARK SMILES IDX 11 14 12 15 9 16
REMARK H PARENT
REMARK Flexibility Score: 60.00
ROOT
ATOM      1  C   UNL     1     135.041 140.041 162.733  1.00  0.00    -0.074 C 
ATOM      2  C   UNL     1     135.061 139.401 161.535  1.00  0.00    -0.027 C 
ATOM      3  C   UNL     1     135.030 141.549 162.714  1.00  0.00     0.039 C 
ENDROOT
BRANCH   2   4
ATOM      4  C   UNL     1     134.996 137.907 161.310  1.00  0.00     0.032 C 
BRANCH   4   5
ATOM      5  C   UNL     1     135.108 137.082 162.599  1.00  0.00     0.034 C 
BRANCH   5   6
ATOM      6  C   UNL     1     136.523 136.652 162.941  1.00  0.00    -0.077 C 
ATOM      7  C   UNL     1     137.422 136.177 161.826  1.00  0.00     0.039 C 
ATOM      8  C   UNL     1     137.018 136.631 164.202  1.00  0.00    -0.027 CG0
ATOM      9  G   UNL     1     136.299 137.090 165.451  1.00  0.00     0.000 G0
ENDBRANCH   5   6
ENDBRANCH   4   5
ENDBRANCH   2   4
BRANCH   1  10
ATOM     10  C   UNL     1     135.090 139.333 164.079  1.00  0.00     0.057 C 
BRANCH  10  11
ATOM     11  C   UNL     1     135.918 140.076 165.090  1.00  0.00    -0.026 C 
ATOM     12  C   UNL     1     136.738 139.558 166.035  1.00  0.00    -0.024 C 
BRANCH  12  13
ATOM     13  C   UNL     1     137.096 138.092 166.346  1.00  0.00    -0.014 C 
ATOM     14  C   UNL     1     136.636 137.831 167.803  1.00  0.00     0.016 C 
ATOM     15  C   UNL     1     138.628 137.872 166.335  1.00  0.00     0.016 C 
BRANCH  13  16
ATOM     16  C   UNL     1     136.311 137.069 165.446  1.00  0.00     0.038 CG0
ATOM     17  G   UNL     1     137.015 136.630 164.181  1.00  0.00     0.000 G0
ENDBRANCH  13  16
ENDBRANCH  12  13
ENDBRANCH  10  11
ENDBRANCH   1  10
TORSDOF 0
ENDMDL
MODEL 2
REMARK VINA RESULT:    14.752     12.439     14.022
REMARK INTER + INTRA:          23.126
REMARK INTER:                  22.092
REMARK INTRA:                   1.034
REMARK UNBOUND:                 2.337
REMARK SMILES CC1=CCCC(C)=CCC(C)(C)C=CC1
REMARK SMILES IDX 2 1 3 2 1 3 4 4 5 5 6 6 7 7 8 8 15 10 14 11 13 12 10 13
REMARK SMILES IDX 11 14 12 15 9 16
REMARK H PARENT
REMARK Flexibility Score: 60.00
ROOT
ATOM      1  C   UNL     1     145.184 147.884 164.309  1.00  0.00    -0.074 C 
ATOM      2  C   UNL     1     144.620 149.092 164.047  1.00  0.00    -0.027 C 
ATOM      3  C   UNL     1     145.401 147.519 165.757  1.00  0.00     0.039 C 
ENDROOT
BRANCH   2   4
ATOM      4  C   UNL     1     144.240 149.632 162.686  1.00  0.00     0.032 C 
BRANCH   4   5
ATOM      5  C   UNL     1     145.426 149.773 161.723  1.00  0.00     0.034 C 
BRANCH   5   6
ATOM      6  C   UNL     1     145.075 149.533 160.266  1.00  0.00    -0.077 C 
ATOM      7  C   UNL     1     144.323 150.606 159.518  1.00  0.00     0.039 C 
ATOM      8  C   UNL     1     145.364 148.388 159.603  1.00  0.00    -0.027 CG0
ATOM      9  G   UNL     1     146.132 147.206 160.154  1.00  0.00     0.000 G0
ENDBRANCH   5   6
ENDBRANCH   4   5
ENDBRANCH   2   4
BRANCH   1  10
ATOM     10  C   UNL     1     145.661 146.915 163.237  1.00  0.00     0.057 C 
BRANCH  10  11
ATOM     11  C   UNL     1     144.534 146.124 162.633  1.00  0.00    -0.026 C 
ATOM     12  C   UNL     1     144.421 145.678 161.360  1.00  0.00    -0.024 C 
BRANCH  12  13
ATOM     13  C   UNL     1     145.393 145.806 160.171  1.00  0.00    -0.014 C 
ATOM     14  C   UNL     1     144.521 145.765 158.890  1.00  0.00     0.016 C 
ATOM     15  C   UNL     1     146.339 144.584 160.085  1.00  0.00     0.016 C 
BRANCH  13  16
ATOM     16  C   UNL     1     146.147 147.184 160.147  1.00  0.00     0.038 CG0
ATOM     17  G   UNL     1     145.355 148.360 159.617  1.00  0.00     0.000 G0
ENDBRANCH  13  16
ENDBRANCH  12  13
ENDBRANCH  10  11
ENDBRANCH   1  10
TORSDOF 0
ENDMDL
MODEL 3
REMARK VINA RESULT:    15.044      1.432      4.723
REMARK INTER + INTRA:          23.538
REMARK INTER:                  23.039
REMARK INTRA:                   0.499
REMARK UNBOUND:                 2.337
REMARK SMILES CC1=CCCC(C)=CCC(C)(C)C=CC1
REMARK SMILES IDX 2 1 3 2 1 3 4 4 5 5 6 6 7 7 8 8 15 10 14 11 13 12 10 13
REMARK SMILES IDX 11 14 12 15 9 16
REMARK H PARENT
REMARK Flexibility Score: 60.00
ROOT
ATOM      1  C   UNL     1     137.084 137.421 166.351  1.00  0.00    -0.074 C 
ATOM      2  C   UNL     1     136.251 138.445 166.669  1.00  0.00    -0.027 C 
ATOM      3  C   UNL     1     137.348 136.385 167.416  1.00  0.00     0.039 C 
ENDROOT
BRANCH   2   4
ATOM      4  C   UNL     1     135.784 139.547 165.744  1.00  0.00     0.032 C 
BRANCH   4   5
ATOM      5  C   UNL     1     134.876 139.057 164.608  1.00  0.00     0.034 C 
BRANCH   5   6
ATOM      6  C   UNL     1     135.257 139.585 163.237  1.00  0.00    -0.077 C 
ATOM      7  C   UNL     1     135.360 141.077 163.040  1.00  0.00     0.039 C 
ATOM      8  C   UNL     1     135.475 138.791 162.161  1.00  0.00    -0.027 CG0
ATOM      9  G   UNL     1     135.452 137.278 162.148  1.00  0.00     0.000 G0
ENDBRANCH   5   6
ENDBRANCH   4   5
ENDBRANCH   2   4
BRANCH   1  10
ATOM     10  C   UNL     1     137.808 137.292 165.019  1.00  0.00     0.057 C 
BRANCH  10  11
ATOM     11  C   UNL     1     137.603 135.945 164.382  1.00  0.00    -0.026 C 
ATOM     12  C   UNL     1     137.209 135.677 163.114  1.00  0.00    -0.024 C 
BRANCH  12  13
ATOM     13  C   UNL     1     136.885 136.633 161.951  1.00  0.00    -0.014 C 
ATOM     14  C   UNL     1     136.807 135.756 160.675  1.00  0.00     0.016 C 
ATOM     15  C   UNL     1     138.039 137.637 161.710  1.00  0.00     0.016 C 
BRANCH  13  16
ATOM     16  C   UNL     1     135.479 137.320 162.099  1.00  0.00     0.038 CG0
ATOM     17  G   UNL     1     135.487 138.833 162.147  1.00  0.00     0.000 G0
ENDBRANCH  13  16
ENDBRANCH  12  13
ENDBRANCH  10  11
ENDBRANCH   1  10
TORSDOF 0
ENDMDL
MODEL 4
REMARK VINA RESULT:    15.203     10.300     11.690
REMARK INTER + INTRA:          23.761
REMARK INTER:                  22.874
REMARK INTRA:                   0.888
REMARK UNBOUND:                 2.337
REMARK SMILES CC1=CCCC(C)=CCC(C)(C)C=CC1
REMARK SMILES IDX 2 1 3 2 1 3 4 4 5 5 6 6 7 7 8 8 15 10 14 11 13 12 10 13
REMARK SMILES IDX 11 14 12 15 9 16
REMARK H PARENT
REMARK Flexibility Score: 60.00
ROOT
ATOM      1  C   UNL     1     145.600 143.058 164.437  1.00  0.00    -0.074 C 
ATOM      2  C   UNL     1     146.101 141.822 164.183  1.00  0.00    -0.027 C 
ATOM      3  C   UNL     1     145.341 143.418 165.880  1.00  0.00     0.039 C 
ENDROOT
BRANCH   2   4
ATOM      4  C   UNL     1     146.509 141.275 162.833  1.00  0.00     0.032 C 
BRANCH   4   5
ATOM      5  C   UNL     1     145.344 141.133 161.845  1.00  0.00     0.034 C 
BRANCH   5   6
ATOM      6  C   UNL     1     145.740 141.296 160.389  1.00  0.00    -0.077 C 
ATOM      7  C   UNL     1     146.523 140.191 159.726  1.00  0.00     0.039 C 
ATOM      8  C   UNL     1     145.463 142.401 159.655  1.00  0.00    -0.027 CG0
ATOM      9  G   UNL     1     144.669 143.604 160.115  1.00  0.00     0.000 G0
ENDBRANCH   5   6
ENDBRANCH   4   5
ENDBRANCH   2   4
BRANCH   1  10
ATOM     10  C   UNL     1     145.231 144.068 163.360  1.00  0.00     0.057 C 
BRANCH  10  11
ATOM     11  C   UNL     1     146.434 144.585 162.620  1.00  0.00    -0.026 C 
ATOM     12  C   UNL     1     146.516 144.946 161.318  1.00  0.00    -0.024 C 
BRANCH  12  13
ATOM     13  C   UNL     1     145.432 144.972 160.223  1.00  0.00    -0.014 C 
ATOM     14  C   UNL     1     146.178 145.165 158.877  1.00  0.00     0.016 C 
ATOM     15  C   UNL     1     144.504 146.201 160.379  1.00  0.00     0.016 C 
BRANCH  13  16
ATOM     16  C   UNL     1     144.654 143.612 160.104  1.00  0.00     0.038 CG0
ATOM     17  G   UNL     1     145.474 142.420 159.658  1.00  0.00     0.000 G0
ENDBRANCH  13  16
ENDBRANCH  12  13
ENDBRANCH  10  11
ENDBRANCH   1  10
TORSDOF 0
ENDMDL
MODEL 5
REMARK VINA RESULT:    15.279     11.090     12.929
REMARK INTER + INTRA:          23.868
REMARK INTER:                  23.091
REMARK INTRA:                   0.778
REMARK UNBOUND:                 2.337
REMARK SMILES CC1=CCCC(C)=CCC(C)(C)C=CC1
REMARK SMILES IDX 2 1 3 2 1 3 4 4 5 5 6 6 7 7 8 8 15 10 14 11 13 12 10 13
REMARK SMILES IDX 11 14 12 15 9 16
REMARK H PARENT
REMARK Flexibility Score: 60.00
ROOT
ATOM      1  C   UNL     1     145.546 143.504 165.706  1.00  0.00    -0.074 C 
ATOM      2  C   UNL     1     145.784 144.431 166.670  1.00  0.00    -0.027 C 
ATOM      3  C   UNL     1     146.108 142.120 165.919  1.00  0.00     0.039 C 
ENDROOT
BRANCH   2   4
ATOM      4  C   UNL     1     145.258 145.848 166.707  1.00  0.00     0.032 C 
BRANCH   4   5
ATOM      5  C   UNL     1     146.121 146.849 165.926  1.00  0.00     0.034 C 
BRANCH   5   6
ATOM      6  C   UNL     1     145.375 147.591 164.833  1.00  0.00    -0.077 C 
ATOM      7  C   UNL     1     144.400 148.672 165.229  1.00  0.00     0.039 C 
ATOM      8  C   UNL     1     145.504 147.312 163.513  1.00  0.00    -0.027 CG0
ATOM      9  G   UNL     1     146.441 146.292 162.903  1.00  0.00     0.000 G0
ENDBRANCH   5   6
ENDBRANCH   4   5
ENDBRANCH   2   4
BRANCH   1  10
ATOM     10  C   UNL     1     144.805 143.794 164.408  1.00  0.00     0.057 C 
BRANCH  10  11
ATOM     11  C   UNL     1     145.505 143.224 163.207  1.00  0.00    -0.026 C 
ATOM     12  C   UNL     1     145.926 143.881 162.100  1.00  0.00    -0.024 C 
BRANCH  12  13
ATOM     13  C   UNL     1     145.851 145.379 161.745  1.00  0.00    -0.014 C 
ATOM     14  C   UNL     1     144.344 145.730 161.655  1.00  0.00     0.016 C 
ATOM     15  C   UNL     1     146.440 145.654 160.340  1.00  0.00     0.016 C 
BRANCH  13  16
ATOM     16  C   UNL     1     146.453 146.302 162.866  1.00  0.00     0.038 CG0
ATOM     17  G   UNL     1     145.489 147.280 163.502  1.00  0.00     0.000 G0
ENDBRANCH  13  16
ENDBRANCH  12  13
ENDBRANCH  10  11
ENDBRANCH   1  10
TORSDOF 0
ENDMDL
MODEL 6
REMARK VINA RESULT:    15.491     10.626     12.128
REMARK INTER + INTRA:          24.168
REMARK INTER:                  23.383
REMARK INTRA:                   0.785
REMARK UNBOUND:                 2.337
REMARK SMILES CC1=CCCC(C)=CCC(C)(C)C=CC1
REMARK SMILES IDX 2 1 3 2 1 3 4 4 5 5 6 6 7 7 8 8 15 10 14 11 13 12 10 13
REMARK SMILES IDX 11 14 12 15 9 16
REMARK H PARENT
REMARK Flexibility Score: 60.00
ROOT
ATOM      1  C   UNL     1     145.308 147.575 165.412  1.00  0.00    -0.074 C 
ATOM      2  C   UNL     1     145.016 146.735 166.439  1.00  0.00    -0.027 C 
ATOM      3  C   UNL     1     144.735 148.970 165.473  1.00  0.00     0.039 C 
ENDROOT
BRANCH   2   4
ATOM      4  C   UNL     1     145.540 145.329 166.629  1.00  0.00     0.032 C 
BRANCH   4   5
ATOM      5  C   UNL     1     144.618 144.244 166.056  1.00  0.00     0.034 C 
BRANCH   5   6
ATOM      6  C   UNL     1     145.275 143.360 165.011  1.00  0.00    -0.077 C 
ATOM      7  C   UNL     1     146.117 142.198 165.475  1.00  0.00     0.039 C 
ATOM      8  C   UNL     1     145.180 143.577 163.677  1.00  0.00    -0.027 CG0
ATOM      9  G   UNL     1     144.367 144.661 163.004  1.00  0.00     0.000 G0
ENDBRANCH   5   6
ENDBRANCH   4   5
ENDBRANCH   2   4
BRANCH   1  10
ATOM     10  C   UNL     1     146.119 147.176 164.187  1.00  0.00     0.057 C 
BRANCH  10  11
ATOM     11  C   UNL     1     145.487 147.640 162.904  1.00  0.00    -0.026 C 
ATOM     12  C   UNL     1     145.016 146.880 161.888  1.00  0.00    -0.024 C 
BRANCH  12  13
ATOM     13  C   UNL     1     144.949 145.347 161.741  1.00  0.00    -0.014 C 
ATOM     14  C   UNL     1     146.416 144.856 161.637  1.00  0.00     0.016 C 
ATOM     15  C   UNL     1     144.266 144.939 160.412  1.00  0.00     0.016 C 
BRANCH  13  16
ATOM     16  C   UNL     1     144.335 144.640 163.002  1.00  0.00     0.038 CG0
ATOM     17  G   UNL     1     145.201 143.582 163.651  1.00  0.00     0.000 G0
ENDBRANCH  13  16
ENDBRANCH  12  13
ENDBRANCH  10  11
ENDBRANCH   1  10
TORSDOF 0
ENDMDL
