MODEL 1
REMARK VINA RESULT:    -3.909      0.000      0.000
REMARK INTER + INTRA:          -5.492
REMARK INTER:                  -5.166
REMARK INTRA:                  -0.326
REMARK UNBOUND:                -0.326
REMARK SMILES C=CCC[C@@H](O)CCC
REMARK SMILES IDX 4 1 5 2 7 3 8 4 9 5 6 6 3 8 2 9 1 10
REMARK H PARENT 6 7
REMARK Flexibility Score: inf
ROOT
ATOM      1  C   UNL     1     113.888 120.355 132.753  1.00  0.00     0.036 C 
ENDROOT
BRANCH   1   2
ATOM      2  C   UNL     1     113.604 121.597 131.878  1.00  0.00     0.114 C 
BRANCH   2   3
ATOM      3  C   UNL     1     114.053 121.413 130.411  1.00  0.00     0.031 C 
BRANCH   3   4
ATOM      4  C   UNL     1     114.372 119.945 130.101  1.00  0.00    -0.001 C 
ATOM      5  C   UNL     1     114.295 119.668 128.602  1.00  0.00     0.004 C 
ENDBRANCH   3   4
ENDBRANCH   2   3
BRANCH   2   6
ATOM      6  O   UNL     1     114.151 122.757 132.456  1.00  0.00    -0.393 OA
ATOM      7  H   UNL     1     113.423 123.239 132.929  1.00  0.00     0.210 HD
ENDBRANCH   2   6
ENDBRANCH   1   2
BRANCH   1   8
ATOM      8  C   UNL     1     114.297 120.683 134.200  1.00  0.00     0.029 C 
BRANCH   8   9
ATOM      9  C   UNL     1     115.574 119.981 134.571  1.00  0.00    -0.035 C 
ATOM     10  C   UNL     1     116.743 120.302 134.007  1.00  0.00     0.004 C 
ENDBRANCH   8   9
ENDBRANCH   1   8
TORSDOF 6
ENDMDL
MODEL 2
REMARK VINA RESULT:    -3.824      1.194      4.045
REMARK INTER + INTRA:          -5.379
REMARK INTER:                  -5.004
REMARK INTRA:                  -0.375
REMARK UNBOUND:                -0.326
REMARK SMILES C=CCC[C@@H](O)CCC
REMARK SMILES IDX 4 1 5 2 7 3 8 4 9 5 6 6 3 8 2 9 1 10
REMARK H PARENT 6 7
REMARK Flexibility Score: inf
ROOT
ATOM      1  C   UNL     1     113.716 120.208 132.860  1.00  0.00     0.036 C 
ENDROOT
BRANCH   1   2
ATOM      2  C   UNL     1     114.644 120.773 133.959  1.00  0.00     0.114 C 
BRANCH   2   3
ATOM      3  C   UNL     1     115.713 119.757 134.423  1.00  0.00     0.031 C 
BRANCH   3   4
ATOM      4  C   UNL     1     117.127 120.338 134.304  1.00  0.00    -0.001 C 
ATOM      5  C   UNL     1     117.407 120.823 132.884  1.00  0.00     0.004 C 
ENDBRANCH   3   4
ENDBRANCH   2   3
BRANCH   2   6
ATOM      6  O   UNL     1     113.897 121.282 135.037  1.00  0.00    -0.393 OA
ATOM      7  H   UNL     1     113.885 120.598 135.755  1.00  0.00     0.210 HD
ENDBRANCH   2   6
ENDBRANCH   1   2
BRANCH   1   8
ATOM      8  C   UNL     1     113.867 120.896 131.492  1.00  0.00     0.029 C 
BRANCH   8   9
ATOM      9  C   UNL     1     114.396 119.936 130.462  1.00  0.00    -0.035 C 
ATOM     10  C   UNL     1     114.211 120.136 129.153  1.00  0.00     0.004 C 
ENDBRANCH   8   9
ENDBRANCH   1   8
TORSDOF 6
ENDMDL
MODEL 3
REMARK VINA RESULT:    -3.822      1.672      2.207
REMARK INTER + INTRA:          -5.377
REMARK INTER:                  -5.136
REMARK INTRA:                  -0.241
REMARK UNBOUND:                -0.326
REMARK SMILES C=CCC[C@@H](O)CCC
REMARK SMILES IDX 4 1 5 2 7 3 8 4 9 5 6 6 3 8 2 9 1 10
REMARK H PARENT 6 7
REMARK Flexibility Score: inf
ROOT
ATOM      1  C   UNL     1     114.089 121.423 131.222  1.00  0.00     0.036 C 
ENDROOT
BRANCH   1   2
ATOM      2  C   UNL     1     113.221 122.700 131.173  1.00  0.00     0.114 C 
BRANCH   2   3
ATOM      3  C   UNL     1     112.926 123.171 129.730  1.00  0.00     0.031 C 
BRANCH   3   4
ATOM      4  C   UNL     1     113.846 122.479 128.715  1.00  0.00    -0.001 C 
ATOM      5  C   UNL     1     113.273 122.567 127.303  1.00  0.00     0.004 C 
ENDBRANCH   3   4
ENDBRANCH   2   3
BRANCH   2   6
ATOM      6  O   UNL     1     113.784 123.724 131.957  1.00  0.00    -0.393 OA
ATOM      7  H   UNL     1     114.338 124.297 131.366  1.00  0.00     0.210 HD
ENDBRANCH   2   6
ENDBRANCH   1   2
BRANCH   1   8
ATOM      8  C   UNL     1     113.678 120.422 132.315  1.00  0.00     0.029 C 
BRANCH   8   9
ATOM      9  C   UNL     1     114.680 120.405 133.436  1.00  0.00    -0.035 C 
ATOM     10  C   UNL     1     114.391 120.893 134.647  1.00  0.00     0.004 C 
ENDBRANCH   8   9
ENDBRANCH   1   8
TORSDOF 6
ENDMDL
MODEL 4
REMARK VINA RESULT:    -3.818     16.151     17.685
REMARK INTER + INTRA:          -5.372
REMARK INTER:                  -4.735
REMARK INTRA:                  -0.637
REMARK UNBOUND:                -0.326
REMARK SMILES C=CCC[C@@H](O)CCC
REMARK SMILES IDX 4 1 5 2 7 3 8 4 9 5 6 6 3 8 2 9 1 10
REMARK H PARENT 6 7
REMARK Flexibility Score: inf
ROOT
ATOM      1  C   UNL     1     126.446 120.224 120.317  1.00  0.00     0.036 C 
ENDROOT
BRANCH   1   2
ATOM      2  C   UNL     1     127.521 120.401 119.222  1.00  0.00     0.114 C 
BRANCH   2   3
ATOM      3  C   UNL     1     128.273 121.747 119.331  1.00  0.00     0.031 C 
BRANCH   3   4
ATOM      4  C   UNL     1     127.563 122.710 120.291  1.00  0.00    -0.001 C 
ATOM      5  C   UNL     1     126.998 123.916 119.545  1.00  0.00     0.004 C 
ENDBRANCH   3   4
ENDBRANCH   2   3
BRANCH   2   6
ATOM      6  O   UNL     1     126.974 120.204 117.941  1.00  0.00    -0.393 OA
ATOM      7  H   UNL     1     127.719 120.197 117.285  1.00  0.00     0.210 HD
ENDBRANCH   2   6
ENDBRANCH   1   2
BRANCH   1   8
ATOM      8  C   UNL     1     125.067 119.795 119.784  1.00  0.00     0.029 C 
BRANCH   8   9
ATOM      9  C   UNL     1     124.094 120.941 119.823  1.00  0.00    -0.035 C 
ATOM     10  C   UNL     1     124.019 121.833 118.830  1.00  0.00     0.004 C 
ENDBRANCH   8   9
ENDBRANCH   1   8
TORSDOF 6
ENDMDL
MODEL 5
REMARK VINA RESULT:    -3.817     13.817     14.574
REMARK INTER + INTRA:          -5.370
REMARK INTER:                  -4.812
REMARK INTRA:                  -0.558
REMARK UNBOUND:                -0.326
REMARK SMILES C=CCC[C@@H](O)CCC
REMARK SMILES IDX 4 1 5 2 7 3 8 4 9 5 6 6 3 8 2 9 1 10
REMARK H PARENT 6 7
REMARK Flexibility Score: inf
ROOT
ATOM      1  C   UNL     1     122.341 133.049 129.782  1.00  0.00     0.036 C 
ENDROOT
BRANCH   1   2
ATOM      2  C   UNL     1     121.559 134.190 130.469  1.00  0.00     0.114 C 
BRANCH   2   3
ATOM      3  C   UNL     1     120.718 135.026 129.477  1.00  0.00     0.031 C 
BRANCH   3   4
ATOM      4  C   UNL     1     119.238 135.050 129.878  1.00  0.00    -0.001 C 
ATOM      5  C   UNL     1     118.351 134.540 128.745  1.00  0.00     0.004 C 
ENDBRANCH   3   4
ENDBRANCH   2   3
BRANCH   2   6
ATOM      6  O   UNL     1     122.416 134.995 131.242  1.00  0.00    -0.393 OA
ATOM      7  H   UNL     1     122.159 134.894 132.195  1.00  0.00     0.210 HD
ENDBRANCH   2   6
ENDBRANCH   1   2
BRANCH   1   8
ATOM      8  C   UNL     1     121.665 131.670 129.885  1.00  0.00     0.029 C 
BRANCH   8   9
ATOM      9  C   UNL     1     120.609 131.666 130.955  1.00  0.00    -0.035 C 
ATOM     10  C   UNL     1     119.356 131.272 130.707  1.00  0.00     0.004 C 
ENDBRANCH   8   9
ENDBRANCH   1   8
TORSDOF 6
ENDMDL
MODEL 6
REMARK VINA RESULT:    -3.814      1.390      4.493
REMARK INTER + INTRA:          -5.366
REMARK INTER:                  -5.180
REMARK INTRA:                  -0.186
REMARK UNBOUND:                -0.326
REMARK SMILES C=CCC[C@@H](O)CCC
REMARK SMILES IDX 4 1 5 2 7 3 8 4 9 5 6 6 3 8 2 9 1 10
REMARK H PARENT 6 7
REMARK Flexibility Score: inf
ROOT
ATOM      1  C   UNL     1     114.003 121.183 131.056  1.00  0.00     0.036 C 
ENDROOT
BRANCH   1   2
ATOM      2  C   UNL     1     113.763 120.933 132.562  1.00  0.00     0.114 C 
BRANCH   2   3
ATOM      3  C   UNL     1     115.001 121.257 133.429  1.00  0.00     0.031 C 
BRANCH   3   4
ATOM      4  C   UNL     1     115.101 120.316 134.637  1.00  0.00    -0.001 C 
ATOM      5  C   UNL     1     116.451 119.606 134.672  1.00  0.00     0.004 C 
ENDBRANCH   3   4
ENDBRANCH   2   3
BRANCH   2   6
ATOM      6  O   UNL     1     113.287 119.628 132.787  1.00  0.00    -0.393 OA
ATOM      7  H   UNL     1     112.338 119.691 133.073  1.00  0.00     0.210 HD
ENDBRANCH   2   6
ENDBRANCH   1   2
BRANCH   1   8
ATOM      8  C   UNL     1     114.386 119.923 130.261  1.00  0.00     0.029 C 
BRANCH   8   9
ATOM      9  C   UNL     1     114.067 120.090 128.800  1.00  0.00    -0.035 C 
ATOM     10  C   UNL     1     113.956 121.298 128.238  1.00  0.00     0.004 C 
ENDBRANCH   8   9
ENDBRANCH   1   8
TORSDOF 6
ENDMDL
MODEL 7
REMARK VINA RESULT:    -3.768     14.486     15.412
REMARK INTER + INTRA:          -5.305
REMARK INTER:                  -5.027
REMARK INTRA:                  -0.277
REMARK UNBOUND:                -0.326
REMARK SMILES C=CCC[C@@H](O)CCC
REMARK SMILES IDX 4 1 5 2 7 3 8 4 9 5 6 6 3 8 2 9 1 10
REMARK H PARENT 6 7
REMARK Flexibility Score: inf
ROOT
ATOM      1  C   UNL     1     118.934 134.012 129.485  1.00  0.00     0.036 C 
ENDROOT
BRANCH   1   2
ATOM      2  C   UNL     1     119.882 135.229 129.584  1.00  0.00     0.114 C 
BRANCH   2   3
ATOM      3  C   UNL     1     121.364 134.824 129.749  1.00  0.00     0.031 C 
BRANCH   3   4
ATOM      4  C   UNL     1     121.505 133.532 130.564  1.00  0.00    -0.001 C 
ATOM      5  C   UNL     1     122.373 132.511 129.834  1.00  0.00     0.004 C 
ENDBRANCH   3   4
ENDBRANCH   2   3
BRANCH   2   6
ATOM      6  O   UNL     1     119.461 136.116 130.592  1.00  0.00    -0.393 OA
ATOM      7  H   UNL     1     119.546 135.652 131.466  1.00  0.00     0.210 HD
ENDBRANCH   2   6
ENDBRANCH   1   2
BRANCH   1   8
ATOM      8  C   UNL     1     117.697 134.246 128.601  1.00  0.00     0.029 C 
BRANCH   8   9
ATOM      9  C   UNL     1     118.075 134.924 127.313  1.00  0.00    -0.035 C 
ATOM     10  C   UNL     1     117.616 134.497 126.132  1.00  0.00     0.004 C 
ENDBRANCH   8   9
ENDBRANCH   1   8
TORSDOF 6
ENDMDL
MODEL 8
REMARK VINA RESULT:    -3.750      2.456      3.735
REMARK INTER + INTRA:          -5.282
REMARK INTER:                  -4.735
REMARK INTRA:                  -0.546
REMARK UNBOUND:                -0.326
REMARK SMILES C=CCC[C@@H](O)CCC
REMARK SMILES IDX 4 1 5 2 7 3 8 4 9 5 6 6 3 8 2 9 1 10
REMARK H PARENT 6 7
REMARK Flexibility Score: inf
ROOT
ATOM      1  C   UNL     1     113.654 121.498 131.140  1.00  0.00     0.036 C 
ENDROOT
BRANCH   1   2
ATOM      2  C   UNL     1     113.217 122.935 130.775  1.00  0.00     0.114 C 
BRANCH   2   3
ATOM      3  C   UNL     1     113.822 123.426 129.440  1.00  0.00     0.031 C 
BRANCH   3   4
ATOM      4  C   UNL     1     112.759 123.504 128.337  1.00  0.00    -0.001 C 
ATOM      5  C   UNL     1     113.139 122.636 127.141  1.00  0.00     0.004 C 
ENDBRANCH   3   4
ENDBRANCH   2   3
BRANCH   2   6
ATOM      6  O   UNL     1     113.479 123.825 131.832  1.00  0.00    -0.393 OA
ATOM      7  H   UNL     1     114.130 124.502 131.512  1.00  0.00     0.210 HD
ENDBRANCH   2   6
ENDBRANCH   1   2
BRANCH   1   8
ATOM      8  C   UNL     1     114.792 120.943 130.264  1.00  0.00     0.029 C 
BRANCH   8   9
ATOM      9  C   UNL     1     114.355 119.702 129.536  1.00  0.00    -0.035 C 
ATOM     10  C   UNL     1     114.674 119.488 128.256  1.00  0.00     0.004 C 
ENDBRANCH   8   9
ENDBRANCH   1   8
TORSDOF 6
ENDMDL
MODEL 9
REMARK VINA RESULT:    -3.704      1.200      4.061
REMARK INTER + INTRA:          -5.220
REMARK INTER:                  -4.814
REMARK INTRA:                  -0.407
REMARK UNBOUND:                -0.326
REMARK SMILES C=CCC[C@@H](O)CCC
REMARK SMILES IDX 4 1 5 2 7 3 8 4 9 5 6 6 3 8 2 9 1 10
REMARK H PARENT 6 7
REMARK Flexibility Score: inf
ROOT
ATOM      1  C   UNL     1     113.688 121.711 130.697  1.00  0.00     0.036 C 
ENDROOT
BRANCH   1   2
ATOM      2  C   UNL     1     114.477 122.812 131.441  1.00  0.00     0.114 C 
BRANCH   2   3
ATOM      3  C   UNL     1     115.440 122.243 132.508  1.00  0.00     0.031 C 
BRANCH   3   4
ATOM      4  C   UNL     1     115.046 120.818 132.917  1.00  0.00    -0.001 C 
ATOM      5  C   UNL     1     114.404 120.799 134.302  1.00  0.00     0.004 C 
ENDBRANCH   3   4
ENDBRANCH   2   3
BRANCH   2   6
ATOM      6  O   UNL     1     113.608 123.780 131.978  1.00  0.00    -0.393 OA
ATOM      7  H   UNL     1     114.108 124.634 132.056  1.00  0.00     0.210 HD
ENDBRANCH   2   6
ENDBRANCH   1   2
BRANCH   1   8
ATOM      8  C   UNL     1     114.030 121.593 129.201  1.00  0.00     0.029 C 
BRANCH   8   9
ATOM      9  C   UNL     1     114.050 120.154 128.765  1.00  0.00    -0.035 C 
ATOM     10  C   UNL     1     114.848 119.253 129.347  1.00  0.00     0.004 C 
ENDBRANCH   8   9
ENDBRANCH   1   8
TORSDOF 6
ENDMDL
