MODEL 1
REMARK VINA RESULT:    -4.246      0.000      0.000
REMARK INTER + INTRA:          -6.506
REMARK INTER:                  -5.984
REMARK INTRA:                  -0.522
REMARK UNBOUND:                -0.522
REMARK SMILES CCCCCCCCC(=O)[O-]
REMARK SMILES IDX 6 1 7 2 8 3 9 4 10 5 11 6 5 7 4 8 3 9 2 10 1 11
REMARK H PARENT
REMARK Flexibility Score: inf
ROOT
ATOM      1  C   UNL     1      -5.632  10.465  -8.991  1.00  0.00     0.000 C 
ENDROOT
BRANCH   1   2
ATOM      2  C   UNL     1      -4.096  10.543  -8.988  1.00  0.00     0.006 C 
BRANCH   2   3
ATOM      3  C   UNL     1      -3.587  11.924  -8.556  1.00  0.00     0.053 C 
BRANCH   3   4
ATOM      4  C   UNL     1      -3.406  12.014  -7.073  1.00  0.00     0.041 C 
ATOM      5  O   UNL     1      -2.384  11.520  -6.528  1.00  0.00    -0.550 OA
ATOM      6  O   UNL     1      -4.381  12.616  -6.287  1.00  0.00    -0.550 OA
ENDBRANCH   3   4
ENDBRANCH   2   3
ENDBRANCH   1   2
BRANCH   1   7
ATOM      7  C   UNL     1      -6.177   9.358  -8.071  1.00  0.00     0.000 C 
BRANCH   7   8
ATOM      8  C   UNL     1      -6.474   9.799  -6.624  1.00  0.00    -0.000 C 
BRANCH   8   9
ATOM      9  C   UNL     1      -7.528  10.915  -6.481  1.00  0.00    -0.000 C 
BRANCH   9  10
ATOM     10  C   UNL     1      -8.886  10.454  -5.927  1.00  0.00    -0.003 C 
ATOM     11  C   UNL     1      -8.841   9.046  -5.335  1.00  0.00     0.004 C 
ENDBRANCH   9  10
ENDBRANCH   8   9
ENDBRANCH   7   8
ENDBRANCH   1   7
TORSDOF 7
ENDMDL
MODEL 2
REMARK VINA RESULT:    -4.181     16.847     18.726
REMARK INTER + INTRA:          -6.413
REMARK INTER:                  -5.575
REMARK INTRA:                  -0.838
REMARK UNBOUND:                -0.522
REMARK SMILES CCCCCCCCC(=O)[O-]
REMARK SMILES IDX 6 1 7 2 8 3 9 4 10 5 11 6 5 7 4 8 3 9 2 10 1 11
REMARK H PARENT
REMARK Flexibility Score: inf
ROOT
ATOM      1  C   UNL     1       7.417  11.946   8.098  1.00  0.00     0.000 C 
ENDROOT
BRANCH   1   2
ATOM      2  C   UNL     1       6.192  11.296   8.764  1.00  0.00     0.006 C 
BRANCH   2   3
ATOM      3  C   UNL     1       4.885  11.649   8.042  1.00  0.00     0.053 C 
BRANCH   3   4
ATOM      4  C   UNL     1       4.042  10.438   7.790  1.00  0.00     0.041 C 
ATOM      5  O   UNL     1       4.571   9.370   7.385  1.00  0.00    -0.550 OA
ATOM      6  O   UNL     1       2.666  10.496   7.975  1.00  0.00    -0.550 OA
ENDBRANCH   3   4
ENDBRANCH   2   3
ENDBRANCH   1   2
BRANCH   1   7
ATOM      7  C   UNL     1       8.266  10.941   7.300  1.00  0.00     0.000 C 
BRANCH   7   8
ATOM      8  C   UNL     1       8.219  11.117   5.768  1.00  0.00    -0.000 C 
BRANCH   8   9
ATOM      9  C   UNL     1       7.019  10.450   5.069  1.00  0.00    -0.000 C 
BRANCH   9  10
ATOM     10  C   UNL     1       6.018  11.428   4.430  1.00  0.00    -0.003 C 
ATOM     11  C   UNL     1       6.323  12.889   4.757  1.00  0.00     0.004 C 
ENDBRANCH   9  10
ENDBRANCH   8   9
ENDBRANCH   7   8
ENDBRANCH   1   7
TORSDOF 7
ENDMDL
MODEL 3
REMARK VINA RESULT:    -4.157      2.667      4.932
REMARK INTER + INTRA:          -6.379
REMARK INTER:                  -5.749
REMARK INTRA:                  -0.630
REMARK UNBOUND:                -0.522
REMARK SMILES CCCCCCCCC(=O)[O-]
REMARK SMILES IDX 6 1 7 2 8 3 9 4 10 5 11 6 5 7 4 8 3 9 2 10 1 11
REMARK H PARENT
REMARK Flexibility Score: inf
ROOT
ATOM      1  C   UNL     1      -6.161   9.338  -7.951  1.00  0.00     0.000 C 
ENDROOT
BRANCH   1   2
ATOM      2  C   UNL     1      -6.246  10.065  -6.598  1.00  0.00     0.006 C 
BRANCH   2   3
ATOM      3  C   UNL     1      -7.455  11.007  -6.521  1.00  0.00     0.053 C 
BRANCH   3   4
ATOM      4  C   UNL     1      -8.643  10.340  -5.902  1.00  0.00     0.041 C 
ATOM      5  O   UNL     1      -9.773  10.896  -5.937  1.00  0.00    -0.550 OA
ATOM      6  O   UNL     1      -8.499   9.118  -5.257  1.00  0.00    -0.550 OA
ENDBRANCH   3   4
ENDBRANCH   2   3
ENDBRANCH   1   2
BRANCH   1   7
ATOM      7  C   UNL     1      -5.606  10.230  -9.075  1.00  0.00     0.000 C 
BRANCH   7   8
ATOM      8  C   UNL     1      -4.076  10.424  -9.059  1.00  0.00    -0.000 C 
BRANCH   8   9
ATOM      9  C   UNL     1      -3.601  11.890  -9.087  1.00  0.00    -0.000 C 
BRANCH   9  10
ATOM     10  C   UNL     1      -3.521  12.569  -7.709  1.00  0.00    -0.003 C 
ATOM     11  C   UNL     1      -2.930  11.662  -6.631  1.00  0.00     0.004 C 
ENDBRANCH   9  10
ENDBRANCH   8   9
ENDBRANCH   7   8
ENDBRANCH   1   7
TORSDOF 7
ENDMDL
MODEL 4
REMARK VINA RESULT:    -4.127      3.299      5.743
REMARK INTER + INTRA:          -6.337
REMARK INTER:                  -5.928
REMARK INTRA:                  -0.409
REMARK UNBOUND:                -0.522
REMARK SMILES CCCCCCCCC(=O)[O-]
REMARK SMILES IDX 6 1 7 2 8 3 9 4 10 5 11 6 5 7 4 8 3 9 2 10 1 11
REMARK H PARENT
REMARK Flexibility Score: inf
ROOT
ATOM      1  C   UNL     1      -6.869  10.305  -6.641  1.00  0.00     0.000 C 
ENDROOT
BRANCH   1   2
ATOM      2  C   UNL     1      -8.340   9.984  -6.327  1.00  0.00     0.006 C 
BRANCH   2   3
ATOM      3  C   UNL     1      -8.479   8.852  -5.300  1.00  0.00     0.053 C 
BRANCH   3   4
ATOM      4  C   UNL     1      -9.278   7.706  -5.837  1.00  0.00     0.041 C 
ATOM      5  O   UNL     1     -10.125   7.126  -5.108  1.00  0.00    -0.550 OA
ATOM      6  O   UNL     1      -9.067   7.256  -7.135  1.00  0.00    -0.550 OA
ENDBRANCH   3   4
ENDBRANCH   2   3
ENDBRANCH   1   2
BRANCH   1   7
ATOM      7  C   UNL     1      -6.318   9.490  -7.824  1.00  0.00     0.000 C 
BRANCH   7   8
ATOM      8  C   UNL     1      -5.669  10.325  -8.947  1.00  0.00    -0.000 C 
BRANCH   8   9
ATOM      9  C   UNL     1      -4.145  10.520  -8.820  1.00  0.00    -0.000 C 
BRANCH   9  10
ATOM     10  C   UNL     1      -3.710  11.925  -8.368  1.00  0.00    -0.003 C 
ATOM     11  C   UNL     1      -3.394  11.998  -6.875  1.00  0.00     0.004 C 
ENDBRANCH   9  10
ENDBRANCH   8   9
ENDBRANCH   7   8
ENDBRANCH   1   7
TORSDOF 7
ENDMDL
MODEL 5
REMARK VINA RESULT:    -4.111      1.341      2.033
REMARK INTER + INTRA:          -6.315
REMARK INTER:                  -5.991
REMARK INTRA:                  -0.324
REMARK UNBOUND:                -0.522
REMARK SMILES CCCCCCCCC(=O)[O-]
REMARK SMILES IDX 6 1 7 2 8 3 9 4 10 5 11 6 5 7 4 8 3 9 2 10 1 11
REMARK H PARENT
REMARK Flexibility Score: inf
ROOT
ATOM      1  C   UNL     1      -6.356   9.359  -7.978  1.00  0.00     0.000 C 
ENDROOT
BRANCH   1   2
ATOM      2  C   UNL     1      -5.682  10.444  -8.836  1.00  0.00     0.006 C 
BRANCH   2   3
ATOM      3  C   UNL     1      -4.157  10.451  -8.668  1.00  0.00     0.053 C 
BRANCH   3   4
ATOM      4  C   UNL     1      -3.689  11.633  -7.876  1.00  0.00     0.041 C 
ATOM      5  O   UNL     1      -3.334  12.689  -8.463  1.00  0.00    -0.550 OA
ATOM      6  O   UNL     1      -3.614  11.558  -6.490  1.00  0.00    -0.550 OA
ENDBRANCH   3   4
ENDBRANCH   2   3
ENDBRANCH   1   2
BRANCH   1   7
ATOM      7  C   UNL     1      -6.708   9.850  -6.563  1.00  0.00     0.000 C 
BRANCH   7   8
ATOM      8  C   UNL     1      -8.211   9.829  -6.219  1.00  0.00    -0.000 C 
BRANCH   8   9
ATOM      9  C   UNL     1      -8.664   8.655  -5.330  1.00  0.00    -0.000 C 
BRANCH   9  10
ATOM     10  C   UNL     1      -9.949   7.949  -5.796  1.00  0.00    -0.003 C 
ATOM     11  C   UNL     1      -9.674   6.716  -6.655  1.00  0.00     0.004 C 
ENDBRANCH   9  10
ENDBRANCH   8   9
ENDBRANCH   7   8
ENDBRANCH   1   7
TORSDOF 7
ENDMDL
MODEL 6
REMARK VINA RESULT:    -4.039     16.996     18.792
REMARK INTER + INTRA:          -6.214
REMARK INTER:                  -5.549
REMARK INTRA:                  -0.665
REMARK UNBOUND:                -0.522
REMARK SMILES CCCCCCCCC(=O)[O-]
REMARK SMILES IDX 6 1 7 2 8 3 9 4 10 5 11 6 5 7 4 8 3 9 2 10 1 11
REMARK H PARENT
REMARK Flexibility Score: inf
ROOT
ATOM      1  C   UNL     1       5.648  10.126   6.939  1.00  0.00     0.000 C 
ENDROOT
BRANCH   1   2
ATOM      2  C   UNL     1       5.940  10.876   8.250  1.00  0.00     0.006 C 
BRANCH   2   3
ATOM      3  C   UNL     1       4.933  12.005   8.506  1.00  0.00     0.053 C 
BRANCH   3   4
ATOM      4  C   UNL     1       3.879  11.599   9.490  1.00  0.00     0.041 C 
ATOM      5  O   UNL     1       2.831  12.286   9.615  1.00  0.00    -0.550 OA
ATOM      6  O   UNL     1       4.067  10.480  10.290  1.00  0.00    -0.550 OA
ENDBRANCH   3   4
ENDBRANCH   2   3
ENDBRANCH   1   2
BRANCH   1   7
ATOM      7  C   UNL     1       4.843  10.968   5.934  1.00  0.00     0.000 C 
BRANCH   7   8
ATOM      8  C   UNL     1       5.602  11.354   4.648  1.00  0.00    -0.000 C 
BRANCH   8   9
ATOM      9  C   UNL     1       6.711  12.408   4.832  1.00  0.00    -0.000 C 
BRANCH   9  10
ATOM     10  C   UNL     1       8.134  11.908   4.534  1.00  0.00    -0.003 C 
ATOM     11  C   UNL     1       8.914  11.542   5.796  1.00  0.00     0.004 C 
ENDBRANCH   9  10
ENDBRANCH   8   9
ENDBRANCH   7   8
ENDBRANCH   1   7
TORSDOF 7
ENDMDL
MODEL 7
REMARK VINA RESULT:    -3.935     17.067     18.513
REMARK INTER + INTRA:          -6.067
REMARK INTER:                  -5.626
REMARK INTRA:                  -0.441
REMARK UNBOUND:                -0.522
REMARK SMILES CCCCCCCCC(=O)[O-]
REMARK SMILES IDX 6 1 7 2 8 3 9 4 10 5 11 6 5 7 4 8 3 9 2 10 1 11
REMARK H PARENT
REMARK Flexibility Score: inf
ROOT
ATOM      1  C   UNL     1       4.193   9.417   7.811  1.00  0.00     0.000 C 
ENDROOT
BRANCH   1   2
ATOM      2  C   UNL     1       3.070  10.468   7.801  1.00  0.00     0.006 C 
BRANCH   2   3
ATOM      3  C   UNL     1       3.150  11.411   9.009  1.00  0.00     0.053 C 
BRANCH   3   4
ATOM      4  C   UNL     1       1.961  11.270   9.908  1.00  0.00     0.041 C 
ATOM      5  O   UNL     1       1.843  10.259  10.649  1.00  0.00    -0.550 OA
ATOM      6  O   UNL     1       0.966  12.240   9.904  1.00  0.00    -0.550 OA
ENDBRANCH   3   4
ENDBRANCH   2   3
ENDBRANCH   1   2
BRANCH   1   7
ATOM      7  C   UNL     1       5.535   9.980   8.309  1.00  0.00     0.000 C 
BRANCH   7   8
ATOM      8  C   UNL     1       6.236  10.953   7.338  1.00  0.00    -0.000 C 
BRANCH   8   9
ATOM      9  C   UNL     1       6.332  10.466   5.879  1.00  0.00    -0.000 C 
BRANCH   9  10
ATOM     10  C   UNL     1       5.626  11.366   4.850  1.00  0.00    -0.003 C 
ATOM     11  C   UNL     1       6.272  12.744   4.720  1.00  0.00     0.004 C 
ENDBRANCH   9  10
ENDBRANCH   8   9
ENDBRANCH   7   8
ENDBRANCH   1   7
TORSDOF 7
ENDMDL
MODEL 8
REMARK VINA RESULT:    -3.820     17.176     18.061
REMARK INTER + INTRA:          -5.905
REMARK INTER:                  -5.470
REMARK INTRA:                  -0.435
REMARK UNBOUND:                -0.522
REMARK SMILES CCCCCCCCC(=O)[O-]
REMARK SMILES IDX 6 1 7 2 8 3 9 4 10 5 11 6 5 7 4 8 3 9 2 10 1 11
REMARK H PARENT
REMARK Flexibility Score: inf
ROOT
ATOM      1  C   UNL     1       5.285  11.537   7.288  1.00  0.00     0.000 C 
ENDROOT
BRANCH   1   2
ATOM      2  C   UNL     1       5.353  11.174   5.795  1.00  0.00     0.006 C 
BRANCH   2   3
ATOM      3  C   UNL     1       6.202  12.171   4.995  1.00  0.00     0.053 C 
BRANCH   3   4
ATOM      4  C   UNL     1       7.469  11.549   4.495  1.00  0.00     0.041 C 
ATOM      5  O   UNL     1       7.836  10.424   4.925  1.00  0.00    -0.550 OA
ATOM      6  O   UNL     1       8.261  12.225   3.576  1.00  0.00    -0.550 OA
ENDBRANCH   3   4
ENDBRANCH   2   3
ENDBRANCH   1   2
BRANCH   1   7
ATOM      7  C   UNL     1       5.927  10.469   8.192  1.00  0.00     0.000 C 
BRANCH   7   8
ATOM      8  C   UNL     1       4.941   9.452   8.803  1.00  0.00    -0.000 C 
BRANCH   8   9
ATOM      9  C   UNL     1       3.452   9.832   8.687  1.00  0.00    -0.000 C 
BRANCH   9  10
ATOM     10  C   UNL     1       2.855  10.498   9.940  1.00  0.00    -0.003 C 
ATOM     11  C   UNL     1       1.950  11.683   9.610  1.00  0.00     0.004 C 
ENDBRANCH   9  10
ENDBRANCH   8   9
ENDBRANCH   7   8
ENDBRANCH   1   7
TORSDOF 7
ENDMDL
MODEL 9
REMARK VINA RESULT:    -3.756     16.738     18.095
REMARK INTER + INTRA:          -5.816
REMARK INTER:                  -5.405
REMARK INTRA:                  -0.411
REMARK UNBOUND:                -0.522
REMARK SMILES CCCCCCCCC(=O)[O-]
REMARK SMILES IDX 6 1 7 2 8 3 9 4 10 5 11 6 5 7 4 8 3 9 2 10 1 11
REMARK H PARENT
REMARK Flexibility Score: inf
ROOT
ATOM      1  C   UNL     1       5.534  10.501   8.555  1.00  0.00     0.000 C 
ENDROOT
BRANCH   1   2
ATOM      2  C   UNL     1       6.521  10.554   7.376  1.00  0.00     0.006 C 
BRANCH   2   3
ATOM      3  C   UNL     1       6.215  11.712   6.417  1.00  0.00     0.053 C 
BRANCH   3   4
ATOM      4  C   UNL     1       5.461  11.251   5.208  1.00  0.00     0.041 C 
ATOM      5  O   UNL     1       6.013  11.259   4.076  1.00  0.00    -0.550 OA
ATOM      6  O   UNL     1       4.139  10.842   5.326  1.00  0.00    -0.550 OA
ENDBRANCH   3   4
ENDBRANCH   2   3
ENDBRANCH   1   2
BRANCH   1   7
ATOM      7  C   UNL     1       5.317  11.874   9.215  1.00  0.00     0.000 C 
BRANCH   7   8
ATOM      8  C   UNL     1       3.852  12.354   9.259  1.00  0.00    -0.000 C 
BRANCH   8   9
ATOM      9  C   UNL     1       2.794  11.245   9.094  1.00  0.00    -0.000 C 
BRANCH   9  10
ATOM     10  C   UNL     1       1.539  11.414   9.968  1.00  0.00    -0.003 C 
ATOM     11  C   UNL     1       0.771  12.699   9.665  1.00  0.00     0.004 C 
ENDBRANCH   9  10
ENDBRANCH   8   9
ENDBRANCH   7   8
ENDBRANCH   1   7
TORSDOF 7
ENDMDL
