MODEL 1
REMARK VINA RESULT:    -3.428      0.000      0.000
REMARK INTER + INTRA:          -3.428
REMARK INTER:                  -3.428
REMARK INTRA:                   0.000
REMARK UNBOUND:                 0.000
REMARK SMILES CC1(C)C(=O)[C@]2(C)CC[C@H]1C2
REMARK SMILES IDX 1 1 2 2 10 3 9 4 8 5 6 6 11 7 4 8 5 9 7 10 3 11
REMARK H PARENT
REMARK Flexibility Score: inf
ROOT
ATOM      1  C   UNL     1     135.790 137.527 143.702  1.00  0.00     0.020 C 
ATOM      2  C   UNL     1     134.893 137.007 144.847  1.00  0.00     0.027 C 
ATOM      3  C   UNL     1     134.179 138.137 145.672  1.00  0.00     0.003 C 
ATOM      4  C   UNL     1     133.501 139.169 144.735  1.00  0.00     0.005 C 
ATOM      5  C   UNL     1     132.346 138.360 144.102  1.00  0.00     0.015 C 
ATOM      6  C   UNL     1     132.447 137.005 144.828  1.00  0.00     0.027 C 
ATOM      7  C   UNL     1     132.932 137.429 146.200  1.00  0.00     0.019 C 
ATOM      8  C   UNL     1     133.676 136.304 144.316  1.00  0.00     0.144 C 
ATOM      9  O   UNL     1     133.685 135.365 143.535  1.00  0.00    -0.298 OA
ATOM     10  C   UNL     1     131.168 136.165 144.832  1.00  0.00     0.020 C 
ATOM     11  C   UNL     1     135.723 136.077 145.756  1.00  0.00     0.020 C 
ENDROOT
TORSDOF 0
ENDMDL
MODEL 2
REMARK VINA RESULT:    -3.415     10.011     11.557
REMARK INTER + INTRA:          -3.415
REMARK INTER:                  -3.415
REMARK INTRA:                   0.000
REMARK UNBOUND:                 0.000
REMARK SMILES CC1(C)C(=O)[C@]2(C)CC[C@H]1C2
REMARK SMILES IDX 1 1 2 2 10 3 9 4 8 5 6 6 11 7 4 8 5 9 7 10 3 11
REMARK H PARENT
REMARK Flexibility Score: inf
ROOT
ATOM      1  C   UNL     1     144.014 135.793 143.804  1.00  0.00     0.020 C 
ATOM      2  C   UNL     1     144.522 134.877 144.939  1.00  0.00     0.027 C 
ATOM      3  C   UNL     1     143.385 134.133 145.727  1.00  0.00     0.003 C 
ATOM      4  C   UNL     1     142.378 133.465 144.757  1.00  0.00     0.005 C 
ATOM      5  C   UNL     1     143.211 132.333 144.114  1.00  0.00     0.015 C 
ATOM      6  C   UNL     1     144.551 132.432 144.868  1.00  0.00     0.027 C 
ATOM      7  C   UNL     1     144.096 132.883 146.242  1.00  0.00     0.019 C 
ATOM      8  C   UNL     1     145.248 133.680 144.396  1.00  0.00     0.144 C 
ATOM      9  O   UNL     1     146.201 133.716 143.634  1.00  0.00    -0.298 OA
ATOM     10  C   UNL     1     145.405 131.163 144.861  1.00  0.00     0.020 C 
ATOM     11  C   UNL     1     145.426 135.697 145.884  1.00  0.00     0.020 C 
ENDROOT
TORSDOF 0
ENDMDL
MODEL 3
REMARK VINA RESULT:    -3.415     10.047     11.603
REMARK INTER + INTRA:          -3.415
REMARK INTER:                  -3.415
REMARK INTRA:                   0.000
REMARK UNBOUND:                 0.000
REMARK SMILES CC1(C)C(=O)[C@]2(C)CC[C@H]1C2
REMARK SMILES IDX 1 1 2 2 10 3 9 4 8 5 6 6 11 7 4 8 5 9 7 10 3 11
REMARK H PARENT
REMARK Flexibility Score: inf
ROOT
ATOM      1  C   UNL     1     137.536 145.823 143.707  1.00  0.00     0.020 C 
ATOM      2  C   UNL     1     137.004 146.710 144.854  1.00  0.00     0.027 C 
ATOM      3  C   UNL     1     138.126 147.423 145.693  1.00  0.00     0.003 C 
ATOM      4  C   UNL     1     139.163 148.109 144.768  1.00  0.00     0.005 C 
ATOM      5  C   UNL     1     138.356 149.266 144.136  1.00  0.00     0.015 C 
ATOM      6  C   UNL     1     136.996 149.157 144.851  1.00  0.00     0.027 C 
ATOM      7  C   UNL     1     137.410 148.664 146.223  1.00  0.00     0.019 C 
ATOM      8  C   UNL     1     136.303 147.929 144.326  1.00  0.00     0.144 C 
ATOM      9  O   UNL     1     135.370 147.922 143.537  1.00  0.00    -0.298 OA
ATOM     10  C   UNL     1     136.152 150.433 144.857  1.00  0.00     0.020 C 
ATOM     11  C   UNL     1     136.069 145.872 145.750  1.00  0.00     0.020 C 
ENDROOT
TORSDOF 0
ENDMDL
MODEL 4
REMARK VINA RESULT:    -3.402     14.501     16.440
REMARK INTER + INTRA:          -3.402
REMARK INTER:                  -3.402
REMARK INTRA:                   0.000
REMARK UNBOUND:                 0.000
REMARK SMILES CC1(C)C(=O)[C@]2(C)CC[C@H]1C2
REMARK SMILES IDX 1 1 2 2 10 3 9 4 8 5 6 6 11 7 4 8 5 9 7 10 3 11
REMARK H PARENT
REMARK Flexibility Score: inf
ROOT
ATOM      1  C   UNL     1     145.835 144.036 143.802  1.00  0.00     0.020 C 
ATOM      2  C   UNL     1     146.745 144.584 144.923  1.00  0.00     0.027 C 
ATOM      3  C   UNL     1     147.483 143.475 145.757  1.00  0.00     0.003 C 
ATOM      4  C   UNL     1     148.155 142.433 144.828  1.00  0.00     0.005 C 
ATOM      5  C   UNL     1     149.292 143.240 144.162  1.00  0.00     0.015 C 
ATOM      6  C   UNL     1     149.191 144.607 144.866  1.00  0.00     0.027 C 
ATOM      7  C   UNL     1     148.731 144.203 146.252  1.00  0.00     0.019 C 
ATOM      8  C   UNL     1     147.947 145.288 144.361  1.00  0.00     0.144 C 
ATOM      9  O   UNL     1     147.917 146.213 143.564  1.00  0.00    -0.298 OA
ATOM     10  C   UNL     1     150.462 145.458 144.834  1.00  0.00     0.020 C 
ATOM     11  C   UNL     1     145.922 145.523 145.829  1.00  0.00     0.020 C 
ENDROOT
TORSDOF 0
ENDMDL
MODEL 5
REMARK VINA RESULT:    -3.359     14.038     15.703
REMARK INTER + INTRA:          -3.359
REMARK INTER:                  -3.359
REMARK INTRA:                   0.000
REMARK UNBOUND:                 0.000
REMARK SMILES CC1(C)C(=O)[C@]2(C)CC[C@H]1C2
REMARK SMILES IDX 1 1 2 2 10 3 9 4 8 5 6 6 11 7 4 8 5 9 7 10 3 11
REMARK H PARENT
REMARK Flexibility Score: inf
ROOT
ATOM      1  C   UNL     1     149.073 143.980 146.961  1.00  0.00     0.020 C 
ATOM      2  C   UNL     1     148.758 144.063 145.451  1.00  0.00     0.027 C 
ATOM      3  C   UNL     1     148.446 142.677 144.779  1.00  0.00     0.003 C 
ATOM      4  C   UNL     1     147.418 141.871 145.613  1.00  0.00     0.005 C 
ATOM      5  C   UNL     1     146.116 142.686 145.446  1.00  0.00     0.015 C 
ATOM      6  C   UNL     1     146.537 143.794 144.461  1.00  0.00     0.027 C 
ATOM      7  C   UNL     1     147.554 143.069 143.603  1.00  0.00     0.019 C 
ATOM      8  C   UNL     1     147.442 144.742 145.201  1.00  0.00     0.144 C 
ATOM      9  O   UNL     1     147.131 145.853 145.601  1.00  0.00    -0.298 OA
ATOM     10  C   UNL     1     145.395 144.451 143.684  1.00  0.00     0.020 C 
ATOM     11  C   UNL     1     149.910 144.797 144.734  1.00  0.00     0.020 C 
ENDROOT
TORSDOF 0
ENDMDL
MODEL 6
REMARK VINA RESULT:    -3.348      1.208      3.167
REMARK INTER + INTRA:          -3.348
REMARK INTER:                  -3.348
REMARK INTRA:                   0.000
REMARK UNBOUND:                 0.000
REMARK SMILES CC1(C)C(=O)[C@]2(C)CC[C@H]1C2
REMARK SMILES IDX 1 1 2 2 10 3 9 4 8 5 6 6 11 7 4 8 5 9 7 10 3 11
REMARK H PARENT
REMARK Flexibility Score: inf
ROOT
ATOM      1  C   UNL     1     132.532 137.638 146.939  1.00  0.00     0.020 C 
ATOM      2  C   UNL     1     132.840 137.537 145.428  1.00  0.00     0.027 C 
ATOM      3  C   UNL     1     133.162 138.912 144.741  1.00  0.00     0.003 C 
ATOM      4  C   UNL     1     134.201 139.717 145.563  1.00  0.00     0.005 C 
ATOM      5  C   UNL     1     135.495 138.887 145.398  1.00  0.00     0.015 C 
ATOM      6  C   UNL     1     135.059 137.774 144.426  1.00  0.00     0.027 C 
ATOM      7  C   UNL     1     134.046 138.500 143.565  1.00  0.00     0.019 C 
ATOM      8  C   UNL     1     134.149 136.843 145.180  1.00  0.00     0.144 C 
ATOM      9  O   UNL     1     134.450 135.732 145.590  1.00  0.00    -0.298 OA
ATOM     10  C   UNL     1     136.192 137.098 143.651  1.00  0.00     0.020 C 
ATOM     11  C   UNL     1     131.678 136.807 144.723  1.00  0.00     0.020 C 
ENDROOT
TORSDOF 0
ENDMDL
MODEL 7
REMARK VINA RESULT:    -3.340      9.988     11.612
REMARK INTER + INTRA:          -3.340
REMARK INTER:                  -3.340
REMARK INTRA:                   0.000
REMARK UNBOUND:                 0.000
REMARK SMILES CC1(C)C(=O)[C@]2(C)CC[C@H]1C2
REMARK SMILES IDX 1 1 2 2 10 3 9 4 8 5 6 6 11 7 4 8 5 9 7 10 3 11
REMARK H PARENT
REMARK Flexibility Score: inf
ROOT
ATOM      1  C   UNL     1     137.587 149.065 146.942  1.00  0.00     0.020 C 
ATOM      2  C   UNL     1     137.513 148.747 145.432  1.00  0.00     0.027 C 
ATOM      3  C   UNL     1     138.896 148.388 144.779  1.00  0.00     0.003 C 
ATOM      4  C   UNL     1     139.658 147.338 145.626  1.00  0.00     0.005 C 
ATOM      5  C   UNL     1     138.803 146.062 145.453  1.00  0.00     0.015 C 
ATOM      6  C   UNL     1     137.722 146.515 144.453  1.00  0.00     0.027 C 
ATOM      7  C   UNL     1     138.490 147.505 143.600  1.00  0.00     0.019 C 
ATOM      8  C   UNL     1     136.795 147.452 145.178  1.00  0.00     0.144 C 
ATOM      9  O   UNL     1     135.669 147.179 145.565  1.00  0.00    -0.298 OA
ATOM     10  C   UNL     1     137.039 145.392 143.671  1.00  0.00     0.020 C 
ATOM     11  C   UNL     1     136.825 149.919 144.702  1.00  0.00     0.020 C 
ENDROOT
TORSDOF 0
ENDMDL
MODEL 8
REMARK VINA RESULT:    -3.339      9.299     10.920
REMARK INTER + INTRA:          -3.339
REMARK INTER:                  -3.339
REMARK INTRA:                   0.000
REMARK UNBOUND:                 0.000
REMARK SMILES CC1(C)C(=O)[C@]2(C)CC[C@H]1C2
REMARK SMILES IDX 1 1 2 2 10 3 9 4 8 5 6 6 11 7 4 8 5 9 7 10 3 11
REMARK H PARENT
REMARK Flexibility Score: inf
ROOT
ATOM      1  C   UNL     1     143.928 132.545 146.938  1.00  0.00     0.020 C 
ATOM      2  C   UNL     1     143.993 132.871 145.429  1.00  0.00     0.027 C 
ATOM      3  C   UNL     1     142.600 133.190 144.777  1.00  0.00     0.003 C 
ATOM      4  C   UNL     1     141.807 134.214 145.627  1.00  0.00     0.005 C 
ATOM      5  C   UNL     1     142.624 135.516 145.459  1.00  0.00     0.015 C 
ATOM      6  C   UNL     1     143.718 135.098 144.457  1.00  0.00     0.027 C 
ATOM      7  C   UNL     1     142.980 134.089 143.601  1.00  0.00     0.019 C 
ATOM      8  C   UNL     1     144.673 134.187 145.180  1.00  0.00     0.144 C 
ATOM      9  O   UNL     1     145.790 134.491 145.568  1.00  0.00    -0.298 OA
ATOM     10  C   UNL     1     144.368 136.244 143.680  1.00  0.00     0.020 C 
ATOM     11  C   UNL     1     144.715 131.721 144.695  1.00  0.00     0.020 C 
ENDROOT
TORSDOF 0
ENDMDL
MODEL 9
REMARK VINA RESULT:    -3.295     13.357     15.192
REMARK INTER + INTRA:          -3.295
REMARK INTER:                  -3.295
REMARK INTRA:                   0.000
REMARK UNBOUND:                 0.000
REMARK SMILES CC1(C)C(=O)[C@]2(C)CC[C@H]1C2
REMARK SMILES IDX 1 1 2 2 10 3 9 4 8 5 6 6 11 7 4 8 5 9 7 10 3 11
REMARK H PARENT
REMARK Flexibility Score: inf
ROOT
ATOM      1  C   UNL     1     146.510 145.368 144.000  1.00  0.00     0.020 C 
ATOM      2  C   UNL     1     146.446 143.856 144.312  1.00  0.00     0.027 C 
ATOM      3  C   UNL     1     147.754 143.065 143.947  1.00  0.00     0.003 C 
ATOM      4  C   UNL     1     149.013 143.787 144.490  1.00  0.00     0.005 C 
ATOM      5  C   UNL     1     148.875 143.625 146.021  1.00  0.00     0.015 C 
ATOM      6  C   UNL     1     147.615 142.749 146.154  1.00  0.00     0.027 C 
ATOM      7  C   UNL     1     147.712 141.884 144.914  1.00  0.00     0.019 C 
ATOM      8  C   UNL     1     146.428 143.601 145.792  1.00  0.00     0.144 C 
ATOM      9  O   UNL     1     145.624 144.072 146.581  1.00  0.00    -0.298 OA
ATOM     10  C   UNL     1     147.489 141.975 147.467  1.00  0.00     0.020 C 
ATOM     11  C   UNL     1     145.205 143.250 143.625  1.00  0.00     0.020 C 
ENDROOT
TORSDOF 0
ENDMDL
