MODEL 1
REMARK VINA RESULT:    -3.800      0.000      0.000
REMARK INTER + INTRA:          -5.152
REMARK INTER:                  -4.688
REMARK INTRA:                  -0.463
REMARK UNBOUND:                -0.463
REMARK SMILES CCCCC=CC(C)=O
REMARK SMILES IDX 4 1 3 2 2 3 1 4 5 5 6 6 7 7 9 8 8 9
REMARK H PARENT
REMARK Flexibility Score: inf
ROOT
ATOM      1  C   UNL     1      15.106   2.751   2.656  1.00  0.00     0.027 C 
ENDROOT
BRANCH   1   2
ATOM      2  C   UNL     1      13.776   2.722   1.876  1.00  0.00     0.004 C 
BRANCH   2   3
ATOM      3  C   UNL     1      12.555   3.137   2.715  1.00  0.00    -0.003 C 
ATOM      4  C   UNL     1      12.048   4.540   2.385  1.00  0.00     0.004 C 
ENDBRANCH   2   3
ENDBRANCH   1   2
BRANCH   1   5
ATOM      5  C   UNL     1      16.115   3.698   2.060  1.00  0.00    -0.023 C 
ATOM      6  C   UNL     1      16.342   4.960   2.458  1.00  0.00     0.042 C 
BRANCH   6   7
ATOM      7  C   UNL     1      15.683   5.658   3.586  1.00  0.00     0.152 C 
ATOM      8  O   UNL     1      15.874   5.313   4.781  1.00  0.00    -0.295 OA
ATOM      9  C   UNL     1      14.823   6.848   3.304  1.00  0.00     0.093 C 
ENDBRANCH   6   7
ENDBRANCH   1   5
TORSDOF 4
ENDMDL
MODEL 2
REMARK VINA RESULT:    -3.704      2.018      4.069
REMARK INTER + INTRA:          -5.033
REMARK INTER:                  -4.770
REMARK INTRA:                  -0.264
REMARK UNBOUND:                -0.463
REMARK SMILES CCCCC=CC(C)=O
REMARK SMILES IDX 4 1 3 2 2 3 1 4 5 5 6 6 7 7 9 8 8 9
REMARK H PARENT
REMARK Flexibility Score: inf
ROOT
ATOM      1  C   UNL     1      15.116   3.245   2.645  1.00  0.00     0.027 C 
ENDROOT
BRANCH   1   2
ATOM      2  C   UNL     1      16.233   4.301   2.527  1.00  0.00     0.004 C 
BRANCH   2   3
ATOM      3  C   UNL     1      16.068   5.489   3.490  1.00  0.00    -0.003 C 
ATOM      4  C   UNL     1      15.688   6.788   2.781  1.00  0.00     0.004 C 
ENDBRANCH   2   3
ENDBRANCH   1   2
BRANCH   1   5
ATOM      5  C   UNL     1      14.175   3.512   3.791  1.00  0.00    -0.023 C 
ATOM      6  C   UNL     1      12.840   3.633   3.702  1.00  0.00     0.042 C 
BRANCH   6   7
ATOM      7  C   UNL     1      12.023   3.485   2.476  1.00  0.00     0.152 C 
ATOM      8  O   UNL     1      11.518   4.480   1.893  1.00  0.00    -0.295 OA
ATOM      9  C   UNL     1      11.849   2.127   1.875  1.00  0.00     0.093 C 
ENDBRANCH   6   7
ENDBRANCH   1   5
TORSDOF 4
ENDMDL
MODEL 3
REMARK VINA RESULT:    -3.304     17.870     19.023
REMARK INTER + INTRA:          -4.540
REMARK INTER:                  -3.957
REMARK INTRA:                  -0.582
REMARK UNBOUND:                -0.463
REMARK SMILES CCCCC=CC(C)=O
REMARK SMILES IDX 4 1 3 2 2 3 1 4 5 5 6 6 7 7 9 8 8 9
REMARK H PARENT
REMARK Flexibility Score: inf
ROOT
ATOM      1  C   UNL     1      24.884 -12.529   7.138  1.00  0.00     0.027 C 
ENDROOT
BRANCH   1   2
ATOM      2  C   UNL     1      23.435 -12.302   7.613  1.00  0.00     0.004 C 
BRANCH   2   3
ATOM      3  C   UNL     1      22.674 -11.241   6.800  1.00  0.00    -0.003 C 
ATOM      4  C   UNL     1      23.305 -10.963   5.436  1.00  0.00     0.004 C 
ENDBRANCH   2   3
ENDBRANCH   1   2
BRANCH   1   5
ATOM      5  C   UNL     1      25.906 -12.188   8.191  1.00  0.00    -0.023 C 
ATOM      6  C   UNL     1      26.419 -10.968   8.425  1.00  0.00     0.042 C 
BRANCH   6   7
ATOM      7  C   UNL     1      26.054  -9.712   7.731  1.00  0.00     0.152 C 
ATOM      8  O   UNL     1      25.238  -8.893   8.229  1.00  0.00    -0.295 OA
ATOM      9  C   UNL     1      26.722  -9.374   6.437  1.00  0.00     0.093 C 
ENDBRANCH   6   7
ENDBRANCH   1   5
TORSDOF 4
ENDMDL
MODEL 4
REMARK VINA RESULT:    -3.180     17.886     19.193
REMARK INTER + INTRA:          -4.387
REMARK INTER:                  -3.936
REMARK INTRA:                  -0.451
REMARK UNBOUND:                -0.463
REMARK SMILES CCCCC=CC(C)=O
REMARK SMILES IDX 4 1 3 2 2 3 1 4 5 5 6 6 7 7 9 8 8 9
REMARK H PARENT
REMARK Flexibility Score: inf
ROOT
ATOM      1  C   UNL     1      24.690  -9.561   6.632  1.00  0.00     0.027 C 
ENDROOT
BRANCH   1   2
ATOM      2  C   UNL     1      26.222  -9.513   6.468  1.00  0.00     0.004 C 
BRANCH   2   3
ATOM      3  C   UNL     1      26.993 -10.049   7.688  1.00  0.00    -0.003 C 
ATOM      4  C   UNL     1      26.373  -9.631   9.020  1.00  0.00     0.004 C 
ENDBRANCH   2   3
ENDBRANCH   1   2
BRANCH   1   5
ATOM      5  C   UNL     1      24.027 -10.507   5.666  1.00  0.00    -0.023 C 
ATOM      6  C   UNL     1      23.446 -11.676   5.982  1.00  0.00     0.042 C 
BRANCH   6   7
ATOM      7  C   UNL     1      23.301 -12.247   7.340  1.00  0.00     0.152 C 
ATOM      8  O   UNL     1      22.192 -12.261   7.938  1.00  0.00    -0.295 OA
ATOM      9  C   UNL     1      24.484 -12.887   7.993  1.00  0.00     0.093 C 
ENDBRANCH   6   7
ENDBRANCH   1   5
TORSDOF 4
ENDMDL
MODEL 5
REMARK VINA RESULT:    -3.177     17.812     18.916
REMARK INTER + INTRA:          -4.383
REMARK INTER:                  -4.014
REMARK INTRA:                  -0.369
REMARK UNBOUND:                -0.463
REMARK SMILES CCCCC=CC(C)=O
REMARK SMILES IDX 4 1 3 2 2 3 1 4 5 5 6 6 7 7 9 8 8 9
REMARK H PARENT
REMARK Flexibility Score: inf
ROOT
ATOM      1  C   UNL     1      24.491  -9.634   6.586  1.00  0.00     0.027 C 
ENDROOT
BRANCH   1   2
ATOM      2  C   UNL     1      23.649 -10.801   6.032  1.00  0.00     0.004 C 
BRANCH   2   3
ATOM      3  C   UNL     1      23.193 -11.803   7.107  1.00  0.00    -0.003 C 
ATOM      4  C   UNL     1      21.719 -11.654   7.479  1.00  0.00     0.004 C 
ENDBRANCH   2   3
ENDBRANCH   1   2
BRANCH   1   5
ATOM      5  C   UNL     1      25.956  -9.761   6.260  1.00  0.00    -0.023 C 
ATOM      6  C   UNL     1      26.938 -10.030   7.136  1.00  0.00     0.042 C 
BRANCH   6   7
ATOM      7  C   UNL     1      26.776 -10.298   8.583  1.00  0.00     0.152 C 
ATOM      8  O   UNL     1      26.681  -9.365   9.423  1.00  0.00    -0.295 OA
ATOM      9  C   UNL     1      26.653 -11.712   9.054  1.00  0.00     0.093 C 
ENDBRANCH   6   7
ENDBRANCH   1   5
TORSDOF 4
ENDMDL
MODEL 6
REMARK VINA RESULT:    -3.144     17.809     18.668
REMARK INTER + INTRA:          -4.342
REMARK INTER:                  -3.830
REMARK INTRA:                  -0.512
REMARK UNBOUND:                -0.463
REMARK SMILES CCCCC=CC(C)=O
REMARK SMILES IDX 4 1 3 2 2 3 1 4 5 5 6 6 7 7 9 8 8 9
REMARK H PARENT
REMARK Flexibility Score: inf
ROOT
ATOM      1  C   UNL     1      22.891 -11.251   6.839  1.00  0.00     0.027 C 
ENDROOT
BRANCH   1   2
ATOM      2  C   UNL     1      22.962 -11.077   5.308  1.00  0.00     0.004 C 
BRANCH   2   3
ATOM      3  C   UNL     1      23.576 -12.281   4.574  1.00  0.00    -0.003 C 
ATOM      4  C   UNL     1      24.718 -11.894   3.636  1.00  0.00     0.004 C 
ENDBRANCH   2   3
ENDBRANCH   1   2
BRANCH   1   5
ATOM      5  C   UNL     1      24.114 -11.922   7.409  1.00  0.00    -0.023 C 
ATOM      6  C   UNL     1      25.291 -11.327   7.665  1.00  0.00     0.042 C 
BRANCH   6   7
ATOM      7  C   UNL     1      25.611  -9.893   7.480  1.00  0.00     0.152 C 
ATOM      8  O   UNL     1      25.284  -9.027   8.333  1.00  0.00    -0.295 OA
ATOM      9  C   UNL     1      26.403  -9.471   6.285  1.00  0.00     0.093 C 
ENDBRANCH   6   7
ENDBRANCH   1   5
TORSDOF 4
ENDMDL
MODEL 7
REMARK VINA RESULT:    -3.134     18.018     19.572
REMARK INTER + INTRA:          -4.330
REMARK INTER:                  -3.812
REMARK INTRA:                  -0.518
REMARK UNBOUND:                -0.463
REMARK SMILES CCCCC=CC(C)=O
REMARK SMILES IDX 4 1 3 2 2 3 1 4 5 5 6 6 7 7 9 8 8 9
REMARK H PARENT
REMARK Flexibility Score: inf
ROOT
ATOM      1  C   UNL     1      26.370 -11.762   7.645  1.00  0.00     0.027 C 
ENDROOT
BRANCH   1   2
ATOM      2  C   UNL     1      26.748 -10.683   8.680  1.00  0.00     0.004 C 
BRANCH   2   3
ATOM      3  C   UNL     1      25.973  -9.364   8.512  1.00  0.00    -0.003 C 
ATOM      4  C   UNL     1      25.707  -9.006   7.051  1.00  0.00     0.004 C 
ENDBRANCH   2   3
ENDBRANCH   1   2
BRANCH   1   5
ATOM      5  C   UNL     1      25.337 -12.730   8.158  1.00  0.00    -0.023 C 
ATOM      6  C   UNL     1      24.043 -12.764   7.798  1.00  0.00     0.042 C 
BRANCH   6   7
ATOM      7  C   UNL     1      23.384 -11.893   6.799  1.00  0.00     0.152 C 
ATOM      8  O   UNL     1      22.757 -10.854   7.136  1.00  0.00    -0.295 OA
ATOM      9  C   UNL     1      23.525 -12.213   5.345  1.00  0.00     0.093 C 
ENDBRANCH   6   7
ENDBRANCH   1   5
TORSDOF 4
ENDMDL
MODEL 8
REMARK VINA RESULT:    -3.091     17.837     19.377
REMARK INTER + INTRA:          -4.277
REMARK INTER:                  -3.663
REMARK INTRA:                  -0.614
REMARK UNBOUND:                -0.463
REMARK SMILES CCCCC=CC(C)=O
REMARK SMILES IDX 4 1 3 2 2 3 1 4 5 5 6 6 7 7 9 8 8 9
REMARK H PARENT
REMARK Flexibility Score: inf
ROOT
ATOM      1  C   UNL     1      25.966 -10.272   8.007  1.00  0.00     0.027 C 
ENDROOT
BRANCH   1   2
ATOM      2  C   UNL     1      27.000 -11.170   7.298  1.00  0.00     0.004 C 
BRANCH   2   3
ATOM      3  C   UNL     1      26.706 -12.674   7.424  1.00  0.00    -0.003 C 
ATOM      4  C   UNL     1      25.617 -12.989   8.449  1.00  0.00     0.004 C 
ENDBRANCH   2   3
ENDBRANCH   1   2
BRANCH   1   5
ATOM      5  C   UNL     1      25.234  -9.359   7.058  1.00  0.00    -0.023 C 
ATOM      6  C   UNL     1      24.115  -9.661   6.381  1.00  0.00     0.042 C 
BRANCH   6   7
ATOM      7  C   UNL     1      23.353 -10.928   6.461  1.00  0.00     0.152 C 
ATOM      8  O   UNL     1      22.541 -11.155   7.398  1.00  0.00    -0.295 OA
ATOM      9  C   UNL     1      23.497 -11.937   5.367  1.00  0.00     0.093 C 
ENDBRANCH   6   7
ENDBRANCH   1   5
TORSDOF 4
ENDMDL
