MODEL 1
REMARK VINA RESULT:    -8.482      0.000      0.000
REMARK INTER + INTRA:          -9.896
REMARK INTER:                 -10.218
REMARK INTRA:                   0.322
REMARK UNBOUND:                 0.322
REMARK SMILES O=c1c(O)c(-c2ccc(O)c(O)c2)oc2cc(O)cc(O)c12
REMARK SMILES IDX 5 1 3 2 2 3 1 4 22 5 20 6 19 7 17 8 16 9 15 10 14 11 6 12
REMARK SMILES IDX 7 13 8 14 9 15 13 16 11 17 10 18 12 20 4 22 21 24 18 26
REMARK H PARENT 10 19 12 21 4 23 21 25 18 27
REMARK Flexibility Score: inf
ROOT
ATOM      1  C   UNL     1       1.026  14.609   3.260  1.00  0.00     0.180 A 
ATOM      2  C   UNL     1       1.138  14.122   1.946  1.00  0.00     0.208 A 
ATOM      3  C   UNL     1       2.382  14.194   1.297  1.00  0.00     0.238 A 
ATOM      4  O   UNL     1       2.490  13.707   0.142  1.00  0.00    -0.285 OA
ATOM      5  C   UNL     1       3.492  14.766   1.963  1.00  0.00     0.111 A 
ATOM      6  C   UNL     1       4.787  14.927   1.387  1.00  0.00     0.134 A 
ATOM      7  C   UNL     1       5.845  15.387   2.182  1.00  0.00     0.093 A 
ATOM      8  C   UNL     1       5.637  15.754   3.514  1.00  0.00     0.123 A 
ATOM      9  C   UNL     1       4.363  15.656   4.069  1.00  0.00     0.094 A 
ATOM     10  C   UNL     1       3.297  15.166   3.311  1.00  0.00     0.146 A 
ATOM     11  O   UNL     1       2.100  15.080   3.882  1.00  0.00    -0.452 OA
ENDROOT
BRANCH   1  12
ATOM     12  C   UNL     1      -0.256  14.590   4.000  1.00  0.00     0.025 A 
ATOM     13  C   UNL     1      -1.490  14.549   3.327  1.00  0.00     0.016 A 
ATOM     14  C   UNL     1      -2.688  14.556   4.046  1.00  0.00     0.051 A 
ATOM     15  C   UNL     1      -2.675  14.618   5.443  1.00  0.00     0.157 A 
ATOM     16  C   UNL     1      -0.247  14.673   5.402  1.00  0.00     0.062 A 
ATOM     17  C   UNL     1      -1.449  14.680   6.126  1.00  0.00     0.158 A 
BRANCH  15  18
ATOM     18  O   UNL     1      -3.887  14.622   6.133  1.00  0.00    -0.504 OA
ATOM     19  H   UNL     1      -4.217  15.437   6.634  1.00  0.00     0.293 HD
ENDBRANCH  15  18
BRANCH  17  20
ATOM     20  O   UNL     1      -1.428  14.750   7.518  1.00  0.00    -0.504 OA
ATOM     21  H   UNL     1      -1.520  13.920   8.092  1.00  0.00     0.293 HD
ENDBRANCH  17  20
ENDBRANCH   1  12
BRANCH   2  22
ATOM     22  O   UNL     1       0.036  13.540   1.316  1.00  0.00    -0.502 OA
ATOM     23  H   UNL     1      -0.258  12.588   1.500  1.00  0.00     0.293 HD
ENDBRANCH   2  22
BRANCH   6  24
ATOM     24  O   UNL     1       5.080  14.678   0.044  1.00  0.00    -0.507 OA
ATOM     25  H   UNL     1       4.477  14.182  -0.594  1.00  0.00     0.293 HD
ENDBRANCH   6  24
BRANCH   8  26
ATOM     26  O   UNL     1       6.691  16.225   4.294  1.00  0.00    -0.508 OA
ATOM     27  H   UNL     1       7.613  16.378   3.902  1.00  0.00     0.293 HD
ENDBRANCH   8  26
TORSDOF 6
ENDMDL
MODEL 2
REMARK VINA RESULT:    -8.460      1.823      3.886
REMARK INTER + INTRA:          -9.869
REMARK INTER:                 -10.345
REMARK INTRA:                   0.477
REMARK UNBOUND:                 0.322
REMARK SMILES O=c1c(O)c(-c2ccc(O)c(O)c2)oc2cc(O)cc(O)c12
REMARK SMILES IDX 5 1 3 2 2 3 1 4 22 5 20 6 19 7 17 8 16 9 15 10 14 11 6 12
REMARK SMILES IDX 7 13 8 14 9 15 13 16 11 17 10 18 12 20 4 22 21 24 18 26
REMARK H PARENT 10 19 12 21 4 23 21 25 18 27
REMARK Flexibility Score: inf
ROOT
ATOM      1  C   UNL     1       3.446  14.620   2.715  1.00  0.00     0.180 A 
ATOM      2  C   UNL     1       3.976  15.376   3.776  1.00  0.00     0.208 A 
ATOM      3  C   UNL     1       5.368  15.534   3.870  1.00  0.00     0.238 A 
ATOM      4  O   UNL     1       5.833  16.257   4.790  1.00  0.00    -0.285 OA
ATOM      5  C   UNL     1       6.213  14.923   2.914  1.00  0.00     0.111 A 
ATOM      6  C   UNL     1       7.638  14.984   2.936  1.00  0.00     0.134 A 
ATOM      7  C   UNL     1       8.370  14.452   1.866  1.00  0.00     0.093 A 
ATOM      8  C   UNL     1       7.728  13.803   0.808  1.00  0.00     0.123 A 
ATOM      9  C   UNL     1       6.340  13.687   0.807  1.00  0.00     0.094 A 
ATOM     10  C   UNL     1       5.582  14.239   1.842  1.00  0.00     0.146 A 
ATOM     11  O   UNL     1       4.261  14.114   1.797  1.00  0.00    -0.452 OA
ENDROOT
BRANCH   1  12
ATOM     12  C   UNL     1       1.992  14.388   2.563  1.00  0.00     0.025 A 
ATOM     13  C   UNL     1       1.442  13.964   1.340  1.00  0.00     0.016 A 
ATOM     14  C   UNL     1       0.065  13.773   1.213  1.00  0.00     0.051 A 
ATOM     15  C   UNL     1      -0.786  14.015   2.296  1.00  0.00     0.157 A 
ATOM     16  C   UNL     1       1.133  14.649   3.643  1.00  0.00     0.062 A 
ATOM     17  C   UNL     1      -0.252  14.459   3.517  1.00  0.00     0.158 A 
BRANCH  15  18
ATOM     18  O   UNL     1      -2.158  13.814   2.139  1.00  0.00    -0.504 OA
ATOM     19  H   UNL     1      -2.840  14.492   2.456  1.00  0.00     0.293 HD
ENDBRANCH  15  18
BRANCH  17  20
ATOM     20  O   UNL     1      -1.094  14.708   4.599  1.00  0.00    -0.504 OA
ATOM     21  H   UNL     1      -1.664  13.977   5.008  1.00  0.00     0.293 HD
ENDBRANCH  17  20
ENDBRANCH   1  12
BRANCH   2  22
ATOM     22  O   UNL     1       3.122  15.989   4.696  1.00  0.00    -0.502 OA
ATOM     23  H   UNL     1       2.176  15.666   4.861  1.00  0.00     0.293 HD
ENDBRANCH   2  22
BRANCH   6  24
ATOM     24  O   UNL     1       8.380  15.527   3.988  1.00  0.00    -0.507 OA
ATOM     25  H   UNL     1       9.327  15.267   4.219  1.00  0.00     0.293 HD
ENDBRANCH   6  24
BRANCH   8  26
ATOM     26  O   UNL     1       8.463  13.263  -0.245  1.00  0.00    -0.508 OA
ATOM     27  H   UNL     1       9.304  12.721  -0.081  1.00  0.00     0.293 HD
ENDBRANCH   8  26
TORSDOF 6
ENDMDL
MODEL 3
REMARK VINA RESULT:    -8.413      3.356      9.163
REMARK INTER + INTRA:          -9.812
REMARK INTER:                  -9.913
REMARK INTRA:                   0.101
REMARK UNBOUND:                 0.322
REMARK SMILES O=c1c(O)c(-c2ccc(O)c(O)c2)oc2cc(O)cc(O)c12
REMARK SMILES IDX 5 1 3 2 2 3 1 4 22 5 20 6 19 7 17 8 16 9 15 10 14 11 6 12
REMARK SMILES IDX 7 13 8 14 9 15 13 16 11 17 10 18 12 20 4 22 21 24 18 26
REMARK H PARENT 10 19 12 21 4 23 21 25 18 27
REMARK Flexibility Score: inf
ROOT
ATOM      1  C   UNL     1       7.336  14.578   1.769  1.00  0.00     0.180 A 
ATOM      2  C   UNL     1       7.119  15.027   3.083  1.00  0.00     0.208 A 
ATOM      3  C   UNL     1       5.800  15.190   3.538  1.00  0.00     0.238 A 
ATOM      4  O   UNL     1       5.611  15.538   4.732  1.00  0.00    -0.285 OA
ATOM      5  C   UNL     1       4.716  14.918   2.669  1.00  0.00     0.111 A 
ATOM      6  C   UNL     1       3.342  15.087   3.011  1.00  0.00     0.134 A 
ATOM      7  C   UNL     1       2.350  14.664   2.117  1.00  0.00     0.093 A 
ATOM      8  C   UNL     1       2.685  14.139   0.866  1.00  0.00     0.123 A 
ATOM      9  C   UNL     1       4.024  14.024   0.500  1.00  0.00     0.094 A 
ATOM     10  C   UNL     1       5.035  14.405   1.385  1.00  0.00     0.146 A 
ATOM     11  O   UNL     1       6.299  14.269   0.999  1.00  0.00    -0.452 OA
ENDROOT
BRANCH   1  12
ATOM     12  C   UNL     1       8.696  14.407   1.210  1.00  0.00     0.025 A 
ATOM     13  C   UNL     1       9.721  13.794   1.952  1.00  0.00     0.016 A 
ATOM     14  C   UNL     1      11.003  13.664   1.413  1.00  0.00     0.051 A 
ATOM     15  C   UNL     1      11.286  14.154   0.134  1.00  0.00     0.157 A 
ATOM     16  C   UNL     1       8.989  14.916  -0.066  1.00  0.00     0.062 A 
ATOM     17  C   UNL     1      10.276  14.787  -0.609  1.00  0.00     0.158 A 
BRANCH  15  18
ATOM     18  O   UNL     1      12.575  14.008  -0.378  1.00  0.00    -0.504 OA
ATOM     19  H   UNL     1      13.381  14.432   0.065  1.00  0.00     0.293 HD
ENDBRANCH  15  18
BRANCH  17  20
ATOM     20  O   UNL     1      10.553  15.285  -1.881  1.00  0.00    -0.504 OA
ATOM     21  H   UNL     1      10.142  14.876  -2.712  1.00  0.00     0.293 HD
ENDBRANCH  17  20
ENDBRANCH   1  12
BRANCH   2  22
ATOM     22  O   UNL     1       8.202  15.267   3.932  1.00  0.00    -0.502 OA
ATOM     23  H   UNL     1       8.176  15.055   4.923  1.00  0.00     0.293 HD
ENDBRANCH   2  22
BRANCH   6  24
ATOM     24  O   UNL     1       2.899  15.685   4.194  1.00  0.00    -0.507 OA
ATOM     25  H   UNL     1       2.192  15.302   4.802  1.00  0.00     0.293 HD
ENDBRANCH   6  24
BRANCH   8  26
ATOM     26  O   UNL     1       1.692  13.734  -0.024  1.00  0.00    -0.508 OA
ATOM     27  H   UNL     1       1.378  12.772  -0.065  1.00  0.00     0.293 HD
ENDBRANCH   8  26
TORSDOF 6
ENDMDL
MODEL 4
REMARK VINA RESULT:    -8.369      3.529      8.733
REMARK INTER + INTRA:          -9.759
REMARK INTER:                  -9.546
REMARK INTRA:                  -0.213
REMARK UNBOUND:                 0.322
REMARK SMILES O=c1c(O)c(-c2ccc(O)c(O)c2)oc2cc(O)cc(O)c12
REMARK SMILES IDX 5 1 3 2 2 3 1 4 22 5 20 6 19 7 17 8 16 9 15 10 14 11 6 12
REMARK SMILES IDX 7 13 8 14 9 15 13 16 11 17 10 18 12 20 4 22 21 24 18 26
REMARK H PARENT 10 19 12 21 4 23 21 25 18 27
REMARK Flexibility Score: inf
ROOT
ATOM      1  C   UNL     1       7.453  14.730   1.973  1.00  0.00     0.180 A 
ATOM      2  C   UNL     1       6.480  14.254   1.076  1.00  0.00     0.208 A 
ATOM      3  C   UNL     1       5.125  14.323   1.441  1.00  0.00     0.238 A 
ATOM      4  O   UNL     1       4.256  13.946   0.613  1.00  0.00    -0.285 OA
ATOM      5  C   UNL     1       4.761  14.853   2.703  1.00  0.00     0.111 A 
ATOM      6  C   UNL     1       3.424  14.935   3.192  1.00  0.00     0.134 A 
ATOM      7  C   UNL     1       3.168  15.596   4.399  1.00  0.00     0.093 A 
ATOM      8  C   UNL     1       4.211  16.122   5.167  1.00  0.00     0.123 A 
ATOM      9  C   UNL     1       5.526  15.995   4.726  1.00  0.00     0.094 A 
ATOM     10  C   UNL     1       5.808  15.372   3.508  1.00  0.00     0.146 A 
ATOM     11  O   UNL     1       7.076  15.282   3.120  1.00  0.00    -0.452 OA
ENDROOT
BRANCH   1  12
ATOM     12  C   UNL     1       8.900  14.668   1.670  1.00  0.00     0.025 A 
ATOM     13  C   UNL     1       9.575  13.439   1.568  1.00  0.00     0.016 A 
ATOM     14  C   UNL     1      10.946  13.405   1.305  1.00  0.00     0.051 A 
ATOM     15  C   UNL     1      11.667  14.593   1.154  1.00  0.00     0.157 A 
ATOM     16  C   UNL     1       9.631  15.860   1.538  1.00  0.00     0.062 A 
ATOM     17  C   UNL     1      11.009  15.828   1.275  1.00  0.00     0.158 A 
BRANCH  15  18
ATOM     18  O   UNL     1      13.036  14.527   0.891  1.00  0.00    -0.504 OA
ATOM     19  H   UNL     1      13.591  15.356   0.719  1.00  0.00     0.293 HD
ENDBRANCH  15  18
BRANCH  17  20
ATOM     20  O   UNL     1      11.723  17.016   1.133  1.00  0.00    -0.504 OA
ATOM     21  H   UNL     1      11.544  17.655   0.367  1.00  0.00     0.293 HD
ENDBRANCH  17  20
ENDBRANCH   1  12
BRANCH   2  22
ATOM     22  O   UNL     1       6.859  13.756  -0.172  1.00  0.00    -0.502 OA
ATOM     23  H   UNL     1       7.754  13.309  -0.332  1.00  0.00     0.293 HD
ENDBRANCH   2  22
BRANCH   6  24
ATOM     24  O   UNL     1       2.322  14.363   2.549  1.00  0.00    -0.507 OA
ATOM     25  H   UNL     1       1.458  14.111   3.005  1.00  0.00     0.293 HD
ENDBRANCH   6  24
BRANCH   8  26
ATOM     26  O   UNL     1       3.950  16.765   6.374  1.00  0.00    -0.508 OA
ATOM     27  H   UNL     1       3.183  17.420   6.471  1.00  0.00     0.293 HD
ENDBRANCH   8  26
TORSDOF 6
ENDMDL
MODEL 5
REMARK VINA RESULT:    -8.095      1.760      7.284
REMARK INTER + INTRA:          -9.429
REMARK INTER:                  -9.767
REMARK INTRA:                   0.337
REMARK UNBOUND:                 0.322
REMARK SMILES O=c1c(O)c(-c2ccc(O)c(O)c2)oc2cc(O)cc(O)c12
REMARK SMILES IDX 5 1 3 2 2 3 1 4 22 5 20 6 19 7 17 8 16 9 15 10 14 11 6 12
REMARK SMILES IDX 7 13 8 14 9 15 13 16 11 17 10 18 12 20 4 22 21 24 18 26
REMARK H PARENT 10 19 12 21 4 23 21 25 18 27
REMARK Flexibility Score: inf
ROOT
ATOM      1  C   UNL     1       3.705  14.755   3.510  1.00  0.00     0.180 A 
ATOM      2  C   UNL     1       3.230  15.026   4.805  1.00  0.00     0.208 A 
ATOM      3  C   UNL     1       1.852  14.926   5.059  1.00  0.00     0.238 A 
ATOM      4  O   UNL     1       1.439  15.116   6.233  1.00  0.00    -0.285 OA
ATOM      5  C   UNL     1       0.966  14.571   4.014  1.00  0.00     0.111 A 
ATOM      6  C   UNL     1      -0.451  14.480   4.149  1.00  0.00     0.134 A 
ATOM      7  C   UNL     1      -1.217  13.994   3.082  1.00  0.00     0.093 A 
ATOM      8  C   UNL     1      -0.622  13.659   1.863  1.00  0.00     0.123 A 
ATOM      9  C   UNL     1       0.754  13.802   1.702  1.00  0.00     0.094 A 
ATOM     10  C   UNL     1       1.548  14.249   2.760  1.00  0.00     0.146 A 
ATOM     11  O   UNL     1       2.857  14.361   2.567  1.00  0.00    -0.452 OA
ENDROOT
BRANCH   1  12
ATOM     12  C   UNL     1       5.139  14.863   3.159  1.00  0.00     0.025 A 
ATOM     13  C   UNL     1       5.713  14.052   2.165  1.00  0.00     0.016 A 
ATOM     14  C   UNL     1       7.074  14.155   1.866  1.00  0.00     0.051 A 
ATOM     15  C   UNL     1       7.884  15.058   2.562  1.00  0.00     0.157 A 
ATOM     16  C   UNL     1       5.960  15.755   3.869  1.00  0.00     0.062 A 
ATOM     17  C   UNL     1       7.327  15.860   3.572  1.00  0.00     0.158 A 
BRANCH  15  18
ATOM     18  O   UNL     1       9.239  15.140   2.240  1.00  0.00    -0.504 OA
ATOM     19  H   UNL     1       9.667  14.529   1.555  1.00  0.00     0.293 HD
ENDBRANCH  15  18
BRANCH  17  20
ATOM     20  O   UNL     1       8.130  16.756   4.274  1.00  0.00    -0.504 OA
ATOM     21  H   UNL     1       7.876  17.086   5.198  1.00  0.00     0.293 HD
ENDBRANCH  17  20
ENDBRANCH   1  12
BRANCH   2  22
ATOM     22  O   UNL     1       4.123  15.352   5.828  1.00  0.00    -0.502 OA
ATOM     23  H   UNL     1       3.815  15.652   6.745  1.00  0.00     0.293 HD
ENDBRANCH   2  22
BRANCH   6  24
ATOM     24  O   UNL     1      -1.153  14.875   5.291  1.00  0.00    -0.507 OA
ATOM     25  H   UNL     1      -1.124  14.396   6.178  1.00  0.00     0.293 HD
ENDBRANCH   6  24
BRANCH   8  26
ATOM     26  O   UNL     1      -1.393  13.191   0.801  1.00  0.00    -0.508 OA
ATOM     27  H   UNL     1      -1.285  13.562  -0.136  1.00  0.00     0.293 HD
ENDBRANCH   8  26
TORSDOF 6
ENDMDL
MODEL 6
REMARK VINA RESULT:    -8.038      1.385      2.948
REMARK INTER + INTRA:          -9.360
REMARK INTER:                  -9.895
REMARK INTRA:                   0.535
REMARK UNBOUND:                 0.322
REMARK SMILES O=c1c(O)c(-c2ccc(O)c(O)c2)oc2cc(O)cc(O)c12
REMARK SMILES IDX 5 1 3 2 2 3 1 4 22 5 20 6 19 7 17 8 16 9 15 10 14 11 6 12
REMARK SMILES IDX 7 13 8 14 9 15 13 16 11 17 10 18 12 20 4 22 21 24 18 26
REMARK H PARENT 10 19 12 21 4 23 21 25 18 27
REMARK Flexibility Score: inf
ROOT
ATOM      1  C   UNL     1       1.585  14.740   3.394  1.00  0.00     0.180 A 
ATOM      2  C   UNL     1       2.255  14.987   4.605  1.00  0.00     0.208 A 
ATOM      3  C   UNL     1       3.642  15.205   4.584  1.00  0.00     0.238 A 
ATOM      4  O   UNL     1       4.227  15.480   5.663  1.00  0.00    -0.285 OA
ATOM      5  C   UNL     1       4.344  15.156   3.355  1.00  0.00     0.111 A 
ATOM      6  C   UNL     1       5.755  15.322   3.222  1.00  0.00     0.134 A 
ATOM      7  C   UNL     1       6.325  15.384   1.944  1.00  0.00     0.093 A 
ATOM      8  C   UNL     1       5.543  15.221   0.798  1.00  0.00     0.123 A 
ATOM      9  C   UNL     1       4.174  15.000   0.920  1.00  0.00     0.094 A 
ATOM     10  C   UNL     1       3.571  14.969   2.180  1.00  0.00     0.146 A 
ATOM     11  O   UNL     1       2.260  14.765   2.251  1.00  0.00    -0.452 OA
ENDROOT
BRANCH   1  12
ATOM     12  C   UNL     1       0.129  14.476   3.339  1.00  0.00     0.025 A 
ATOM     13  C   UNL     1      -0.500  14.091   2.142  1.00  0.00     0.016 A 
ATOM     14  C   UNL     1      -1.879  13.871   2.108  1.00  0.00     0.051 A 
ATOM     15  C   UNL     1      -2.652  14.044   3.261  1.00  0.00     0.157 A 
ATOM     16  C   UNL     1      -0.653  14.669   4.490  1.00  0.00     0.062 A 
ATOM     17  C   UNL     1      -2.038  14.449   4.458  1.00  0.00     0.158 A 
BRANCH  15  18
ATOM     18  O   UNL     1      -4.027  13.815   3.196  1.00  0.00    -0.504 OA
ATOM     19  H   UNL     1      -4.694  14.409   3.673  1.00  0.00     0.293 HD
ENDBRANCH  15  18
BRANCH  17  20
ATOM     20  O   UNL     1      -2.803  14.631   5.608  1.00  0.00    -0.504 OA
ATOM     21  H   UNL     1      -3.127  13.846   6.160  1.00  0.00     0.293 HD
ENDBRANCH  17  20
ENDBRANCH   1  12
BRANCH   2  22
ATOM     22  O   UNL     1       1.539  15.053   5.803  1.00  0.00    -0.502 OA
ATOM     23  H   UNL     1       1.064  15.895   6.108  1.00  0.00     0.293 HD
ENDBRANCH   2  22
BRANCH   6  24
ATOM     24  O   UNL     1       6.637  15.402   4.303  1.00  0.00    -0.507 OA
ATOM     25  H   UNL     1       6.369  15.313   5.271  1.00  0.00     0.293 HD
ENDBRANCH   6  24
BRANCH   8  26
ATOM     26  O   UNL     1       6.121  15.269  -0.469  1.00  0.00    -0.508 OA
ATOM     27  H   UNL     1       5.922  14.563  -1.169  1.00  0.00     0.293 HD
ENDBRANCH   8  26
TORSDOF 6
ENDMDL
MODEL 7
REMARK VINA RESULT:    -7.960      1.460      6.867
REMARK INTER + INTRA:          -9.266
REMARK INTER:                  -9.540
REMARK INTRA:                   0.274
REMARK UNBOUND:                 0.322
REMARK SMILES O=c1c(O)c(-c2ccc(O)c(O)c2)oc2cc(O)cc(O)c12
REMARK SMILES IDX 5 1 3 2 2 3 1 4 22 5 20 6 19 7 17 8 16 9 15 10 14 11 6 12
REMARK SMILES IDX 7 13 8 14 9 15 13 16 11 17 10 18 12 20 4 22 21 24 18 26
REMARK H PARENT 10 19 12 21 4 23 21 25 18 27
REMARK Flexibility Score: inf
ROOT
ATOM      1  C   UNL     1       3.610  14.688   2.535  1.00  0.00     0.180 A 
ATOM      2  C   UNL     1       3.149  14.378   1.244  1.00  0.00     0.208 A 
ATOM      3  C   UNL     1       1.785  14.096   1.058  1.00  0.00     0.238 A 
ATOM      4  O   UNL     1       1.368  13.874  -0.109  1.00  0.00    -0.285 OA
ATOM      5  C   UNL     1       0.905  14.111   2.166  1.00  0.00     0.111 A 
ATOM      6  C   UNL     1      -0.486  13.801   2.099  1.00  0.00     0.134 A 
ATOM      7  C   UNL     1      -1.288  13.975   3.234  1.00  0.00     0.093 A 
ATOM      8  C   UNL     1      -0.735  14.384   4.451  1.00  0.00     0.123 A 
ATOM      9  C   UNL     1       0.633  14.632   4.540  1.00  0.00     0.094 A 
ATOM     10  C   UNL     1       1.451  14.502   3.415  1.00  0.00     0.146 A 
ATOM     11  O   UNL     1       2.748  14.758   3.543  1.00  0.00    -0.452 OA
ENDROOT
BRANCH   1  12
ATOM     12  C   UNL     1       5.036  14.972   2.815  1.00  0.00     0.025 A 
ATOM     13  C   UNL     1       5.418  15.912   3.786  1.00  0.00     0.016 A 
ATOM     14  C   UNL     1       6.769  16.181   4.017  1.00  0.00     0.051 A 
ATOM     15  C   UNL     1       7.758  15.528   3.275  1.00  0.00     0.157 A 
ATOM     16  C   UNL     1       6.030  14.332   2.056  1.00  0.00     0.062 A 
ATOM     17  C   UNL     1       7.388  14.601   2.285  1.00  0.00     0.158 A 
BRANCH  15  18
ATOM     18  O   UNL     1       9.099  15.816   3.528  1.00  0.00    -0.504 OA
ATOM     19  H   UNL     1       9.741  15.117   3.882  1.00  0.00     0.293 HD
ENDBRANCH  15  18
BRANCH  17  20
ATOM     20  O   UNL     1       8.367  13.951   1.536  1.00  0.00    -0.504 OA
ATOM     21  H   UNL     1       9.353  14.149   1.665  1.00  0.00     0.293 HD
ENDBRANCH  17  20
ENDBRANCH   1  12
BRANCH   2  22
ATOM     22  O   UNL     1       4.030  14.391   0.160  1.00  0.00    -0.502 OA
ATOM     23  H   UNL     1       3.864  14.947  -0.671  1.00  0.00     0.293 HD
ENDBRANCH   2  22
BRANCH   6  24
ATOM     24  O   UNL     1      -1.120  13.298   0.960  1.00  0.00    -0.507 OA
ATOM     25  H   UNL     1      -0.903  13.571   0.013  1.00  0.00     0.293 HD
ENDBRANCH   6  24
BRANCH   8  26
ATOM     26  O   UNL     1      -1.537  14.539   5.579  1.00  0.00    -0.508 OA
ATOM     27  H   UNL     1      -2.027  13.755   5.993  1.00  0.00     0.293 HD
ENDBRANCH   8  26
TORSDOF 6
ENDMDL
MODEL 8
REMARK VINA RESULT:    -7.715      1.273      6.595
REMARK INTER + INTRA:          -8.972
REMARK INTER:                  -9.074
REMARK INTRA:                   0.103
REMARK UNBOUND:                 0.322
REMARK SMILES O=c1c(O)c(-c2ccc(O)c(O)c2)oc2cc(O)cc(O)c12
REMARK SMILES IDX 5 1 3 2 2 3 1 4 22 5 20 6 19 7 17 8 16 9 15 10 14 11 6 12
REMARK SMILES IDX 7 13 8 14 9 15 13 16 11 17 10 18 12 20 4 22 21 24 18 26
REMARK H PARENT 10 19 12 21 4 23 21 25 18 27
REMARK Flexibility Score: inf
ROOT
ATOM      1  C   UNL     1       1.818  14.365   2.907  1.00  0.00     0.180 A 
ATOM      2  C   UNL     1       0.880  14.078   1.900  1.00  0.00     0.208 A 
ATOM      3  C   UNL     1      -0.484  14.042   2.230  1.00  0.00     0.238 A 
ATOM      4  O   UNL     1      -1.323  13.840   1.314  1.00  0.00    -0.285 OA
ATOM      5  C   UNL     1      -0.893  14.276   3.565  1.00  0.00     0.111 A 
ATOM      6  C   UNL     1      -2.244  14.224   4.020  1.00  0.00     0.134 A 
ATOM      7  C   UNL     1      -2.546  14.601   5.335  1.00  0.00     0.093 A 
ATOM      8  C   UNL     1      -1.535  14.964   6.229  1.00  0.00     0.123 A 
ATOM      9  C   UNL     1      -0.207  14.960   5.811  1.00  0.00     0.094 A 
ATOM     10  C   UNL     1       0.121  14.625   4.495  1.00  0.00     0.146 A 
ATOM     11  O   UNL     1       1.399  14.644   4.136  1.00  0.00    -0.452 OA
ENDROOT
BRANCH   1  12
ATOM     12  C   UNL     1       3.274  14.396   2.641  1.00  0.00     0.025 A 
ATOM     13  C   UNL     1       3.888  13.443   1.810  1.00  0.00     0.016 A 
ATOM     14  C   UNL     1       5.267  13.478   1.593  1.00  0.00     0.051 A 
ATOM     15  C   UNL     1       6.056  14.453   2.210  1.00  0.00     0.157 A 
ATOM     16  C   UNL     1       4.072  15.362   3.277  1.00  0.00     0.062 A 
ATOM     17  C   UNL     1       5.458  15.398   3.061  1.00  0.00     0.158 A 
BRANCH  15  18
ATOM     18  O   UNL     1       7.431  14.464   1.973  1.00  0.00    -0.504 OA
ATOM     19  H   UNL     1       8.062  15.059   2.495  1.00  0.00     0.293 HD
ENDBRANCH  15  18
BRANCH  17  20
ATOM     20  O   UNL     1       6.239  16.368   3.686  1.00  0.00    -0.504 OA
ATOM     21  H   UNL     1       6.313  17.309   3.317  1.00  0.00     0.293 HD
ENDBRANCH  17  20
ENDBRANCH   1  12
BRANCH   2  22
ATOM     22  O   UNL     1       1.302  13.873   0.584  1.00  0.00    -0.502 OA
ATOM     23  H   UNL     1       1.952  13.139   0.329  1.00  0.00     0.293 HD
ENDBRANCH   2  22
BRANCH   6  24
ATOM     24  O   UNL     1      -3.315  13.787   3.236  1.00  0.00    -0.507 OA
ATOM     25  H   UNL     1      -4.251  14.160   3.282  1.00  0.00     0.293 HD
ENDBRANCH   6  24
BRANCH   8  26
ATOM     26  O   UNL     1      -1.842  15.322   7.540  1.00  0.00    -0.508 OA
ATOM     27  H   UNL     1      -1.167  15.219   8.289  1.00  0.00     0.293 HD
ENDBRANCH   8  26
TORSDOF 6
ENDMDL
MODEL 9
REMARK VINA RESULT:    -7.565      2.427      7.680
REMARK INTER + INTRA:          -8.791
REMARK INTER:                  -9.240
REMARK INTRA:                   0.449
REMARK UNBOUND:                 0.322
REMARK SMILES O=c1c(O)c(-c2ccc(O)c(O)c2)oc2cc(O)cc(O)c12
REMARK SMILES IDX 5 1 3 2 2 3 1 4 22 5 20 6 19 7 17 8 16 9 15 10 14 11 6 12
REMARK SMILES IDX 7 13 8 14 9 15 13 16 11 17 10 18 12 20 4 22 21 24 18 26
REMARK H PARENT 10 19 12 21 4 23 21 25 18 27
REMARK Flexibility Score: inf
ROOT
ATOM      1  C   UNL     1       5.374  14.514   1.939  1.00  0.00     0.180 A 
ATOM      2  C   UNL     1       4.529  14.441   0.818  1.00  0.00     0.208 A 
ATOM      3  C   UNL     1       3.138  14.454   1.012  1.00  0.00     0.238 A 
ATOM      4  O   UNL     1       2.387  14.445   0.003  1.00  0.00    -0.285 OA
ATOM      5  C   UNL     1       2.610  14.524   2.324  1.00  0.00     0.111 A 
ATOM      6  C   UNL     1       1.219  14.503   2.639  1.00  0.00     0.134 A 
ATOM      7  C   UNL     1       0.806  14.708   3.962  1.00  0.00     0.093 A 
ATOM      8  C   UNL     1       1.739  14.868   4.990  1.00  0.00     0.123 A 
ATOM      9  C   UNL     1       3.101  14.831   4.700  1.00  0.00     0.094 A 
ATOM     10  C   UNL     1       3.542  14.664   3.385  1.00  0.00     0.146 A 
ATOM     11  O   UNL     1       4.849  14.644   3.152  1.00  0.00    -0.452 OA
ENDROOT
BRANCH   1  12
ATOM     12  C   UNL     1       6.849  14.481   1.818  1.00  0.00     0.025 A 
ATOM     13  C   UNL     1       7.680  14.972   2.839  1.00  0.00     0.016 A 
ATOM     14  C   UNL     1       9.069  14.951   2.693  1.00  0.00     0.051 A 
ATOM     15  C   UNL     1       9.649  14.455   1.522  1.00  0.00     0.157 A 
ATOM     16  C   UNL     1       7.435  14.001   0.634  1.00  0.00     0.062 A 
ATOM     17  C   UNL     1       8.829  13.980   0.484  1.00  0.00     0.158 A 
BRANCH  15  18
ATOM     18  O   UNL     1      11.039  14.446   1.404  1.00  0.00    -0.504 OA
ATOM     19  H   UNL     1      11.622  15.136   1.862  1.00  0.00     0.293 HD
ENDBRANCH  15  18
BRANCH  17  20
ATOM     20  O   UNL     1       9.401  13.491  -0.689  1.00  0.00    -0.504 OA
ATOM     21  H   UNL     1       9.202  12.557  -1.027  1.00  0.00     0.293 HD
ENDBRANCH  17  20
ENDBRANCH   1  12
BRANCH   2  22
ATOM     22  O   UNL     1       5.071  14.397  -0.468  1.00  0.00    -0.502 OA
ATOM     23  H   UNL     1       4.568  14.728  -1.283  1.00  0.00     0.293 HD
ENDBRANCH   2  22
BRANCH   6  24
ATOM     24  O   UNL     1       0.210  14.259   1.703  1.00  0.00    -0.507 OA
ATOM     25  H   UNL     1      -0.728  13.968   1.932  1.00  0.00     0.293 HD
ENDBRANCH   6  24
BRANCH   8  26
ATOM     26  O   UNL     1       1.322  15.056   6.305  1.00  0.00    -0.508 OA
ATOM     27  H   UNL     1       1.980  15.274   7.045  1.00  0.00     0.293 HD
ENDBRANCH   8  26
TORSDOF 6
ENDMDL
