MODEL 1
REMARK VINA RESULT:    -4.651      0.000      0.000
REMARK INTER + INTRA:          -5.158
REMARK INTER:                  -5.058
REMARK INTRA:                  -0.099
REMARK UNBOUND:                -0.099
REMARK SMILES Cc1ccc(C(C)C)cc1O
REMARK SMILES IDX 1 1 2 2 10 3 9 4 5 5 4 6 3 7 11 8 6 10 7 11 8 12
REMARK H PARENT 11 9
REMARK Flexibility Score: inf
ROOT
ATOM      1  C   UNL     1      22.859   6.375 -30.914  1.00  0.00     0.048 C 
ATOM      2  C   UNL     1      22.034   6.323 -32.171  1.00  0.00    -0.009 A 
ATOM      3  C   UNL     1      22.391   7.074 -33.313  1.00  0.00     0.118 A 
ATOM      4  C   UNL     1      21.601   7.003 -34.466  1.00  0.00     0.050 A 
ATOM      5  C   UNL     1      20.453   6.192 -34.507  1.00  0.00    -0.042 A 
ATOM      6  C   UNL     1      20.106   5.450 -33.369  1.00  0.00     0.004 A 
ATOM      7  C   UNL     1      20.887   5.515 -32.214  1.00  0.00     0.007 A 
ENDROOT
BRANCH   3   8
ATOM      8  O   UNL     1      23.519   7.896 -33.332  1.00  0.00    -0.508 OA
ATOM      9  H   UNL     1      24.458   7.543 -33.471  1.00  0.00     0.293 HD
ENDBRANCH   3   8
BRANCH   5  10
ATOM     10  C   UNL     1      19.594   6.113 -35.757  1.00  0.00     0.013 C 
ATOM     11  C   UNL     1      18.719   7.362 -35.907  1.00  0.00     0.012 C 
ATOM     12  C   UNL     1      20.455   5.888 -37.005  1.00  0.00     0.012 C 
ENDBRANCH   5  10
TORSDOF 2
ENDMDL
MODEL 2
REMARK VINA RESULT:    -4.604      1.697      2.220
REMARK INTER + INTRA:          -5.107
REMARK INTER:                  -4.979
REMARK INTRA:                  -0.128
REMARK UNBOUND:                -0.099
REMARK SMILES Cc1ccc(C(C)C)cc1O
REMARK SMILES IDX 1 1 2 2 10 3 9 4 5 5 4 6 3 7 11 8 6 10 7 11 8 12
REMARK H PARENT 11 9
REMARK Flexibility Score: inf
ROOT
ATOM      1  C   UNL     1      22.430   5.872 -30.657  1.00  0.00     0.048 C 
ATOM      2  C   UNL     1      21.664   5.937 -31.950  1.00  0.00    -0.009 A 
ATOM      3  C   UNL     1      20.675   4.978 -32.263  1.00  0.00     0.118 A 
ATOM      4  C   UNL     1      19.980   5.066 -33.475  1.00  0.00     0.050 A 
ATOM      5  C   UNL     1      20.252   6.099 -34.390  1.00  0.00    -0.042 A 
ATOM      6  C   UNL     1      21.236   7.046 -34.072  1.00  0.00     0.004 A 
ATOM      7  C   UNL     1      21.935   6.966 -32.866  1.00  0.00     0.007 A 
ENDROOT
BRANCH   3   8
ATOM      8  O   UNL     1      20.360   3.931 -31.395  1.00  0.00    -0.508 OA
ATOM      9  H   UNL     1      21.062   3.381 -30.915  1.00  0.00     0.293 HD
ENDBRANCH   3   8
BRANCH   5  10
ATOM     10  C   UNL     1      19.500   6.198 -35.706  1.00  0.00     0.013 C 
ATOM     11  C   UNL     1      18.832   7.569 -35.860  1.00  0.00     0.012 C 
ATOM     12  C   UNL     1      20.423   5.896 -36.893  1.00  0.00     0.012 C 
ENDBRANCH   5  10
TORSDOF 2
ENDMDL
MODEL 3
REMARK VINA RESULT:    -4.276     21.188     22.901
REMARK INTER + INTRA:          -4.751
REMARK INTER:                  -4.632
REMARK INTRA:                  -0.119
REMARK UNBOUND:                -0.099
REMARK SMILES Cc1ccc(C(C)C)cc1O
REMARK SMILES IDX 1 1 2 2 10 3 9 4 5 5 4 6 3 7 11 8 6 10 7 11 8 12
REMARK H PARENT 11 9
REMARK Flexibility Score: inf
ROOT
ATOM      1  C   UNL     1      32.864  -7.779 -18.041  1.00  0.00     0.048 C 
ATOM      2  C   UNL     1      33.186  -6.310 -18.077  1.00  0.00    -0.009 A 
ATOM      3  C   UNL     1      33.235  -5.601 -19.298  1.00  0.00     0.118 A 
ATOM      4  C   UNL     1      33.538  -4.235 -19.297  1.00  0.00     0.050 A 
ATOM      5  C   UNL     1      33.795  -3.553 -18.094  1.00  0.00    -0.042 A 
ATOM      6  C   UNL     1      33.745  -4.264 -16.887  1.00  0.00     0.004 A 
ATOM      7  C   UNL     1      33.444  -5.628 -16.878  1.00  0.00     0.007 A 
ENDROOT
BRANCH   3   8
ATOM      8  O   UNL     1      32.988  -6.223 -20.524  1.00  0.00    -0.508 OA
ATOM      9  H   UNL     1      32.058  -6.468 -20.842  1.00  0.00     0.293 HD
ENDBRANCH   3   8
BRANCH   5  10
ATOM     10  C   UNL     1      34.125  -2.071 -18.089  1.00  0.00     0.013 C 
ATOM     11  C   UNL     1      34.071  -1.487 -19.505  1.00  0.00     0.012 C 
ATOM     12  C   UNL     1      33.198  -1.303 -17.139  1.00  0.00     0.012 C 
ENDBRANCH   5  10
TORSDOF 2
ENDMDL
MODEL 4
REMARK VINA RESULT:    -4.275     18.946     20.424
REMARK INTER + INTRA:          -4.749
REMARK INTER:                  -4.621
REMARK INTRA:                  -0.128
REMARK UNBOUND:                -0.099
REMARK SMILES Cc1ccc(C(C)C)cc1O
REMARK SMILES IDX 1 1 2 2 10 3 9 4 5 5 4 6 3 7 11 8 6 10 7 11 8 12
REMARK H PARENT 11 9
REMARK Flexibility Score: inf
ROOT
ATOM      1  C   UNL     1      29.864  -7.948 -25.783  1.00  0.00     0.048 C 
ATOM      2  C   UNL     1      30.804  -7.352 -24.771  1.00  0.00    -0.009 A 
ATOM      3  C   UNL     1      32.129  -7.823 -24.636  1.00  0.00     0.118 A 
ATOM      4  C   UNL     1      32.978  -7.247 -23.684  1.00  0.00     0.050 A 
ATOM      5  C   UNL     1      32.531  -6.201 -22.856  1.00  0.00    -0.042 A 
ATOM      6  C   UNL     1      31.214  -5.741 -22.995  1.00  0.00     0.004 A 
ATOM      7  C   UNL     1      30.359  -6.310 -23.942  1.00  0.00     0.007 A 
ENDROOT
BRANCH   3   8
ATOM      8  O   UNL     1      32.630  -8.856 -25.430  1.00  0.00    -0.508 OA
ATOM      9  H   UNL     1      33.596  -9.158 -25.400  1.00  0.00     0.293 HD
ENDBRANCH   3   8
BRANCH   5  10
ATOM     10  C   UNL     1      33.449  -5.574 -21.822  1.00  0.00     0.013 C 
ATOM     11  C   UNL     1      33.736  -4.105 -22.154  1.00  0.00     0.012 C 
ATOM     12  C   UNL     1      32.870  -5.719 -20.409  1.00  0.00     0.012 C 
ENDBRANCH   5  10
TORSDOF 2
ENDMDL
MODEL 5
REMARK VINA RESULT:    -4.235     16.592     18.909
REMARK INTER + INTRA:          -4.706
REMARK INTER:                  -4.579
REMARK INTRA:                  -0.127
REMARK UNBOUND:                -0.099
REMARK SMILES Cc1ccc(C(C)C)cc1O
REMARK SMILES IDX 1 1 2 2 10 3 9 4 5 5 4 6 3 7 11 8 6 10 7 11 8 12
REMARK H PARENT 11 9
REMARK Flexibility Score: inf
ROOT
ATOM      1  C   UNL     1      27.983  -4.858 -26.744  1.00  0.00     0.048 C 
ATOM      2  C   UNL     1      29.030  -5.728 -26.104  1.00  0.00    -0.009 A 
ATOM      3  C   UNL     1      28.689  -6.670 -25.108  1.00  0.00     0.118 A 
ATOM      4  C   UNL     1      29.687  -7.465 -24.532  1.00  0.00     0.050 A 
ATOM      5  C   UNL     1      31.030  -7.339 -24.930  1.00  0.00    -0.042 A 
ATOM      6  C   UNL     1      31.359  -6.401 -25.919  1.00  0.00     0.004 A 
ATOM      7  C   UNL     1      30.371  -5.604 -26.499  1.00  0.00     0.007 A 
ENDROOT
BRANCH   3   8
ATOM      8  O   UNL     1      27.373  -6.840 -24.672  1.00  0.00    -0.508 OA
ATOM      9  H   UNL     1      26.745  -6.066 -24.496  1.00  0.00     0.293 HD
ENDBRANCH   3   8
BRANCH   5  10
ATOM     10  C   UNL     1      32.115  -8.199 -24.307  1.00  0.00     0.013 C 
ATOM     11  C   UNL     1      33.503  -7.592 -24.538  1.00  0.00     0.012 C 
ATOM     12  C   UNL     1      31.851  -8.424 -22.813  1.00  0.00     0.012 C 
ENDBRANCH   5  10
TORSDOF 2
ENDMDL
MODEL 6
REMARK VINA RESULT:    -4.220     17.806     19.590
REMARK INTER + INTRA:          -4.690
REMARK INTER:                  -4.563
REMARK INTRA:                  -0.127
REMARK UNBOUND:                -0.099
REMARK SMILES Cc1ccc(C(C)C)cc1O
REMARK SMILES IDX 1 1 2 2 10 3 9 4 5 5 4 6 3 7 11 8 6 10 7 11 8 12
REMARK H PARENT 11 9
REMARK Flexibility Score: inf
ROOT
ATOM      1  C   UNL     1      33.878  -4.869 -21.635  1.00  0.00     0.048 C 
ATOM      2  C   UNL     1      32.765  -5.523 -22.406  1.00  0.00    -0.009 A 
ATOM      3  C   UNL     1      32.930  -6.800 -22.989  1.00  0.00     0.118 A 
ATOM      4  C   UNL     1      31.874  -7.381 -23.701  1.00  0.00     0.050 A 
ATOM      5  C   UNL     1      30.645  -6.711 -23.845  1.00  0.00    -0.042 A 
ATOM      6  C   UNL     1      30.490  -5.445 -23.264  1.00  0.00     0.004 A 
ATOM      7  C   UNL     1      31.538  -4.857 -22.552  1.00  0.00     0.007 A 
ENDROOT
BRANCH   3   8
ATOM      8  O   UNL     1      34.125  -7.513 -22.879  1.00  0.00    -0.508 OA
ATOM      9  H   UNL     1      34.364  -8.288 -23.485  1.00  0.00     0.293 HD
ENDBRANCH   3   8
BRANCH   5  10
ATOM     10  C   UNL     1      29.498  -7.338 -24.616  1.00  0.00     0.013 C 
ATOM     11  C   UNL     1      28.405  -6.306 -24.920  1.00  0.00     0.012 C 
ATOM     12  C   UNL     1      29.998  -8.008 -25.902  1.00  0.00     0.012 C 
ENDBRANCH   5  10
TORSDOF 2
ENDMDL
MODEL 7
REMARK VINA RESULT:    -4.195     16.450     18.906
REMARK INTER + INTRA:          -4.662
REMARK INTER:                  -4.536
REMARK INTRA:                  -0.127
REMARK UNBOUND:                -0.099
REMARK SMILES Cc1ccc(C(C)C)cc1O
REMARK SMILES IDX 1 1 2 2 10 3 9 4 5 5 4 6 3 7 11 8 6 10 7 11 8 12
REMARK H PARENT 11 9
REMARK Flexibility Score: inf
ROOT
ATOM      1  C   UNL     1      27.322  -5.091 -25.482  1.00  0.00     0.048 C 
ATOM      2  C   UNL     1      28.538  -5.620 -24.772  1.00  0.00    -0.009 A 
ATOM      3  C   UNL     1      29.267  -4.814 -23.870  1.00  0.00     0.118 A 
ATOM      4  C   UNL     1      30.395  -5.336 -23.225  1.00  0.00     0.050 A 
ATOM      5  C   UNL     1      30.815  -6.658 -23.462  1.00  0.00    -0.042 A 
ATOM      6  C   UNL     1      30.086  -7.451 -24.360  1.00  0.00     0.004 A 
ATOM      7  C   UNL     1      28.960  -6.938 -25.008  1.00  0.00     0.007 A 
ENDROOT
BRANCH   3   8
ATOM      8  O   UNL     1      28.899  -3.496 -23.593  1.00  0.00    -0.508 OA
ATOM      9  H   UNL     1      29.571  -2.753 -23.449  1.00  0.00     0.293 HD
ENDBRANCH   3   8
BRANCH   5  10
ATOM     10  C   UNL     1      32.038  -7.227 -22.765  1.00  0.00     0.013 C 
ATOM     11  C   UNL     1      32.648  -8.380 -23.572  1.00  0.00     0.012 C 
ATOM     12  C   UNL     1      33.076  -6.134 -22.491  1.00  0.00     0.012 C 
ENDBRANCH   5  10
TORSDOF 2
ENDMDL
MODEL 8
REMARK VINA RESULT:    -4.181     19.296     20.384
REMARK INTER + INTRA:          -4.647
REMARK INTER:                  -4.549
REMARK INTRA:                  -0.098
REMARK UNBOUND:                -0.099
REMARK SMILES Cc1ccc(C(C)C)cc1O
REMARK SMILES IDX 1 1 2 2 10 3 9 4 5 5 4 6 3 7 11 8 6 10 7 11 8 12
REMARK H PARENT 11 9
REMARK Flexibility Score: inf
ROOT
ATOM      1  C   UNL     1      34.125  -3.706 -20.504  1.00  0.00     0.048 C 
ATOM      2  C   UNL     1      33.474  -4.568 -21.550  1.00  0.00    -0.009 A 
ATOM      3  C   UNL     1      32.953  -5.842 -21.228  1.00  0.00     0.118 A 
ATOM      4  C   UNL     1      32.354  -6.620 -22.226  1.00  0.00     0.050 A 
ATOM      5  C   UNL     1      32.260  -6.151 -23.549  1.00  0.00    -0.042 A 
ATOM      6  C   UNL     1      32.780  -4.887 -23.859  1.00  0.00     0.004 A 
ATOM      7  C   UNL     1      33.380  -4.104 -22.871  1.00  0.00     0.007 A 
ENDROOT
BRANCH   3   8
ATOM      8  O   UNL     1      33.016  -6.359 -19.933  1.00  0.00    -0.508 OA
ATOM      9  H   UNL     1      33.568  -7.173 -19.690  1.00  0.00     0.293 HD
ENDBRANCH   3   8
BRANCH   5  10
ATOM     10  C   UNL     1      31.611  -6.993 -24.633  1.00  0.00     0.013 C 
ATOM     11  C   UNL     1      32.283  -8.366 -24.746  1.00  0.00     0.012 C 
ATOM     12  C   UNL     1      30.103  -7.134 -24.393  1.00  0.00     0.012 C 
ENDBRANCH   5  10
TORSDOF 2
ENDMDL
MODEL 9
REMARK VINA RESULT:    -4.172     19.023     21.465
REMARK INTER + INTRA:          -4.638
REMARK INTER:                  -4.521
REMARK INTRA:                  -0.116
REMARK UNBOUND:                -0.099
REMARK SMILES Cc1ccc(C(C)C)cc1O
REMARK SMILES IDX 1 1 2 2 10 3 9 4 5 5 4 6 3 7 11 8 6 10 7 11 8 12
REMARK H PARENT 11 9
REMARK Flexibility Score: inf
ROOT
ATOM      1  C   UNL     1      33.675  -4.769 -17.206  1.00  0.00     0.048 C 
ATOM      2  C   UNL     1      33.691  -4.659 -18.706  1.00  0.00    -0.009 A 
ATOM      3  C   UNL     1      33.303  -5.744 -19.523  1.00  0.00     0.118 A 
ATOM      4  C   UNL     1      33.330  -5.610 -20.916  1.00  0.00     0.050 A 
ATOM      5  C   UNL     1      33.738  -4.405 -21.518  1.00  0.00    -0.042 A 
ATOM      6  C   UNL     1      34.123  -3.334 -20.699  1.00  0.00     0.004 A 
ATOM      7  C   UNL     1      34.100  -3.459 -19.309  1.00  0.00     0.007 A 
ENDROOT
BRANCH   3   8
ATOM      8  O   UNL     1      32.888  -6.963 -18.984  1.00  0.00    -0.508 OA
ATOM      9  H   UNL     1      33.510  -7.752 -18.857  1.00  0.00     0.293 HD
ENDBRANCH   3   8
BRANCH   5  10
ATOM     10  C   UNL     1      33.768  -4.256 -23.028  1.00  0.00     0.013 C 
ATOM     11  C   UNL     1      33.419  -5.578 -23.723  1.00  0.00     0.012 C 
ATOM     12  C   UNL     1      32.840  -3.127 -23.490  1.00  0.00     0.012 C 
ENDBRANCH   5  10
TORSDOF 2
ENDMDL
