MODEL 1
REMARK VINA RESULT:    -3.801      0.000      0.000
REMARK INTER + INTRA:          -4.112
REMARK INTER:                  -4.023
REMARK INTRA:                  -0.089
REMARK UNBOUND:                -0.089
REMARK SMILES C=C(C)[C@@H]1CC=C(C)C(=O)C1
REMARK SMILES IDX 8 1 7 2 6 3 5 4 4 5 11 6 9 7 10 8 2 9 1 10 3 11
REMARK H PARENT
REMARK Flexibility Score: inf
ROOT
ATOM      1  C   UNL     1      13.216  12.875  -0.852  1.00  0.00     0.048 C 
ATOM      2  C   UNL     1      12.005  13.428  -0.152  1.00  0.00    -0.012 C 
ATOM      3  C   UNL     1      10.973  13.900  -0.872  1.00  0.00    -0.019 C 
ATOM      4  C   UNL     1       9.730  14.447  -0.222  1.00  0.00     0.036 C 
ATOM      5  C   UNL     1      10.060  15.125   1.121  1.00  0.00     0.025 C 
ATOM      6  C   UNL     1      10.817  14.150   2.041  1.00  0.00     0.089 C 
ATOM      7  C   UNL     1      12.004  13.563   1.326  1.00  0.00     0.158 C 
ATOM      8  O   UNL     1      12.987  13.154   2.001  1.00  0.00    -0.295 OA
ENDROOT
BRANCH   5   9
ATOM      9  C   UNL     1       8.809  15.676   1.796  1.00  0.00    -0.077 C 
ATOM     10  C   UNL     1       8.708  16.976   2.125  1.00  0.00     0.008 C 
ATOM     11  C   UNL     1       7.654  14.761   2.109  1.00  0.00     0.039 C 
ENDBRANCH   5   9
TORSDOF 1
ENDMDL
MODEL 2
REMARK VINA RESULT:    -3.255      2.075      4.714
REMARK INTER + INTRA:          -3.534
REMARK INTER:                  -3.443
REMARK INTRA:                  -0.091
REMARK UNBOUND:                -0.089
REMARK SMILES C=C(C)[C@@H]1CC=C(C)C(=O)C1
REMARK SMILES IDX 8 1 7 2 6 3 5 4 4 5 11 6 9 7 10 8 2 9 1 10 3 11
REMARK H PARENT
REMARK Flexibility Score: inf
ROOT
ATOM      1  C   UNL     1       7.728  17.804   2.120  1.00  0.00     0.048 C 
ATOM      2  C   UNL     1       8.807  16.763   2.015  1.00  0.00    -0.012 C 
ATOM      3  C   UNL     1      10.085  17.139   1.832  1.00  0.00    -0.019 C 
ATOM      4  C   UNL     1      11.206  16.138   1.739  1.00  0.00     0.036 C 
ATOM      5  C   UNL     1      10.726  14.827   1.088  1.00  0.00     0.025 C 
ATOM      6  C   UNL     1       9.508  14.268   1.847  1.00  0.00     0.089 C 
ATOM      7  C   UNL     1       8.445  15.323   1.990  1.00  0.00     0.158 C 
ATOM      8  O   UNL     1       7.243  14.969   2.125  1.00  0.00    -0.295 OA
ENDROOT
BRANCH   5   9
ATOM      9  C   UNL     1      11.849  13.801   0.995  1.00  0.00    -0.077 C 
ATOM     10  C   UNL     1      11.979  13.003  -0.079  1.00  0.00     0.008 C 
ATOM     11  C   UNL     1      12.841  13.661   2.121  1.00  0.00     0.039 C 
ENDBRANCH   5   9
TORSDOF 1
ENDMDL
MODEL 3
REMARK VINA RESULT:    -2.607      1.567      2.186
REMARK INTER + INTRA:          -2.848
REMARK INTER:                  -2.755
REMARK INTRA:                  -0.093
REMARK UNBOUND:                -0.089
REMARK SMILES C=C(C)[C@@H]1CC=C(C)C(=O)C1
REMARK SMILES IDX 8 1 7 2 6 3 5 4 4 5 11 6 9 7 10 8 2 9 1 10 3 11
REMARK H PARENT
REMARK Flexibility Score: inf
ROOT
ATOM      1  C   UNL     1      12.864  12.892  -0.354  1.00  0.00     0.048 C 
ATOM      2  C   UNL     1      11.674  13.634   0.186  1.00  0.00    -0.012 C 
ATOM      3  C   UNL     1      11.545  13.818   1.512  1.00  0.00    -0.019 C 
ATOM      4  C   UNL     1      10.383  14.571   2.104  1.00  0.00     0.036 C 
ATOM      5  C   UNL     1       9.108  14.372   1.263  1.00  0.00     0.025 C 
ATOM      6  C   UNL     1       9.368  14.763  -0.203  1.00  0.00     0.089 C 
ATOM      7  C   UNL     1      10.585  14.053  -0.732  1.00  0.00     0.158 C 
ATOM      8  O   UNL     1      10.687  13.849  -1.971  1.00  0.00    -0.295 OA
ENDROOT
BRANCH   5   9
ATOM      9  C   UNL     1       7.925  15.135   1.846  1.00  0.00    -0.077 C 
ATOM     10  C   UNL     1       8.008  16.448   2.124  1.00  0.00     0.008 C 
ATOM     11  C   UNL     1       6.628  14.420   2.125  1.00  0.00     0.039 C 
ENDBRANCH   5   9
TORSDOF 1
ENDMDL
