MODEL 1
REMARK VINA RESULT:    -1.367      0.000      0.000
REMARK INTER + INTRA:          -1.862
REMARK INTER:                  -1.607
REMARK INTRA:                  -0.255
REMARK UNBOUND:                -0.255
REMARK SMILES [NH3+][C@@H](CO)C(=O)[O-]
REMARK SMILES IDX 3 1 2 2 1 3 5 7 6 8 7 9 4 10
REMARK H PARENT 1 4 1 5 1 6 4 11
REMARK Flexibility Score: inf
ROOT
ATOM      1  C   UNL     1     153.313 136.087  97.190  1.00  0.00     0.227 C 
ENDROOT
BRANCH   1   2
ATOM      2  C   UNL     1     152.317 136.098  96.016  1.00  0.00     0.253 C 
BRANCH   2   3
ATOM      3  N   UNL     1     152.431 134.875  95.212  1.00  0.00    -0.348 N 
ATOM      4  H   UNL     1     152.128 135.049  94.225  1.00  0.00     0.345 HD
ATOM      5  H   UNL     1     153.422 134.540  95.211  1.00  0.00     0.345 HD
ATOM      6  H   UNL     1     151.835 134.121  95.626  1.00  0.00     0.345 HD
ENDBRANCH   2   3
BRANCH   2   7
ATOM      7  C   UNL     1     152.543 137.314  95.158  1.00  0.00     0.102 C 
ATOM      8  O   UNL     1     151.898 138.376  95.371  1.00  0.00    -0.544 OA
ATOM      9  O   UNL     1     153.455 137.266  94.113  1.00  0.00    -0.544 OA
ENDBRANCH   2   7
ENDBRANCH   1   2
BRANCH   1  10
ATOM     10  O   UNL     1     154.580 136.520  96.771  1.00  0.00    -0.390 OA
ATOM     11  H   UNL     1     155.117 135.703  96.598  1.00  0.00     0.210 HD
ENDBRANCH   1  10
TORSDOF 4
ENDMDL
MODEL 2
REMARK VINA RESULT:    -1.362      1.960      2.898
REMARK INTER + INTRA:          -1.856
REMARK INTER:                  -1.598
REMARK INTRA:                  -0.259
REMARK UNBOUND:                -0.255
REMARK SMILES [NH3+][C@@H](CO)C(=O)[O-]
REMARK SMILES IDX 3 1 2 2 1 3 5 7 6 8 7 9 4 10
REMARK H PARENT 1 4 1 5 1 6 4 11
REMARK Flexibility Score: inf
ROOT
ATOM      1  C   UNL     1     153.582 137.628  94.997  1.00  0.00     0.227 C 
ENDROOT
BRANCH   1   2
ATOM      2  C   UNL     1     153.393 137.094  96.429  1.00  0.00     0.253 C 
BRANCH   2   3
ATOM      3  N   UNL     1     154.613 136.440  96.916  1.00  0.00    -0.348 N 
ATOM      4  H   UNL     1     154.514 135.398  96.884  1.00  0.00     0.345 HD
ATOM      5  H   UNL     1     155.430 136.724  96.328  1.00  0.00     0.345 HD
ATOM      6  H   UNL     1     154.805 136.736  97.902  1.00  0.00     0.345 HD
ENDBRANCH   2   3
BRANCH   2   7
ATOM      7  C   UNL     1     152.230 136.140  96.475  1.00  0.00     0.102 C 
ATOM      8  O   UNL     1     152.407 134.906  96.289  1.00  0.00    -0.544 OA
ATOM      9  O   UNL     1     150.947 136.620  96.706  1.00  0.00    -0.544 OA
ENDBRANCH   2   7
ENDBRANCH   1   2
BRANCH   1  10
ATOM     10  O   UNL     1     153.207 136.661  94.053  1.00  0.00    -0.390 OA
ATOM     11  H   UNL     1     152.978 137.151  93.219  1.00  0.00     0.210 HD
ENDBRANCH   1  10
TORSDOF 4
ENDMDL
MODEL 3
REMARK VINA RESULT:    -1.321      2.106      2.993
REMARK INTER + INTRA:          -1.809
REMARK INTER:                  -1.581
REMARK INTRA:                  -0.228
REMARK UNBOUND:                -0.255
REMARK SMILES [NH3+][C@@H](CO)C(=O)[O-]
REMARK SMILES IDX 3 1 2 2 1 3 5 7 6 8 7 9 4 10
REMARK H PARENT 1 4 1 5 1 6 4 11
REMARK Flexibility Score: inf
ROOT
ATOM      1  C   UNL     1     151.787 136.019  95.435  1.00  0.00     0.227 C 
ENDROOT
BRANCH   1   2
ATOM      2  C   UNL     1     152.861 136.974  95.987  1.00  0.00     0.253 C 
BRANCH   2   3
ATOM      3  N   UNL     1     153.862 137.295  94.963  1.00  0.00    -0.348 N 
ATOM      4  H   UNL     1     153.445 137.892  94.210  1.00  0.00     0.345 HD
ATOM      5  H   UNL     1     154.666 137.804  95.396  1.00  0.00     0.345 HD
ATOM      6  H   UNL     1     154.229 136.413  94.536  1.00  0.00     0.345 HD
ENDBRANCH   2   3
BRANCH   2   7
ATOM      7  C   UNL     1     153.522 136.366  97.195  1.00  0.00     0.102 C 
ATOM      8  O   UNL     1     153.082 135.296  97.694  1.00  0.00    -0.544 OA
ATOM      9  O   UNL     1     154.616 136.993  97.777  1.00  0.00    -0.544 OA
ENDBRANCH   2   7
ENDBRANCH   1   2
BRANCH   1  10
ATOM     10  O   UNL     1     152.378 134.875  94.878  1.00  0.00    -0.390 OA
ATOM     11  H   UNL     1     152.240 134.138  95.530  1.00  0.00     0.210 HD
ENDBRANCH   1  10
TORSDOF 4
ENDMDL
MODEL 4
REMARK VINA RESULT:    -1.233      1.480      1.605
REMARK INTER + INTRA:          -1.704
REMARK INTER:                  -1.311
REMARK INTRA:                  -0.394
REMARK UNBOUND:                -0.255
REMARK SMILES [NH3+][C@@H](CO)C(=O)[O-]
REMARK SMILES IDX 3 1 2 2 1 3 5 7 6 8 7 9 4 10
REMARK H PARENT 1 4 1 5 1 6 4 11
REMARK Flexibility Score: inf
ROOT
ATOM      1  C   UNL     1     153.260 137.152  96.935  1.00  0.00     0.227 C 
ENDROOT
BRANCH   1   2
ATOM      2  C   UNL     1     152.203 137.405  95.843  1.00  0.00     0.253 C 
BRANCH   2   3
ATOM      3  N   UNL     1     151.010 136.578  96.059  1.00  0.00    -0.348 N 
ATOM      4  H   UNL     1     150.830 135.961  95.232  1.00  0.00     0.345 HD
ATOM      5  H   UNL     1     151.138 135.982  96.909  1.00  0.00     0.345 HD
ATOM      6  H   UNL     1     150.176 137.191  96.217  1.00  0.00     0.345 HD
ENDBRANCH   2   3
BRANCH   2   7
ATOM      7  C   UNL     1     152.790 137.136  94.484  1.00  0.00     0.102 C 
ATOM      8  O   UNL     1     152.531 136.064  93.875  1.00  0.00    -0.544 OA
ATOM      9  O   UNL     1     153.639 138.067  93.899  1.00  0.00    -0.544 OA
ENDBRANCH   2   7
ENDBRANCH   1   2
BRANCH   1  10
ATOM     10  O   UNL     1     154.411 136.570  96.385  1.00  0.00    -0.390 OA
ATOM     11  H   UNL     1     155.145 136.720  97.038  1.00  0.00     0.210 HD
ENDBRANCH   1  10
TORSDOF 4
ENDMDL
MODEL 5
REMARK VINA RESULT:    -1.223      1.673      2.904
REMARK INTER + INTRA:          -1.693
REMARK INTER:                  -1.295
REMARK INTRA:                  -0.398
REMARK UNBOUND:                -0.255
REMARK SMILES [NH3+][C@@H](CO)C(=O)[O-]
REMARK SMILES IDX 3 1 2 2 1 3 5 7 6 8 7 9 4 10
REMARK H PARENT 1 4 1 5 1 6 4 11
REMARK Flexibility Score: inf
ROOT
ATOM      1  C   UNL     1     152.521 136.528  95.323  1.00  0.00     0.227 C 
ENDROOT
BRANCH   1   2
ATOM      2  C   UNL     1     152.683 136.459  96.853  1.00  0.00     0.253 C 
BRANCH   2   3
ATOM      3  N   UNL     1     151.556 137.106  97.536  1.00  0.00    -0.348 N 
ATOM      4  H   UNL     1     151.701 138.141  97.595  1.00  0.00     0.345 HD
ATOM      5  H   UNL     1     150.668 136.914  97.018  1.00  0.00     0.345 HD
ATOM      6  H   UNL     1     151.457 136.718  98.503  1.00  0.00     0.345 HD
ENDBRANCH   2   3
BRANCH   2   7
ATOM      7  C   UNL     1     153.983 137.098  97.264  1.00  0.00     0.102 C 
ATOM      8  O   UNL     1     154.998 136.390  97.498  1.00  0.00    -0.544 OA
ATOM      9  O   UNL     1     154.064 138.478  97.403  1.00  0.00    -0.544 OA
ENDBRANCH   2   7
ENDBRANCH   1   2
BRANCH   1  10
ATOM     10  O   UNL     1     153.661 137.085  94.727  1.00  0.00    -0.390 OA
ATOM     11  H   UNL     1     154.301 136.339  94.585  1.00  0.00     0.210 HD
ENDBRANCH   1  10
TORSDOF 4
ENDMDL
MODEL 6
REMARK VINA RESULT:    -1.192      1.987      2.447
REMARK INTER + INTRA:          -1.657
REMARK INTER:                  -1.257
REMARK INTRA:                  -0.399
REMARK UNBOUND:                -0.255
REMARK SMILES [NH3+][C@@H](CO)C(=O)[O-]
REMARK SMILES IDX 3 1 2 2 1 3 5 7 6 8 7 9 4 10
REMARK H PARENT 1 4 1 5 1 6 4 11
REMARK Flexibility Score: inf
ROOT
ATOM      1  C   UNL     1     153.931 138.552  97.748  1.00  0.00     0.227 C 
ENDROOT
BRANCH   1   2
ATOM      2  C   UNL     1     153.558 137.251  97.014  1.00  0.00     0.253 C 
BRANCH   2   3
ATOM      3  N   UNL     1     154.704 136.336  96.942  1.00  0.00    -0.348 N 
ATOM      4  H   UNL     1     155.551 136.830  96.575  1.00  0.00     0.345 HD
ATOM      5  H   UNL     1     154.915 135.954  97.892  1.00  0.00     0.345 HD
ATOM      6  H   UNL     1     154.476 135.532  96.312  1.00  0.00     0.345 HD
ENDBRANCH   2   3
BRANCH   2   7
ATOM      7  C   UNL     1     153.048 137.565  95.633  1.00  0.00     0.102 C 
ATOM      8  O   UNL     1     153.835 137.583  94.649  1.00  0.00    -0.544 OA
ATOM      9  O   UNL     1     151.704 137.856  95.439  1.00  0.00    -0.544 OA
ENDBRANCH   2   7
ENDBRANCH   1   2
BRANCH   1  10
ATOM     10  O   UNL     1     153.852 139.652  96.881  1.00  0.00    -0.390 OA
ATOM     11  H   UNL     1     153.256 140.316  97.318  1.00  0.00     0.210 HD
ENDBRANCH   1  10
TORSDOF 4
ENDMDL
MODEL 7
REMARK VINA RESULT:    -1.189      3.120      3.663
REMARK INTER + INTRA:          -1.653
REMARK INTER:                  -1.250
REMARK INTRA:                  -0.403
REMARK UNBOUND:                -0.255
REMARK SMILES [NH3+][C@@H](CO)C(=O)[O-]
REMARK SMILES IDX 3 1 2 2 1 3 5 7 6 8 7 9 4 10
REMARK H PARENT 1 4 1 5 1 6 4 11
REMARK Flexibility Score: inf
ROOT
ATOM      1  C   UNL     1     153.947 137.968  98.257  1.00  0.00     0.227 C 
ENDROOT
BRANCH   1   2
ATOM      2  C   UNL     1     154.464 136.782  97.421  1.00  0.00     0.253 C 
BRANCH   2   3
ATOM      3  N   UNL     1     154.001 136.872  96.031  1.00  0.00    -0.348 N 
ATOM      4  H   UNL     1     153.879 135.919  95.617  1.00  0.00     0.345 HD
ATOM      5  H   UNL     1     153.089 137.382  95.991  1.00  0.00     0.345 HD
ATOM      6  H   UNL     1     154.696 137.407  95.459  1.00  0.00     0.345 HD
ENDBRANCH   2   3
BRANCH   2   7
ATOM      7  C   UNL     1     154.021 135.483  98.039  1.00  0.00     0.102 C 
ATOM      8  O   UNL     1     154.761 134.881  98.862  1.00  0.00    -0.544 OA
ATOM      9  O   UNL     1     152.795 134.931  97.690  1.00  0.00    -0.544 OA
ENDBRANCH   2   7
ENDBRANCH   1   2
BRANCH   1  10
ATOM     10  O   UNL     1     153.199 137.514  99.353  1.00  0.00    -0.390 OA
ATOM     11  H   UNL     1     153.388 138.136 100.103  1.00  0.00     0.210 HD
ENDBRANCH   1  10
TORSDOF 4
ENDMDL
MODEL 8
REMARK VINA RESULT:    -1.186      1.801      2.840
REMARK INTER + INTRA:          -1.649
REMARK INTER:                  -1.251
REMARK INTRA:                  -0.398
REMARK UNBOUND:                -0.255
REMARK SMILES [NH3+][C@@H](CO)C(=O)[O-]
REMARK SMILES IDX 3 1 2 2 1 3 5 7 6 8 7 9 4 10
REMARK H PARENT 1 4 1 5 1 6 4 11
REMARK Flexibility Score: inf
ROOT
ATOM      1  C   UNL     1     152.591 136.467  93.875  1.00  0.00     0.227 C 
ENDROOT
BRANCH   1   2
ATOM      2  C   UNL     1     151.675 135.569  94.727  1.00  0.00     0.253 C 
BRANCH   2   3
ATOM      3  N   UNL     1     150.260 135.878  94.490  1.00  0.00    -0.348 N 
ATOM      4  H   UNL     1     150.134 136.892  94.263  1.00  0.00     0.345 HD
ATOM      5  H   UNL     1     149.897 135.303  93.695  1.00  0.00     0.345 HD
ATOM      6  H   UNL     1     149.698 135.645  95.341  1.00  0.00     0.345 HD
ENDBRANCH   2   3
BRANCH   2   7
ATOM      7  C   UNL     1     152.010 135.725  96.186  1.00  0.00     0.102 C 
ATOM      8  O   UNL     1     152.732 134.875  96.772  1.00  0.00    -0.544 OA
ATOM      9  O   UNL     1     151.508 136.805  96.901  1.00  0.00    -0.544 OA
ENDBRANCH   2   7
ENDBRANCH   1   2
BRANCH   1  10
ATOM     10  O   UNL     1     153.600 137.039  94.665  1.00  0.00    -0.390 OA
ATOM     11  H   UNL     1     153.915 137.847  94.181  1.00  0.00     0.210 HD
ENDBRANCH   1  10
TORSDOF 4
ENDMDL
MODEL 9
REMARK VINA RESULT:     0.824     16.421     17.282
REMARK INTER + INTRA:           0.714
REMARK INTER:                   0.000
REMARK INTRA:                   0.714
REMARK UNBOUND:                -0.255
REMARK SMILES [NH3+][C@@H](CO)C(=O)[O-]
REMARK SMILES IDX 3 1 2 2 1 3 5 7 6 8 7 9 4 10
REMARK H PARENT 1 4 1 5 1 6 4 11
REMARK Flexibility Score: inf
ROOT
ATOM      1  C   UNL     1     137.603 140.472  95.257  1.00  0.00     0.227 C 
ENDROOT
BRANCH   1   2
ATOM      2  C   UNL     1     136.215 140.238  95.883  1.00  0.00     0.253 C 
BRANCH   2   3
ATOM      3  N   UNL     1     135.171 140.186  94.852  1.00  0.00    -0.348 N 
ATOM      4  H   UNL     1     135.204 139.277  94.334  1.00  0.00     0.345 HD
ATOM      5  H   UNL     1     134.229 140.294  95.293  1.00  0.00     0.345 HD
ATOM      6  H   UNL     1     135.303 140.972  94.173  1.00  0.00     0.345 HD
ENDBRANCH   2   3
BRANCH   2   7
ATOM      7  C   UNL     1     135.911 141.319  96.885  1.00  0.00     0.102 C 
ATOM      8  O   UNL     1     135.107 141.106  97.831  1.00  0.00    -0.544 OA
ATOM      9  O   UNL     1     136.507 142.567  96.761  1.00  0.00    -0.544 OA
ENDBRANCH   2   7
ENDBRANCH   1   2
BRANCH   1  10
ATOM     10  O   UNL     1     137.999 141.808  95.414  1.00  0.00    -0.390 OA
ATOM     11  H   UNL     1     138.972 141.841  95.215  1.00  0.00     0.210 HD
ENDBRANCH   1  10
TORSDOF 4
ENDMDL
