MODEL 1
REMARK VINA RESULT:    -3.751      0.000      0.000
REMARK INTER + INTRA:          -4.821
REMARK INTER:                  -4.519
REMARK INTRA:                  -0.302
REMARK UNBOUND:                -0.302
REMARK SMILES O=c1c(O)c(-c2ccc(O)c(O)c2)oc2cc(O)cc(O)c12
REMARK SMILES IDX 5 1 3 2 2 3 1 4 22 5 20 6 19 7 17 8 16 9 15 10 14 11 6 12
REMARK SMILES IDX 7 13 8 14 9 15 13 16 11 17 10 18 12 20 4 22 21 24 18 26
REMARK H PARENT 10 19 12 21 4 23 21 25 18 27
REMARK Flexibility Score: inf
ROOT
ATOM      1  C   UNL     1       0.902  -1.270  14.944  1.00  0.00     0.180 A 
ATOM      2  C   UNL     1       2.062  -1.597  14.219  1.00  0.00     0.208 A 
ATOM      3  C   UNL     1       3.225  -1.955  14.919  1.00  0.00     0.238 A 
ATOM      4  O   UNL     1       4.274  -2.194  14.267  1.00  0.00    -0.285 OA
ATOM      5  C   UNL     1       3.209  -1.997  16.334  1.00  0.00     0.111 A 
ATOM      6  C   UNL     1       4.319  -2.384  17.146  1.00  0.00     0.134 A 
ATOM      7  C   UNL     1       4.232  -2.262  18.538  1.00  0.00     0.093 A 
ATOM      8  C   UNL     1       3.056  -1.832  19.151  1.00  0.00     0.123 A 
ATOM      9  C   UNL     1       1.946  -1.507  18.370  1.00  0.00     0.094 A 
ATOM     10  C   UNL     1       2.014  -1.582  16.978  1.00  0.00     0.146 A 
ATOM     11  O   UNL     1       0.939  -1.255  16.271  1.00  0.00    -0.452 OA
ENDROOT
BRANCH   1  12
ATOM     12  C   UNL     1      -0.368  -0.907  14.276  1.00  0.00     0.025 A 
ATOM     13  C   UNL     1      -1.403  -1.845  14.112  1.00  0.00     0.016 A 
ATOM     14  C   UNL     1      -2.603  -1.473  13.501  1.00  0.00     0.051 A 
ATOM     15  C   UNL     1      -2.791  -0.157  13.056  1.00  0.00     0.157 A 
ATOM     16  C   UNL     1      -0.570   0.415  13.847  1.00  0.00     0.062 A 
ATOM     17  C   UNL     1      -1.774   0.790  13.232  1.00  0.00     0.158 A 
BRANCH  15  18
ATOM     18  O   UNL     1      -3.986   0.217  12.444  1.00  0.00    -0.504 OA
ATOM     19  H   UNL     1      -4.876  -0.173  12.733  1.00  0.00     0.293 HD
ENDBRANCH  15  18
BRANCH  17  20
ATOM     20  O   UNL     1      -1.966   2.099  12.795  1.00  0.00    -0.504 OA
ATOM     21  H   UNL     1      -2.268   2.303  11.850  1.00  0.00     0.293 HD
ENDBRANCH  17  20
ENDBRANCH   1  12
BRANCH   2  22
ATOM     22  O   UNL     1       2.061  -1.528  12.822  1.00  0.00    -0.502 OA
ATOM     23  H   UNL     1       2.913  -1.552  12.276  1.00  0.00     0.293 HD
ENDBRANCH   2  22
BRANCH   6  24
ATOM     24  O   UNL     1       5.508  -2.916  16.638  1.00  0.00    -0.507 OA
ATOM     25  H   UNL     1       6.357  -3.034  17.169  1.00  0.00     0.293 HD
ENDBRANCH   6  24
BRANCH   8  26
ATOM     26  O   UNL     1       3.000  -1.737  20.540  1.00  0.00    -0.508 OA
ATOM     27  H   UNL     1       3.551  -2.344  21.135  1.00  0.00     0.293 HD
ENDBRANCH   8  26
TORSDOF 6
ENDMDL
MODEL 2
REMARK VINA RESULT:    -3.597      3.194      5.918
REMARK INTER + INTRA:          -4.635
REMARK INTER:                  -4.384
REMARK INTRA:                  -0.252
REMARK UNBOUND:                -0.302
REMARK SMILES O=c1c(O)c(-c2ccc(O)c(O)c2)oc2cc(O)cc(O)c12
REMARK SMILES IDX 5 1 3 2 2 3 1 4 22 5 20 6 19 7 17 8 16 9 15 10 14 11 6 12
REMARK SMILES IDX 7 13 8 14 9 15 13 16 11 17 10 18 12 20 4 22 21 24 18 26
REMARK H PARENT 10 19 12 21 4 23 21 25 18 27
REMARK Flexibility Score: inf
ROOT
ATOM      1  C   UNL     1       3.757  -1.907  19.406  1.00  0.00     0.180 A 
ATOM      2  C   UNL     1       3.673  -2.606  20.623  1.00  0.00     0.208 A 
ATOM      3  C   UNL     1       4.853  -3.072  21.224  1.00  0.00     0.238 A 
ATOM      4  O   UNL     1       4.767  -3.744  22.286  1.00  0.00    -0.285 OA
ATOM      5  C   UNL     1       6.103  -2.819  20.610  1.00  0.00     0.111 A 
ATOM      6  C   UNL     1       7.365  -3.209  21.151  1.00  0.00     0.134 A 
ATOM      7  C   UNL     1       8.528  -3.022  20.394  1.00  0.00     0.093 A 
ATOM      8  C   UNL     1       8.484  -2.401  19.147  1.00  0.00     0.123 A 
ATOM      9  C   UNL     1       7.262  -1.961  18.635  1.00  0.00     0.094 A 
ATOM     10  C   UNL     1       6.080  -2.167  19.350  1.00  0.00     0.146 A 
ATOM     11  O   UNL     1       4.938  -1.743  18.823  1.00  0.00    -0.452 OA
ENDROOT
BRANCH   1  12
ATOM     12  C   UNL     1       2.559  -1.365  18.725  1.00  0.00     0.025 A 
ATOM     13  C   UNL     1       1.861  -0.259  19.242  1.00  0.00     0.016 A 
ATOM     14  C   UNL     1       0.748   0.252  18.569  1.00  0.00     0.051 A 
ATOM     15  C   UNL     1       0.325  -0.326  17.365  1.00  0.00     0.157 A 
ATOM     16  C   UNL     1       2.143  -1.926  17.507  1.00  0.00     0.062 A 
ATOM     17  C   UNL     1       1.026  -1.415  16.831  1.00  0.00     0.158 A 
BRANCH  15  18
ATOM     18  O   UNL     1      -0.786   0.179  16.691  1.00  0.00    -0.504 OA
ATOM     19  H   UNL     1      -0.980   1.173  16.660  1.00  0.00     0.293 HD
ENDBRANCH  15  18
BRANCH  17  20
ATOM     20  O   UNL     1       0.607  -1.983  15.629  1.00  0.00    -0.504 OA
ATOM     21  H   UNL     1       0.853  -2.933  15.378  1.00  0.00     0.293 HD
ENDBRANCH  17  20
ENDBRANCH   1  12
BRANCH   2  22
ATOM     22  O   UNL     1       2.426  -2.864  21.202  1.00  0.00    -0.502 OA
ATOM     23  H   UNL     1       2.229  -3.716  21.712  1.00  0.00     0.293 HD
ENDBRANCH   2  22
BRANCH   6  24
ATOM     24  O   UNL     1       7.532  -3.755  22.427  1.00  0.00    -0.507 OA
ATOM     25  H   UNL     1       8.146  -4.524  22.648  1.00  0.00     0.293 HD
ENDBRANCH   6  24
BRANCH   8  26
ATOM     26  O   UNL     1       9.663  -2.216  18.427  1.00  0.00    -0.508 OA
ATOM     27  H   UNL     1      10.558  -2.124  18.892  1.00  0.00     0.293 HD
ENDBRANCH   8  26
TORSDOF 6
ENDMDL
MODEL 3
REMARK VINA RESULT:    -3.592      3.185      8.052
REMARK INTER + INTRA:          -4.629
REMARK INTER:                  -4.725
REMARK INTRA:                   0.096
REMARK UNBOUND:                -0.302
REMARK SMILES O=c1c(O)c(-c2ccc(O)c(O)c2)oc2cc(O)cc(O)c12
REMARK SMILES IDX 5 1 3 2 2 3 1 4 22 5 20 6 19 7 17 8 16 9 15 10 14 11 6 12
REMARK SMILES IDX 7 13 8 14 9 15 13 16 11 17 10 18 12 20 4 22 21 24 18 26
REMARK H PARENT 10 19 12 21 4 23 21 25 18 27
REMARK Flexibility Score: inf
ROOT
ATOM      1  C   UNL     1       4.894  -2.163  18.570  1.00  0.00     0.180 A 
ATOM      2  C   UNL     1       4.606  -2.568  17.254  1.00  0.00     0.208 A 
ATOM      3  C   UNL     1       3.336  -2.297  16.721  1.00  0.00     0.238 A 
ATOM      4  O   UNL     1       3.066  -2.710  15.562  1.00  0.00    -0.285 OA
ATOM      5  C   UNL     1       2.376  -1.611  17.502  1.00  0.00     0.111 A 
ATOM      6  C   UNL     1       1.072  -1.249  17.050  1.00  0.00     0.134 A 
ATOM      7  C   UNL     1       0.158  -0.688  17.951  1.00  0.00     0.093 A 
ATOM      8  C   UNL     1       0.523  -0.416  19.268  1.00  0.00     0.123 A 
ATOM      9  C   UNL     1       1.814  -0.711  19.706  1.00  0.00     0.094 A 
ATOM     10  C   UNL     1       2.736  -1.305  18.841  1.00  0.00     0.146 A 
ATOM     11  O   UNL     1       3.951  -1.579  19.299  1.00  0.00    -0.452 OA
ENDROOT
BRANCH   1  12
ATOM     12  C   UNL     1       6.219  -2.391  19.192  1.00  0.00     0.025 A 
ATOM     13  C   UNL     1       6.337  -2.931  20.484  1.00  0.00     0.016 A 
ATOM     14  C   UNL     1       7.598  -3.161  21.041  1.00  0.00     0.051 A 
ATOM     15  C   UNL     1       8.757  -2.867  20.310  1.00  0.00     0.157 A 
ATOM     16  C   UNL     1       7.384  -2.117  18.456  1.00  0.00     0.062 A 
ATOM     17  C   UNL     1       8.650  -2.347  19.014  1.00  0.00     0.158 A 
BRANCH  15  18
ATOM     18  O   UNL     1      10.016  -3.093  20.863  1.00  0.00    -0.504 OA
ATOM     19  H   UNL     1      10.865  -2.933  20.332  1.00  0.00     0.293 HD
ENDBRANCH  15  18
BRANCH  17  20
ATOM     20  O   UNL     1       9.804  -2.062  18.287  1.00  0.00    -0.504 OA
ATOM     21  H   UNL     1      10.626  -2.652  18.343  1.00  0.00     0.293 HD
ENDBRANCH  17  20
ENDBRANCH   1  12
BRANCH   2  22
ATOM     22  O   UNL     1       5.562  -3.264  16.507  1.00  0.00    -0.502 OA
ATOM     23  H   UNL     1       5.348  -4.122  16.014  1.00  0.00     0.293 HD
ENDBRANCH   2  22
BRANCH   6  24
ATOM     24  O   UNL     1       0.637  -1.392  15.728  1.00  0.00    -0.507 OA
ATOM     25  H   UNL     1       0.203  -0.663  15.184  1.00  0.00     0.293 HD
ENDBRANCH   6  24
BRANCH   8  26
ATOM     26  O   UNL     1      -0.407   0.157  20.135  1.00  0.00    -0.508 OA
ATOM     27  H   UNL     1      -1.010  -0.412  20.717  1.00  0.00     0.293 HD
ENDBRANCH   8  26
TORSDOF 6
ENDMDL
MODEL 4
REMARK VINA RESULT:    -3.569      2.587      8.133
REMARK INTER + INTRA:          -4.601
REMARK INTER:                  -4.768
REMARK INTRA:                   0.167
REMARK UNBOUND:                -0.302
REMARK SMILES O=c1c(O)c(-c2ccc(O)c(O)c2)oc2cc(O)cc(O)c12
REMARK SMILES IDX 5 1 3 2 2 3 1 4 22 5 20 6 19 7 17 8 16 9 15 10 14 11 6 12
REMARK SMILES IDX 7 13 8 14 9 15 13 16 11 17 10 18 12 20 4 22 21 24 18 26
REMARK H PARENT 10 19 12 21 4 23 21 25 18 27
REMARK Flexibility Score: inf
ROOT
ATOM      1  C   UNL     1       4.296  -2.149  18.045  1.00  0.00     0.180 A 
ATOM      2  C   UNL     1       3.040  -1.724  18.513  1.00  0.00     0.208 A 
ATOM      3  C   UNL     1       1.993  -1.553  17.593  1.00  0.00     0.238 A 
ATOM      4  O   UNL     1       0.886  -1.121  18.010  1.00  0.00    -0.285 OA
ATOM      5  C   UNL     1       2.210  -1.825  16.221  1.00  0.00     0.111 A 
ATOM      6  C   UNL     1       1.210  -1.724  15.207  1.00  0.00     0.134 A 
ATOM      7  C   UNL     1       1.569  -1.889  13.864  1.00  0.00     0.093 A 
ATOM      8  C   UNL     1       2.875  -2.216  13.503  1.00  0.00     0.123 A 
ATOM      9  C   UNL     1       3.848  -2.375  14.490  1.00  0.00     0.094 A 
ATOM     10  C   UNL     1       3.528  -2.180  15.836  1.00  0.00     0.146 A 
ATOM     11  O   UNL     1       4.485  -2.332  16.743  1.00  0.00    -0.452 OA
ENDROOT
BRANCH   1  12
ATOM     12  C   UNL     1       5.441  -2.375  18.956  1.00  0.00     0.025 A 
ATOM     13  C   UNL     1       5.255  -2.897  20.248  1.00  0.00     0.016 A 
ATOM     14  C   UNL     1       6.353  -3.126  21.083  1.00  0.00     0.051 A 
ATOM     15  C   UNL     1       7.651  -2.849  20.633  1.00  0.00     0.157 A 
ATOM     16  C   UNL     1       6.746  -2.118  18.504  1.00  0.00     0.062 A 
ATOM     17  C   UNL     1       7.848  -2.347  19.340  1.00  0.00     0.158 A 
BRANCH  15  18
ATOM     18  O   UNL     1       8.749  -3.073  21.462  1.00  0.00    -0.504 OA
ATOM     19  H   UNL     1       9.145  -3.999  21.579  1.00  0.00     0.293 HD
ENDBRANCH  15  18
BRANCH  17  20
ATOM     20  O   UNL     1       9.141  -2.078  18.893  1.00  0.00    -0.504 OA
ATOM     21  H   UNL     1       9.936  -2.113  19.520  1.00  0.00     0.293 HD
ENDBRANCH  17  20
ENDBRANCH   1  12
BRANCH   2  22
ATOM     22  O   UNL     1       2.854  -1.441  19.869  1.00  0.00    -0.502 OA
ATOM     23  H   UNL     1       1.935  -1.371  20.289  1.00  0.00     0.293 HD
ENDBRANCH   2  22
BRANCH   6  24
ATOM     24  O   UNL     1      -0.145  -1.493  15.467  1.00  0.00    -0.507 OA
ATOM     25  H   UNL     1      -0.822  -1.205  14.777  1.00  0.00     0.293 HD
ENDBRANCH   6  24
BRANCH   8  26
ATOM     26  O   UNL     1       3.194  -2.388  12.157  1.00  0.00    -0.508 OA
ATOM     27  H   UNL     1       2.705  -3.061  11.579  1.00  0.00     0.293 HD
ENDBRANCH   8  26
TORSDOF 6
ENDMDL
MODEL 5
REMARK VINA RESULT:    -3.551      6.468      9.747
REMARK INTER + INTRA:          -4.579
REMARK INTER:                  -4.394
REMARK INTRA:                  -0.185
REMARK UNBOUND:                -0.302
REMARK SMILES O=c1c(O)c(-c2ccc(O)c(O)c2)oc2cc(O)cc(O)c12
REMARK SMILES IDX 5 1 3 2 2 3 1 4 22 5 20 6 19 7 17 8 16 9 15 10 14 11 6 12
REMARK SMILES IDX 7 13 8 14 9 15 13 16 11 17 10 18 12 20 4 22 21 24 18 26
REMARK H PARENT 10 19 12 21 4 23 21 25 18 27
REMARK Flexibility Score: inf
ROOT
ATOM      1  C   UNL     1       3.162   5.662  14.646  1.00  0.00     0.180 A 
ATOM      2  C   UNL     1       3.266   6.731  13.739  1.00  0.00     0.208 A 
ATOM      3  C   UNL     1       2.303   6.862  12.727  1.00  0.00     0.238 A 
ATOM      4  O   UNL     1       2.432   7.789  11.885  1.00  0.00    -0.285 OA
ATOM      5  C   UNL     1       1.239   5.932  12.644  1.00  0.00     0.111 A 
ATOM      6  C   UNL     1       0.184   5.991  11.682  1.00  0.00     0.134 A 
ATOM      7  C   UNL     1      -0.743   4.945  11.610  1.00  0.00     0.093 A 
ATOM      8  C   UNL     1      -0.695   3.876  12.504  1.00  0.00     0.123 A 
ATOM      9  C   UNL     1       0.296   3.838  13.486  1.00  0.00     0.094 A 
ATOM     10  C   UNL     1       1.258   4.848  13.560  1.00  0.00     0.146 A 
ATOM     11  O   UNL     1       2.189   4.770  14.502  1.00  0.00    -0.452 OA
ENDROOT
BRANCH   1  12
ATOM     12  C   UNL     1       4.125   5.473  15.755  1.00  0.00     0.025 A 
ATOM     13  C   UNL     1       3.730   5.603  17.098  1.00  0.00     0.016 A 
ATOM     14  C   UNL     1       4.651   5.395  18.129  1.00  0.00     0.051 A 
ATOM     15  C   UNL     1       5.975   5.043  17.832  1.00  0.00     0.157 A 
ATOM     16  C   UNL     1       5.448   5.099  15.465  1.00  0.00     0.062 A 
ATOM     17  C   UNL     1       6.373   4.891  16.498  1.00  0.00     0.158 A 
BRANCH  15  18
ATOM     18  O   UNL     1       6.897   4.837  18.857  1.00  0.00    -0.504 OA
ATOM     19  H   UNL     1       6.600   4.644  19.807  1.00  0.00     0.293 HD
ENDBRANCH  15  18
BRANCH  17  20
ATOM     20  O   UNL     1       7.688   4.534  16.207  1.00  0.00    -0.504 OA
ATOM     21  H   UNL     1       8.335   5.190  15.786  1.00  0.00     0.293 HD
ENDBRANCH  17  20
ENDBRANCH   1  12
BRANCH   2  22
ATOM     22  O   UNL     1       4.338   7.626  13.826  1.00  0.00    -0.502 OA
ATOM     23  H   UNL     1       5.253   7.417  13.447  1.00  0.00     0.293 HD
ENDBRANCH   2  22
BRANCH   6  24
ATOM     24  O   UNL     1      -0.010   7.060  10.802  1.00  0.00    -0.507 OA
ATOM     25  H   UNL     1       0.133   7.017   9.805  1.00  0.00     0.293 HD
ENDBRANCH   6  24
BRANCH   8  26
ATOM     26  O   UNL     1      -1.644   2.860  12.413  1.00  0.00    -0.508 OA
ATOM     27  H   UNL     1      -2.490   2.873  12.970  1.00  0.00     0.293 HD
ENDBRANCH   8  26
TORSDOF 6
ENDMDL
MODEL 6
REMARK VINA RESULT:    -3.510      3.337      5.180
REMARK INTER + INTRA:          -4.530
REMARK INTER:                  -4.207
REMARK INTRA:                  -0.323
REMARK UNBOUND:                -0.302
REMARK SMILES O=c1c(O)c(-c2ccc(O)c(O)c2)oc2cc(O)cc(O)c12
REMARK SMILES IDX 5 1 3 2 2 3 1 4 22 5 20 6 19 7 17 8 16 9 15 10 14 11 6 12
REMARK SMILES IDX 7 13 8 14 9 15 13 16 11 17 10 18 12 20 4 22 21 24 18 26
REMARK H PARENT 10 19 12 21 4 23 21 25 18 27
REMARK Flexibility Score: inf
ROOT
ATOM      1  C   UNL     1       4.225  -3.122  16.724  1.00  0.00     0.180 A 
ATOM      2  C   UNL     1       3.395  -3.413  17.821  1.00  0.00     0.208 A 
ATOM      3  C   UNL     1       3.943  -3.396  19.113  1.00  0.00     0.238 A 
ATOM      4  O   UNL     1       3.208  -3.710  20.086  1.00  0.00    -0.285 OA
ATOM      5  C   UNL     1       5.310  -3.074  19.294  1.00  0.00     0.111 A 
ATOM      6  C   UNL     1       5.961  -2.989  20.561  1.00  0.00     0.134 A 
ATOM      7  C   UNL     1       7.346  -2.792  20.614  1.00  0.00     0.093 A 
ATOM      8  C   UNL     1       8.092  -2.610  19.451  1.00  0.00     0.123 A 
ATOM      9  C   UNL     1       7.456  -2.633  18.209  1.00  0.00     0.094 A 
ATOM     10  C   UNL     1       6.082  -2.865  18.122  1.00  0.00     0.146 A 
ATOM     11  O   UNL     1       5.517  -2.888  16.921  1.00  0.00    -0.452 OA
ENDROOT
BRANCH   1  12
ATOM     12  C   UNL     1       3.714  -3.095  15.334  1.00  0.00     0.025 A 
ATOM     13  C   UNL     1       3.681  -4.258  14.544  1.00  0.00     0.016 A 
ATOM     14  C   UNL     1       3.171  -4.214  13.244  1.00  0.00     0.051 A 
ATOM     15  C   UNL     1       2.674  -3.012  12.720  1.00  0.00     0.157 A 
ATOM     16  C   UNL     1       3.196  -1.899  14.812  1.00  0.00     0.062 A 
ATOM     17  C   UNL     1       2.683  -1.853  13.507  1.00  0.00     0.158 A 
BRANCH  15  18
ATOM     18  O   UNL     1       2.166  -2.964  11.423  1.00  0.00    -0.504 OA
ATOM     19  H   UNL     1       1.809  -3.793  10.962  1.00  0.00     0.293 HD
ENDBRANCH  15  18
BRANCH  17  20
ATOM     20  O   UNL     1       2.182  -0.662  12.987  1.00  0.00    -0.504 OA
ATOM     21  H   UNL     1       1.966  -0.562  12.002  1.00  0.00     0.293 HD
ENDBRANCH  17  20
ENDBRANCH   1  12
BRANCH   2  22
ATOM     22  O   UNL     1       2.053  -3.749  17.617  1.00  0.00    -0.502 OA
ATOM     23  H   UNL     1       1.302  -3.349  18.167  1.00  0.00     0.293 HD
ENDBRANCH   2  22
BRANCH   6  24
ATOM     24  O   UNL     1       5.294  -3.063  21.788  1.00  0.00    -0.507 OA
ATOM     25  H   UNL     1       5.630  -3.565  22.596  1.00  0.00     0.293 HD
ENDBRANCH   6  24
BRANCH   8  26
ATOM     26  O   UNL     1       9.467  -2.401  19.541  1.00  0.00    -0.508 OA
ATOM     27  H   UNL     1      10.000  -2.040  18.759  1.00  0.00     0.293 HD
ENDBRANCH   8  26
TORSDOF 6
ENDMDL
MODEL 7
REMARK VINA RESULT:    -3.408      6.663      9.740
REMARK INTER + INTRA:          -4.407
REMARK INTER:                  -4.077
REMARK INTRA:                  -0.329
REMARK UNBOUND:                -0.302
REMARK SMILES O=c1c(O)c(-c2ccc(O)c(O)c2)oc2cc(O)cc(O)c12
REMARK SMILES IDX 5 1 3 2 2 3 1 4 22 5 20 6 19 7 17 8 16 9 15 10 14 11 6 12
REMARK SMILES IDX 7 13 8 14 9 15 13 16 11 17 10 18 12 20 4 22 21 24 18 26
REMARK H PARENT 10 19 12 21 4 23 21 25 18 27
REMARK Flexibility Score: inf
ROOT
ATOM      1  C   UNL     1       2.318   4.992  10.057  1.00  0.00     0.180 A 
ATOM      2  C   UNL     1       1.199   5.366   9.291  1.00  0.00     0.208 A 
ATOM      3  C   UNL     1      -0.087   5.113   9.795  1.00  0.00     0.238 A 
ATOM      4  O   UNL     1      -1.084   5.401   9.082  1.00  0.00    -0.285 OA
ATOM      5  C   UNL     1      -0.238   4.505  11.064  1.00  0.00     0.111 A 
ATOM      6  C   UNL     1      -1.493   4.237  11.690  1.00  0.00     0.134 A 
ATOM      7  C   UNL     1      -1.528   3.513  12.887  1.00  0.00     0.093 A 
ATOM      8  C   UNL     1      -0.352   3.104  13.515  1.00  0.00     0.123 A 
ATOM      9  C   UNL     1       0.883   3.411  12.942  1.00  0.00     0.094 A 
ATOM     10  C   UNL     1       0.948   4.100  11.729  1.00  0.00     0.146 A 
ATOM     11  O   UNL     1       2.142   4.364  11.213  1.00  0.00    -0.452 OA
ENDROOT
BRANCH   1  12
ATOM     12  C   UNL     1       3.703   5.248   9.603  1.00  0.00     0.025 A 
ATOM     13  C   UNL     1       4.381   6.429   9.953  1.00  0.00     0.016 A 
ATOM     14  C   UNL     1       5.698   6.639   9.534  1.00  0.00     0.051 A 
ATOM     15  C   UNL     1       6.360   5.666   8.772  1.00  0.00     0.157 A 
ATOM     16  C   UNL     1       4.379   4.268   8.857  1.00  0.00     0.062 A 
ATOM     17  C   UNL     1       5.700   4.477   8.435  1.00  0.00     0.158 A 
BRANCH  15  18
ATOM     18  O   UNL     1       7.673   5.872   8.351  1.00  0.00    -0.504 OA
ATOM     19  H   UNL     1       8.462   5.580   8.915  1.00  0.00     0.293 HD
ENDBRANCH  15  18
BRANCH  17  20
ATOM     20  O   UNL     1       6.363   3.509   7.683  1.00  0.00    -0.504 OA
ATOM     21  H   UNL     1       7.228   3.090   8.002  1.00  0.00     0.293 HD
ENDBRANCH  17  20
ENDBRANCH   1  12
BRANCH   2  22
ATOM     22  O   UNL     1       1.371   5.947   8.031  1.00  0.00    -0.502 OA
ATOM     23  H   UNL     1       1.779   6.865   7.906  1.00  0.00     0.293 HD
ENDBRANCH   2  22
BRANCH   6  24
ATOM     24  O   UNL     1      -2.723   4.683  11.194  1.00  0.00    -0.507 OA
ATOM     25  H   UNL     1      -3.234   5.475  11.552  1.00  0.00     0.293 HD
ENDBRANCH   6  24
BRANCH   8  26
ATOM     26  O   UNL     1      -0.422   2.398  14.715  1.00  0.00    -0.508 OA
ATOM     27  H   UNL     1       0.290   1.728  14.978  1.00  0.00     0.293 HD
ENDBRANCH   8  26
TORSDOF 6
ENDMDL
MODEL 8
REMARK VINA RESULT:    -3.274      2.134      7.328
REMARK INTER + INTRA:          -4.246
REMARK INTER:                  -3.911
REMARK INTRA:                  -0.334
REMARK UNBOUND:                -0.302
REMARK SMILES O=c1c(O)c(-c2ccc(O)c(O)c2)oc2cc(O)cc(O)c12
REMARK SMILES IDX 5 1 3 2 2 3 1 4 22 5 20 6 19 7 17 8 16 9 15 10 14 11 6 12
REMARK SMILES IDX 7 13 8 14 9 15 13 16 11 17 10 18 12 20 4 22 21 24 18 26
REMARK H PARENT 10 19 12 21 4 23 21 25 18 27
REMARK Flexibility Score: inf
ROOT
ATOM      1  C   UNL     1       3.844  -2.464  16.820  1.00  0.00     0.180 A 
ATOM      2  C   UNL     1       4.215  -2.562  15.467  1.00  0.00     0.208 A 
ATOM      3  C   UNL     1       3.301  -2.162  14.479  1.00  0.00     0.238 A 
ATOM      4  O   UNL     1       3.618  -2.303  13.269  1.00  0.00    -0.285 OA
ATOM      5  C   UNL     1       2.035  -1.654  14.857  1.00  0.00     0.111 A 
ATOM      6  C   UNL     1       1.046  -1.182  13.942  1.00  0.00     0.134 A 
ATOM      7  C   UNL     1      -0.221  -0.823  14.418  1.00  0.00     0.093 A 
ATOM      8  C   UNL     1      -0.513  -0.856  15.781  1.00  0.00     0.123 A 
ATOM      9  C   UNL     1       0.465  -1.260  16.690  1.00  0.00     0.094 A 
ATOM     10  C   UNL     1       1.726  -1.658  16.242  1.00  0.00     0.146 A 
ATOM     11  O   UNL     1       2.626  -2.045  17.138  1.00  0.00    -0.452 OA
ENDROOT
BRANCH   1  12
ATOM     12  C   UNL     1       4.763  -2.843  17.918  1.00  0.00     0.025 A 
ATOM     13  C   UNL     1       5.664  -1.916  18.471  1.00  0.00     0.016 A 
ATOM     14  C   UNL     1       6.504  -2.289  19.524  1.00  0.00     0.051 A 
ATOM     15  C   UNL     1       6.447  -3.589  20.046  1.00  0.00     0.157 A 
ATOM     16  C   UNL     1       4.696  -4.137  18.459  1.00  0.00     0.062 A 
ATOM     17  C   UNL     1       5.539  -4.514  19.515  1.00  0.00     0.158 A 
BRANCH  15  18
ATOM     18  O   UNL     1       7.284  -3.965  21.095  1.00  0.00    -0.504 OA
ATOM     19  H   UNL     1       8.284  -4.069  20.964  1.00  0.00     0.293 HD
ENDBRANCH  15  18
BRANCH  17  20
ATOM     20  O   UNL     1       5.479  -5.803  20.041  1.00  0.00    -0.504 OA
ATOM     21  H   UNL     1       6.309  -6.278  20.376  1.00  0.00     0.293 HD
ENDBRANCH  17  20
ENDBRANCH   1  12
BRANCH   2  22
ATOM     22  O   UNL     1       5.463  -3.087  15.116  1.00  0.00    -0.502 OA
ATOM     23  H   UNL     1       5.857  -2.982  14.189  1.00  0.00     0.293 HD
ENDBRANCH   2  22
BRANCH   6  24
ATOM     24  O   UNL     1       1.265  -1.022  12.570  1.00  0.00    -0.507 OA
ATOM     25  H   UNL     1       1.886  -0.338  12.163  1.00  0.00     0.293 HD
ENDBRANCH   6  24
BRANCH   8  26
ATOM     26  O   UNL     1      -1.780  -0.477  16.222  1.00  0.00    -0.508 OA
ATOM     27  H   UNL     1      -2.081  -0.644  17.175  1.00  0.00     0.293 HD
ENDBRANCH   8  26
TORSDOF 6
ENDMDL
MODEL 9
REMARK VINA RESULT:    -3.203      3.158      8.232
REMARK INTER + INTRA:          -4.161
REMARK INTER:                  -3.840
REMARK INTRA:                  -0.320
REMARK UNBOUND:                -0.302
REMARK SMILES O=c1c(O)c(-c2ccc(O)c(O)c2)oc2cc(O)cc(O)c12
REMARK SMILES IDX 5 1 3 2 2 3 1 4 22 5 20 6 19 7 17 8 16 9 15 10 14 11 6 12
REMARK SMILES IDX 7 13 8 14 9 15 13 16 11 17 10 18 12 20 4 22 21 24 18 26
REMARK H PARENT 10 19 12 21 4 23 21 25 18 27
REMARK Flexibility Score: inf
ROOT
ATOM      1  C   UNL     1       5.891  -3.530  16.327  1.00  0.00     0.180 A 
ATOM      2  C   UNL     1       6.374  -3.855  15.047  1.00  0.00     0.208 A 
ATOM      3  C   UNL     1       5.622  -3.484  13.921  1.00  0.00     0.238 A 
ATOM      4  O   UNL     1       6.033  -3.825  12.781  1.00  0.00    -0.285 OA
ATOM      5  C   UNL     1       4.406  -2.779  14.088  1.00  0.00     0.111 A 
ATOM      6  C   UNL     1       3.583  -2.318  13.016  1.00  0.00     0.134 A 
ATOM      7  C   UNL     1       2.337  -1.747  13.298  1.00  0.00     0.093 A 
ATOM      8  C   UNL     1       1.912  -1.559  14.613  1.00  0.00     0.123 A 
ATOM      9  C   UNL     1       2.735  -1.952  15.670  1.00  0.00     0.094 A 
ATOM     10  C   UNL     1       3.967  -2.558  15.419  1.00  0.00     0.146 A 
ATOM     11  O   UNL     1       4.715  -2.926  16.452  1.00  0.00    -0.452 OA
ENDROOT
BRANCH   1  12
ATOM     12  C   UNL     1       6.639  -3.866  17.560  1.00  0.00     0.025 A 
ATOM     13  C   UNL     1       6.413  -5.071  18.248  1.00  0.00     0.016 A 
ATOM     14  C   UNL     1       7.150  -5.379  19.395  1.00  0.00     0.051 A 
ATOM     15  C   UNL     1       8.130  -4.494  19.863  1.00  0.00     0.157 A 
ATOM     16  C   UNL     1       7.638  -2.993  18.021  1.00  0.00     0.062 A 
ATOM     17  C   UNL     1       8.377  -3.300  19.173  1.00  0.00     0.158 A 
BRANCH  15  18
ATOM     18  O   UNL     1       8.866  -4.795  21.008  1.00  0.00    -0.504 OA
ATOM     19  H   UNL     1       9.874  -4.694  21.033  1.00  0.00     0.293 HD
ENDBRANCH  15  18
BRANCH  17  20
ATOM     20  O   UNL     1       9.358  -2.425  19.637  1.00  0.00    -0.504 OA
ATOM     21  H   UNL     1       9.556  -1.552  19.162  1.00  0.00     0.293 HD
ENDBRANCH  17  20
ENDBRANCH   1  12
BRANCH   2  22
ATOM     22  O   UNL     1       7.567  -4.571  14.906  1.00  0.00    -0.502 OA
ATOM     23  H   UNL     1       8.107  -4.565  14.050  1.00  0.00     0.293 HD
ENDBRANCH   2  22
BRANCH   6  24
ATOM     24  O   UNL     1       3.954  -2.373  11.668  1.00  0.00    -0.507 OA
ATOM     25  H   UNL     1       4.409  -1.626  11.167  1.00  0.00     0.293 HD
ENDBRANCH   6  24
BRANCH   8  26
ATOM     26  O   UNL     1       0.672  -0.973  14.859  1.00  0.00    -0.508 OA
ATOM     27  H   UNL     1       0.506  -0.412  15.685  1.00  0.00     0.293 HD
ENDBRANCH   8  26
TORSDOF 6
ENDMDL
