MODEL 1
REMARK VINA RESULT:    -5.596      0.000      0.000
REMARK INTER + INTRA:         -15.312
REMARK INTER:                 -12.793
REMARK INTRA:                  -2.519
REMARK UNBOUND:                -2.519
REMARK SMILES CCCCCCCCCCCCCCCCCCCCCCCC(=O)[O-]
REMARK SMILES IDX 13 1 14 2 15 3 16 4 17 5 18 6 19 7 20 8 21 9 22 10 23 11
REMARK SMILES IDX 24 12 25 13 26 14 12 15 11 16 10 17 9 18 8 19 7 20 6 21 5 22
REMARK SMILES IDX 4 23 3 24 2 25 1 26
REMARK H PARENT
REMARK Flexibility Score: inf
ROOT
ATOM      1  C   UNL     1     -15.160  -6.305  43.256  1.00  0.00     0.000 C 
ENDROOT
BRANCH   1   2
ATOM      2  C   UNL     1     -15.559  -6.514  44.728  1.00  0.00     0.000 C 
BRANCH   2   3
ATOM      3  C   UNL     1     -16.940  -7.177  44.880  1.00  0.00     0.000 C 
BRANCH   3   4
ATOM      4  C   UNL     1     -17.197  -7.823  46.254  1.00  0.00     0.000 C 
BRANCH   4   5
ATOM      5  C   UNL     1     -17.370  -9.349  46.170  1.00  0.00     0.000 C 
BRANCH   5   6
ATOM      6  C   UNL     1     -16.978  -9.907  44.793  1.00  0.00     0.000 C 
BRANCH   6   7
ATOM      7  C   UNL     1     -15.756 -10.837  44.864  1.00  0.00     0.000 C 
BRANCH   7   8
ATOM      8  C   UNL     1     -15.098 -10.848  46.254  1.00  0.00     0.000 C 
BRANCH   8   9
ATOM      9  C   UNL     1     -13.759 -10.077  46.306  1.00  0.00     0.000 C 
BRANCH   9  10
ATOM     10  C   UNL     1     -13.459  -9.282  45.016  1.00  0.00     0.006 C 
BRANCH  10  11
ATOM     11  C   UNL     1     -12.229  -8.369  45.134  1.00  0.00     0.053 C 
BRANCH  11  12
ATOM     12  C   UNL     1     -11.048  -8.907  44.389  1.00  0.00     0.041 C 
ATOM     13  O   UNL     1     -10.327  -9.802  44.905  1.00  0.00    -0.550 OA
ATOM     14  O   UNL     1     -10.768  -8.451  43.107  1.00  0.00    -0.550 OA
ENDBRANCH  11  12
ENDBRANCH  10  11
ENDBRANCH   9  10
ENDBRANCH   8   9
ENDBRANCH   7   8
ENDBRANCH   6   7
ENDBRANCH   5   6
ENDBRANCH   4   5
ENDBRANCH   3   4
ENDBRANCH   2   3
ENDBRANCH   1   2
BRANCH   1  15
ATOM     15  C   UNL     1     -16.330  -6.519  42.278  1.00  0.00     0.000 C 
BRANCH  15  16
ATOM     16  C   UNL     1     -16.158  -5.872  40.888  1.00  0.00     0.000 C 
BRANCH  16  17
ATOM     17  C   UNL     1     -17.245  -6.231  39.858  1.00  0.00     0.000 C 
BRANCH  17  18
ATOM     18  C   UNL     1     -16.674  -6.536  38.466  1.00  0.00    -0.000 C 
BRANCH  18  19
ATOM     19  C   UNL     1     -15.417  -5.698  38.198  1.00  0.00    -0.000 C 
BRANCH  19  20
ATOM     20  C   UNL     1     -14.709  -6.158  36.917  1.00  0.00    -0.000 C 
BRANCH  20  21
ATOM     21  C   UNL     1     -13.454  -7.006  37.195  1.00  0.00    -0.000 C 
BRANCH  21  22
ATOM     22  C   UNL     1     -13.038  -7.028  38.681  1.00  0.00    -0.000 C 
BRANCH  22  23
ATOM     23  C   UNL     1     -11.684  -7.730  38.893  1.00  0.00    -0.000 C 
BRANCH  23  24
ATOM     24  C   UNL     1     -11.317  -8.672  37.737  1.00  0.00    -0.000 C 
BRANCH  24  25
ATOM     25  C   UNL     1     -10.574  -9.931  38.213  1.00  0.00    -0.003 C 
ATOM     26  C   UNL     1     -10.214  -9.829  39.693  1.00  0.00     0.004 C 
ENDBRANCH  24  25
ENDBRANCH  23  24
ENDBRANCH  22  23
ENDBRANCH  21  22
ENDBRANCH  20  21
ENDBRANCH  19  20
ENDBRANCH  18  19
ENDBRANCH  17  18
ENDBRANCH  16  17
ENDBRANCH  15  16
ENDBRANCH   1  15
TORSDOF 22
ENDMDL
MODEL 2
REMARK VINA RESULT:    -5.580      2.600      3.216
REMARK INTER + INTRA:         -15.275
REMARK INTER:                 -13.050
REMARK INTRA:                  -2.225
REMARK UNBOUND:                -2.519
REMARK SMILES CCCCCCCCCCCCCCCCCCCCCCCC(=O)[O-]
REMARK SMILES IDX 13 1 14 2 15 3 16 4 17 5 18 6 19 7 20 8 21 9 22 10 23 11
REMARK SMILES IDX 24 12 25 13 26 14 12 15 11 16 10 17 9 18 8 19 7 20 6 21 5 22
REMARK SMILES IDX 4 23 3 24 2 25 1 26
REMARK H PARENT
REMARK Flexibility Score: inf
ROOT
ATOM      1  C   UNL     1     -17.059  -6.512  43.942  1.00  0.00     0.000 C 
ENDROOT
BRANCH   1   2
ATOM      2  C   UNL     1     -16.958  -7.248  45.290  1.00  0.00     0.000 C 
BRANCH   2   3
ATOM      3  C   UNL     1     -17.571  -8.660  45.242  1.00  0.00     0.000 C 
BRANCH   3   4
ATOM      4  C   UNL     1     -17.012  -9.568  44.130  1.00  0.00     0.000 C 
BRANCH   4   5
ATOM      5  C   UNL     1     -16.260 -10.791  44.683  1.00  0.00     0.000 C 
BRANCH   5   6
ATOM      6  C   UNL     1     -15.207 -10.404  45.733  1.00  0.00     0.000 C 
BRANCH   6   7
ATOM      7  C   UNL     1     -15.149 -11.402  46.901  1.00  0.00     0.000 C 
BRANCH   7   8
ATOM      8  C   UNL     1     -15.206 -10.713  48.275  1.00  0.00     0.000 C 
BRANCH   8   9
ATOM      9  C   UNL     1     -16.311  -9.638  48.379  1.00  0.00     0.000 C 
BRANCH   9  10
ATOM     10  C   UNL     1     -15.865  -8.374  49.146  1.00  0.00     0.006 C 
BRANCH  10  11
ATOM     11  C   UNL     1     -15.016  -7.413  48.299  1.00  0.00     0.053 C 
BRANCH  11  12
ATOM     12  C   UNL     1     -14.890  -6.061  48.927  1.00  0.00     0.041 C 
ATOM     13  O   UNL     1     -15.239  -5.884  50.124  1.00  0.00    -0.550 OA
ATOM     14  O   UNL     1     -14.348  -5.006  48.204  1.00  0.00    -0.550 OA
ENDBRANCH  11  12
ENDBRANCH  10  11
ENDBRANCH   9  10
ENDBRANCH   8   9
ENDBRANCH   7   8
ENDBRANCH   6   7
ENDBRANCH   5   6
ENDBRANCH   4   5
ENDBRANCH   3   4
ENDBRANCH   2   3
ENDBRANCH   1   2
BRANCH   1  15
ATOM     15  C   UNL     1     -15.694  -6.320  43.257  1.00  0.00     0.000 C 
BRANCH  15  16
ATOM     16  C   UNL     1     -15.740  -6.150  41.723  1.00  0.00     0.000 C 
BRANCH  16  17
ATOM     17  C   UNL     1     -17.079  -6.522  41.061  1.00  0.00     0.000 C 
BRANCH  17  18
ATOM     18  C   UNL     1     -17.156  -6.103  39.586  1.00  0.00    -0.000 C 
BRANCH  18  19
ATOM     19  C   UNL     1     -15.801  -5.571  39.101  1.00  0.00    -0.000 C 
BRANCH  19  20
ATOM     20  C   UNL     1     -15.363  -6.270  37.808  1.00  0.00    -0.000 C 
BRANCH  20  21
ATOM     21  C   UNL     1     -13.852  -6.562  37.765  1.00  0.00    -0.000 C 
BRANCH  21  22
ATOM     22  C   UNL     1     -13.185  -6.586  39.156  1.00  0.00    -0.000 C 
BRANCH  22  23
ATOM     23  C   UNL     1     -12.117  -7.688  39.269  1.00  0.00    -0.000 C 
BRANCH  23  24
ATOM     24  C   UNL     1     -11.792  -8.340  37.916  1.00  0.00    -0.000 C 
BRANCH  24  25
ATOM     25  C   UNL     1     -10.746  -9.460  38.036  1.00  0.00    -0.003 C 
ATOM     26  C   UNL     1      -9.957  -9.614  36.739  1.00  0.00     0.004 C 
ENDBRANCH  24  25
ENDBRANCH  23  24
ENDBRANCH  22  23
ENDBRANCH  21  22
ENDBRANCH  20  21
ENDBRANCH  19  20
ENDBRANCH  18  19
ENDBRANCH  17  18
ENDBRANCH  16  17
ENDBRANCH  15  16
ENDBRANCH   1  15
TORSDOF 22
ENDMDL
MODEL 3
REMARK VINA RESULT:    -5.573      1.665      7.649
REMARK INTER + INTRA:         -15.260
REMARK INTER:                 -12.505
REMARK INTRA:                  -2.755
REMARK UNBOUND:                -2.519
REMARK SMILES CCCCCCCCCCCCCCCCCCCCCCCC(=O)[O-]
REMARK SMILES IDX 13 1 14 2 15 3 16 4 17 5 18 6 19 7 20 8 21 9 22 10 23 11
REMARK SMILES IDX 24 12 25 13 26 14 12 15 11 16 10 17 9 18 8 19 7 20 6 21 5 22
REMARK SMILES IDX 4 23 3 24 2 25 1 26
REMARK H PARENT
REMARK Flexibility Score: inf
ROOT
ATOM      1  C   UNL     1     -16.092  -6.605  42.695  1.00  0.00     0.000 C 
ENDROOT
BRANCH   1   2
ATOM      2  C   UNL     1     -15.873  -6.060  41.273  1.00  0.00     0.000 C 
BRANCH   2   3
ATOM      3  C   UNL     1     -17.077  -6.314  40.348  1.00  0.00     0.000 C 
BRANCH   3   4
ATOM      4  C   UNL     1     -16.730  -6.423  38.852  1.00  0.00     0.000 C 
BRANCH   4   5
ATOM      5  C   UNL     1     -15.280  -6.010  38.547  1.00  0.00     0.000 C 
BRANCH   5   6
ATOM      6  C   UNL     1     -14.971  -6.027  37.042  1.00  0.00     0.000 C 
BRANCH   6   7
ATOM      7  C   UNL     1     -13.698  -6.824  36.714  1.00  0.00     0.000 C 
BRANCH   7   8
ATOM      8  C   UNL     1     -12.952  -7.296  37.974  1.00  0.00     0.000 C 
BRANCH   8   9
ATOM      9  C   UNL     1     -11.906  -8.398  37.693  1.00  0.00     0.000 C 
BRANCH   9  10
ATOM     10  C   UNL     1     -10.989  -8.695  38.899  1.00  0.00     0.006 C 
BRANCH  10  11
ATOM     11  C   UNL     1     -11.465  -8.037  40.204  1.00  0.00     0.053 C 
BRANCH  11  12
ATOM     12  C   UNL     1     -10.385  -7.239  40.865  1.00  0.00     0.041 C 
ATOM     13  O   UNL     1      -9.994  -7.540  42.025  1.00  0.00    -0.550 OA
ATOM     14  O   UNL     1      -9.779  -6.190  40.185  1.00  0.00    -0.550 OA
ENDBRANCH  11  12
ENDBRANCH  10  11
ENDBRANCH   9  10
ENDBRANCH   8   9
ENDBRANCH   7   8
ENDBRANCH   6   7
ENDBRANCH   5   6
ENDBRANCH   4   5
ENDBRANCH   3   4
ENDBRANCH   2   3
ENDBRANCH   1   2
BRANCH   1  15
ATOM     15  C   UNL     1     -17.579  -6.767  43.057  1.00  0.00     0.000 C 
BRANCH  15  16
ATOM     16  C   UNL     1     -17.924  -8.008  43.907  1.00  0.00     0.000 C 
BRANCH  16  17
ATOM     17  C   UNL     1     -17.423  -9.350  43.342  1.00  0.00     0.000 C 
BRANCH  17  18
ATOM     18  C   UNL     1     -16.850 -10.278  44.423  1.00  0.00    -0.000 C 
BRANCH  18  19
ATOM     19  C   UNL     1     -15.456  -9.810  44.859  1.00  0.00    -0.000 C 
BRANCH  19  20
ATOM     20  C   UNL     1     -15.105 -10.341  46.255  1.00  0.00    -0.000 C 
BRANCH  20  21
ATOM     21  C   UNL     1     -16.347 -10.658  47.107  1.00  0.00    -0.000 C 
BRANCH  21  22
ATOM     22  C   UNL     1     -16.647  -9.595  48.186  1.00  0.00    -0.000 C 
BRANCH  22  23
ATOM     23  C   UNL     1     -15.484  -8.603  48.362  1.00  0.00    -0.000 C 
BRANCH  23  24
ATOM     24  C   UNL     1     -15.926  -7.139  48.219  1.00  0.00    -0.000 C 
BRANCH  24  25
ATOM     25  C   UNL     1     -16.049  -6.699  46.752  1.00  0.00    -0.003 C 
ATOM     26  C   UNL     1     -14.674  -6.454  46.136  1.00  0.00     0.004 C 
ENDBRANCH  24  25
ENDBRANCH  23  24
ENDBRANCH  22  23
ENDBRANCH  21  22
ENDBRANCH  20  21
ENDBRANCH  19  20
ENDBRANCH  18  19
ENDBRANCH  17  18
ENDBRANCH  16  17
ENDBRANCH  15  16
ENDBRANCH   1  15
TORSDOF 22
ENDMDL
MODEL 4
REMARK VINA RESULT:    -5.569      2.791      7.923
REMARK INTER + INTRA:         -15.251
REMARK INTER:                 -11.466
REMARK INTRA:                  -3.784
REMARK UNBOUND:                -2.519
REMARK SMILES CCCCCCCCCCCCCCCCCCCCCCCC(=O)[O-]
REMARK SMILES IDX 13 1 14 2 15 3 16 4 17 5 18 6 19 7 20 8 21 9 22 10 23 11
REMARK SMILES IDX 24 12 25 13 26 14 12 15 11 16 10 17 9 18 8 19 7 20 6 21 5 22
REMARK SMILES IDX 4 23 3 24 2 25 1 26
REMARK H PARENT
REMARK Flexibility Score: inf
ROOT
ATOM      1  C   UNL     1     -12.763  -9.674  45.153  1.00  0.00     0.000 C 
ENDROOT
BRANCH   1   2
ATOM      2  C   UNL     1     -12.989  -8.305  44.488  1.00  0.00     0.000 C 
BRANCH   2   3
ATOM      3  C   UNL     1     -13.804  -7.344  45.372  1.00  0.00     0.000 C 
BRANCH   3   4
ATOM      4  C   UNL     1     -14.618  -6.290  44.599  1.00  0.00     0.000 C 
BRANCH   4   5
ATOM      5  C   UNL     1     -15.585  -6.916  43.580  1.00  0.00     0.000 C 
BRANCH   5   6
ATOM      6  C   UNL     1     -17.027  -6.418  43.760  1.00  0.00     0.000 C 
BRANCH   6   7
ATOM      7  C   UNL     1     -17.854  -6.537  42.470  1.00  0.00     0.000 C 
BRANCH   7   8
ATOM      8  C   UNL     1     -16.983  -6.509  41.202  1.00  0.00     0.000 C 
BRANCH   8   9
ATOM      9  C   UNL     1     -17.774  -6.795  39.906  1.00  0.00     0.000 C 
BRANCH   9  10
ATOM     10  C   UNL     1     -16.993  -6.443  38.621  1.00  0.00     0.006 C 
BRANCH  10  11
ATOM     11  C   UNL     1     -15.719  -5.624  38.886  1.00  0.00     0.053 C 
BRANCH  11  12
ATOM     12  C   UNL     1     -14.540  -6.147  38.127  1.00  0.00     0.041 C 
ATOM     13  O   UNL     1     -13.539  -6.598  38.743  1.00  0.00    -0.550 OA
ATOM     14  O   UNL     1     -14.563  -6.173  36.738  1.00  0.00    -0.550 OA
ENDBRANCH  11  12
ENDBRANCH  10  11
ENDBRANCH   9  10
ENDBRANCH   8   9
ENDBRANCH   7   8
ENDBRANCH   6   7
ENDBRANCH   5   6
ENDBRANCH   4   5
ENDBRANCH   3   4
ENDBRANCH   2   3
ENDBRANCH   1   2
BRANCH   1  15
ATOM     15  C   UNL     1     -13.584  -9.863  46.441  1.00  0.00     0.000 C 
BRANCH  15  16
ATOM     16  C   UNL     1     -14.749 -10.871  46.344  1.00  0.00     0.000 C 
BRANCH  16  17
ATOM     17  C   UNL     1     -15.611 -10.757  45.074  1.00  0.00     0.000 C 
BRANCH  17  18
ATOM     18  C   UNL     1     -16.862  -9.891  45.275  1.00  0.00    -0.000 C 
BRANCH  18  19
ATOM     19  C   UNL     1     -17.064  -9.563  46.760  1.00  0.00    -0.000 C 
BRANCH  19  20
ATOM     20  C   UNL     1     -17.141  -8.047  46.987  1.00  0.00    -0.000 C 
BRANCH  20  21
ATOM     21  C   UNL     1     -16.121  -7.543  48.023  1.00  0.00    -0.000 C 
BRANCH  21  22
ATOM     22  C   UNL     1     -15.721  -8.605  49.068  1.00  0.00    -0.000 C 
BRANCH  22  23
ATOM     23  C   UNL     1     -14.423  -8.233  49.807  1.00  0.00    -0.000 C 
BRANCH  23  24
ATOM     24  C   UNL     1     -13.545  -7.257  49.008  1.00  0.00    -0.000 C 
BRANCH  24  25
ATOM     25  C   UNL     1     -12.064  -7.667  48.998  1.00  0.00    -0.003 C 
ATOM     26  C   UNL     1     -11.273  -6.841  47.988  1.00  0.00     0.004 C 
ENDBRANCH  24  25
ENDBRANCH  23  24
ENDBRANCH  22  23
ENDBRANCH  21  22
ENDBRANCH  20  21
ENDBRANCH  19  20
ENDBRANCH  18  19
ENDBRANCH  17  18
ENDBRANCH  16  17
ENDBRANCH  15  16
ENDBRANCH   1  15
TORSDOF 22
ENDMDL
MODEL 5
REMARK VINA RESULT:    -5.544      2.407      3.328
REMARK INTER + INTRA:         -15.192
REMARK INTER:                 -12.275
REMARK INTRA:                  -2.917
REMARK UNBOUND:                -2.519
REMARK SMILES CCCCCCCCCCCCCCCCCCCCCCCC(=O)[O-]
REMARK SMILES IDX 13 1 14 2 15 3 16 4 17 5 18 6 19 7 20 8 21 9 22 10 23 11
REMARK SMILES IDX 24 12 25 13 26 14 12 15 11 16 10 17 9 18 8 19 7 20 6 21 5 22
REMARK SMILES IDX 4 23 3 24 2 25 1 26
REMARK H PARENT
REMARK Flexibility Score: inf
ROOT
ATOM      1  C   UNL     1     -15.702  -6.736  43.840  1.00  0.00     0.000 C 
ENDROOT
BRANCH   1   2
ATOM      2  C   UNL     1     -15.635  -8.102  44.544  1.00  0.00     0.000 C 
BRANCH   2   3
ATOM      3  C   UNL     1     -16.980  -8.850  44.520  1.00  0.00     0.000 C 
BRANCH   3   4
ATOM      4  C   UNL     1     -16.964 -10.230  45.203  1.00  0.00     0.000 C 
BRANCH   4   5
ATOM      5  C   UNL     1     -15.578 -10.896  45.162  1.00  0.00     0.000 C 
BRANCH   5   6
ATOM      6  C   UNL     1     -14.977 -11.083  46.564  1.00  0.00     0.000 C 
BRANCH   6   7
ATOM      7  C   UNL     1     -16.005 -10.836  47.680  1.00  0.00     0.000 C 
BRANCH   7   8
ATOM      8  C   UNL     1     -15.366 -10.280  48.963  1.00  0.00     0.000 C 
BRANCH   8   9
ATOM      9  C   UNL     1     -15.916  -8.896  49.375  1.00  0.00     0.000 C 
BRANCH   9  10
ATOM     10  C   UNL     1     -15.951  -7.880  48.211  1.00  0.00     0.006 C 
BRANCH  10  11
ATOM     11  C   UNL     1     -15.340  -6.517  48.572  1.00  0.00     0.053 C 
BRANCH  11  12
ATOM     12  C   UNL     1     -13.903  -6.414  48.169  1.00  0.00     0.041 C 
ATOM     13  O   UNL     1     -13.127  -5.633  48.781  1.00  0.00    -0.550 OA
ATOM     14  O   UNL     1     -13.409  -7.211  47.144  1.00  0.00    -0.550 OA
ENDBRANCH  11  12
ENDBRANCH  10  11
ENDBRANCH   9  10
ENDBRANCH   8   9
ENDBRANCH   7   8
ENDBRANCH   6   7
ENDBRANCH   5   6
ENDBRANCH   4   5
ENDBRANCH   3   4
ENDBRANCH   2   3
ENDBRANCH   1   2
BRANCH   1  15
ATOM     15  C   UNL     1     -17.079  -6.445  43.218  1.00  0.00     0.000 C 
BRANCH  15  16
ATOM     16  C   UNL     1     -17.096  -6.302  41.681  1.00  0.00     0.000 C 
BRANCH  16  17
ATOM     17  C   UNL     1     -18.006  -7.297  40.939  1.00  0.00     0.000 C 
BRANCH  17  18
ATOM     18  C   UNL     1     -17.762  -7.318  39.423  1.00  0.00    -0.000 C 
BRANCH  18  19
ATOM     19  C   UNL     1     -17.030  -6.047  38.973  1.00  0.00    -0.000 C 
BRANCH  19  20
ATOM     20  C   UNL     1     -15.825  -6.388  38.085  1.00  0.00    -0.000 C 
BRANCH  20  21
ATOM     21  C   UNL     1     -14.737  -5.300  38.105  1.00  0.00    -0.000 C 
BRANCH  21  22
ATOM     22  C   UNL     1     -14.698  -4.486  39.415  1.00  0.00    -0.000 C 
BRANCH  22  23
ATOM     23  C   UNL     1     -13.433  -4.776  40.242  1.00  0.00    -0.000 C 
BRANCH  23  24
ATOM     24  C   UNL     1     -13.467  -6.158  40.913  1.00  0.00    -0.000 C 
BRANCH  24  25
ATOM     25  C   UNL     1     -12.175  -6.958  40.686  1.00  0.00    -0.003 C 
ATOM     26  C   UNL     1     -12.080  -7.450  39.245  1.00  0.00     0.004 C 
ENDBRANCH  24  25
ENDBRANCH  23  24
ENDBRANCH  22  23
ENDBRANCH  21  22
ENDBRANCH  20  21
ENDBRANCH  19  20
ENDBRANCH  18  19
ENDBRANCH  17  18
ENDBRANCH  16  17
ENDBRANCH  15  16
ENDBRANCH   1  15
TORSDOF 22
ENDMDL
MODEL 6
REMARK VINA RESULT:    -5.532      2.052      7.611
REMARK INTER + INTRA:         -15.167
REMARK INTER:                 -12.246
REMARK INTRA:                  -2.920
REMARK UNBOUND:                -2.519
REMARK SMILES CCCCCCCCCCCCCCCCCCCCCCCC(=O)[O-]
REMARK SMILES IDX 13 1 14 2 15 3 16 4 17 5 18 6 19 7 20 8 21 9 22 10 23 11
REMARK SMILES IDX 24 12 25 13 26 14 12 15 11 16 10 17 9 18 8 19 7 20 6 21 5 22
REMARK SMILES IDX 4 23 3 24 2 25 1 26
REMARK H PARENT
REMARK Flexibility Score: inf
ROOT
ATOM      1  C   UNL     1     -17.153  -7.941  43.517  1.00  0.00     0.000 C 
ENDROOT
BRANCH   1   2
ATOM      2  C   UNL     1     -16.378  -6.892  42.700  1.00  0.00     0.000 C 
BRANCH   2   3
ATOM      3  C   UNL     1     -17.204  -6.320  41.533  1.00  0.00     0.000 C 
BRANCH   3   4
ATOM      4  C   UNL     1     -17.924  -7.376  40.674  1.00  0.00     0.000 C 
BRANCH   4   5
ATOM      5  C   UNL     1     -17.679  -7.184  39.168  1.00  0.00     0.000 C 
BRANCH   5   6
ATOM      6  C   UNL     1     -16.804  -5.957  38.869  1.00  0.00     0.000 C 
BRANCH   6   7
ATOM      7  C   UNL     1     -15.699  -6.260  37.845  1.00  0.00     0.000 C 
BRANCH   7   8
ATOM      8  C   UNL     1     -14.316  -5.762  38.300  1.00  0.00     0.000 C 
BRANCH   8   9
ATOM      9  C   UNL     1     -13.976  -6.140  39.759  1.00  0.00     0.000 C 
BRANCH   9  10
ATOM     10  C   UNL     1     -12.515  -6.607  39.946  1.00  0.00     0.006 C 
BRANCH  10  11
ATOM     11  C   UNL     1     -12.096  -7.709  38.961  1.00  0.00     0.053 C 
BRANCH  11  12
ATOM     12  C   UNL     1     -10.618  -7.730  38.727  1.00  0.00     0.041 C 
ATOM     13  O   UNL     1     -10.125  -8.487  37.850  1.00  0.00    -0.550 OA
ATOM     14  O   UNL     1      -9.787  -6.882  39.450  1.00  0.00    -0.550 OA
ENDBRANCH  11  12
ENDBRANCH  10  11
ENDBRANCH   9  10
ENDBRANCH   8   9
ENDBRANCH   7   8
ENDBRANCH   6   7
ENDBRANCH   5   6
ENDBRANCH   4   5
ENDBRANCH   3   4
ENDBRANCH   2   3
ENDBRANCH   1   2
BRANCH   1  15
ATOM     15  C   UNL     1     -17.819  -7.355  44.774  1.00  0.00     0.000 C 
BRANCH  15  16
ATOM     16  C   UNL     1     -17.544  -8.117  46.088  1.00  0.00     0.000 C 
BRANCH  16  17
ATOM     17  C   UNL     1     -17.360  -9.637  45.938  1.00  0.00     0.000 C 
BRANCH  17  18
ATOM     18  C   UNL     1     -17.035 -10.335  47.266  1.00  0.00    -0.000 C 
BRANCH  18  19
ATOM     19  C   UNL     1     -16.389  -9.354  48.253  1.00  0.00    -0.000 C 
BRANCH  19  20
ATOM     20  C   UNL     1     -15.027  -9.872  48.736  1.00  0.00    -0.000 C 
BRANCH  20  21
ATOM     21  C   UNL     1     -14.796 -11.356  48.402  1.00  0.00    -0.000 C 
BRANCH  21  22
ATOM     22  C   UNL     1     -13.517 -11.614  47.577  1.00  0.00    -0.000 C 
BRANCH  22  23
ATOM     23  C   UNL     1     -12.726 -10.321  47.313  1.00  0.00    -0.000 C 
BRANCH  23  24
ATOM     24  C   UNL     1     -12.572 -10.016  45.815  1.00  0.00    -0.000 C 
BRANCH  24  25
ATOM     25  C   UNL     1     -13.852  -9.433  45.195  1.00  0.00    -0.003 C 
ATOM     26  C   UNL     1     -13.816  -7.907  45.196  1.00  0.00     0.004 C 
ENDBRANCH  24  25
ENDBRANCH  23  24
ENDBRANCH  22  23
ENDBRANCH  21  22
ENDBRANCH  20  21
ENDBRANCH  19  20
ENDBRANCH  18  19
ENDBRANCH  17  18
ENDBRANCH  16  17
ENDBRANCH  15  16
ENDBRANCH   1  15
TORSDOF 22
ENDMDL
MODEL 7
REMARK VINA RESULT:    -5.510      2.254      3.774
REMARK INTER + INTRA:         -15.115
REMARK INTER:                 -12.253
REMARK INTRA:                  -2.862
REMARK UNBOUND:                -2.519
REMARK SMILES CCCCCCCCCCCCCCCCCCCCCCCC(=O)[O-]
REMARK SMILES IDX 13 1 14 2 15 3 16 4 17 5 18 6 19 7 20 8 21 9 22 10 23 11
REMARK SMILES IDX 24 12 25 13 26 14 12 15 11 16 10 17 9 18 8 19 7 20 6 21 5 22
REMARK SMILES IDX 4 23 3 24 2 25 1 26
REMARK H PARENT
REMARK Flexibility Score: inf
ROOT
ATOM      1  C   UNL     1     -17.838  -6.208  39.848  1.00  0.00     0.000 C 
ENDROOT
BRANCH   1   2
ATOM      2  C   UNL     1     -17.914  -7.213  41.011  1.00  0.00     0.000 C 
BRANCH   2   3
ATOM      3  C   UNL     1     -17.006  -6.823  42.192  1.00  0.00     0.000 C 
BRANCH   3   4
ATOM      4  C   UNL     1     -17.179  -7.691  43.452  1.00  0.00     0.000 C 
BRANCH   4   5
ATOM      5  C   UNL     1     -17.787  -9.070  43.145  1.00  0.00     0.000 C 
BRANCH   5   6
ATOM      6  C   UNL     1     -16.976 -10.218  43.765  1.00  0.00     0.000 C 
BRANCH   6   7
ATOM      7  C   UNL     1     -16.874 -10.105  45.295  1.00  0.00     0.000 C 
BRANCH   7   8
ATOM      8  C   UNL     1     -15.519 -10.589  45.837  1.00  0.00     0.000 C 
BRANCH   8   9
ATOM      9  C   UNL     1     -14.312  -9.817  45.256  1.00  0.00     0.000 C 
BRANCH   9  10
ATOM     10  C   UNL     1     -14.309  -8.318  45.626  1.00  0.00     0.006 C 
BRANCH  10  11
ATOM     11  C   UNL     1     -13.307  -7.966  46.737  1.00  0.00     0.053 C 
BRANCH  11  12
ATOM     12  C   UNL     1     -13.978  -7.736  48.055  1.00  0.00     0.041 C 
ATOM     13  O   UNL     1     -15.235  -7.704  48.129  1.00  0.00    -0.550 OA
ATOM     14  O   UNL     1     -13.216  -7.599  49.209  1.00  0.00    -0.550 OA
ENDBRANCH  11  12
ENDBRANCH  10  11
ENDBRANCH   9  10
ENDBRANCH   8   9
ENDBRANCH   7   8
ENDBRANCH   6   7
ENDBRANCH   5   6
ENDBRANCH   4   5
ENDBRANCH   3   4
ENDBRANCH   2   3
ENDBRANCH   1   2
BRANCH   1  15
ATOM     15  C   UNL     1     -16.400  -5.759  39.532  1.00  0.00     0.000 C 
BRANCH  15  16
ATOM     16  C   UNL     1     -15.831  -6.254  38.186  1.00  0.00     0.000 C 
BRANCH  16  17
ATOM     17  C   UNL     1     -14.310  -6.089  38.016  1.00  0.00     0.000 C 
BRANCH  17  18
ATOM     18  C   UNL     1     -13.762  -6.822  36.782  1.00  0.00    -0.000 C 
BRANCH  18  19
ATOM     19  C   UNL     1     -12.596  -7.740  37.169  1.00  0.00    -0.000 C 
BRANCH  19  20
ATOM     20  C   UNL     1     -12.189  -7.531  38.634  1.00  0.00    -0.000 C 
BRANCH  20  21
ATOM     21  C   UNL     1     -11.271  -8.646  39.167  1.00  0.00    -0.000 C 
BRANCH  21  22
ATOM     22  C   UNL     1     -10.921  -8.498  40.663  1.00  0.00    -0.000 C 
BRANCH  22  23
ATOM     23  C   UNL     1     -11.282  -7.105  41.209  1.00  0.00    -0.000 C 
BRANCH  23  24
ATOM     24  C   UNL     1     -12.047  -7.170  42.540  1.00  0.00    -0.000 C 
BRANCH  24  25
ATOM     25  C   UNL     1     -13.372  -6.392  42.499  1.00  0.00    -0.003 C 
ATOM     26  C   UNL     1     -13.295  -5.229  41.514  1.00  0.00     0.004 C 
ENDBRANCH  24  25
ENDBRANCH  23  24
ENDBRANCH  22  23
ENDBRANCH  21  22
ENDBRANCH  20  21
ENDBRANCH  19  20
ENDBRANCH  18  19
ENDBRANCH  17  18
ENDBRANCH  16  17
ENDBRANCH  15  16
ENDBRANCH   1  15
TORSDOF 22
ENDMDL
MODEL 8
REMARK VINA RESULT:    -5.504      3.232      5.001
REMARK INTER + INTRA:         -15.101
REMARK INTER:                 -12.188
REMARK INTRA:                  -2.913
REMARK UNBOUND:                -2.519
REMARK SMILES CCCCCCCCCCCCCCCCCCCCCCCC(=O)[O-]
REMARK SMILES IDX 13 1 14 2 15 3 16 4 17 5 18 6 19 7 20 8 21 9 22 10 23 11
REMARK SMILES IDX 24 12 25 13 26 14 12 15 11 16 10 17 9 18 8 19 7 20 6 21 5 22
REMARK SMILES IDX 4 23 3 24 2 25 1 26
REMARK H PARENT
REMARK Flexibility Score: inf
ROOT
ATOM      1  C   UNL     1     -17.006  -9.672  43.963  1.00  0.00     0.000 C 
ENDROOT
BRANCH   1   2
ATOM      2  C   UNL     1     -16.220 -10.609  44.897  1.00  0.00     0.000 C 
BRANCH   2   3
ATOM      3  C   UNL     1     -14.800 -10.095  45.195  1.00  0.00     0.000 C 
BRANCH   3   4
ATOM      4  C   UNL     1     -14.191 -10.610  46.512  1.00  0.00     0.000 C 
BRANCH   4   5
ATOM      5  C   UNL     1     -15.216 -11.344  47.393  1.00  0.00     0.000 C 
BRANCH   5   6
ATOM      6  C   UNL     1     -15.524 -10.581  48.691  1.00  0.00     0.000 C 
BRANCH   6   7
ATOM      7  C   UNL     1     -16.327  -9.295  48.438  1.00  0.00     0.000 C 
BRANCH   7   8
ATOM      8  C   UNL     1     -15.594  -8.033  48.923  1.00  0.00     0.000 C 
BRANCH   8   9
ATOM      9  C   UNL     1     -14.978  -7.201  47.776  1.00  0.00     0.000 C 
BRANCH   9  10
ATOM     10  C   UNL     1     -14.611  -5.759  48.193  1.00  0.00     0.006 C 
BRANCH  10  11
ATOM     11  C   UNL     1     -15.210  -4.686  47.270  1.00  0.00     0.053 C 
BRANCH  11  12
ATOM     12  C   UNL     1     -15.159  -3.320  47.880  1.00  0.00     0.041 C 
ATOM     13  O   UNL     1     -14.423  -2.429  47.379  1.00  0.00    -0.550 OA
ATOM     14  O   UNL     1     -15.956  -3.018  48.977  1.00  0.00    -0.550 OA
ENDBRANCH  11  12
ENDBRANCH  10  11
ENDBRANCH   9  10
ENDBRANCH   8   9
ENDBRANCH   7   8
ENDBRANCH   6   7
ENDBRANCH   5   6
ENDBRANCH   4   5
ENDBRANCH   3   4
ENDBRANCH   2   3
ENDBRANCH   1   2
BRANCH   1  15
ATOM     15  C   UNL     1     -17.973  -8.741  44.717  1.00  0.00     0.000 C 
BRANCH  15  16
ATOM     16  C   UNL     1     -17.383  -7.382  45.151  1.00  0.00     0.000 C 
BRANCH  16  17
ATOM     17  C   UNL     1     -16.753  -6.549  44.020  1.00  0.00     0.000 C 
BRANCH  17  18
ATOM     18  C   UNL     1     -17.710  -6.316  42.843  1.00  0.00    -0.000 C 
BRANCH  18  19
ATOM     19  C   UNL     1     -17.103  -6.842  41.536  1.00  0.00    -0.000 C 
BRANCH  19  20
ATOM     20  C   UNL     1     -17.929  -6.395  40.323  1.00  0.00    -0.000 C 
BRANCH  20  21
ATOM     21  C   UNL     1     -17.118  -5.555  39.319  1.00  0.00    -0.000 C 
BRANCH  21  22
ATOM     22  C   UNL     1     -16.528  -6.379  38.155  1.00  0.00    -0.000 C 
BRANCH  22  23
ATOM     23  C   UNL     1     -15.005  -6.200  38.030  1.00  0.00    -0.000 C 
BRANCH  23  24
ATOM     24  C   UNL     1     -14.412  -5.352  39.166  1.00  0.00    -0.000 C 
BRANCH  24  25
ATOM     25  C   UNL     1     -13.444  -6.148  40.055  1.00  0.00    -0.003 C 
ATOM     26  C   UNL     1     -13.634  -5.794  41.527  1.00  0.00     0.004 C 
ENDBRANCH  24  25
ENDBRANCH  23  24
ENDBRANCH  22  23
ENDBRANCH  21  22
ENDBRANCH  20  21
ENDBRANCH  19  20
ENDBRANCH  18  19
ENDBRANCH  17  18
ENDBRANCH  16  17
ENDBRANCH  15  16
ENDBRANCH   1  15
TORSDOF 22
ENDMDL
MODEL 9
REMARK VINA RESULT:    -5.399      2.178      7.732
REMARK INTER + INTRA:         -14.861
REMARK INTER:                 -12.003
REMARK INTRA:                  -2.858
REMARK UNBOUND:                -2.519
REMARK SMILES CCCCCCCCCCCCCCCCCCCCCCCC(=O)[O-]
REMARK SMILES IDX 13 1 14 2 15 3 16 4 17 5 18 6 19 7 20 8 21 9 22 10 23 11
REMARK SMILES IDX 24 12 25 13 26 14 12 15 11 16 10 17 9 18 8 19 7 20 6 21 5 22
REMARK SMILES IDX 4 23 3 24 2 25 1 26
REMARK H PARENT
REMARK Flexibility Score: inf
ROOT
ATOM      1  C   UNL     1     -15.752 -11.049  44.876  1.00  0.00     0.000 C 
ENDROOT
BRANCH   1   2
ATOM      2  C   UNL     1     -17.049 -10.470  44.284  1.00  0.00     0.000 C 
BRANCH   2   3
ATOM      3  C   UNL     1     -16.989  -8.942  44.105  1.00  0.00     0.000 C 
BRANCH   3   4
ATOM      4  C   UNL     1     -17.996  -8.371  43.090  1.00  0.00     0.000 C 
BRANCH   4   5
ATOM      5  C   UNL     1     -17.687  -6.916  42.699  1.00  0.00     0.000 C 
BRANCH   5   6
ATOM      6  C   UNL     1     -17.805  -6.679  41.186  1.00  0.00     0.000 C 
BRANCH   6   7
ATOM      7  C   UNL     1     -16.496  -6.161  40.569  1.00  0.00     0.000 C 
BRANCH   7   8
ATOM      8  C   UNL     1     -16.706  -5.505  39.194  1.00  0.00     0.000 C 
BRANCH   8   9
ATOM      9  C   UNL     1     -15.903  -6.182  38.061  1.00  0.00     0.000 C 
BRANCH   9  10
ATOM     10  C   UNL     1     -14.383  -6.232  38.333  1.00  0.00     0.006 C 
BRANCH  10  11
ATOM     11  C   UNL     1     -13.586  -6.927  37.217  1.00  0.00     0.053 C 
BRANCH  11  12
ATOM     12  C   UNL     1     -12.425  -7.707  37.750  1.00  0.00     0.041 C 
ATOM     13  O   UNL     1     -11.691  -8.365  36.966  1.00  0.00    -0.550 OA
ATOM     14  O   UNL     1     -12.128  -7.673  39.106  1.00  0.00    -0.550 OA
ENDBRANCH  11  12
ENDBRANCH  10  11
ENDBRANCH   9  10
ENDBRANCH   8   9
ENDBRANCH   7   8
ENDBRANCH   6   7
ENDBRANCH   5   6
ENDBRANCH   4   5
ENDBRANCH   3   4
ENDBRANCH   2   3
ENDBRANCH   1   2
BRANCH   1  15
ATOM     15  C   UNL     1     -14.729  -9.966  45.263  1.00  0.00     0.000 C 
BRANCH  15  16
ATOM     16  C   UNL     1     -13.819 -10.311  46.461  1.00  0.00     0.000 C 
BRANCH  16  17
ATOM     17  C   UNL     1     -14.494 -11.113  47.588  1.00  0.00     0.000 C 
BRANCH  17  18
ATOM     18  C   UNL     1     -15.585 -10.318  48.319  1.00  0.00    -0.000 C 
BRANCH  18  19
ATOM     19  C   UNL     1     -14.965  -9.352  49.336  1.00  0.00    -0.000 C 
BRANCH  19  20
ATOM     20  C   UNL     1     -15.468  -7.918  49.115  1.00  0.00    -0.000 C 
BRANCH  20  21
ATOM     21  C   UNL     1     -16.254  -7.753  47.802  1.00  0.00    -0.000 C 
BRANCH  21  22
ATOM     22  C   UNL     1     -15.885  -6.479  47.014  1.00  0.00    -0.000 C 
BRANCH  22  23
ATOM     23  C   UNL     1     -14.817  -6.751  45.939  1.00  0.00    -0.000 C 
BRANCH  23  24
ATOM     24  C   UNL     1     -14.891  -5.761  44.766  1.00  0.00    -0.000 C 
BRANCH  24  25
ATOM     25  C   UNL     1     -14.146  -6.264  43.520  1.00  0.00    -0.003 C 
ATOM     26  C   UNL     1     -12.928  -7.097  43.909  1.00  0.00     0.004 C 
ENDBRANCH  24  25
ENDBRANCH  23  24
ENDBRANCH  22  23
ENDBRANCH  21  22
ENDBRANCH  20  21
ENDBRANCH  19  20
ENDBRANCH  18  19
ENDBRANCH  17  18
ENDBRANCH  16  17
ENDBRANCH  15  16
ENDBRANCH   1  15
TORSDOF 22
ENDMDL
