MODEL 1
REMARK VINA RESULT:    -5.817      0.000      0.000
REMARK INTER + INTRA:          -6.558
REMARK INTER:                  -6.497
REMARK INTRA:                  -0.062
REMARK UNBOUND:                -0.062
REMARK SMILES COc1ccc(C(=O)[O-])cc1
REMARK SMILES IDX 6 1 5 2 10 3 4 4 11 5 3 6 7 7 8 8 9 9 2 10 1 11
REMARK H PARENT
REMARK Flexibility Score: inf
ROOT
ATOM      1  C   UNL     1     128.728 123.817 128.233  1.00  0.00    -0.003 A 
ATOM      2  C   UNL     1     129.099 125.099 128.676  1.00  0.00     0.014 A 
ATOM      3  C   UNL     1     129.229 123.349 127.006  1.00  0.00     0.014 A 
ATOM      4  C   UNL     1     129.952 125.894 127.906  1.00  0.00     0.047 A 
ATOM      5  C   UNL     1     130.083 124.146 126.238  1.00  0.00     0.047 A 
ATOM      6  C   UNL     1     130.450 125.430 126.685  1.00  0.00     0.118 A 
ENDROOT
BRANCH   1   7
ATOM      7  C   UNL     1     127.825 122.969 129.043  1.00  0.00     0.071 C 
ATOM      8  O   UNL     1     128.294 122.127 129.854  1.00  0.00    -0.545 OA
ATOM      9  O   UNL     1     126.446 123.090 128.920  1.00  0.00    -0.545 OA
ENDBRANCH   1   7
BRANCH   6  10
ATOM     10  O   UNL     1     131.303 126.267 125.950  1.00  0.00    -0.497 OA
ATOM     11  C   UNL     1     131.559 127.632 126.267  1.00  0.00     0.278 C 
ENDBRANCH   6  10
TORSDOF 2
ENDMDL
MODEL 2
REMARK VINA RESULT:    -5.795      0.706      1.622
REMARK INTER + INTRA:          -6.534
REMARK INTER:                  -6.477
REMARK INTRA:                  -0.058
REMARK UNBOUND:                -0.062
REMARK SMILES COc1ccc(C(=O)[O-])cc1
REMARK SMILES IDX 6 1 5 2 10 3 4 4 11 5 3 6 7 7 8 8 9 9 2 10 1 11
REMARK H PARENT
REMARK Flexibility Score: inf
ROOT
ATOM      1  C   UNL     1     128.752 123.784 128.196  1.00  0.00    -0.003 A 
ATOM      2  C   UNL     1     129.268 123.309 126.977  1.00  0.00     0.014 A 
ATOM      3  C   UNL     1     129.137 125.058 128.647  1.00  0.00     0.014 A 
ATOM      4  C   UNL     1     130.150 124.092 126.228  1.00  0.00     0.047 A 
ATOM      5  C   UNL     1     130.019 125.841 127.896  1.00  0.00     0.047 A 
ATOM      6  C   UNL     1     130.534 125.360 126.677  1.00  0.00     0.118 A 
ENDROOT
BRANCH   1   7
ATOM      7  C   UNL     1     127.818 122.959 128.994  1.00  0.00     0.071 C 
ATOM      8  O   UNL     1     128.254 122.064 129.765  1.00  0.00    -0.545 OA
ATOM      9  O   UNL     1     126.446 123.160 128.903  1.00  0.00    -0.545 OA
ENDBRANCH   1   7
BRANCH   6  10
ATOM     10  O   UNL     1     131.422 126.107 125.889  1.00  0.00    -0.497 OA
ATOM     11  C   UNL     1     131.369 126.180 124.468  1.00  0.00     0.278 C 
ENDBRANCH   6  10
TORSDOF 2
ENDMDL
MODEL 3
REMARK VINA RESULT:    -5.654      0.970      4.994
REMARK INTER + INTRA:          -6.377
REMARK INTER:                  -6.314
REMARK INTRA:                  -0.063
REMARK UNBOUND:                -0.062
REMARK SMILES COc1ccc(C(=O)[O-])cc1
REMARK SMILES IDX 6 1 5 2 10 3 4 4 11 5 3 6 7 7 8 8 9 9 2 10 1 11
REMARK H PARENT
REMARK Flexibility Score: inf
ROOT
ATOM      1  C   UNL     1     130.477 125.563 126.549  1.00  0.00    -0.003 A 
ATOM      2  C   UNL     1     130.186 124.262 126.103  1.00  0.00     0.014 A 
ATOM      3  C   UNL     1     129.992 125.978 127.801  1.00  0.00     0.014 A 
ATOM      4  C   UNL     1     129.425 123.396 126.894  1.00  0.00     0.047 A 
ATOM      5  C   UNL     1     129.232 125.111 128.591  1.00  0.00     0.047 A 
ATOM      6  C   UNL     1     128.942 123.809 128.139  1.00  0.00     0.118 A 
ENDROOT
BRANCH   1   7
ATOM      7  C   UNL     1     131.281 126.485 125.716  1.00  0.00     0.071 C 
ATOM      8  O   UNL     1     131.704 127.573 126.190  1.00  0.00    -0.545 OA
ATOM      9  O   UNL     1     131.581 126.164 124.398  1.00  0.00    -0.545 OA
ENDBRANCH   1   7
BRANCH   6  10
ATOM     10  O   UNL     1     128.184 122.902 128.895  1.00  0.00    -0.497 OA
ATOM     11  C   UNL     1     128.331 122.702 130.297  1.00  0.00     0.278 C 
ENDBRANCH   6  10
TORSDOF 2
ENDMDL
MODEL 4
REMARK VINA RESULT:    -5.606      1.051      4.721
REMARK INTER + INTRA:          -6.324
REMARK INTER:                  -6.255
REMARK INTRA:                  -0.069
REMARK UNBOUND:                -0.062
REMARK SMILES COc1ccc(C(=O)[O-])cc1
REMARK SMILES IDX 6 1 5 2 10 3 4 4 11 5 3 6 7 7 8 8 9 9 2 10 1 11
REMARK H PARENT
REMARK Flexibility Score: inf
ROOT
ATOM      1  C   UNL     1     130.391 125.520 126.491  1.00  0.00    -0.003 A 
ATOM      2  C   UNL     1     130.043 126.037 127.752  1.00  0.00     0.014 A 
ATOM      3  C   UNL     1     130.033 124.198 126.175  1.00  0.00     0.014 A 
ATOM      4  C   UNL     1     129.353 125.246 128.675  1.00  0.00     0.047 A 
ATOM      5  C   UNL     1     129.342 123.410 127.099  1.00  0.00     0.047 A 
ATOM      6  C   UNL     1     128.997 123.931 128.361  1.00  0.00     0.118 A 
ENDROOT
BRANCH   1   7
ATOM      7  C   UNL     1     131.122 126.352 125.509  1.00  0.00     0.071 C 
ATOM      8  O   UNL     1     131.656 127.437 125.861  1.00  0.00    -0.545 OA
ATOM      9  O   UNL     1     131.229 125.947 124.184  1.00  0.00    -0.545 OA
ENDBRANCH   1   7
BRANCH   6  10
ATOM     10  O   UNL     1     128.305 123.179 129.322  1.00  0.00    -0.497 OA
ATOM     11  C   UNL     1     128.350 123.429 130.723  1.00  0.00     0.278 C 
ENDBRANCH   6  10
TORSDOF 2
ENDMDL
MODEL 5
REMARK VINA RESULT:    -5.497      1.806      2.625
REMARK INTER + INTRA:          -6.201
REMARK INTER:                  -6.136
REMARK INTRA:                  -0.066
REMARK UNBOUND:                -0.062
REMARK SMILES COc1ccc(C(=O)[O-])cc1
REMARK SMILES IDX 6 1 5 2 10 3 4 4 11 5 3 6 7 7 8 8 9 9 2 10 1 11
REMARK H PARENT
REMARK Flexibility Score: inf
ROOT
ATOM      1  C   UNL     1     128.710 123.756 129.892  1.00  0.00    -0.003 A 
ATOM      2  C   UNL     1     128.319 122.951 128.808  1.00  0.00     0.014 A 
ATOM      3  C   UNL     1     129.236 125.034 129.636  1.00  0.00     0.014 A 
ATOM      4  C   UNL     1     128.452 123.416 127.497  1.00  0.00     0.047 A 
ATOM      5  C   UNL     1     129.368 125.497 128.324  1.00  0.00     0.047 A 
ATOM      6  C   UNL     1     128.975 124.687 127.241  1.00  0.00     0.118 A 
ENDROOT
BRANCH   1   7
ATOM      7  C   UNL     1     128.572 123.270 131.283  1.00  0.00     0.071 C 
ATOM      8  O   UNL     1     128.643 124.072 132.251  1.00  0.00    -0.545 OA
ATOM      9  O   UNL     1     128.364 121.920 131.540  1.00  0.00    -0.545 OA
ENDBRANCH   1   7
BRANCH   6  10
ATOM     10  O   UNL     1     129.088 125.107 125.908  1.00  0.00    -0.497 OA
ATOM     11  C   UNL     1     129.504 126.409 125.506  1.00  0.00     0.278 C 
ENDBRANCH   6  10
TORSDOF 2
ENDMDL
MODEL 6
REMARK VINA RESULT:    -5.300      2.075      2.797
REMARK INTER + INTRA:          -5.981
REMARK INTER:                  -5.919
REMARK INTRA:                  -0.063
REMARK UNBOUND:                -0.062
REMARK SMILES COc1ccc(C(=O)[O-])cc1
REMARK SMILES IDX 6 1 5 2 10 3 4 4 11 5 3 6 7 7 8 8 9 9 2 10 1 11
REMARK H PARENT
REMARK Flexibility Score: inf
ROOT
ATOM      1  C   UNL     1     130.137 124.831 126.696  1.00  0.00    -0.003 A 
ATOM      2  C   UNL     1     129.738 125.552 127.835  1.00  0.00     0.014 A 
ATOM      3  C   UNL     1     131.115 125.381 125.850  1.00  0.00     0.014 A 
ATOM      4  C   UNL     1     130.307 126.797 128.120  1.00  0.00     0.047 A 
ATOM      5  C   UNL     1     131.682 126.626 126.136  1.00  0.00     0.047 A 
ATOM      6  C   UNL     1     131.280 127.345 127.278  1.00  0.00     0.118 A 
ENDROOT
BRANCH   1   7
ATOM      7  C   UNL     1     129.539 123.513 126.389  1.00  0.00     0.071 C 
ATOM      8  O   UNL     1     130.248 122.580 125.926  1.00  0.00    -0.545 OA
ATOM      9  O   UNL     1     128.185 123.285 126.606  1.00  0.00    -0.545 OA
ENDBRANCH   1   7
BRANCH   6  10
ATOM     10  O   UNL     1     131.819 128.597 127.608  1.00  0.00    -0.497 OA
ATOM     11  C   UNL     1     132.165 129.002 128.929  1.00  0.00     0.278 C 
ENDBRANCH   6  10
TORSDOF 2
ENDMDL
MODEL 7
REMARK VINA RESULT:    -4.775      3.546      5.042
REMARK INTER + INTRA:          -5.395
REMARK INTER:                  -5.333
REMARK INTRA:                  -0.062
REMARK UNBOUND:                -0.062
REMARK SMILES COc1ccc(C(=O)[O-])cc1
REMARK SMILES IDX 6 1 5 2 10 3 4 4 11 5 3 6 7 7 8 8 9 9 2 10 1 11
REMARK H PARENT
REMARK Flexibility Score: inf
ROOT
ATOM      1  C   UNL     1     130.077 126.784 125.562  1.00  0.00    -0.003 A 
ATOM      2  C   UNL     1     130.358 127.824 124.659  1.00  0.00     0.014 A 
ATOM      3  C   UNL     1     128.886 126.054 125.411  1.00  0.00     0.014 A 
ATOM      4  C   UNL     1     129.465 128.127 123.628  1.00  0.00     0.047 A 
ATOM      5  C   UNL     1     127.994 126.358 124.378  1.00  0.00     0.047 A 
ATOM      6  C   UNL     1     128.280 127.401 123.477  1.00  0.00     0.118 A 
ENDROOT
BRANCH   1   7
ATOM      7  C   UNL     1     131.019 126.459 126.657  1.00  0.00     0.071 C 
ATOM      8  O   UNL     1     131.620 125.352 126.677  1.00  0.00    -0.545 OA
ATOM      9  O   UNL     1     131.252 127.371 127.680  1.00  0.00    -0.545 OA
ENDBRANCH   1   7
BRANCH   6  10
ATOM     10  O   UNL     1     127.416 127.744 122.425  1.00  0.00    -0.497 OA
ATOM     11  C   UNL     1     127.470 128.973 121.708  1.00  0.00     0.278 C 
ENDBRANCH   6  10
TORSDOF 2
ENDMDL
MODEL 8
REMARK VINA RESULT:    -4.772      4.068      5.867
REMARK INTER + INTRA:          -5.392
REMARK INTER:                  -5.330
REMARK INTRA:                  -0.062
REMARK UNBOUND:                -0.062
REMARK SMILES COc1ccc(C(=O)[O-])cc1
REMARK SMILES IDX 6 1 5 2 10 3 4 4 11 5 3 6 7 7 8 8 9 9 2 10 1 11
REMARK H PARENT
REMARK Flexibility Score: inf
ROOT
ATOM      1  C   UNL     1     128.196 127.501 123.322  1.00  0.00    -0.003 A 
ATOM      2  C   UNL     1     129.430 128.143 123.524  1.00  0.00     0.014 A 
ATOM      3  C   UNL     1     127.792 126.502 124.225  1.00  0.00     0.014 A 
ATOM      4  C   UNL     1     130.242 127.792 124.606  1.00  0.00     0.047 A 
ATOM      5  C   UNL     1     128.606 126.153 125.307  1.00  0.00     0.047 A 
ATOM      6  C   UNL     1     129.841 126.799 125.504  1.00  0.00     0.118 A 
ENDROOT
BRANCH   1   7
ATOM      7  C   UNL     1     127.331 127.867 122.178  1.00  0.00     0.071 C 
ATOM      8  O   UNL     1     126.339 127.154 121.872  1.00  0.00    -0.545 OA
ATOM      9  O   UNL     1     127.603 129.002 121.425  1.00  0.00    -0.545 OA
ENDBRANCH   1   7
BRANCH   6  10
ATOM     10  O   UNL     1     130.692 126.483 126.574  1.00  0.00    -0.497 OA
ATOM     11  C   UNL     1     131.009 127.373 127.640  1.00  0.00     0.278 C 
ENDBRANCH   6  10
TORSDOF 2
ENDMDL
