MODEL 1
REMARK VINA RESULT:    -4.289      0.000      0.000
REMARK INTER + INTRA:          -8.744
REMARK INTER:                  -8.050
REMARK INTRA:                  -0.694
REMARK UNBOUND:                -0.694
REMARK SMILES O=C([O-])CCCCCCCCCCCCCCC(=O)[O-]
REMARK SMILES IDX 10 1 9 2 8 3 7 4 6 5 5 6 4 7 2 8 1 9 3 10 11 11 12 12 13 13
REMARK SMILES IDX 14 14 15 15 16 16 17 17 18 18 19 19 20 20
REMARK H PARENT
REMARK Flexibility Score: inf
ROOT
ATOM      1  C   UNL     1     -32.587 -22.587 -34.750  1.00  0.00     0.000 C 
ENDROOT
BRANCH   1   2
ATOM      2  C   UNL     1     -31.397 -22.098 -33.911  1.00  0.00     0.000 C 
BRANCH   2   3
ATOM      3  C   UNL     1     -31.531 -20.626 -33.493  1.00  0.00     0.000 C 
BRANCH   3   4
ATOM      4  C   UNL     1     -30.188 -19.880 -33.509  1.00  0.00     0.000 C 
BRANCH   4   5
ATOM      5  C   UNL     1     -29.083 -20.728 -32.859  1.00  0.00     0.000 C 
BRANCH   5   6
ATOM      6  C   UNL     1     -28.722 -20.247 -31.445  1.00  0.00     0.006 C 
BRANCH   6   7
ATOM      7  C   UNL     1     -29.956 -19.875 -30.614  1.00  0.00     0.053 C 
BRANCH   7   8
ATOM      8  C   UNL     1     -30.541 -21.094 -29.973  1.00  0.00     0.041 C 
ATOM      9  O   UNL     1     -31.242 -20.989 -28.932  1.00  0.00    -0.550 OA
ATOM     10  O   UNL     1     -30.353 -22.342 -30.553  1.00  0.00    -0.550 OA
ENDBRANCH   7   8
ENDBRANCH   6   7
ENDBRANCH   5   6
ENDBRANCH   4   5
ENDBRANCH   3   4
ENDBRANCH   2   3
ENDBRANCH   1   2
BRANCH   1  11
ATOM     11  C   UNL     1     -33.340 -21.402 -35.374  1.00  0.00     0.000 C 
BRANCH  11  12
ATOM     12  C   UNL     1     -33.355 -21.451 -36.909  1.00  0.00     0.000 C 
BRANCH  12  13
ATOM     13  C   UNL     1     -33.340 -22.888 -37.459  1.00  0.00     0.000 C 
BRANCH  13  14
ATOM     14  C   UNL     1     -31.954 -23.285 -38.012  1.00  0.00     0.000 C 
BRANCH  14  15
ATOM     15  C   UNL     1     -31.489 -24.682 -37.565  1.00  0.00     0.000 C 
BRANCH  15  16
ATOM     16  C   UNL     1     -31.851 -25.782 -38.575  1.00  0.00     0.006 C 
BRANCH  16  17
ATOM     17  C   UNL     1     -32.824 -26.813 -37.985  1.00  0.00     0.053 C 
BRANCH  17  18
ATOM     18  C   UNL     1     -32.654 -28.163 -38.613  1.00  0.00     0.041 C 
ATOM     19  O   UNL     1     -31.527 -28.527 -39.039  1.00  0.00    -0.550 OA
ATOM     20  O   UNL     1     -33.735 -29.031 -38.700  1.00  0.00    -0.550 OA
ENDBRANCH  17  18
ENDBRANCH  16  17
ENDBRANCH  15  16
ENDBRANCH  14  15
ENDBRANCH  13  14
ENDBRANCH  12  13
ENDBRANCH  11  12
ENDBRANCH   1  11
TORSDOF 15
ENDMDL
MODEL 2
REMARK VINA RESULT:    -3.595      1.034      1.423
REMARK INTER + INTRA:          -7.441
REMARK INTER:                  -6.583
REMARK INTRA:                  -0.858
REMARK UNBOUND:                -0.694
REMARK SMILES O=C([O-])CCCCCCCCCCCCCCC(=O)[O-]
REMARK SMILES IDX 10 1 9 2 8 3 7 4 6 5 5 6 4 7 2 8 1 9 3 10 11 11 12 12 13 13
REMARK SMILES IDX 14 14 15 15 16 16 17 17 18 18 19 19 20 20
REMARK H PARENT
REMARK Flexibility Score: inf
ROOT
ATOM      1  C   UNL     1     -32.114 -22.586 -34.658  1.00  0.00     0.000 C 
ENDROOT
BRANCH   1   2
ATOM      2  C   UNL     1     -31.112 -22.188 -33.563  1.00  0.00     0.000 C 
BRANCH   2   3
ATOM      3  C   UNL     1     -30.856 -20.674 -33.516  1.00  0.00     0.000 C 
BRANCH   3   4
ATOM      4  C   UNL     1     -29.437 -20.326 -33.042  1.00  0.00     0.000 C 
BRANCH   4   5
ATOM      5  C   UNL     1     -29.395 -20.155 -31.515  1.00  0.00     0.000 C 
BRANCH   5   6
ATOM      6  C   UNL     1     -30.781 -19.875 -30.913  1.00  0.00     0.006 C 
BRANCH   6   7
ATOM      7  C   UNL     1     -31.065 -20.719 -29.664  1.00  0.00     0.053 C 
BRANCH   7   8
ATOM      8  C   UNL     1     -30.317 -22.014 -29.729  1.00  0.00     0.041 C 
ATOM      9  O   UNL     1     -29.518 -22.331 -28.808  1.00  0.00    -0.550 OA
ATOM     10  O   UNL     1     -30.539 -22.893 -30.781  1.00  0.00    -0.550 OA
ENDBRANCH   7   8
ENDBRANCH   6   7
ENDBRANCH   5   6
ENDBRANCH   4   5
ENDBRANCH   3   4
ENDBRANCH   2   3
ENDBRANCH   1   2
BRANCH   1  11
ATOM     11  C   UNL     1     -33.004 -21.394 -35.045  1.00  0.00     0.000 C 
BRANCH  11  12
ATOM     12  C   UNL     1     -33.973 -21.725 -36.189  1.00  0.00     0.000 C 
BRANCH  12  13
ATOM     13  C   UNL     1     -33.396 -21.384 -37.575  1.00  0.00     0.000 C 
BRANCH  13  14
ATOM     14  C   UNL     1     -33.009 -22.648 -38.371  1.00  0.00     0.000 C 
BRANCH  14  15
ATOM     15  C   UNL     1     -31.516 -23.004 -38.275  1.00  0.00     0.000 C 
BRANCH  15  16
ATOM     16  C   UNL     1     -31.274 -24.436 -37.770  1.00  0.00     0.006 C 
BRANCH  16  17
ATOM     17  C   UNL     1     -32.587 -25.184 -37.501  1.00  0.00     0.053 C 
BRANCH  17  18
ATOM     18  C   UNL     1     -32.547 -26.586 -38.027  1.00  0.00     0.041 C 
ATOM     19  O   UNL     1     -31.479 -27.057 -38.499  1.00  0.00    -0.550 OA
ATOM     20  O   UNL     1     -33.683 -27.384 -37.970  1.00  0.00    -0.550 OA
ENDBRANCH  17  18
ENDBRANCH  16  17
ENDBRANCH  15  16
ENDBRANCH  14  15
ENDBRANCH  13  14
ENDBRANCH  12  13
ENDBRANCH  11  12
ENDBRANCH   1  11
TORSDOF 15
ENDMDL
MODEL 3
REMARK VINA RESULT:    -3.568      0.957      8.380
REMARK INTER + INTRA:          -7.391
REMARK INTER:                  -6.909
REMARK INTRA:                  -0.482
REMARK UNBOUND:                -0.694
REMARK SMILES O=C([O-])CCCCCCCCCCCCCCC(=O)[O-]
REMARK SMILES IDX 10 1 9 2 8 3 7 4 6 5 5 6 4 7 2 8 1 9 3 10 11 11 12 12 13 13
REMARK SMILES IDX 14 14 15 15 16 16 17 17 18 18 19 19 20 20
REMARK H PARENT
REMARK Flexibility Score: inf
ROOT
ATOM      1  C   UNL     1     -31.516 -22.476 -34.010  1.00  0.00     0.000 C 
ENDROOT
BRANCH   1   2
ATOM      2  C   UNL     1     -31.570 -23.347 -35.275  1.00  0.00     0.000 C 
BRANCH   2   3
ATOM      3  C   UNL     1     -32.549 -22.803 -36.327  1.00  0.00     0.000 C 
BRANCH   3   4
ATOM      4  C   UNL     1     -32.022 -22.957 -37.762  1.00  0.00     0.000 C 
BRANCH   4   5
ATOM      5  C   UNL     1     -31.202 -24.248 -37.909  1.00  0.00     0.000 C 
BRANCH   5   6
ATOM      6  C   UNL     1     -31.931 -25.323 -38.731  1.00  0.00     0.006 C 
BRANCH   6   7
ATOM      7  C   UNL     1     -32.746 -26.284 -37.857  1.00  0.00     0.053 C 
BRANCH   7   8
ATOM      8  C   UNL     1     -32.747 -27.657 -38.452  1.00  0.00     0.041 C 
ATOM      9  O   UNL     1     -31.660 -28.221 -38.746  1.00  0.00    -0.550 OA
ATOM     10  O   UNL     1     -33.945 -28.334 -38.635  1.00  0.00    -0.550 OA
ENDBRANCH   7   8
ENDBRANCH   6   7
ENDBRANCH   5   6
ENDBRANCH   4   5
ENDBRANCH   3   4
ENDBRANCH   2   3
ENDBRANCH   1   2
BRANCH   1  11
ATOM     11  C   UNL     1     -32.179 -21.112 -34.256  1.00  0.00     0.000 C 
BRANCH  11  12
ATOM     12  C   UNL     1     -31.546 -19.987 -33.424  1.00  0.00     0.000 C 
BRANCH  12  13
ATOM     13  C   UNL     1     -30.024 -19.882 -33.626  1.00  0.00     0.000 C 
BRANCH  13  14
ATOM     14  C   UNL     1     -29.244 -20.795 -32.656  1.00  0.00     0.000 C 
BRANCH  14  15
ATOM     15  C   UNL     1     -28.581 -20.035 -31.494  1.00  0.00     0.000 C 
BRANCH  15  16
ATOM     16  C   UNL     1     -29.510 -19.875 -30.279  1.00  0.00     0.006 C 
BRANCH  16  17
ATOM     17  C   UNL     1     -30.688 -20.859 -30.316  1.00  0.00     0.053 C 
BRANCH  17  18
ATOM     18  C   UNL     1     -30.274 -22.241 -29.915  1.00  0.00     0.041 C 
ATOM     19  O   UNL     1     -29.592 -22.421 -28.873  1.00  0.00    -0.550 OA
ATOM     20  O   UNL     1     -30.666 -23.335 -30.677  1.00  0.00    -0.550 OA
ENDBRANCH  17  18
ENDBRANCH  16  17
ENDBRANCH  15  16
ENDBRANCH  14  15
ENDBRANCH  13  14
ENDBRANCH  12  13
ENDBRANCH  11  12
ENDBRANCH   1  11
TORSDOF 15
ENDMDL
MODEL 4
REMARK VINA RESULT:    -3.403      1.111      1.619
REMARK INTER + INTRA:          -7.082
REMARK INTER:                  -7.089
REMARK INTRA:                   0.007
REMARK UNBOUND:                -0.694
REMARK SMILES O=C([O-])CCCCCCCCCCCCCCC(=O)[O-]
REMARK SMILES IDX 10 1 9 2 8 3 7 4 6 5 5 6 4 7 2 8 1 9 3 10 11 11 12 12 13 13
REMARK SMILES IDX 14 14 15 15 16 16 17 17 18 18 19 19 20 20
REMARK H PARENT
REMARK Flexibility Score: inf
ROOT
ATOM      1  C   UNL     1     -31.531 -22.161 -33.798  1.00  0.00     0.000 C 
ENDROOT
BRANCH   1   2
ATOM      2  C   UNL     1     -31.832 -20.668 -33.590  1.00  0.00     0.000 C 
BRANCH   2   3
ATOM      3  C   UNL     1     -30.601 -19.875 -33.125  1.00  0.00     0.000 C 
BRANCH   3   4
ATOM      4  C   UNL     1     -29.354 -20.757 -32.959  1.00  0.00     0.000 C 
BRANCH   4   5
ATOM      5  C   UNL     1     -28.353 -20.114 -31.986  1.00  0.00     0.000 C 
BRANCH   5   6
ATOM      6  C   UNL     1     -28.934 -19.928 -30.576  1.00  0.00     0.006 C 
BRANCH   6   7
ATOM      7  C   UNL     1     -30.312 -20.582 -30.412  1.00  0.00     0.053 C 
BRANCH   7   8
ATOM      8  C   UNL     1     -30.166 -21.999 -29.953  1.00  0.00     0.041 C 
ATOM      9  O   UNL     1     -30.442 -22.950 -30.732  1.00  0.00    -0.550 OA
ATOM     10  O   UNL     1     -29.677 -22.270 -28.682  1.00  0.00    -0.550 OA
ENDBRANCH   7   8
ENDBRANCH   6   7
ENDBRANCH   5   6
ENDBRANCH   4   5
ENDBRANCH   3   4
ENDBRANCH   2   3
ENDBRANCH   1   2
BRANCH   1  11
ATOM     11  C   UNL     1     -31.577 -22.526 -35.290  1.00  0.00     0.000 C 
BRANCH  11  12
ATOM     12  C   UNL     1     -32.578 -23.650 -35.594  1.00  0.00     0.000 C 
BRANCH  12  13
ATOM     13  C   UNL     1     -33.374 -23.404 -36.888  1.00  0.00     0.000 C 
BRANCH  13  14
ATOM     14  C   UNL     1     -32.500 -22.785 -37.999  1.00  0.00     0.000 C 
BRANCH  14  15
ATOM     15  C   UNL     1     -31.358 -23.702 -38.469  1.00  0.00     0.000 C 
BRANCH  15  16
ATOM     16  C   UNL     1     -31.864 -24.999 -39.120  1.00  0.00     0.006 C 
BRANCH  16  17
ATOM     17  C   UNL     1     -31.401 -26.249 -38.359  1.00  0.00     0.053 C 
BRANCH  17  18
ATOM     18  C   UNL     1     -32.362 -27.387 -38.518  1.00  0.00     0.041 C 
ATOM     19  O   UNL     1     -33.572 -27.245 -38.200  1.00  0.00    -0.550 OA
ATOM     20  O   UNL     1     -31.929 -28.597 -39.046  1.00  0.00    -0.550 OA
ENDBRANCH  17  18
ENDBRANCH  16  17
ENDBRANCH  15  16
ENDBRANCH  14  15
ENDBRANCH  13  14
ENDBRANCH  12  13
ENDBRANCH  11  12
ENDBRANCH   1  11
TORSDOF 15
ENDMDL
MODEL 5
REMARK VINA RESULT:    -3.251      0.807      8.406
REMARK INTER + INTRA:          -6.795
REMARK INTER:                  -7.181
REMARK INTRA:                   0.386
REMARK UNBOUND:                -0.694
REMARK SMILES O=C([O-])CCCCCCCCCCCCCCC(=O)[O-]
REMARK SMILES IDX 10 1 9 2 8 3 7 4 6 5 5 6 4 7 2 8 1 9 3 10 11 11 12 12 13 13
REMARK SMILES IDX 14 14 15 15 16 16 17 17 18 18 19 19 20 20
REMARK H PARENT
REMARK Flexibility Score: inf
ROOT
ATOM      1  C   UNL     1     -32.432 -23.283 -35.915  1.00  0.00     0.000 C 
ENDROOT
BRANCH   1   2
ATOM      2  C   UNL     1     -33.311 -23.151 -37.168  1.00  0.00     0.000 C 
BRANCH   2   3
ATOM      3  C   UNL     1     -32.491 -22.926 -38.447  1.00  0.00     0.000 C 
BRANCH   3   4
ATOM      4  C   UNL     1     -31.144 -23.665 -38.426  1.00  0.00     0.000 C 
BRANCH   4   5
ATOM      5  C   UNL     1     -31.292 -25.053 -37.784  1.00  0.00     0.000 C 
BRANCH   5   6
ATOM      6  C   UNL     1     -31.900 -26.088 -38.744  1.00  0.00     0.006 C 
BRANCH   6   7
ATOM      7  C   UNL     1     -32.960 -26.968 -38.070  1.00  0.00     0.053 C 
BRANCH   7   8
ATOM      8  C   UNL     1     -32.939 -28.347 -38.650  1.00  0.00     0.041 C 
ATOM      9  O   UNL     1     -31.869 -28.824 -39.115  1.00  0.00    -0.550 OA
ATOM     10  O   UNL     1     -34.089 -29.125 -38.634  1.00  0.00    -0.550 OA
ENDBRANCH   7   8
ENDBRANCH   6   7
ENDBRANCH   5   6
ENDBRANCH   4   5
ENDBRANCH   3   4
ENDBRANCH   2   3
ENDBRANCH   1   2
BRANCH   1  11
ATOM     11  C   UNL     1     -32.982 -22.422 -34.767  1.00  0.00     0.000 C 
BRANCH  11  12
ATOM     12  C   UNL     1     -33.565 -21.087 -35.255  1.00  0.00     0.000 C 
BRANCH  12  13
ATOM     13  C   UNL     1     -32.713 -19.877 -34.835  1.00  0.00     0.000 C 
BRANCH  13  14
ATOM     14  C   UNL     1     -32.144 -20.033 -33.409  1.00  0.00     0.000 C 
BRANCH  14  15
ATOM     15  C   UNL     1     -30.865 -20.886 -33.346  1.00  0.00     0.000 C 
BRANCH  15  16
ATOM     16  C   UNL     1     -29.621 -20.069 -32.960  1.00  0.00     0.006 C 
BRANCH  16  17
ATOM     17  C   UNL     1     -29.066 -20.472 -31.587  1.00  0.00     0.053 C 
BRANCH  17  18
ATOM     18  C   UNL     1     -30.126 -21.063 -30.709  1.00  0.00     0.041 C 
ATOM     19  O   UNL     1     -30.227 -22.313 -30.592  1.00  0.00    -0.550 OA
ATOM     20  O   UNL     1     -30.984 -20.235 -29.996  1.00  0.00    -0.550 OA
ENDBRANCH  17  18
ENDBRANCH  16  17
ENDBRANCH  15  16
ENDBRANCH  14  15
ENDBRANCH  13  14
ENDBRANCH  12  13
ENDBRANCH  11  12
ENDBRANCH   1  11
TORSDOF 15
ENDMDL
MODEL 6
REMARK VINA RESULT:    -3.219      1.479      2.216
REMARK INTER + INTRA:          -6.735
REMARK INTER:                  -6.078
REMARK INTRA:                  -0.657
REMARK UNBOUND:                -0.694
REMARK SMILES O=C([O-])CCCCCCCCCCCCCCC(=O)[O-]
REMARK SMILES IDX 10 1 9 2 8 3 7 4 6 5 5 6 4 7 2 8 1 9 3 10 11 11 12 12 13 13
REMARK SMILES IDX 14 14 15 15 16 16 17 17 18 18 19 19 20 20
REMARK H PARENT
REMARK Flexibility Score: inf
ROOT
ATOM      1  C   UNL     1     -31.174 -22.298 -34.007  1.00  0.00     0.000 C 
ENDROOT
BRANCH   1   2
ATOM      2  C   UNL     1     -31.662 -20.964 -33.421  1.00  0.00     0.000 C 
BRANCH   2   3
ATOM      3  C   UNL     1     -30.578 -19.875 -33.442  1.00  0.00     0.000 C 
BRANCH   3   4
ATOM      4  C   UNL     1     -29.162 -20.444 -33.265  1.00  0.00     0.000 C 
BRANCH   4   5
ATOM      5  C   UNL     1     -28.871 -20.740 -31.785  1.00  0.00     0.000 C 
BRANCH   5   6
ATOM      6  C   UNL     1     -29.722 -19.886 -30.832  1.00  0.00     0.006 C 
BRANCH   6   7
ATOM      7  C   UNL     1     -30.755 -20.714 -30.058  1.00  0.00     0.053 C 
BRANCH   7   8
ATOM      8  C   UNL     1     -30.299 -22.134 -29.936  1.00  0.00     0.041 C 
ATOM      9  O   UNL     1     -29.590 -22.490 -28.957  1.00  0.00    -0.550 OA
ATOM     10  O   UNL     1     -30.697 -23.076 -30.875  1.00  0.00    -0.550 OA
ENDBRANCH   7   8
ENDBRANCH   6   7
ENDBRANCH   5   6
ENDBRANCH   4   5
ENDBRANCH   3   4
ENDBRANCH   2   3
ENDBRANCH   1   2
BRANCH   1  11
ATOM     11  C   UNL     1     -32.117 -22.785 -35.118  1.00  0.00     0.000 C 
BRANCH  11  12
ATOM     12  C   UNL     1     -33.245 -21.786 -35.418  1.00  0.00     0.000 C 
BRANCH  12  13
ATOM     13  C   UNL     1     -34.044 -22.153 -36.681  1.00  0.00     0.000 C 
BRANCH  13  14
ATOM     14  C   UNL     1     -33.807 -21.150 -37.831  1.00  0.00     0.000 C 
BRANCH  14  15
ATOM     15  C   UNL     1     -33.008 -21.739 -39.007  1.00  0.00     0.000 C 
BRANCH  15  16
ATOM     16  C   UNL     1     -31.950 -22.759 -38.558  1.00  0.00     0.006 C 
BRANCH  16  17
ATOM     17  C   UNL     1     -32.261 -24.176 -39.061  1.00  0.00     0.053 C 
BRANCH  17  18
ATOM     18  C   UNL     1     -31.751 -25.226 -38.123  1.00  0.00     0.041 C 
ATOM     19  O   UNL     1     -30.565 -25.178 -37.703  1.00  0.00    -0.550 OA
ATOM     20  O   UNL     1     -32.593 -26.241 -37.687  1.00  0.00    -0.550 OA
ENDBRANCH  17  18
ENDBRANCH  16  17
ENDBRANCH  15  16
ENDBRANCH  14  15
ENDBRANCH  13  14
ENDBRANCH  12  13
ENDBRANCH  11  12
ENDBRANCH   1  11
TORSDOF 15
ENDMDL
MODEL 7
REMARK VINA RESULT:    -2.540      1.698      7.944
REMARK INTER + INTRA:          -5.460
REMARK INTER:                  -5.077
REMARK INTRA:                  -0.383
REMARK UNBOUND:                -0.694
REMARK SMILES O=C([O-])CCCCCCCCCCCCCCC(=O)[O-]
REMARK SMILES IDX 10 1 9 2 8 3 7 4 6 5 5 6 4 7 2 8 1 9 3 10 11 11 12 12 13 13
REMARK SMILES IDX 14 14 15 15 16 16 17 17 18 18 19 19 20 20
REMARK H PARENT
REMARK Flexibility Score: inf
ROOT
ATOM      1  C   UNL     1     -32.039 -20.088 -34.486  1.00  0.00     0.000 C 
ENDROOT
BRANCH   1   2
ATOM      2  C   UNL     1     -33.556 -20.183 -34.711  1.00  0.00     0.000 C 
BRANCH   2   3
ATOM      3  C   UNL     1     -33.920 -20.503 -36.169  1.00  0.00     0.000 C 
BRANCH   3   4
ATOM      4  C   UNL     1     -33.821 -22.002 -36.490  1.00  0.00     0.000 C 
BRANCH   4   5
ATOM      5  C   UNL     1     -33.660 -22.229 -38.002  1.00  0.00     0.000 C 
BRANCH   5   6
ATOM      6  C   UNL     1     -32.190 -22.372 -38.426  1.00  0.00     0.006 C 
BRANCH   6   7
ATOM      7  C   UNL     1     -31.879 -23.746 -39.032  1.00  0.00     0.053 C 
BRANCH   7   8
ATOM      8  C   UNL     1     -31.791 -24.782 -37.956  1.00  0.00     0.041 C 
ATOM      9  O   UNL     1     -31.986 -24.465 -36.752  1.00  0.00    -0.550 OA
ATOM     10  O   UNL     1     -31.543 -26.108 -38.287  1.00  0.00    -0.550 OA
ENDBRANCH   7   8
ENDBRANCH   6   7
ENDBRANCH   5   6
ENDBRANCH   4   5
ENDBRANCH   3   4
ENDBRANCH   2   3
ENDBRANCH   1   2
BRANCH   1  11
ATOM     11  C   UNL     1     -31.453 -21.461 -34.124  1.00  0.00     0.000 C 
BRANCH  11  12
ATOM     12  C   UNL     1     -30.041 -21.364 -33.526  1.00  0.00     0.000 C 
BRANCH  12  13
ATOM     13  C   UNL     1     -29.648 -19.921 -33.160  1.00  0.00     0.000 C 
BRANCH  13  14
ATOM     14  C   UNL     1     -28.496 -19.875 -32.134  1.00  0.00     0.000 C 
BRANCH  14  15
ATOM     15  C   UNL     1     -28.964 -20.018 -30.675  1.00  0.00     0.000 C 
BRANCH  15  16
ATOM     16  C   UNL     1     -30.488 -19.884 -30.522  1.00  0.00     0.006 C 
BRANCH  16  17
ATOM     17  C   UNL     1     -31.074 -20.961 -29.598  1.00  0.00     0.053 C 
BRANCH  17  18
ATOM     18  C   UNL     1     -30.399 -22.285 -29.786  1.00  0.00     0.041 C 
ATOM     19  O   UNL     1     -29.547 -22.687 -28.951  1.00  0.00    -0.550 OA
ATOM     20  O   UNL     1     -30.732 -23.089 -30.870  1.00  0.00    -0.550 OA
ENDBRANCH  17  18
ENDBRANCH  16  17
ENDBRANCH  15  16
ENDBRANCH  14  15
ENDBRANCH  13  14
ENDBRANCH  12  13
ENDBRANCH  11  12
ENDBRANCH   1  11
TORSDOF 15
ENDMDL
MODEL 8
REMARK VINA RESULT:    -1.664      1.949      3.008
REMARK INTER + INTRA:          -3.817
REMARK INTER:                  -4.617
REMARK INTRA:                   0.800
REMARK UNBOUND:                -0.694
REMARK SMILES O=C([O-])CCCCCCCCCCCCCCC(=O)[O-]
REMARK SMILES IDX 10 1 9 2 8 3 7 4 6 5 5 6 4 7 2 8 1 9 3 10 11 11 12 12 13 13
REMARK SMILES IDX 14 14 15 15 16 16 17 17 18 18 19 19 20 20
REMARK H PARENT
REMARK Flexibility Score: inf
ROOT
ATOM      1  C   UNL     1     -31.595 -20.341 -33.262  1.00  0.00     0.000 C 
ENDROOT
BRANCH   1   2
ATOM      2  C   UNL     1     -31.354 -21.858 -33.239  1.00  0.00     0.000 C 
BRANCH   2   3
ATOM      3  C   UNL     1     -30.123 -22.251 -32.408  1.00  0.00     0.000 C 
BRANCH   3   4
ATOM      4  C   UNL     1     -30.489 -23.049 -31.147  1.00  0.00     0.000 C 
BRANCH   4   5
ATOM      5  C   UNL     1     -29.981 -22.339 -29.883  1.00  0.00     0.000 C 
BRANCH   5   6
ATOM      6  C   UNL     1     -30.744 -21.039 -29.586  1.00  0.00     0.006 C 
BRANCH   6   7
ATOM      7  C   UNL     1     -30.306 -19.877 -30.487  1.00  0.00     0.053 C 
BRANCH   7   8
ATOM      8  C   UNL     1     -28.820 -19.884 -30.662  1.00  0.00     0.041 C 
ATOM      9  O   UNL     1     -28.063 -19.940 -29.656  1.00  0.00    -0.550 OA
ATOM     10  O   UNL     1     -28.270 -19.879 -31.937  1.00  0.00    -0.550 OA
ENDBRANCH   7   8
ENDBRANCH   6   7
ENDBRANCH   5   6
ENDBRANCH   4   5
ENDBRANCH   3   4
ENDBRANCH   2   3
ENDBRANCH   1   2
BRANCH   1  11
ATOM     11  C   UNL     1     -32.025 -19.876 -34.662  1.00  0.00     0.000 C 
BRANCH  11  12
ATOM     12  C   UNL     1     -33.501 -20.180 -34.960  1.00  0.00     0.000 C 
BRANCH  12  13
ATOM     13  C   UNL     1     -33.692 -21.487 -35.749  1.00  0.00     0.000 C 
BRANCH  13  14
ATOM     14  C   UNL     1     -34.125 -21.227 -37.208  1.00  0.00     0.000 C 
BRANCH  14  15
ATOM     15  C   UNL     1     -33.382 -22.098 -38.236  1.00  0.00     0.000 C 
BRANCH  15  16
ATOM     16  C   UNL     1     -31.990 -22.537 -37.752  1.00  0.00     0.006 C 
BRANCH  16  17
ATOM     17  C   UNL     1     -32.052 -23.798 -36.879  1.00  0.00     0.053 C 
BRANCH  17  18
ATOM     18  C   UNL     1     -31.960 -25.048 -37.699  1.00  0.00     0.041 C 
ATOM     19  O   UNL     1     -32.738 -26.012 -37.475  1.00  0.00    -0.550 OA
ATOM     20  O   UNL     1     -31.034 -25.139 -38.730  1.00  0.00    -0.550 OA
ENDBRANCH  17  18
ENDBRANCH  16  17
ENDBRANCH  15  16
ENDBRANCH  14  15
ENDBRANCH  13  14
ENDBRANCH  12  13
ENDBRANCH  11  12
ENDBRANCH   1  11
TORSDOF 15
ENDMDL
MODEL 9
REMARK VINA RESULT:    -1.396      1.567      8.083
REMARK INTER + INTRA:          -3.314
REMARK INTER:                  -3.660
REMARK INTRA:                   0.346
REMARK UNBOUND:                -0.694
REMARK SMILES O=C([O-])CCCCCCCCCCCCCCC(=O)[O-]
REMARK SMILES IDX 10 1 9 2 8 3 7 4 6 5 5 6 4 7 2 8 1 9 3 10 11 11 12 12 13 13
REMARK SMILES IDX 14 14 15 15 16 16 17 17 18 18 19 19 20 20
REMARK H PARENT
REMARK Flexibility Score: inf
ROOT
ATOM      1  C   UNL     1     -32.424 -21.448 -34.651  1.00  0.00     0.000 C 
ENDROOT
BRANCH   1   2
ATOM      2  C   UNL     1     -33.580 -21.742 -35.620  1.00  0.00     0.000 C 
BRANCH   2   3
ATOM      3  C   UNL     1     -33.372 -21.103 -37.002  1.00  0.00     0.000 C 
BRANCH   3   4
ATOM      4  C   UNL     1     -33.493 -22.118 -38.149  1.00  0.00     0.000 C 
BRANCH   4   5
ATOM      5  C   UNL     1     -32.134 -22.770 -38.448  1.00  0.00     0.000 C 
BRANCH   5   6
ATOM      6  C   UNL     1     -31.955 -24.120 -37.735  1.00  0.00     0.006 C 
BRANCH   6   7
ATOM      7  C   UNL     1     -31.521 -25.240 -38.690  1.00  0.00     0.053 C 
BRANCH   7   8
ATOM      8  C   UNL     1     -32.152 -26.537 -38.293  1.00  0.00     0.041 C 
ATOM      9  O   UNL     1     -33.270 -26.547 -37.713  1.00  0.00    -0.550 OA
ATOM     10  O   UNL     1     -31.530 -27.738 -38.609  1.00  0.00    -0.550 OA
ENDBRANCH   7   8
ENDBRANCH   6   7
ENDBRANCH   5   6
ENDBRANCH   4   5
ENDBRANCH   3   4
ENDBRANCH   2   3
ENDBRANCH   1   2
BRANCH   1  11
ATOM     11  C   UNL     1     -32.623 -20.091 -33.958  1.00  0.00     0.000 C 
BRANCH  11  12
ATOM     12  C   UNL     1     -31.695 -19.902 -32.748  1.00  0.00     0.000 C 
BRANCH  12  13
ATOM     13  C   UNL     1     -32.437 -20.018 -31.405  1.00  0.00     0.000 C 
BRANCH  13  14
ATOM     14  C   UNL     1     -31.483 -19.876 -30.200  1.00  0.00     0.000 C 
BRANCH  14  15
ATOM     15  C   UNL     1     -30.475 -21.030 -30.073  1.00  0.00     0.000 C 
BRANCH  15  16
ATOM     16  C   UNL     1     -29.022 -20.582 -30.300  1.00  0.00     0.006 C 
BRANCH  16  17
ATOM     17  C   UNL     1     -28.837 -19.880 -31.652  1.00  0.00     0.053 C 
BRANCH  17  18
ATOM     18  C   UNL     1     -28.892 -20.847 -32.795  1.00  0.00     0.041 C 
ATOM     19  O   UNL     1     -28.622 -20.464 -33.963  1.00  0.00    -0.550 OA
ATOM     20  O   UNL     1     -29.214 -22.179 -32.566  1.00  0.00    -0.550 OA
ENDBRANCH  17  18
ENDBRANCH  16  17
ENDBRANCH  15  16
ENDBRANCH  14  15
ENDBRANCH  13  14
ENDBRANCH  12  13
ENDBRANCH  11  12
ENDBRANCH   1  11
TORSDOF 15
ENDMDL
