MODEL 1
REMARK VINA RESULT:    -4.642      0.000      0.000
REMARK INTER + INTRA:         -11.473
REMARK INTER:                  -8.985
REMARK INTRA:                  -2.488
REMARK UNBOUND:                -2.488
REMARK SMILES CCCCCCCCCCCCCCCCCC(=O)[O-]
REMARK SMILES IDX 10 1 11 2 12 3 13 4 14 5 15 6 16 7 17 8 18 9 19 10 20 11
REMARK SMILES IDX 9 12 8 13 7 14 6 15 5 16 4 17 3 18 2 19 1 20
REMARK H PARENT
REMARK Flexibility Score: inf
ROOT
ATOM      1  C   UNL     1     -24.788 -61.640   2.489  1.00  0.00     0.000 C 
ENDROOT
BRANCH   1   2
ATOM      2  C   UNL     1     -23.758 -62.750   2.231  1.00  0.00     0.000 C 
BRANCH   2   3
ATOM      3  C   UNL     1     -22.374 -62.199   1.842  1.00  0.00     0.000 C 
BRANCH   3   4
ATOM      4  C   UNL     1     -22.456 -60.827   1.154  1.00  0.00     0.000 C 
BRANCH   4   5
ATOM      5  C   UNL     1     -21.959 -60.862  -0.301  1.00  0.00     0.000 C 
BRANCH   5   6
ATOM      6  C   UNL     1     -22.736 -59.885  -1.207  1.00  0.00     0.000 C 
BRANCH   6   7
ATOM      7  C   UNL     1     -24.247 -59.849  -0.921  1.00  0.00     0.006 C 
BRANCH   7   8
ATOM      8  C   UNL     1     -24.839 -58.438  -1.010  1.00  0.00     0.053 C 
BRANCH   8   9
ATOM      9  C   UNL     1     -25.161 -58.095  -2.430  1.00  0.00     0.041 C 
ATOM     10  O   UNL     1     -24.916 -56.943  -2.874  1.00  0.00    -0.550 OA
ATOM     11  O   UNL     1     -25.777 -59.033  -3.249  1.00  0.00    -0.550 OA
ENDBRANCH   8   9
ENDBRANCH   7   8
ENDBRANCH   6   7
ENDBRANCH   5   6
ENDBRANCH   4   5
ENDBRANCH   3   4
ENDBRANCH   2   3
ENDBRANCH   1   2
BRANCH   1  12
ATOM     12  C   UNL     1     -25.783 -62.007   3.605  1.00  0.00     0.000 C 
BRANCH  12  13
ATOM     13  C   UNL     1     -25.296 -63.183   4.466  1.00  0.00    -0.000 C 
BRANCH  13  14
ATOM     14  C   UNL     1     -24.816 -62.741   5.860  1.00  0.00    -0.000 C 
BRANCH  14  15
ATOM     15  C   UNL     1     -23.279 -62.719   5.973  1.00  0.00    -0.000 C 
BRANCH  15  16
ATOM     16  C   UNL     1     -22.634 -61.379   5.569  1.00  0.00    -0.000 C 
BRANCH  16  17
ATOM     17  C   UNL     1     -23.410 -60.135   6.048  1.00  0.00    -0.000 C 
BRANCH  17  18
ATOM     18  C   UNL     1     -22.861 -58.831   5.441  1.00  0.00    -0.000 C 
BRANCH  18  19
ATOM     19  C   UNL     1     -23.232 -58.669   3.959  1.00  0.00    -0.003 C 
ATOM     20  C   UNL     1     -24.662 -58.165   3.759  1.00  0.00     0.004 C 
ENDBRANCH  18  19
ENDBRANCH  17  18
ENDBRANCH  16  17
ENDBRANCH  15  16
ENDBRANCH  14  15
ENDBRANCH  13  14
ENDBRANCH  12  13
ENDBRANCH   1  12
TORSDOF 16
ENDMDL
MODEL 2
REMARK VINA RESULT:    -4.603      1.067      1.685
REMARK INTER + INTRA:         -11.397
REMARK INTER:                  -8.905
REMARK INTRA:                  -2.492
REMARK UNBOUND:                -2.488
REMARK SMILES CCCCCCCCCCCCCCCCCC(=O)[O-]
REMARK SMILES IDX 10 1 11 2 12 3 13 4 14 5 15 6 16 7 17 8 18 9 19 10 20 11
REMARK SMILES IDX 9 12 8 13 7 14 6 15 5 16 4 17 3 18 2 19 1 20
REMARK H PARENT
REMARK Flexibility Score: inf
ROOT
ATOM      1  C   UNL     1     -25.038 -62.928   3.221  1.00  0.00     0.000 C 
ENDROOT
BRANCH   1   2
ATOM      2  C   UNL     1     -23.800 -63.497   2.511  1.00  0.00     0.000 C 
BRANCH   2   3
ATOM      3  C   UNL     1     -22.670 -62.461   2.363  1.00  0.00     0.000 C 
BRANCH   3   4
ATOM      4  C   UNL     1     -22.161 -62.343   0.918  1.00  0.00     0.000 C 
BRANCH   4   5
ATOM      5  C   UNL     1     -22.043 -60.883   0.449  1.00  0.00     0.000 C 
BRANCH   5   6
ATOM      6  C   UNL     1     -23.321 -60.395  -0.264  1.00  0.00     0.000 C 
BRANCH   6   7
ATOM      7  C   UNL     1     -23.074 -59.243  -1.253  1.00  0.00     0.006 C 
BRANCH   7   8
ATOM      8  C   UNL     1     -24.319 -58.380  -1.490  1.00  0.00     0.053 C 
BRANCH   8   9
ATOM      9  C   UNL     1     -25.465 -59.230  -1.937  1.00  0.00     0.041 C 
ATOM     10  O   UNL     1     -25.592 -59.533  -3.153  1.00  0.00    -0.550 OA
ATOM     11  O   UNL     1     -26.421 -59.648  -1.020  1.00  0.00    -0.550 OA
ENDBRANCH   8   9
ENDBRANCH   7   8
ENDBRANCH   6   7
ENDBRANCH   5   6
ENDBRANCH   4   5
ENDBRANCH   3   4
ENDBRANCH   2   3
ENDBRANCH   1   2
BRANCH   1  12
ATOM     12  C   UNL     1     -25.207 -63.484   4.646  1.00  0.00     0.000 C 
BRANCH  12  13
ATOM     13  C   UNL     1     -24.701 -62.512   5.723  1.00  0.00    -0.000 C 
BRANCH  13  14
ATOM     14  C   UNL     1     -23.208 -62.704   6.044  1.00  0.00    -0.000 C 
BRANCH  14  15
ATOM     15  C   UNL     1     -22.395 -61.408   5.859  1.00  0.00    -0.000 C 
BRANCH  15  16
ATOM     16  C   UNL     1     -23.256 -60.142   5.678  1.00  0.00    -0.000 C 
BRANCH  16  17
ATOM     17  C   UNL     1     -23.059 -59.432   4.323  1.00  0.00    -0.000 C 
BRANCH  17  18
ATOM     18  C   UNL     1     -24.383 -59.246   3.561  1.00  0.00    -0.000 C 
BRANCH  18  19
ATOM     19  C   UNL     1     -24.272 -58.210   2.431  1.00  0.00    -0.003 C 
ATOM     20  C   UNL     1     -22.863 -57.631   2.295  1.00  0.00     0.004 C 
ENDBRANCH  18  19
ENDBRANCH  17  18
ENDBRANCH  16  17
ENDBRANCH  15  16
ENDBRANCH  14  15
ENDBRANCH  13  14
ENDBRANCH  12  13
ENDBRANCH   1  12
TORSDOF 16
ENDMDL
MODEL 3
REMARK VINA RESULT:    -4.596      1.121      2.710
REMARK INTER + INTRA:         -11.383
REMARK INTER:                  -8.671
REMARK INTRA:                  -2.712
REMARK UNBOUND:                -2.488
REMARK SMILES CCCCCCCCCCCCCCCCCC(=O)[O-]
REMARK SMILES IDX 10 1 11 2 12 3 13 4 14 5 15 6 16 7 17 8 18 9 19 10 20 11
REMARK SMILES IDX 9 12 8 13 7 14 6 15 5 16 4 17 3 18 2 19 1 20
REMARK H PARENT
REMARK Flexibility Score: inf
ROOT
ATOM      1  C   UNL     1     -22.527 -63.333   1.213  1.00  0.00     0.000 C 
ENDROOT
BRANCH   1   2
ATOM      2  C   UNL     1     -22.077 -62.312   0.157  1.00  0.00     0.000 C 
BRANCH   2   3
ATOM      3  C   UNL     1     -21.888 -60.899   0.737  1.00  0.00     0.000 C 
BRANCH   3   4
ATOM      4  C   UNL     1     -22.752 -59.847   0.024  1.00  0.00     0.000 C 
BRANCH   4   5
ATOM      5  C   UNL     1     -22.693 -58.470   0.708  1.00  0.00     0.000 C 
BRANCH   5   6
ATOM      6  C   UNL     1     -23.829 -57.537   0.239  1.00  0.00     0.000 C 
BRANCH   6   7
ATOM      7  C   UNL     1     -25.128 -58.280  -0.120  1.00  0.00     0.006 C 
BRANCH   7   8
ATOM      8  C   UNL     1     -25.973 -57.538  -1.162  1.00  0.00     0.053 C 
BRANCH   8   9
ATOM      9  C   UNL     1     -25.448 -57.798  -2.539  1.00  0.00     0.041 C 
ATOM     10  O   UNL     1     -25.400 -58.975  -2.986  1.00  0.00    -0.550 OA
ATOM     11  O   UNL     1     -24.968 -56.748  -3.311  1.00  0.00    -0.550 OA
ENDBRANCH   8   9
ENDBRANCH   7   8
ENDBRANCH   6   7
ENDBRANCH   5   6
ENDBRANCH   4   5
ENDBRANCH   3   4
ENDBRANCH   2   3
ENDBRANCH   1   2
BRANCH   1  12
ATOM     12  C   UNL     1     -23.093 -62.663   2.478  1.00  0.00     0.000 C 
BRANCH  12  13
ATOM     13  C   UNL     1     -24.456 -63.237   2.891  1.00  0.00    -0.000 C 
BRANCH  13  14
ATOM     14  C   UNL     1     -25.467 -62.145   3.287  1.00  0.00    -0.000 C 
BRANCH  14  15
ATOM     15  C   UNL     1     -25.154 -60.787   2.628  1.00  0.00    -0.000 C 
BRANCH  15  16
ATOM     16  C   UNL     1     -24.992 -59.623   3.626  1.00  0.00    -0.000 C 
BRANCH  16  17
ATOM     17  C   UNL     1     -23.552 -59.436   4.149  1.00  0.00    -0.000 C 
BRANCH  17  18
ATOM     18  C   UNL     1     -23.393 -59.906   5.606  1.00  0.00    -0.000 C 
BRANCH  18  19
ATOM     19  C   UNL     1     -22.500 -61.150   5.730  1.00  0.00    -0.003 C 
ATOM     20  C   UNL     1     -23.229 -62.342   6.351  1.00  0.00     0.004 C 
ENDBRANCH  18  19
ENDBRANCH  17  18
ENDBRANCH  16  17
ENDBRANCH  15  16
ENDBRANCH  14  15
ENDBRANCH  13  14
ENDBRANCH  12  13
ENDBRANCH   1  12
TORSDOF 16
ENDMDL
MODEL 4
REMARK VINA RESULT:    -4.494      1.364      2.914
REMARK INTER + INTRA:         -11.185
REMARK INTER:                  -8.335
REMARK INTRA:                  -2.850
REMARK UNBOUND:                -2.488
REMARK SMILES CCCCCCCCCCCCCCCCCC(=O)[O-]
REMARK SMILES IDX 10 1 11 2 12 3 13 4 14 5 15 6 16 7 17 8 18 9 19 10 20 11
REMARK SMILES IDX 9 12 8 13 7 14 6 15 5 16 4 17 3 18 2 19 1 20
REMARK H PARENT
REMARK Flexibility Score: inf
ROOT
ATOM      1  C   UNL     1     -22.710 -60.579   1.876  1.00  0.00     0.000 C 
ENDROOT
BRANCH   1   2
ATOM      2  C   UNL     1     -22.187 -59.900   0.600  1.00  0.00     0.000 C 
BRANCH   2   3
ATOM      3  C   UNL     1     -22.129 -58.367   0.722  1.00  0.00     0.000 C 
BRANCH   3   4
ATOM      4  C   UNL     1     -22.574 -57.867   2.105  1.00  0.00     0.000 C 
BRANCH   4   5
ATOM      5  C   UNL     1     -23.975 -57.231   2.083  1.00  0.00     0.000 C 
BRANCH   5   6
ATOM      6  C   UNL     1     -24.444 -56.906   0.649  1.00  0.00     0.000 C 
BRANCH   6   7
ATOM      7  C   UNL     1     -25.706 -57.675   0.225  1.00  0.00     0.006 C 
BRANCH   7   8
ATOM      8  C   UNL     1     -25.490 -58.533  -1.028  1.00  0.00     0.053 C 
BRANCH   8   9
ATOM      9  C   UNL     1     -25.761 -57.732  -2.262  1.00  0.00     0.041 C 
ATOM     10  O   UNL     1     -24.822 -57.124  -2.840  1.00  0.00    -0.550 OA
ATOM     11  O   UNL     1     -27.058 -57.616  -2.746  1.00  0.00    -0.550 OA
ENDBRANCH   8   9
ENDBRANCH   7   8
ENDBRANCH   6   7
ENDBRANCH   5   6
ENDBRANCH   4   5
ENDBRANCH   3   4
ENDBRANCH   2   3
ENDBRANCH   1   2
BRANCH   1  12
ATOM     12  C   UNL     1     -24.037 -61.324   1.646  1.00  0.00     0.000 C 
BRANCH  12  13
ATOM     13  C   UNL     1     -25.178 -60.781   2.519  1.00  0.00    -0.000 C 
BRANCH  13  14
ATOM     14  C   UNL     1     -25.867 -61.880   3.349  1.00  0.00    -0.000 C 
BRANCH  14  15
ATOM     15  C   UNL     1     -24.982 -63.131   3.518  1.00  0.00    -0.000 C 
BRANCH  15  16
ATOM     16  C   UNL     1     -24.224 -63.193   4.860  1.00  0.00    -0.000 C 
BRANCH  16  17
ATOM     17  C   UNL     1     -22.714 -62.900   4.745  1.00  0.00    -0.000 C 
BRANCH  17  18
ATOM     18  C   UNL     1     -22.277 -61.723   5.636  1.00  0.00    -0.000 C 
BRANCH  18  19
ATOM     19  C   UNL     1     -23.399 -60.696   5.849  1.00  0.00    -0.003 C 
ATOM     20  C   UNL     1     -22.973 -59.271   5.490  1.00  0.00     0.004 C 
ENDBRANCH  18  19
ENDBRANCH  17  18
ENDBRANCH  16  17
ENDBRANCH  15  16
ENDBRANCH  14  15
ENDBRANCH  13  14
ENDBRANCH  12  13
ENDBRANCH   1  12
TORSDOF 16
ENDMDL
MODEL 5
REMARK VINA RESULT:    -4.480      1.302      3.348
REMARK INTER + INTRA:         -11.158
REMARK INTER:                  -8.163
REMARK INTRA:                  -2.995
REMARK UNBOUND:                -2.488
REMARK SMILES CCCCCCCCCCCCCCCCCC(=O)[O-]
REMARK SMILES IDX 10 1 11 2 12 3 13 4 14 5 15 6 16 7 17 8 18 9 19 10 20 11
REMARK SMILES IDX 9 12 8 13 7 14 6 15 5 16 4 17 3 18 2 19 1 20
REMARK H PARENT
REMARK Flexibility Score: inf
ROOT
ATOM      1  C   UNL     1     -24.115 -58.493   4.980  1.00  0.00     0.000 C 
ENDROOT
BRANCH   1   2
ATOM      2  C   UNL     1     -22.865 -57.713   4.544  1.00  0.00     0.000 C 
BRANCH   2   3
ATOM      3  C   UNL     1     -22.696 -57.668   3.015  1.00  0.00     0.000 C 
BRANCH   3   4
ATOM      4  C   UNL     1     -23.359 -58.862   2.311  1.00  0.00     0.000 C 
BRANCH   4   5
ATOM      5  C   UNL     1     -22.509 -59.414   1.153  1.00  0.00     0.000 C 
BRANCH   5   6
ATOM      6  C   UNL     1     -23.376 -60.047   0.044  1.00  0.00     0.000 C 
BRANCH   6   7
ATOM      7  C   UNL     1     -24.887 -59.856   0.259  1.00  0.00     0.006 C 
BRANCH   7   8
ATOM      8  C   UNL     1     -25.580 -59.181  -0.931  1.00  0.00     0.053 C 
BRANCH   8   9
ATOM      9  C   UNL     1     -24.993 -57.827  -1.177  1.00  0.00     0.041 C 
ATOM     10  O   UNL     1     -24.490 -57.550  -2.297  1.00  0.00    -0.550 OA
ATOM     11  O   UNL     1     -24.958 -56.888  -0.154  1.00  0.00    -0.550 OA
ENDBRANCH   8   9
ENDBRANCH   7   8
ENDBRANCH   6   7
ENDBRANCH   5   6
ENDBRANCH   4   5
ENDBRANCH   3   4
ENDBRANCH   2   3
ENDBRANCH   1   2
BRANCH   1  12
ATOM     12  C   UNL     1     -23.802 -59.565   6.040  1.00  0.00     0.000 C 
BRANCH  12  13
ATOM     13  C   UNL     1     -22.666 -60.505   5.610  1.00  0.00    -0.000 C 
BRANCH  13  14
ATOM     14  C   UNL     1     -22.938 -61.975   5.981  1.00  0.00    -0.000 C 
BRANCH  14  15
ATOM     15  C   UNL     1     -22.657 -62.938   4.810  1.00  0.00    -0.000 C 
BRANCH  15  16
ATOM     16  C   UNL     1     -22.795 -62.295   3.416  1.00  0.00    -0.000 C 
BRANCH  16  17
ATOM     17  C   UNL     1     -23.909 -62.912   2.545  1.00  0.00    -0.000 C 
BRANCH  17  18
ATOM     18  C   UNL     1     -25.274 -62.915   3.255  1.00  0.00    -0.000 C 
BRANCH  18  19
ATOM     19  C   UNL     1     -25.865 -61.504   3.404  1.00  0.00    -0.003 C 
ATOM     20  C   UNL     1     -26.845 -61.394   4.573  1.00  0.00     0.004 C 
ENDBRANCH  18  19
ENDBRANCH  17  18
ENDBRANCH  16  17
ENDBRANCH  15  16
ENDBRANCH  14  15
ENDBRANCH  13  14
ENDBRANCH  12  13
ENDBRANCH   1  12
TORSDOF 16
ENDMDL
MODEL 6
REMARK VINA RESULT:    -4.447      1.289      2.964
REMARK INTER + INTRA:         -11.094
REMARK INTER:                  -8.412
REMARK INTRA:                  -2.682
REMARK UNBOUND:                -2.488
REMARK SMILES CCCCCCCCCCCCCCCCCC(=O)[O-]
REMARK SMILES IDX 10 1 11 2 12 3 13 4 14 5 15 6 16 7 17 8 18 9 19 10 20 11
REMARK SMILES IDX 9 12 8 13 7 14 6 15 5 16 4 17 3 18 2 19 1 20
REMARK H PARENT
REMARK Flexibility Score: inf
ROOT
ATOM      1  C   UNL     1     -22.616 -62.252   4.672  1.00  0.00     0.000 C 
ENDROOT
BRANCH   1   2
ATOM      2  C   UNL     1     -23.443 -61.940   3.415  1.00  0.00     0.000 C 
BRANCH   2   3
ATOM      3  C   UNL     1     -22.618 -62.042   2.120  1.00  0.00     0.000 C 
BRANCH   3   4
ATOM      4  C   UNL     1     -23.208 -61.203   0.975  1.00  0.00     0.000 C 
BRANCH   4   5
ATOM      5  C   UNL     1     -22.146 -60.768  -0.050  1.00  0.00     0.000 C 
BRANCH   5   6
ATOM      6  C   UNL     1     -22.648 -59.629  -0.962  1.00  0.00     0.000 C 
BRANCH   6   7
ATOM      7  C   UNL     1     -24.145 -59.727  -1.302  1.00  0.00     0.006 C 
BRANCH   7   8
ATOM      8  C   UNL     1     -24.783 -58.363  -1.591  1.00  0.00     0.053 C 
BRANCH   8   9
ATOM      9  C   UNL     1     -25.599 -58.423  -2.843  1.00  0.00     0.041 C 
ATOM     10  O   UNL     1     -25.825 -57.374  -3.502  1.00  0.00    -0.550 OA
ATOM     11  O   UNL     1     -26.151 -59.629  -3.256  1.00  0.00    -0.550 OA
ENDBRANCH   8   9
ENDBRANCH   7   8
ENDBRANCH   6   7
ENDBRANCH   5   6
ENDBRANCH   4   5
ENDBRANCH   3   4
ENDBRANCH   2   3
ENDBRANCH   1   2
BRANCH   1  12
ATOM     12  C   UNL     1     -22.676 -61.120   5.713  1.00  0.00     0.000 C 
BRANCH  12  13
ATOM     13  C   UNL     1     -23.474 -59.904   5.218  1.00  0.00    -0.000 C 
BRANCH  13  14
ATOM     14  C   UNL     1     -22.753 -58.570   5.484  1.00  0.00    -0.000 C 
BRANCH  14  15
ATOM     15  C   UNL     1     -23.019 -57.528   4.379  1.00  0.00    -0.000 C 
BRANCH  15  16
ATOM     16  C   UNL     1     -22.781 -58.049   2.948  1.00  0.00    -0.000 C 
BRANCH  16  17
ATOM     17  C   UNL     1     -23.946 -57.776   1.974  1.00  0.00    -0.000 C 
BRANCH  17  18
ATOM     18  C   UNL     1     -25.321 -57.983   2.634  1.00  0.00    -0.000 C 
BRANCH  18  19
ATOM     19  C   UNL     1     -25.938 -59.349   2.297  1.00  0.00    -0.003 C 
ATOM     20  C   UNL     1     -27.042 -59.255   1.242  1.00  0.00     0.004 C 
ENDBRANCH  18  19
ENDBRANCH  17  18
ENDBRANCH  16  17
ENDBRANCH  15  16
ENDBRANCH  14  15
ENDBRANCH  13  14
ENDBRANCH  12  13
ENDBRANCH   1  12
TORSDOF 16
ENDMDL
MODEL 7
REMARK VINA RESULT:    -4.399      1.715      2.040
REMARK INTER + INTRA:         -11.001
REMARK INTER:                  -8.514
REMARK INTRA:                  -2.488
REMARK UNBOUND:                -2.488
REMARK SMILES CCCCCCCCCCCCCCCCCC(=O)[O-]
REMARK SMILES IDX 10 1 11 2 12 3 13 4 14 5 15 6 16 7 17 8 18 9 19 10 20 11
REMARK SMILES IDX 9 12 8 13 7 14 6 15 5 16 4 17 3 18 2 19 1 20
REMARK H PARENT
REMARK Flexibility Score: inf
ROOT
ATOM      1  C   UNL     1     -23.600 -62.114   1.985  1.00  0.00     0.000 C 
ENDROOT
BRANCH   1   2
ATOM      2  C   UNL     1     -22.229 -62.417   1.362  1.00  0.00     0.000 C 
BRANCH   2   3
ATOM      3  C   UNL     1     -21.876 -61.462   0.208  1.00  0.00     0.000 C 
BRANCH   3   4
ATOM      4  C   UNL     1     -21.878 -59.988   0.639  1.00  0.00     0.000 C 
BRANCH   4   5
ATOM      5  C   UNL     1     -22.616 -59.079  -0.360  1.00  0.00     0.000 C 
BRANCH   5   6
ATOM      6  C   UNL     1     -23.616 -59.865  -1.233  1.00  0.00     0.000 C 
BRANCH   6   7
ATOM      7  C   UNL     1     -25.071 -59.387  -1.085  1.00  0.00     0.006 C 
BRANCH   7   8
ATOM      8  C   UNL     1     -25.584 -59.470   0.357  1.00  0.00     0.053 C 
BRANCH   8   9
ATOM      9  C   UNL     1     -26.514 -58.335   0.646  1.00  0.00     0.041 C 
ATOM     10  O   UNL     1     -26.782 -58.024   1.836  1.00  0.00    -0.550 OA
ATOM     11  O   UNL     1     -27.122 -57.650  -0.399  1.00  0.00    -0.550 OA
ENDBRANCH   8   9
ENDBRANCH   7   8
ENDBRANCH   6   7
ENDBRANCH   5   6
ENDBRANCH   4   5
ENDBRANCH   3   4
ENDBRANCH   2   3
ENDBRANCH   1   2
BRANCH   1  12
ATOM     12  C   UNL     1     -24.174 -63.313   2.760  1.00  0.00     0.000 C 
BRANCH  12  13
ATOM     13  C   UNL     1     -25.423 -62.947   3.575  1.00  0.00    -0.000 C 
BRANCH  13  14
ATOM     14  C   UNL     1     -25.294 -63.322   5.063  1.00  0.00    -0.000 C 
BRANCH  14  15
ATOM     15  C   UNL     1     -23.839 -63.239   5.567  1.00  0.00    -0.000 C 
BRANCH  15  16
ATOM     16  C   UNL     1     -23.480 -61.900   6.241  1.00  0.00    -0.000 C 
BRANCH  16  17
ATOM     17  C   UNL     1     -22.637 -60.955   5.360  1.00  0.00    -0.000 C 
BRANCH  17  18
ATOM     18  C   UNL     1     -23.196 -59.521   5.339  1.00  0.00    -0.000 C 
BRANCH  18  19
ATOM     19  C   UNL     1     -23.848 -59.162   3.995  1.00  0.00    -0.003 C 
ATOM     20  C   UNL     1     -23.209 -57.938   3.336  1.00  0.00     0.004 C 
ENDBRANCH  18  19
ENDBRANCH  17  18
ENDBRANCH  16  17
ENDBRANCH  15  16
ENDBRANCH  14  15
ENDBRANCH  13  14
ENDBRANCH  12  13
ENDBRANCH   1  12
TORSDOF 16
ENDMDL
MODEL 8
REMARK VINA RESULT:    -4.385      1.136      3.243
REMARK INTER + INTRA:         -10.975
REMARK INTER:                  -8.481
REMARK INTRA:                  -2.495
REMARK UNBOUND:                -2.488
REMARK SMILES CCCCCCCCCCCCCCCCCC(=O)[O-]
REMARK SMILES IDX 10 1 11 2 12 3 13 4 14 5 15 6 16 7 17 8 18 9 19 10 20 11
REMARK SMILES IDX 9 12 8 13 7 14 6 15 5 16 4 17 3 18 2 19 1 20
REMARK H PARENT
REMARK Flexibility Score: inf
ROOT
ATOM      1  C   UNL     1     -24.076 -60.263   5.289  1.00  0.00     0.000 C 
ENDROOT
BRANCH   1   2
ATOM      2  C   UNL     1     -24.142 -59.133   4.250  1.00  0.00     0.000 C 
BRANCH   2   3
ATOM      3  C   UNL     1     -22.989 -59.191   3.233  1.00  0.00     0.000 C 
BRANCH   3   4
ATOM      4  C   UNL     1     -23.043 -58.044   2.211  1.00  0.00     0.000 C 
BRANCH   4   5
ATOM      5  C   UNL     1     -22.149 -58.299   0.986  1.00  0.00     0.000 C 
BRANCH   5   6
ATOM      6  C   UNL     1     -22.241 -59.758   0.491  1.00  0.00     0.000 C 
BRANCH   6   7
ATOM      7  C   UNL     1     -22.957 -59.906  -0.862  1.00  0.00     0.006 C 
BRANCH   7   8
ATOM      8  C   UNL     1     -24.455 -59.589  -0.783  1.00  0.00     0.053 C 
BRANCH   8   9
ATOM      9  C   UNL     1     -24.896 -58.847  -2.005  1.00  0.00     0.041 C 
ATOM     10  O   UNL     1     -24.700 -57.607  -2.098  1.00  0.00    -0.550 OA
ATOM     11  O   UNL     1     -25.567 -59.516  -3.021  1.00  0.00    -0.550 OA
ENDBRANCH   8   9
ENDBRANCH   7   8
ENDBRANCH   6   7
ENDBRANCH   5   6
ENDBRANCH   4   5
ENDBRANCH   3   4
ENDBRANCH   2   3
ENDBRANCH   1   2
BRANCH   1  12
ATOM     12  C   UNL     1     -22.633 -60.708   5.585  1.00  0.00     0.000 C 
BRANCH  12  13
ATOM     13  C   UNL     1     -22.496 -62.233   5.699  1.00  0.00    -0.000 C 
BRANCH  13  14
ATOM     14  C   UNL     1     -23.565 -62.860   6.612  1.00  0.00    -0.000 C 
BRANCH  14  15
ATOM     15  C   UNL     1     -24.392 -63.943   5.891  1.00  0.00    -0.000 C 
BRANCH  15  16
ATOM     16  C   UNL     1     -25.828 -63.509   5.533  1.00  0.00    -0.000 C 
BRANCH  16  17
ATOM     17  C   UNL     1     -26.034 -63.179   4.041  1.00  0.00    -0.000 C 
BRANCH  17  18
ATOM     18  C   UNL     1     -24.863 -63.662   3.167  1.00  0.00    -0.000 C 
BRANCH  18  19
ATOM     19  C   UNL     1     -24.199 -62.517   2.386  1.00  0.00    -0.003 C 
ATOM     20  C   UNL     1     -22.790 -62.867   1.906  1.00  0.00     0.004 C 
ENDBRANCH  18  19
ENDBRANCH  17  18
ENDBRANCH  16  17
ENDBRANCH  15  16
ENDBRANCH  14  15
ENDBRANCH  13  14
ENDBRANCH  12  13
ENDBRANCH   1  12
TORSDOF 16
ENDMDL
MODEL 9
REMARK VINA RESULT:    -4.373      3.465      6.852
REMARK INTER + INTRA:         -10.951
REMARK INTER:                  -8.442
REMARK INTRA:                  -2.509
REMARK UNBOUND:                -2.488
REMARK SMILES CCCCCCCCCCCCCCCCCC(=O)[O-]
REMARK SMILES IDX 10 1 11 2 12 3 13 4 14 5 15 6 16 7 17 8 18 9 19 10 20 11
REMARK SMILES IDX 9 12 8 13 7 14 6 15 5 16 4 17 3 18 2 19 1 20
REMARK H PARENT
REMARK Flexibility Score: inf
ROOT
ATOM      1  C   UNL     1     -22.078 -59.656   0.982  1.00  0.00     0.000 C 
ENDROOT
BRANCH   1   2
ATOM      2  C   UNL     1     -22.240 -58.184   1.390  1.00  0.00     0.000 C 
BRANCH   2   3
ATOM      3  C   UNL     1     -22.968 -58.015   2.735  1.00  0.00     0.000 C 
BRANCH   3   4
ATOM      4  C   UNL     1     -23.395 -59.358   3.349  1.00  0.00     0.000 C 
BRANCH   4   5
ATOM      5  C   UNL     1     -24.913 -59.449   3.579  1.00  0.00     0.000 C 
BRANCH   5   6
ATOM      6  C   UNL     1     -25.543 -60.649   2.842  1.00  0.00     0.000 C 
BRANCH   6   7
ATOM      7  C   UNL     1     -24.540 -61.770   2.520  1.00  0.00     0.006 C 
BRANCH   7   8
ATOM      8  C   UNL     1     -24.871 -63.090   3.227  1.00  0.00     0.053 C 
BRANCH   8   9
ATOM      9  C   UNL     1     -23.692 -63.570   4.013  1.00  0.00     0.041 C 
ATOM     10  O   UNL     1     -23.271 -62.902   4.994  1.00  0.00    -0.550 OA
ATOM     11  O   UNL     1     -23.029 -64.730   3.633  1.00  0.00    -0.550 OA
ENDBRANCH   8   9
ENDBRANCH   7   8
ENDBRANCH   6   7
ENDBRANCH   5   6
ENDBRANCH   4   5
ENDBRANCH   3   4
ENDBRANCH   2   3
ENDBRANCH   1   2
BRANCH   1  12
ATOM     12  C   UNL     1     -21.876 -59.829  -0.533  1.00  0.00     0.000 C 
BRANCH  12  13
ATOM     13  C   UNL     1     -23.169 -60.228  -1.260  1.00  0.00    -0.000 C 
BRANCH  13  14
ATOM     14  C   UNL     1     -24.166 -59.062  -1.383  1.00  0.00    -0.000 C 
BRANCH  14  15
ATOM     15  C   UNL     1     -25.451 -59.297  -0.564  1.00  0.00    -0.000 C 
BRANCH  15  16
ATOM     16  C   UNL     1     -25.917 -58.071   0.247  1.00  0.00    -0.000 C 
BRANCH  16  17
ATOM     17  C   UNL     1     -25.617 -56.717  -0.428  1.00  0.00    -0.000 C 
BRANCH  17  18
ATOM     18  C   UNL     1     -26.620 -56.385  -1.547  1.00  0.00    -0.000 C 
BRANCH  18  19
ATOM     19  C   UNL     1     -25.955 -56.301  -2.929  1.00  0.00    -0.003 C 
ATOM     20  C   UNL     1     -26.354 -57.457  -3.848  1.00  0.00     0.004 C 
ENDBRANCH  18  19
ENDBRANCH  17  18
ENDBRANCH  16  17
ENDBRANCH  15  16
ENDBRANCH  14  15
ENDBRANCH  13  14
ENDBRANCH  12  13
ENDBRANCH   1  12
TORSDOF 16
ENDMDL
