MODEL 1
REMARK VINA RESULT:    -5.823      0.000      0.000
REMARK INTER + INTRA:          -6.461
REMARK INTER:                  -6.333
REMARK INTRA:                  -0.128
REMARK UNBOUND:                -0.128
REMARK SMILES C=C(C)[C@H]1CC=C(C)[C@H](O)C1
REMARK SMILES IDX 8 1 7 2 6 3 5 4 4 5 11 6 9 7 10 8 2 10 1 11 3 12
REMARK H PARENT 10 9
REMARK Flexibility Score: inf
ROOT
ATOM      1  C   UNL     1     136.541 124.778 134.776  1.00  0.00     0.042 C 
ATOM      2  C   UNL     1     136.344 126.270 134.848  1.00  0.00    -0.049 C 
ATOM      3  C   UNL     1     135.795 126.937 133.817  1.00  0.00    -0.025 C 
ATOM      4  C   UNL     1     135.550 128.415 133.936  1.00  0.00     0.035 C 
ATOM      5  C   UNL     1     134.874 128.744 135.290  1.00  0.00     0.021 C 
ATOM      6  C   UNL     1     135.476 127.950 136.496  1.00  0.00     0.044 C 
ATOM      7  C   UNL     1     136.667 127.045 136.111  1.00  0.00     0.140 C 
ENDROOT
BRANCH   7   8
ATOM      8  O   UNL     1     136.965 126.169 137.169  1.00  0.00    -0.389 OA
ATOM      9  H   UNL     1     136.615 125.277 136.909  1.00  0.00     0.211 HD
ENDBRANCH   7   8
BRANCH   5  10
ATOM     10  C   UNL     1     134.894 130.244 135.540  1.00  0.00    -0.077 C 
ATOM     11  C   UNL     1     133.754 130.907 135.789  1.00  0.00     0.008 C 
ATOM     12  C   UNL     1     136.187 131.019 135.483  1.00  0.00     0.039 C 
ENDBRANCH   5  10
TORSDOF 2
ENDMDL
MODEL 2
REMARK VINA RESULT:    -5.426      1.967      4.312
REMARK INTER + INTRA:          -6.030
REMARK INTER:                  -5.893
REMARK INTRA:                  -0.137
REMARK UNBOUND:                -0.128
REMARK SMILES C=C(C)[C@H]1CC=C(C)[C@H](O)C1
REMARK SMILES IDX 8 1 7 2 6 3 5 4 4 5 11 6 9 7 10 8 2 10 1 11 3 12
REMARK H PARENT 10 9
REMARK Flexibility Score: inf
ROOT
ATOM      1  C   UNL     1     135.470 131.985 137.771  1.00  0.00     0.042 C 
ATOM      2  C   UNL     1     135.376 130.899 136.730  1.00  0.00    -0.049 C 
ATOM      3  C   UNL     1     136.251 130.853 135.711  1.00  0.00    -0.025 C 
ATOM      4  C   UNL     1     136.176 129.724 134.720  1.00  0.00     0.035 C 
ATOM      5  C   UNL     1     136.039 128.369 135.455  1.00  0.00     0.021 C 
ATOM      6  C   UNL     1     135.052 128.413 136.667  1.00  0.00     0.044 C 
ATOM      7  C   UNL     1     134.358 129.781 136.854  1.00  0.00     0.140 C 
ENDROOT
BRANCH   7   8
ATOM      8  O   UNL     1     133.717 129.827 138.102  1.00  0.00    -0.389 OA
ATOM      9  H   UNL     1     133.824 130.753 138.445  1.00  0.00     0.211 HD
ENDBRANCH   7   8
BRANCH   5  10
ATOM     10  C   UNL     1     135.670 127.269 134.470  1.00  0.00    -0.077 C 
ATOM     11  C   UNL     1     134.612 127.412 133.656  1.00  0.00     0.008 C 
ATOM     12  C   UNL     1     136.464 125.988 134.410  1.00  0.00     0.039 C 
ENDBRANCH   5  10
TORSDOF 2
ENDMDL
MODEL 3
REMARK VINA RESULT:    -5.403      1.164      1.642
REMARK INTER + INTRA:          -6.005
REMARK INTER:                  -5.873
REMARK INTRA:                  -0.132
REMARK UNBOUND:                -0.128
REMARK SMILES C=C(C)[C@H]1CC=C(C)[C@H](O)C1
REMARK SMILES IDX 8 1 7 2 6 3 5 4 4 5 11 6 9 7 10 8 2 10 1 11 3 12
REMARK H PARENT 10 9
REMARK Flexibility Score: inf
ROOT
ATOM      1  C   UNL     1     136.257 125.589 134.349  1.00  0.00     0.042 C 
ATOM      2  C   UNL     1     135.943 126.962 134.883  1.00  0.00    -0.049 C 
ATOM      3  C   UNL     1     136.109 128.050 134.109  1.00  0.00    -0.025 C 
ATOM      4  C   UNL     1     135.729 129.404 134.642  1.00  0.00     0.035 C 
ATOM      5  C   UNL     1     134.332 129.350 135.307  1.00  0.00     0.021 C 
ATOM      6  C   UNL     1     134.107 128.073 136.183  1.00  0.00     0.044 C 
ATOM      7  C   UNL     1     135.343 127.150 136.264  1.00  0.00     0.140 C 
ENDROOT
BRANCH   7   8
ATOM      8  O   UNL     1     134.981 125.912 136.820  1.00  0.00    -0.389 OA
ATOM      9  H   UNL     1     133.993 125.842 136.744  1.00  0.00     0.211 HD
ENDBRANCH   7   8
BRANCH   5  10
ATOM     10  C   UNL     1     134.074 130.624 136.098  1.00  0.00    -0.077 C 
ATOM     11  C   UNL     1     135.065 131.206 136.792  1.00  0.00     0.008 C 
ATOM     12  C   UNL     1     132.697 131.240 136.141  1.00  0.00     0.039 C 
ENDBRANCH   5  10
TORSDOF 2
ENDMDL
MODEL 4
REMARK VINA RESULT:    -5.220      1.920      2.878
REMARK INTER + INTRA:          -5.806
REMARK INTER:                  -5.695
REMARK INTRA:                  -0.111
REMARK UNBOUND:                -0.128
REMARK SMILES C=C(C)[C@H]1CC=C(C)[C@H](O)C1
REMARK SMILES IDX 8 1 7 2 6 3 5 4 4 5 11 6 9 7 10 8 2 10 1 11 3 12
REMARK H PARENT 10 9
REMARK Flexibility Score: inf
ROOT
ATOM      1  C   UNL     1     135.745 127.834 133.623  1.00  0.00     0.042 C 
ATOM      2  C   UNL     1     135.578 128.752 134.806  1.00  0.00    -0.049 C 
ATOM      3  C   UNL     1     136.056 130.008 134.768  1.00  0.00    -0.025 C 
ATOM      4  C   UNL     1     135.822 130.925 135.937  1.00  0.00     0.035 C 
ATOM      5  C   UNL     1     134.343 130.860 136.388  1.00  0.00     0.021 C 
ATOM      6  C   UNL     1     133.759 129.409 136.403  1.00  0.00     0.044 C 
ATOM      7  C   UNL     1     134.789 128.321 136.028  1.00  0.00     0.140 C 
ENDROOT
BRANCH   7   8
ATOM      8  O   UNL     1     134.134 127.101 135.793  1.00  0.00    -0.389 OA
ATOM      9  H   UNL     1     134.784 126.512 135.328  1.00  0.00     0.211 HD
ENDBRANCH   7   8
BRANCH   5  10
ATOM     10  C   UNL     1     134.170 131.549 137.734  1.00  0.00    -0.077 C 
ATOM     11  C   UNL     1     132.946 131.725 138.255  1.00  0.00     0.008 C 
ATOM     12  C   UNL     1     135.365 132.072 138.492  1.00  0.00     0.039 C 
ENDBRANCH   5  10
TORSDOF 2
ENDMDL
MODEL 5
REMARK VINA RESULT:    -5.197      2.500      4.561
REMARK INTER + INTRA:          -5.781
REMARK INTER:                  -5.648
REMARK INTRA:                  -0.132
REMARK UNBOUND:                -0.128
REMARK SMILES C=C(C)[C@H]1CC=C(C)[C@H](O)C1
REMARK SMILES IDX 8 1 7 2 6 3 5 4 4 5 11 6 9 7 10 8 2 10 1 11 3 12
REMARK H PARENT 10 9
REMARK Flexibility Score: inf
ROOT
ATOM      1  C   UNL     1     130.863 130.081 138.474  1.00  0.00     0.042 C 
ATOM      2  C   UNL     1     131.968 130.056 137.450  1.00  0.00    -0.049 C 
ATOM      3  C   UNL     1     132.283 131.165 136.757  1.00  0.00    -0.025 C 
ATOM      4  C   UNL     1     133.430 131.132 135.786  1.00  0.00     0.035 C 
ATOM      5  C   UNL     1     134.665 130.458 136.431  1.00  0.00     0.021 C 
ATOM      6  C   UNL     1     134.314 129.186 137.270  1.00  0.00     0.044 C 
ATOM      7  C   UNL     1     132.814 128.815 137.238  1.00  0.00     0.140 C 
ENDROOT
BRANCH   7   8
ATOM      8  O   UNL     1     132.538 127.852 138.222  1.00  0.00    -0.389 OA
ATOM      9  H   UNL     1     131.571 127.929 138.435  1.00  0.00     0.211 HD
ENDBRANCH   7   8
BRANCH   5  10
ATOM     10  C   UNL     1     135.716 130.159 135.372  1.00  0.00    -0.077 C 
ATOM     11  C   UNL     1     135.689 129.000 134.695  1.00  0.00     0.008 C 
ATOM     12  C   UNL     1     136.824 131.143 135.085  1.00  0.00     0.039 C 
ENDBRANCH   5  10
TORSDOF 2
ENDMDL
MODEL 6
REMARK VINA RESULT:    -5.187      1.758      2.299
REMARK INTER + INTRA:          -5.770
REMARK INTER:                  -5.635
REMARK INTRA:                  -0.135
REMARK UNBOUND:                -0.128
REMARK SMILES C=C(C)[C@H]1CC=C(C)[C@H](O)C1
REMARK SMILES IDX 8 1 7 2 6 3 5 4 4 5 11 6 9 7 10 8 2 10 1 11 3 12
REMARK H PARENT 10 9
REMARK Flexibility Score: inf
ROOT
ATOM      1  C   UNL     1     136.498 125.423 134.600  1.00  0.00     0.042 C 
ATOM      2  C   UNL     1     135.777 126.638 135.123  1.00  0.00    -0.049 C 
ATOM      3  C   UNL     1     135.636 126.832 136.446  1.00  0.00    -0.025 C 
ATOM      4  C   UNL     1     134.967 128.083 136.945  1.00  0.00     0.035 C 
ATOM      5  C   UNL     1     135.533 129.325 136.215  1.00  0.00     0.021 C 
ATOM      6  C   UNL     1     135.738 129.107 134.680  1.00  0.00     0.044 C 
ATOM      7  C   UNL     1     135.277 127.719 134.182  1.00  0.00     0.140 C 
ENDROOT
BRANCH   7   8
ATOM      8  O   UNL     1     135.745 127.498 132.877  1.00  0.00    -0.389 OA
ATOM      9  H   UNL     1     136.639 127.074 132.961  1.00  0.00     0.211 HD
ENDBRANCH   7   8
BRANCH   5  10
ATOM     10  C   UNL     1     134.666 130.543 136.497  1.00  0.00    -0.077 C 
ATOM     11  C   UNL     1     133.493 130.705 135.864  1.00  0.00     0.008 C 
ATOM     12  C   UNL     1     135.120 131.605 137.469  1.00  0.00     0.039 C 
ENDBRANCH   5  10
TORSDOF 2
ENDMDL
MODEL 7
REMARK VINA RESULT:    -5.155      2.027      4.588
REMARK INTER + INTRA:          -5.735
REMARK INTER:                  -5.599
REMARK INTRA:                  -0.136
REMARK UNBOUND:                -0.128
REMARK SMILES C=C(C)[C@H]1CC=C(C)[C@H](O)C1
REMARK SMILES IDX 8 1 7 2 6 3 5 4 4 5 11 6 9 7 10 8 2 10 1 11 3 12
REMARK H PARENT 10 9
REMARK Flexibility Score: inf
ROOT
ATOM      1  C   UNL     1     133.278 131.628 135.891  1.00  0.00     0.042 C 
ATOM      2  C   UNL     1     134.119 130.383 135.988  1.00  0.00    -0.049 C 
ATOM      3  C   UNL     1     133.545 129.185 136.196  1.00  0.00    -0.025 C 
ATOM      4  C   UNL     1     134.399 127.948 136.226  1.00  0.00     0.035 C 
ATOM      5  C   UNL     1     135.382 127.941 135.031  1.00  0.00     0.021 C 
ATOM      6  C   UNL     1     136.033 129.335 134.750  1.00  0.00     0.044 C 
ATOM      7  C   UNL     1     135.618 130.429 135.760  1.00  0.00     0.140 C 
ENDROOT
BRANCH   7   8
ATOM      8  O   UNL     1     136.011 131.691 135.286  1.00  0.00    -0.389 OA
ATOM      9  H   UNL     1     135.181 132.228 135.179  1.00  0.00     0.211 HD
ENDBRANCH   7   8
BRANCH   5  10
ATOM     10  C   UNL     1     136.434 126.858 135.218  1.00  0.00    -0.077 C 
ATOM     11  C   UNL     1     137.400 127.001 136.139  1.00  0.00     0.008 C 
ATOM     12  C   UNL     1     136.430 125.620 134.355  1.00  0.00     0.039 C 
ENDBRANCH   5  10
TORSDOF 2
ENDMDL
MODEL 8
REMARK VINA RESULT:    -5.077      4.062      5.207
REMARK INTER + INTRA:          -5.650
REMARK INTER:                  -5.521
REMARK INTRA:                  -0.129
REMARK UNBOUND:                -0.128
REMARK SMILES C=C(C)[C@H]1CC=C(C)[C@H](O)C1
REMARK SMILES IDX 8 1 7 2 6 3 5 4 4 5 11 6 9 7 10 8 2 10 1 11 3 12
REMARK H PARENT 10 9
REMARK Flexibility Score: inf
ROOT
ATOM      1  C   UNL     1     129.889 127.103 138.008  1.00  0.00     0.042 C 
ATOM      2  C   UNL     1     131.091 128.010 137.945  1.00  0.00    -0.049 C 
ATOM      3  C   UNL     1     132.233 127.591 137.373  1.00  0.00    -0.025 C 
ATOM      4  C   UNL     1     133.398 128.535 137.266  1.00  0.00     0.035 C 
ATOM      5  C   UNL     1     132.932 129.911 136.733  1.00  0.00     0.021 C 
ATOM      6  C   UNL     1     131.584 130.399 137.361  1.00  0.00     0.044 C 
ATOM      7  C   UNL     1     131.018 129.444 138.435  1.00  0.00     0.140 C 
ENDROOT
BRANCH   7   8
ATOM      8  O   UNL     1     129.694 129.799 138.742  1.00  0.00    -0.389 OA
ATOM      9  H   UNL     1     129.354 130.328 137.973  1.00  0.00     0.211 HD
ENDBRANCH   7   8
BRANCH   5  10
ATOM     10  C   UNL     1     134.035 130.945 136.901  1.00  0.00    -0.077 C 
ATOM     11  C   UNL     1     134.788 131.313 135.852  1.00  0.00     0.008 C 
ATOM     12  C   UNL     1     134.324 131.553 138.251  1.00  0.00     0.039 C 
ENDBRANCH   5  10
TORSDOF 2
ENDMDL
MODEL 9
REMARK VINA RESULT:    -5.040      3.620      5.432
REMARK INTER + INTRA:          -5.610
REMARK INTER:                  -5.485
REMARK INTRA:                  -0.125
REMARK UNBOUND:                -0.128
REMARK SMILES C=C(C)[C@H]1CC=C(C)[C@H](O)C1
REMARK SMILES IDX 8 1 7 2 6 3 5 4 4 5 11 6 9 7 10 8 2 10 1 11 3 12
REMARK H PARENT 10 9
REMARK Flexibility Score: inf
ROOT
ATOM      1  C   UNL     1     134.630 131.261 135.873  1.00  0.00     0.042 C 
ATOM      2  C   UNL     1     133.580 130.620 136.743  1.00  0.00    -0.049 C 
ATOM      3  C   UNL     1     132.300 131.027 136.681  1.00  0.00    -0.025 C 
ATOM      4  C   UNL     1     131.260 130.330 137.514  1.00  0.00     0.035 C 
ATOM      5  C   UNL     1     131.407 128.795 137.388  1.00  0.00     0.021 C 
ATOM      6  C   UNL     1     132.893 128.305 137.422  1.00  0.00     0.044 C 
ATOM      7  C   UNL     1     133.916 129.442 137.639  1.00  0.00     0.140 C 
ENDROOT
BRANCH   7   8
ATOM      8  O   UNL     1     135.214 128.974 137.379  1.00  0.00    -0.389 OA
ATOM      9  H   UNL     1     135.391 128.244 138.028  1.00  0.00     0.211 HD
ENDBRANCH   7   8
BRANCH   5  10
ATOM     10  C   UNL     1     130.562 128.095 138.443  1.00  0.00    -0.077 C 
ATOM     11  C   UNL     1     129.811 127.031 138.116  1.00  0.00     0.008 C 
ATOM     12  C   UNL     1     130.529 128.599 139.864  1.00  0.00     0.039 C 
ENDBRANCH   5  10
TORSDOF 2
ENDMDL
