MODEL 1
REMARK VINA RESULT:    -2.294      0.000      0.000
REMARK INTER + INTRA:          -2.294
REMARK INTER:                  -2.294
REMARK INTRA:                   0.000
REMARK UNBOUND:                 0.000
REMARK SMILES CC(=O)[O-]
REMARK SMILES IDX 1 1 2 2 3 3 4 4
REMARK H PARENT
REMARK Flexibility Score: inf
ROOT
ATOM      1  C   UNL     1       0.972  -3.275   1.231  1.00  0.00     0.063 C 
ATOM      2  C   UNL     1       1.924  -3.252   0.084  1.00  0.00     0.038 C 
ATOM      3  O   UNL     1       1.543  -3.611  -1.060  1.00  0.00    -0.550 OA
ATOM      4  O   UNL     1       3.219  -2.782   0.263  1.00  0.00    -0.550 OA
ENDROOT
TORSDOF 0
ENDMDL
MODEL 2
REMARK VINA RESULT:    -2.236      0.267      1.621
REMARK INTER + INTRA:          -2.236
REMARK INTER:                  -2.236
REMARK INTRA:                   0.000
REMARK UNBOUND:                 0.000
REMARK SMILES CC(=O)[O-]
REMARK SMILES IDX 1 1 2 2 3 3 4 4
REMARK H PARENT
REMARK Flexibility Score: inf
ROOT
ATOM      1  C   UNL     1       0.992  -3.250   1.297  1.00  0.00     0.063 C 
ATOM      2  C   UNL     1       1.934  -3.349   0.146  1.00  0.00     0.038 C 
ATOM      3  O   UNL     1       3.065  -2.800   0.207  1.00  0.00    -0.550 OA
ATOM      4  O   UNL     1       1.588  -4.091  -0.977  1.00  0.00    -0.550 OA
ENDROOT
TORSDOF 0
ENDMDL
MODEL 3
REMARK VINA RESULT:    -2.220      1.460      1.896
REMARK INTER + INTRA:          -2.220
REMARK INTER:                  -2.220
REMARK INTRA:                   0.000
REMARK UNBOUND:                 0.000
REMARK SMILES CC(=O)[O-]
REMARK SMILES IDX 1 1 2 2 3 3 4 4
REMARK H PARENT
REMARK Flexibility Score: inf
ROOT
ATOM      1  C   UNL     1       0.946  -3.898  -0.865  1.00  0.00     0.063 C 
ATOM      2  C   UNL     1       1.676  -3.112   0.169  1.00  0.00     0.038 C 
ATOM      3  O   UNL     1       2.878  -2.785  -0.018  1.00  0.00    -0.550 OA
ATOM      4  O   UNL     1       1.019  -2.691   1.319  1.00  0.00    -0.550 OA
ENDROOT
TORSDOF 0
ENDMDL
MODEL 4
REMARK VINA RESULT:    -2.215      1.416      1.650
REMARK INTER + INTRA:          -2.215
REMARK INTER:                  -2.215
REMARK INTRA:                   0.000
REMARK UNBOUND:                 0.000
REMARK SMILES CC(=O)[O-]
REMARK SMILES IDX 1 1 2 2 3 3 4 4
REMARK H PARENT
REMARK Flexibility Score: inf
ROOT
ATOM      1  C   UNL     1       1.071  -4.076  -0.833  1.00  0.00     0.063 C 
ATOM      2  C   UNL     1       1.694  -3.167   0.171  1.00  0.00     0.038 C 
ATOM      3  O   UNL     1       1.003  -2.696   1.112  1.00  0.00    -0.550 OA
ATOM      4  O   UNL     1       3.052  -2.879   0.103  1.00  0.00    -0.550 OA
ENDROOT
TORSDOF 0
ENDMDL
MODEL 5
REMARK VINA RESULT:    -1.977      2.070      2.612
REMARK INTER + INTRA:          -1.977
REMARK INTER:                  -1.977
REMARK INTRA:                   0.000
REMARK UNBOUND:                 0.000
REMARK SMILES CC(=O)[O-]
REMARK SMILES IDX 1 1 2 2 3 3 4 4
REMARK H PARENT
REMARK Flexibility Score: inf
ROOT
ATOM      1  C   UNL     1       0.278  -4.222   2.308  1.00  0.00     0.063 C 
ATOM      2  C   UNL     1       0.986  -2.972   1.909  1.00  0.00     0.038 C 
ATOM      3  O   UNL     1       1.249  -2.092   2.770  1.00  0.00    -0.550 OA
ATOM      4  O   UNL     1       1.405  -2.797   0.595  1.00  0.00    -0.550 OA
ENDROOT
TORSDOF 0
ENDMDL
MODEL 6
REMARK VINA RESULT:    -1.871      3.231      3.590
REMARK INTER + INTRA:          -1.871
REMARK INTER:                  -1.871
REMARK INTRA:                   0.000
REMARK UNBOUND:                 0.000
REMARK SMILES CC(=O)[O-]
REMARK SMILES IDX 1 1 2 2 3 3 4 4
REMARK H PARENT
REMARK Flexibility Score: inf
ROOT
ATOM      1  C   UNL     1       1.875  -3.712   3.842  1.00  0.00     0.063 C 
ATOM      2  C   UNL     1       1.401  -2.415   3.280  1.00  0.00     0.038 C 
ATOM      3  O   UNL     1       1.119  -2.323   2.056  1.00  0.00    -0.550 OA
ATOM      4  O   UNL     1       1.216  -1.319   4.114  1.00  0.00    -0.550 OA
ENDROOT
TORSDOF 0
ENDMDL
MODEL 7
REMARK VINA RESULT:    -1.830      9.652     10.064
REMARK INTER + INTRA:          -1.830
REMARK INTER:                  -1.830
REMARK INTRA:                   0.000
REMARK UNBOUND:                 0.000
REMARK SMILES CC(=O)[O-]
REMARK SMILES IDX 1 1 2 2 3 3 4 4
REMARK H PARENT
REMARK Flexibility Score: inf
ROOT
ATOM      1  C   UNL     1      10.628   3.910   1.396  1.00  0.00     0.063 C 
ATOM      2  C   UNL     1       9.691   2.760   1.248  1.00  0.00     0.038 C 
ATOM      3  O   UNL     1       9.379   2.343   0.101  1.00  0.00    -0.550 OA
ATOM      4  O   UNL     1       9.201   2.109   2.374  1.00  0.00    -0.550 OA
ENDROOT
TORSDOF 0
ENDMDL
MODEL 8
REMARK VINA RESULT:    -1.781     12.833     13.257
REMARK INTER + INTRA:          -1.781
REMARK INTER:                  -1.781
REMARK INTRA:                   0.000
REMARK UNBOUND:                 0.000
REMARK SMILES CC(=O)[O-]
REMARK SMILES IDX 1 1 2 2 3 3 4 4
REMARK H PARENT
REMARK Flexibility Score: inf
ROOT
ATOM      1  C   UNL     1       7.332   9.780   2.374  1.00  0.00     0.063 C 
ATOM      2  C   UNL     1       6.406   8.991   1.512  1.00  0.00     0.038 C 
ATOM      3  O   UNL     1       5.816   7.981   1.977  1.00  0.00    -0.550 OA
ATOM      4  O   UNL     1       6.149   9.399   0.208  1.00  0.00    -0.550 OA
ENDROOT
TORSDOF 0
ENDMDL
MODEL 9
REMARK VINA RESULT:    -1.768     13.079     13.485
REMARK INTER + INTRA:          -1.768
REMARK INTER:                  -1.768
REMARK INTRA:                   0.000
REMARK UNBOUND:                 0.000
REMARK SMILES CC(=O)[O-]
REMARK SMILES IDX 1 1 2 2 3 3 4 4
REMARK H PARENT
REMARK Flexibility Score: inf
ROOT
ATOM      1  C   UNL     1       7.059  10.452   1.922  1.00  0.00     0.063 C 
ATOM      2  C   UNL     1       6.371   9.324   1.232  1.00  0.00     0.038 C 
ATOM      3  O   UNL     1       6.210   9.350  -0.016  1.00  0.00    -0.550 OA
ATOM      4  O   UNL     1       5.952   8.215   1.957  1.00  0.00    -0.550 OA
ENDROOT
TORSDOF 0
ENDMDL
