MODEL 1
REMARK VINA RESULT:    -4.100      0.000      0.000
REMARK INTER + INTRA:          -4.100
REMARK INTER:                  -4.100
REMARK INTRA:                   0.000
REMARK UNBOUND:                 0.000
REMARK SMILES CC1(C)[C@H]2CC[C@]1(C)C(=O)C2
REMARK SMILES IDX 1 1 2 2 4 3 5 4 6 5 7 6 9 7 10 8 11 9 8 10 3 11
REMARK H PARENT
REMARK Flexibility Score: inf
ROOT
ATOM      1  C   UNL     1     115.920 114.527 114.842  1.00  0.00     0.012 C 
ATOM      2  C   UNL     1     114.783 115.117 113.951  1.00  0.00    -0.020 C 
ATOM      3  C   UNL     1     114.578 114.352 112.621  1.00  0.00     0.003 C 
ATOM      4  C   UNL     1     113.536 115.234 111.877  1.00  0.00     0.005 C 
ATOM      5  C   UNL     1     113.939 116.671 112.291  1.00  0.00     0.015 C 
ATOM      6  C   UNL     1     115.150 116.429 113.224  1.00  0.00     0.032 C 
ATOM      7  C   UNL     1     116.249 115.945 112.311  1.00  0.00     0.139 C 
ATOM      8  O   UNL     1     117.199 116.605 111.918  1.00  0.00    -0.299 OA
ATOM      9  C   UNL     1     115.929 114.548 111.877  1.00  0.00     0.080 C 
ATOM     10  C   UNL     1     115.524 117.622 114.112  1.00  0.00     0.020 C 
ATOM     11  C   UNL     1     113.509 115.179 114.846  1.00  0.00     0.012 C 
ENDROOT
TORSDOF 0
ENDMDL
MODEL 2
REMARK VINA RESULT:    -4.099      1.994      3.237
REMARK INTER + INTRA:          -4.099
REMARK INTER:                  -4.099
REMARK INTRA:                   0.000
REMARK UNBOUND:                 0.000
REMARK SMILES CC1(C)[C@H]2CC[C@]1(C)C(=O)C2
REMARK SMILES IDX 1 1 2 2 4 3 5 4 6 5 7 6 9 7 10 8 11 9 8 10 3 11
REMARK H PARENT
REMARK Flexibility Score: inf
ROOT
ATOM      1  C   UNL     1     114.684 117.190 114.849  1.00  0.00     0.012 C 
ATOM      2  C   UNL     1     115.206 118.354 113.949  1.00  0.00    -0.020 C 
ATOM      3  C   UNL     1     114.411 118.522 112.631  1.00  0.00     0.003 C 
ATOM      4  C   UNL     1     115.230 119.605 111.875  1.00  0.00     0.005 C 
ATOM      5  C   UNL     1     116.691 119.271 112.266  1.00  0.00     0.015 C 
ATOM      6  C   UNL     1     116.522 118.051 113.202  1.00  0.00     0.032 C 
ATOM      7  C   UNL     1     116.077 116.929 112.295  1.00  0.00     0.139 C 
ATOM      8  O   UNL     1     116.775 116.012 111.892  1.00  0.00    -0.299 OA
ATOM      9  C   UNL     1     114.660 117.182 111.884  1.00  0.00     0.080 C 
ATOM     10  C   UNL     1     117.745 117.734 114.071  1.00  0.00     0.020 C 
ATOM     11  C   UNL     1     115.220 119.630 114.844  1.00  0.00     0.012 C 
ENDROOT
TORSDOF 0
ENDMDL
MODEL 3
REMARK VINA RESULT:    -4.069      2.866      4.604
REMARK INTER + INTRA:          -4.069
REMARK INTER:                  -4.069
REMARK INTRA:                   0.000
REMARK UNBOUND:                 0.000
REMARK SMILES CC1(C)[C@H]2CC[C@]1(C)C(=O)C2
REMARK SMILES IDX 1 1 2 2 4 3 5 4 6 5 7 6 9 7 10 8 11 9 8 10 3 11
REMARK H PARENT
REMARK Flexibility Score: inf
ROOT
ATOM      1  C   UNL     1     116.739 118.475 112.099  1.00  0.00     0.012 C 
ATOM      2  C   UNL     1     117.553 118.178 113.396  1.00  0.00    -0.020 C 
ATOM      3  C   UNL     1     119.052 118.551 113.284  1.00  0.00     0.003 C 
ATOM      4  C   UNL     1     119.639 118.005 114.616  1.00  0.00     0.005 C 
ATOM      5  C   UNL     1     118.822 116.709 114.850  1.00  0.00     0.015 C 
ATOM      6  C   UNL     1     117.868 116.685 113.633  1.00  0.00     0.032 C 
ATOM      7  C   UNL     1     118.759 116.396 112.450  1.00  0.00     0.139 C 
ATOM      8  O   UNL     1     118.864 115.324 111.876  1.00  0.00    -0.299 OA
ATOM      9  C   UNL     1     119.576 117.617 112.158  1.00  0.00     0.080 C 
ATOM     10  C   UNL     1     116.663 115.748 113.780  1.00  0.00     0.020 C 
ATOM     11  C   UNL     1     116.809 118.900 114.559  1.00  0.00     0.012 C 
ENDROOT
TORSDOF 0
ENDMDL
MODEL 4
REMARK VINA RESULT:    -4.040      1.984      3.636
REMARK INTER + INTRA:          -4.040
REMARK INTER:                  -4.040
REMARK INTRA:                   0.000
REMARK UNBOUND:                 0.000
REMARK SMILES CC1(C)[C@H]2CC[C@]1(C)C(=O)C2
REMARK SMILES IDX 1 1 2 2 4 3 5 4 6 5 7 6 9 7 10 8 11 9 8 10 3 11
REMARK H PARENT
REMARK Flexibility Score: inf
ROOT
ATOM      1  C   UNL     1     114.656 116.762 112.310  1.00  0.00     0.012 C 
ATOM      2  C   UNL     1     115.003 117.614 113.571  1.00  0.00    -0.020 C 
ATOM      3  C   UNL     1     114.597 119.102 113.442  1.00  0.00     0.003 C 
ATOM      4  C   UNL     1     115.198 119.732 114.730  1.00  0.00     0.005 C 
ATOM      5  C   UNL     1     116.519 118.944 114.917  1.00  0.00     0.015 C 
ATOM      6  C   UNL     1     116.500 117.960 113.724  1.00  0.00     0.032 C 
ATOM      7  C   UNL     1     116.712 118.826 112.507  1.00  0.00     0.139 C 
ATOM      8  O   UNL     1     117.752 118.936 111.876  1.00  0.00    -0.299 OA
ATOM      9  C   UNL     1     115.463 119.614 112.258  1.00  0.00     0.080 C 
ATOM     10  C   UNL     1     117.465 116.776 113.852  1.00  0.00     0.020 C 
ATOM     11  C   UNL     1     114.355 116.886 114.787  1.00  0.00     0.012 C 
ENDROOT
TORSDOF 0
ENDMDL
MODEL 5
REMARK VINA RESULT:    -4.039      2.982      4.408
REMARK INTER + INTRA:          -4.039
REMARK INTER:                  -4.039
REMARK INTRA:                   0.000
REMARK UNBOUND:                 0.000
REMARK SMILES CC1(C)[C@H]2CC[C@]1(C)C(=O)C2
REMARK SMILES IDX 1 1 2 2 4 3 5 4 6 5 7 6 9 7 10 8 11 9 8 10 3 11
REMARK H PARENT
REMARK Flexibility Score: inf
ROOT
ATOM      1  C   UNL     1     116.084 116.795 112.861  1.00  0.00     0.012 C 
ATOM      2  C   UNL     1     117.389 117.616 112.617  1.00  0.00    -0.020 C 
ATOM      3  C   UNL     1     118.492 116.820 111.879  1.00  0.00     0.003 C 
ATOM      4  C   UNL     1     119.703 117.794 111.924  1.00  0.00     0.005 C 
ATOM      5  C   UNL     1     119.550 118.475 113.308  1.00  0.00     0.015 C 
ATOM      6  C   UNL     1     118.269 117.814 113.871  1.00  0.00     0.032 C 
ATOM      7  C   UNL     1     118.667 116.388 114.161  1.00  0.00     0.139 C 
ATOM      8  O   UNL     1     118.906 115.919 115.263  1.00  0.00    -0.299 OA
ATOM      9  C   UNL     1     118.824 115.662 112.861  1.00  0.00     0.080 C 
ATOM     10  C   UNL     1     117.626 118.559 115.047  1.00  0.00     0.020 C 
ATOM     11  C   UNL     1     116.958 118.923 111.887  1.00  0.00     0.012 C 
ENDROOT
TORSDOF 0
ENDMDL
MODEL 6
REMARK VINA RESULT:    -4.021      1.185      2.160
REMARK INTER + INTRA:          -4.021
REMARK INTER:                  -4.021
REMARK INTRA:                   0.000
REMARK UNBOUND:                 0.000
REMARK SMILES CC1(C)[C@H]2CC[C@]1(C)C(=O)C2
REMARK SMILES IDX 1 1 2 2 4 3 5 4 6 5 7 6 9 7 10 8 11 9 8 10 3 11
REMARK H PARENT
REMARK Flexibility Score: inf
ROOT
ATOM      1  C   UNL     1     116.608 114.749 112.259  1.00  0.00     0.012 C 
ATOM      2  C   UNL     1     115.665 114.975 113.482  1.00  0.00    -0.020 C 
ATOM      3  C   UNL     1     114.204 114.528 113.227  1.00  0.00     0.003 C 
ATOM      4  C   UNL     1     113.472 115.014 114.509  1.00  0.00     0.005 C 
ATOM      5  C   UNL     1     114.194 116.345 114.839  1.00  0.00     0.015 C 
ATOM      6  C   UNL     1     115.252 116.444 113.715  1.00  0.00     0.032 C 
ATOM      7  C   UNL     1     114.457 116.713 112.461  1.00  0.00     0.139 C 
ATOM      8  O   UNL     1     114.347 117.791 111.898  1.00  0.00    -0.299 OA
ATOM      9  C   UNL     1     113.736 115.459 112.074  1.00  0.00     0.080 C 
ATOM     10  C   UNL     1     116.387 117.439 113.987  1.00  0.00     0.020 C 
ATOM     11  C   UNL     1     116.339 114.267 114.696  1.00  0.00     0.012 C 
ENDROOT
TORSDOF 0
ENDMDL
MODEL 7
REMARK VINA RESULT:    -3.993      2.050      3.375
REMARK INTER + INTRA:          -3.993
REMARK INTER:                  -3.993
REMARK INTRA:                   0.000
REMARK UNBOUND:                 0.000
REMARK SMILES CC1(C)[C@H]2CC[C@]1(C)C(=O)C2
REMARK SMILES IDX 1 1 2 2 4 3 5 4 6 5 7 6 9 7 10 8 11 9 8 10 3 11
REMARK H PARENT
REMARK Flexibility Score: inf
ROOT
ATOM      1  C   UNL     1     118.505 115.713 115.006  1.00  0.00     0.012 C 
ATOM      2  C   UNL     1     118.063 114.580 114.027  1.00  0.00    -0.020 C 
ATOM      3  C   UNL     1     118.875 114.550 112.709  1.00  0.00     0.003 C 
ATOM      4  C   UNL     1     118.131 113.470 111.875  1.00  0.00     0.005 C 
ATOM      5  C   UNL     1     116.649 113.685 112.272  1.00  0.00     0.015 C 
ATOM      6  C   UNL     1     116.735 114.849 113.288  1.00  0.00     0.032 C 
ATOM      7  C   UNL     1     117.114 116.054 112.461  1.00  0.00     0.139 C 
ATOM      8  O   UNL     1     116.362 116.950 112.112  1.00  0.00    -0.299 OA
ATOM      9  C   UNL     1     118.546 115.918 112.048  1.00  0.00     0.080 C 
ATOM     10  C   UNL     1     115.490 115.031 114.163  1.00  0.00     0.020 C 
ATOM     11  C   UNL     1     118.124 113.250 114.836  1.00  0.00     0.012 C 
ENDROOT
TORSDOF 0
ENDMDL
