MODEL 1
REMARK VINA RESULT:     1.169      0.000      0.000
REMARK INTER + INTRA:           2.084
REMARK INTER:                   1.443
REMARK INTRA:                   0.642
REMARK UNBOUND:                 0.642
REMARK SMILES C=C1[C@H]2CC[C@@H]3[C@H]2C(C)(C)CCC[C@]13C
REMARK SMILES IDX 14 1 6 2 7 3 3 4 2 5 1 6 4 7 5 8 15 9 8 10 9 11 10 12 11 13
REMARK SMILES IDX 13 15 12 16
REMARK H PARENT
REMARK Flexibility Score: 80.00
ROOT
ATOM      1  C   UNL     1       6.339   6.187  13.213  1.00  0.00    -0.008 C 
ATOM      2  C   UNL     1       4.842   5.946  13.658  1.00  0.00     0.003 C 
ATOM      3  C   UNL     1       4.078   7.181  13.139  1.00  0.00     0.006 C 
ATOM      4  C   UNL     1       4.607   7.033  11.713  1.00  0.00     0.019 C 
ATOM      5  C   UNL     1       6.092   6.949  11.935  1.00  0.00    -0.068 C 
ATOM      6  C   UNL     1       7.024   7.400  11.087  1.00  0.00     0.009 C 
ATOM      7  C   UNL     1       4.132   5.601  11.370  1.00  0.00     0.008 C 
ATOM      8  C   UNL     1       4.194   4.875  12.737  1.00  0.00     0.005 C 
ATOM      9  C   UNL     1       7.119   4.875  12.926  1.00  0.00     0.016 C 
ENDROOT
BRANCH   3  10
ATOM     10  C   UNL     1       4.215   8.573  13.895  1.00  0.00    -0.032 C 
ATOM     11  C   UNL     1       2.897   8.821  14.681  1.00  0.00     0.011 C 
ATOM     12  C   UNL     1       4.349   9.751  12.895  1.00  0.00     0.011 C 
BRANCH  10  13
ATOM     13  C   UNL     1       5.346   8.631  14.961  1.00  0.00     0.007 CG0
ATOM     14  G   UNL     1       6.768   8.459  14.436  1.00  0.00     0.000 G0
ENDBRANCH  10  13
ENDBRANCH   3  10
BRANCH   1  15
ATOM     15  C   UNL     1       7.155   6.991  14.259  1.00  0.00     0.011 C 
BRANCH  15  16
ATOM     16  C   UNL     1       6.764   8.456  14.430  1.00  0.00     0.001 CG0
ATOM     17  G   UNL     1       5.340   8.622  14.952  1.00  0.00     0.000 G0
ENDBRANCH  15  16
ENDBRANCH   1  15
TORSDOF 0
ENDMDL
MODEL 2
REMARK VINA RESULT:     1.292      1.679      3.369
REMARK INTER + INTRA:           2.235
REMARK INTER:                   1.619
REMARK INTRA:                   0.616
REMARK UNBOUND:                 0.642
REMARK SMILES C=C1[C@H]2CC[C@@H]3[C@H]2C(C)(C)CCC[C@]13C
REMARK SMILES IDX 14 1 6 2 7 3 3 4 2 5 1 6 4 7 5 8 15 9 8 10 9 11 10 12 11 13
REMARK SMILES IDX 13 15 12 16
REMARK H PARENT
REMARK Flexibility Score: 80.00
ROOT
ATOM      1  C   UNL     1       6.638   5.756  12.737  1.00  0.00    -0.008 C 
ATOM      2  C   UNL     1       6.785   7.280  12.349  1.00  0.00     0.003 C 
ATOM      3  C   UNL     1       6.040   8.040  13.466  1.00  0.00     0.006 C 
ATOM      4  C   UNL     1       6.804   7.339  14.590  1.00  0.00     0.019 C 
ATOM      5  C   UNL     1       6.618   5.889  14.239  1.00  0.00    -0.068 C 
ATOM      6  C   UNL     1       6.542   4.887  15.125  1.00  0.00     0.009 C 
ATOM      7  C   UNL     1       8.263   7.697  14.220  1.00  0.00     0.008 C 
ATOM      8  C   UNL     1       8.227   7.760  12.673  1.00  0.00     0.005 C 
ATOM      9  C   UNL     1       7.838   4.881  12.280  1.00  0.00     0.016 C 
ENDROOT
BRANCH   3  10
ATOM     10  C   UNL     1       4.450   8.063  13.485  1.00  0.00    -0.032 C 
ATOM     11  C   UNL     1       3.988   9.462  12.992  1.00  0.00     0.011 C 
ATOM     12  C   UNL     1       3.897   7.908  14.925  1.00  0.00     0.011 C 
BRANCH  10  13
ATOM     13  C   UNL     1       3.769   7.045  12.526  1.00  0.00     0.007 CG0
ATOM     14  G   UNL     1       4.049   5.572  12.808  1.00  0.00     0.000 G0
ENDBRANCH  10  13
ENDBRANCH   3  10
BRANCH   1  15
ATOM     15  C   UNL     1       5.350   5.110  12.161  1.00  0.00     0.011 C 
BRANCH  15  16
ATOM     16  C   UNL     1       4.035   5.569  12.787  1.00  0.00     0.001 CG0
ATOM     17  G   UNL     1       3.744   7.042  12.517  1.00  0.00     0.000 G0
ENDBRANCH  15  16
ENDBRANCH   1  15
TORSDOF 0
ENDMDL
MODEL 3
REMARK VINA RESULT:     2.290      1.614      3.069
REMARK INTER + INTRA:           3.467
REMARK INTER:                   2.835
REMARK INTRA:                   0.632
REMARK UNBOUND:                 0.642
REMARK SMILES C=C1[C@H]2CC[C@@H]3[C@H]2C(C)(C)CCC[C@]13C
REMARK SMILES IDX 14 1 6 2 7 3 3 4 2 5 1 6 4 7 5 8 15 9 8 10 9 11 10 12 11 13
REMARK SMILES IDX 13 15 12 16
REMARK H PARENT
REMARK Flexibility Score: 80.00
ROOT
ATOM      1  C   UNL     1       6.238   7.114  12.110  1.00  0.00    -0.008 C 
ATOM      2  C   UNL     1       6.543   8.150  13.263  1.00  0.00     0.003 C 
ATOM      3  C   UNL     1       5.258   8.173  14.116  1.00  0.00     0.006 C 
ATOM      4  C   UNL     1       5.223   6.654  14.283  1.00  0.00     0.019 C 
ATOM      5  C   UNL     1       5.324   6.178  12.861  1.00  0.00    -0.068 C 
ATOM      6  C   UNL     1       4.764   5.060  12.382  1.00  0.00     0.009 C 
ATOM      7  C   UNL     1       6.605   6.398  14.931  1.00  0.00     0.008 C 
ATOM      8  C   UNL     1       7.495   7.500  14.305  1.00  0.00     0.005 C 
ATOM      9  C   UNL     1       7.498   6.360  11.604  1.00  0.00     0.016 C 
ENDROOT
BRANCH   3  10
ATOM     10  C   UNL     1       3.970   8.941  13.588  1.00  0.00    -0.032 C 
ATOM     11  C   UNL     1       3.840  10.263  14.396  1.00  0.00     0.011 C 
ATOM     12  C   UNL     1       2.674   8.136  13.868  1.00  0.00     0.011 C 
BRANCH  10  13
ATOM     13  C   UNL     1       4.032   9.376  12.097  1.00  0.00     0.007 CG0
ATOM     14  G   UNL     1       4.123   8.246  11.076  1.00  0.00     0.000 G0
ENDBRANCH  10  13
ENDBRANCH   3  10
BRANCH   1  15
ATOM     15  C   UNL     1       5.565   7.770  10.875  1.00  0.00     0.011 C 
BRANCH  15  16
ATOM     16  C   UNL     1       4.131   8.255  11.074  1.00  0.00     0.001 CG0
ATOM     17  G   UNL     1       4.032   9.365  12.116  1.00  0.00     0.000 G0
ENDBRANCH  15  16
ENDBRANCH   1  15
TORSDOF 0
ENDMDL
MODEL 4
REMARK VINA RESULT:     2.772      1.128      3.578
REMARK INTER + INTRA:           4.062
REMARK INTER:                   3.413
REMARK INTRA:                   0.649
REMARK UNBOUND:                 0.642
REMARK SMILES C=C1[C@H]2CC[C@@H]3[C@H]2C(C)(C)CCC[C@]13C
REMARK SMILES IDX 14 1 6 2 7 3 3 4 2 5 1 6 4 7 5 8 15 9 8 10 9 11 10 12 11 13
REMARK SMILES IDX 13 15 12 16
REMARK H PARENT
REMARK Flexibility Score: 80.00
ROOT
ATOM      1  C   UNL     1       4.626   8.711  13.425  1.00  0.00    -0.008 C 
ATOM      2  C   UNL     1       5.469   8.441  12.117  1.00  0.00     0.003 C 
ATOM      3  C   UNL     1       5.754   6.925  12.144  1.00  0.00     0.006 C 
ATOM      4  C   UNL     1       4.284   6.551  12.338  1.00  0.00     0.019 C 
ATOM      5  C   UNL     1       3.899   7.393  13.522  1.00  0.00    -0.068 C 
ATOM      6  C   UNL     1       2.993   7.051  14.447  1.00  0.00     0.009 C 
ATOM      7  C   UNL     1       3.646   7.219  11.097  1.00  0.00     0.008 C 
ATOM      8  C   UNL     1       4.530   8.472  10.879  1.00  0.00     0.005 C 
ATOM      9  C   UNL     1       3.616   9.883  13.281  1.00  0.00     0.016 C 
ENDROOT
BRANCH   3  10
ATOM     10  C   UNL     1       6.856   6.344  13.132  1.00  0.00    -0.032 C 
ATOM     11  C   UNL     1       8.101   5.962  12.285  1.00  0.00     0.011 C 
ATOM     12  C   UNL     1       6.376   5.033  13.809  1.00  0.00     0.011 C 
BRANCH  10  13
ATOM     13  C   UNL     1       7.377   7.349  14.197  1.00  0.00     0.007 CG0
ATOM     14  G   UNL     1       6.343   7.856  15.198  1.00  0.00     0.000 G0
ENDBRANCH  10  13
ENDBRANCH   3  10
BRANCH   1  15
ATOM     15  C   UNL     1       5.513   9.015  14.661  1.00  0.00     0.011 C 
BRANCH  15  16
ATOM     16  C   UNL     1       6.340   7.848  15.193  1.00  0.00     0.001 CG0
ATOM     17  G   UNL     1       7.370   7.355  14.181  1.00  0.00     0.000 G0
ENDBRANCH  15  16
ENDBRANCH   1  15
TORSDOF 0
ENDMDL
MODEL 5
REMARK VINA RESULT:     2.884      2.056      3.719
REMARK INTER + INTRA:           4.201
REMARK INTER:                   2.951
REMARK INTRA:                   1.250
REMARK UNBOUND:                 0.642
REMARK SMILES C=C1[C@H]2CC[C@@H]3[C@H]2C(C)(C)CCC[C@]13C
REMARK SMILES IDX 14 1 6 2 7 3 3 4 2 5 1 6 4 7 5 8 15 9 8 10 9 11 10 12 11 13
REMARK SMILES IDX 13 15 12 16
REMARK H PARENT
REMARK Flexibility Score: 80.00
ROOT
ATOM      1  C   UNL     1       5.044   7.772  13.062  1.00  0.00    -0.008 C 
ATOM      2  C   UNL     1       5.118   9.182  13.769  1.00  0.00     0.003 C 
ATOM      3  C   UNL     1       3.662   9.693  13.773  1.00  0.00     0.006 C 
ATOM      4  C   UNL     1       3.111   8.416  14.409  1.00  0.00     0.019 C 
ATOM      5  C   UNL     1       3.665   7.350  13.505  1.00  0.00    -0.068 C 
ATOM      6  C   UNL     1       3.062   6.188  13.225  1.00  0.00     0.009 C 
ATOM      7  C   UNL     1       3.938   8.359  15.715  1.00  0.00     0.008 C 
ATOM      8  C   UNL     1       5.292   8.985  15.301  1.00  0.00     0.005 C 
ATOM      9  C   UNL     1       6.114   6.766  13.571  1.00  0.00     0.016 C 
ENDROOT
BRANCH   3  10
ATOM     10  C   UNL     1       3.016  10.253  12.433  1.00  0.00    -0.032 C 
ATOM     11  C   UNL     1       3.645  11.645  12.146  1.00  0.00     0.011 C 
ATOM     12  C   UNL     1       1.492  10.493  12.595  1.00  0.00     0.011 C 
BRANCH  10  13
ATOM     13  C   UNL     1       3.303   9.404  11.162  1.00  0.00     0.007 CG0
ATOM     14  G   UNL     1       4.774   9.149  10.848  1.00  0.00     0.000 G0
ENDBRANCH  10  13
ENDBRANCH   3  10
BRANCH   1  15
ATOM     15  C   UNL     1       5.192   7.863  11.520  1.00  0.00     0.011 C 
BRANCH  15  16
ATOM     16  C   UNL     1       4.722   9.167  10.880  1.00  0.00     0.001 CG0
ATOM     17  G   UNL     1       3.248   9.452  11.152  1.00  0.00     0.000 G0
ENDBRANCH  15  16
ENDBRANCH   1  15
TORSDOF 0
ENDMDL
MODEL 6
REMARK VINA RESULT:     4.004      2.197      4.774
REMARK INTER + INTRA:           5.582
REMARK INTER:                   4.966
REMARK INTRA:                   0.616
REMARK UNBOUND:                 0.642
REMARK SMILES C=C1[C@H]2CC[C@@H]3[C@H]2C(C)(C)CCC[C@]13C
REMARK SMILES IDX 14 1 6 2 7 3 3 4 2 5 1 6 4 7 5 8 15 9 8 10 9 11 10 12 11 13
REMARK SMILES IDX 13 15 12 16
REMARK H PARENT
REMARK Flexibility Score: 80.00
ROOT
ATOM      1  C   UNL     1       2.757  10.496  11.975  1.00  0.00    -0.008 C 
ATOM      2  C   UNL     1       1.869   9.385  12.663  1.00  0.00     0.003 C 
ATOM      3  C   UNL     1       2.735   8.861  13.828  1.00  0.00     0.006 C 
ATOM      4  C   UNL     1       2.995  10.257  14.394  1.00  0.00     0.019 C 
ATOM      5  C   UNL     1       3.501  10.997  13.188  1.00  0.00    -0.068 C 
ATOM      6  C   UNL     1       4.396  11.993  13.215  1.00  0.00     0.009 C 
ATOM      7  C   UNL     1       1.548  10.749  14.636  1.00  0.00     0.008 C 
ATOM      8  C   UNL     1       0.749  10.062  13.501  1.00  0.00     0.005 C 
ATOM      9  C   UNL     1       1.927  11.640  11.330  1.00  0.00     0.016 C 
ENDROOT
BRANCH   3  10
ATOM     10  C   UNL     1       3.956   7.887  13.532  1.00  0.00    -0.032 C 
ATOM     11  C   UNL     1       3.530   6.450  13.943  1.00  0.00     0.011 C 
ATOM     12  C   UNL     1       5.188   8.238  14.406  1.00  0.00     0.011 C 
BRANCH  10  13
ATOM     13  C   UNL     1       4.362   7.782  12.034  1.00  0.00     0.007 CG0
ATOM     14  G   UNL     1       4.818   9.080  11.374  1.00  0.00     0.000 G0
ENDBRANCH  10  13
ENDBRANCH   3  10
BRANCH   1  15
ATOM     15  C   UNL     1       3.690   9.924  10.875  1.00  0.00     0.011 C 
BRANCH  15  16
ATOM     16  C   UNL     1       4.840   9.047  11.363  1.00  0.00     0.001 CG0
ATOM     17  G   UNL     1       4.351   7.774  12.048  1.00  0.00     0.000 G0
ENDBRANCH  15  16
ENDBRANCH   1  15
TORSDOF 0
ENDMDL
