MODEL 1
REMARK VINA RESULT:    -6.011      0.000      0.000
REMARK INTER + INTRA:          -7.398
REMARK INTER:                  -7.240
REMARK INTRA:                  -0.158
REMARK UNBOUND:                -0.158
REMARK SMILES O=c1c(O)c(-c2ccc(O)c(O)c2)oc2cc(O)cc(O)c12
REMARK SMILES IDX 5 1 3 2 2 3 1 4 22 5 20 6 19 7 17 8 16 9 15 10 14 11 6 12
REMARK SMILES IDX 7 13 8 14 9 15 13 16 11 17 10 18 12 20 4 22 21 24 18 26
REMARK H PARENT 10 19 12 21 4 23 21 25 18 27
REMARK Flexibility Score: inf
ROOT
ATOM      1  C   UNL     1      -3.923   9.333   4.551  1.00  0.00     0.180 A 
ATOM      2  C   UNL     1      -4.728   9.478   5.694  1.00  0.00     0.208 A 
ATOM      3  C   UNL     1      -4.115   9.731   6.931  1.00  0.00     0.238 A 
ATOM      4  O   UNL     1      -4.845   9.933   7.936  1.00  0.00    -0.285 OA
ATOM      5  C   UNL     1      -2.702   9.782   7.021  1.00  0.00     0.111 A 
ATOM      6  C   UNL     1      -1.972   9.988   8.231  1.00  0.00     0.134 A 
ATOM      7  C   UNL     1      -0.579  10.125   8.181  1.00  0.00     0.093 A 
ATOM      8  C   UNL     1       0.116  10.000   6.976  1.00  0.00     0.123 A 
ATOM      9  C   UNL     1      -0.583   9.744   5.800  1.00  0.00     0.094 A 
ATOM     10  C   UNL     1      -1.976   9.640   5.809  1.00  0.00     0.146 A 
ATOM     11  O   UNL     1      -2.603   9.418   4.661  1.00  0.00    -0.452 OA
ENDROOT
BRANCH   1  12
ATOM     12  C   UNL     1      -4.497   9.078   3.210  1.00  0.00     0.025 A 
ATOM     13  C   UNL     1      -4.335   9.997   2.158  1.00  0.00     0.016 A 
ATOM     14  C   UNL     1      -4.864   9.723   0.895  1.00  0.00     0.051 A 
ATOM     15  C   UNL     1      -5.549   8.524   0.659  1.00  0.00     0.157 A 
ATOM     16  C   UNL     1      -5.166   7.868   2.963  1.00  0.00     0.062 A 
ATOM     17  C   UNL     1      -5.698   7.592   1.699  1.00  0.00     0.158 A 
BRANCH  15  18
ATOM     18  O   UNL     1      -6.078   8.255  -0.602  1.00  0.00    -0.504 OA
ATOM     19  H   UNL     1      -6.116   8.965  -1.325  1.00  0.00     0.293 HD
ENDBRANCH  15  18
BRANCH  17  20
ATOM     20  O   UNL     1      -6.369   6.386   1.496  1.00  0.00    -0.504 OA
ATOM     21  H   UNL     1      -5.880   5.534   1.244  1.00  0.00     0.293 HD
ENDBRANCH  17  20
ENDBRANCH   1  12
BRANCH   2  22
ATOM     22  O   UNL     1      -6.116   9.348   5.598  1.00  0.00    -0.502 OA
ATOM     23  H   UNL     1      -6.565   8.831   4.852  1.00  0.00     0.293 HD
ENDBRANCH   2  22
BRANCH   6  24
ATOM     24  O   UNL     1      -2.556  10.039   9.500  1.00  0.00    -0.507 OA
ATOM     25  H   UNL     1      -2.773   9.235  10.070  1.00  0.00     0.293 HD
ENDBRANCH   6  24
BRANCH   8  26
ATOM     26  O   UNL     1       1.502  10.121   6.939  1.00  0.00    -0.508 OA
ATOM     27  H   UNL     1       1.964  11.003   7.132  1.00  0.00     0.293 HD
ENDBRANCH   8  26
TORSDOF 6
ENDMDL
MODEL 2
REMARK VINA RESULT:    -5.792     15.612     17.035
REMARK INTER + INTRA:          -7.134
REMARK INTER:                  -6.869
REMARK INTRA:                  -0.265
REMARK UNBOUND:                -0.158
REMARK SMILES O=c1c(O)c(-c2ccc(O)c(O)c2)oc2cc(O)cc(O)c12
REMARK SMILES IDX 5 1 3 2 2 3 1 4 22 5 20 6 19 7 17 8 16 9 15 10 14 11 6 12
REMARK SMILES IDX 7 13 8 14 9 15 13 16 11 17 10 18 12 20 4 22 21 24 18 26
REMARK H PARENT 10 19 12 21 4 23 21 25 18 27
REMARK Flexibility Score: inf
ROOT
ATOM      1  C   UNL     1      -4.195  -6.644   7.558  1.00  0.00     0.180 A 
ATOM      2  C   UNL     1      -3.411  -6.890   8.698  1.00  0.00     0.208 A 
ATOM      3  C   UNL     1      -2.292  -7.731   8.586  1.00  0.00     0.238 A 
ATOM      4  O   UNL     1      -1.552  -7.887   9.592  1.00  0.00    -0.285 OA
ATOM      5  C   UNL     1      -2.002  -8.359   7.351  1.00  0.00     0.111 A 
ATOM      6  C   UNL     1      -0.920  -9.265   7.133  1.00  0.00     0.134 A 
ATOM      7  C   UNL     1      -0.669  -9.743   5.841  1.00  0.00     0.093 A 
ATOM      8  C   UNL     1      -1.497  -9.398   4.771  1.00  0.00     0.123 A 
ATOM      9  C   UNL     1      -2.587  -8.559   4.983  1.00  0.00     0.094 A 
ATOM     10  C   UNL     1      -2.843  -8.035   6.253  1.00  0.00     0.146 A 
ATOM     11  O   UNL     1      -3.881  -7.222   6.405  1.00  0.00    -0.452 OA
ENDROOT
BRANCH   1  12
ATOM     12  C   UNL     1      -5.382  -5.759   7.594  1.00  0.00     0.025 A 
ATOM     13  C   UNL     1      -6.686  -6.283   7.626  1.00  0.00     0.016 A 
ATOM     14  C   UNL     1      -7.789  -5.428   7.684  1.00  0.00     0.051 A 
ATOM     15  C   UNL     1      -7.607  -4.040   7.724  1.00  0.00     0.157 A 
ATOM     16  C   UNL     1      -5.204  -4.367   7.655  1.00  0.00     0.062 A 
ATOM     17  C   UNL     1      -6.307  -3.508   7.712  1.00  0.00     0.158 A 
BRANCH  15  18
ATOM     18  O   UNL     1      -8.710  -3.190   7.779  1.00  0.00    -0.504 OA
ATOM     19  H   UNL     1      -8.633  -2.204   7.555  1.00  0.00     0.293 HD
ENDBRANCH  15  18
BRANCH  17  20
ATOM     20  O   UNL     1      -6.091  -2.131   7.758  1.00  0.00    -0.504 OA
ATOM     21  H   UNL     1      -6.698  -1.508   8.278  1.00  0.00     0.293 HD
ENDBRANCH  17  20
ENDBRANCH   1  12
BRANCH   2  22
ATOM     22  O   UNL     1      -3.757  -6.322   9.927  1.00  0.00    -0.502 OA
ATOM     23  H   UNL     1      -3.612  -6.800  10.808  1.00  0.00     0.293 HD
ENDBRANCH   2  22
BRANCH   6  24
ATOM     24  O   UNL     1      -0.085  -9.745   8.147  1.00  0.00    -0.507 OA
ATOM     25  H   UNL     1       0.569  -9.183   8.672  1.00  0.00     0.293 HD
ENDBRANCH   6  24
BRANCH   8  26
ATOM     26  O   UNL     1      -1.249  -9.892   3.493  1.00  0.00    -0.508 OA
ATOM     27  H   UNL     1      -1.999 -10.047   2.828  1.00  0.00     0.293 HD
ENDBRANCH   8  26
TORSDOF 6
ENDMDL
MODEL 3
REMARK VINA RESULT:    -5.128     15.628     17.929
REMARK INTER + INTRA:          -6.335
REMARK INTER:                  -6.031
REMARK INTRA:                  -0.304
REMARK UNBOUND:                -0.158
REMARK SMILES O=c1c(O)c(-c2ccc(O)c(O)c2)oc2cc(O)cc(O)c12
REMARK SMILES IDX 5 1 3 2 2 3 1 4 22 5 20 6 19 7 17 8 16 9 15 10 14 11 6 12
REMARK SMILES IDX 7 13 8 14 9 15 13 16 11 17 10 18 12 20 4 22 21 24 18 26
REMARK H PARENT 10 19 12 21 4 23 21 25 18 27
REMARK Flexibility Score: inf
ROOT
ATOM      1  C   UNL     1       6.376   3.277  -7.509  1.00  0.00     0.180 A 
ATOM      2  C   UNL     1       5.600   3.034  -8.654  1.00  0.00     0.208 A 
ATOM      3  C   UNL     1       5.198   1.719  -8.939  1.00  0.00     0.238 A 
ATOM      4  O   UNL     1       4.441   1.520  -9.924  1.00  0.00    -0.285 OA
ATOM      5  C   UNL     1       5.623   0.656  -8.106  1.00  0.00     0.111 A 
ATOM      6  C   UNL     1       5.312  -0.721  -8.323  1.00  0.00     0.134 A 
ATOM      7  C   UNL     1       5.699  -1.674  -7.372  1.00  0.00     0.093 A 
ATOM      8  C   UNL     1       6.439  -1.309  -6.245  1.00  0.00     0.123 A 
ATOM      9  C   UNL     1       6.793   0.023  -6.053  1.00  0.00     0.094 A 
ATOM     10  C   UNL     1       6.390   1.003  -6.963  1.00  0.00     0.146 A 
ATOM     11  O   UNL     1       6.732   2.264  -6.728  1.00  0.00    -0.452 OA
ENDROOT
BRANCH   1  12
ATOM     12  C   UNL     1       6.826   4.637  -7.135  1.00  0.00     0.025 A 
ATOM     13  C   UNL     1       7.945   5.231  -7.745  1.00  0.00     0.016 A 
ATOM     14  C   UNL     1       8.336   6.525  -7.393  1.00  0.00     0.051 A 
ATOM     15  C   UNL     1       7.610   7.250  -6.439  1.00  0.00     0.157 A 
ATOM     16  C   UNL     1       6.089   5.375  -6.194  1.00  0.00     0.062 A 
ATOM     17  C   UNL     1       6.479   6.671  -5.839  1.00  0.00     0.158 A 
BRANCH  15  18
ATOM     18  O   UNL     1       8.005   8.540  -6.089  1.00  0.00    -0.504 OA
ATOM     19  H   UNL     1       8.887   8.929  -6.402  1.00  0.00     0.293 HD
ENDBRANCH  15  18
BRANCH  17  20
ATOM     20  O   UNL     1       5.730   7.368  -4.892  1.00  0.00    -0.504 OA
ATOM     21  H   UNL     1       5.282   8.252  -5.103  1.00  0.00     0.293 HD
ENDBRANCH  17  20
ENDBRANCH   1  12
BRANCH   2  22
ATOM     22  O   UNL     1       5.254   4.087  -9.507  1.00  0.00    -0.502 OA
ATOM     23  H   UNL     1       4.741   4.899  -9.188  1.00  0.00     0.293 HD
ENDBRANCH   2  22
BRANCH   6  24
ATOM     24  O   UNL     1       4.656  -1.206  -9.458  1.00  0.00    -0.507 OA
ATOM     25  H   UNL     1       5.107  -1.663 -10.236  1.00  0.00     0.293 HD
ENDBRANCH   6  24
BRANCH   8  26
ATOM     26  O   UNL     1       6.833  -2.267  -5.314  1.00  0.00    -0.508 OA
ATOM     27  H   UNL     1       7.600  -2.100  -4.672  1.00  0.00     0.293 HD
ENDBRANCH   8  26
TORSDOF 6
ENDMDL
MODEL 4
REMARK VINA RESULT:    -5.038     12.870     15.560
REMARK INTER + INTRA:          -6.226
REMARK INTER:                  -6.037
REMARK INTRA:                  -0.189
REMARK UNBOUND:                -0.158
REMARK SMILES O=c1c(O)c(-c2ccc(O)c(O)c2)oc2cc(O)cc(O)c12
REMARK SMILES IDX 5 1 3 2 2 3 1 4 22 5 20 6 19 7 17 8 16 9 15 10 14 11 6 12
REMARK SMILES IDX 7 13 8 14 9 15 13 16 11 17 10 18 12 20 4 22 21 24 18 26
REMARK H PARENT 10 19 12 21 4 23 21 25 18 27
REMARK Flexibility Score: inf
ROOT
ATOM      1  C   UNL     1       6.331   7.243  -4.554  1.00  0.00     0.180 A 
ATOM      2  C   UNL     1       6.938   7.977  -5.587  1.00  0.00     0.208 A 
ATOM      3  C   UNL     1       7.008   7.415  -6.872  1.00  0.00     0.238 A 
ATOM      4  O   UNL     1       7.486   8.107  -7.808  1.00  0.00    -0.285 OA
ATOM      5  C   UNL     1       6.521   6.104  -7.096  1.00  0.00     0.111 A 
ATOM      6  C   UNL     1       6.580   5.418  -8.347  1.00  0.00     0.134 A 
ATOM      7  C   UNL     1       5.970   4.164  -8.476  1.00  0.00     0.093 A 
ATOM      8  C   UNL     1       5.358   3.544  -7.384  1.00  0.00     0.123 A 
ATOM      9  C   UNL     1       5.343   4.181  -6.147  1.00  0.00     0.094 A 
ATOM     10  C   UNL     1       5.910   5.449  -5.994  1.00  0.00     0.146 A 
ATOM     11  O   UNL     1       5.853   6.029  -4.802  1.00  0.00    -0.452 OA
ENDROOT
BRANCH   1  12
ATOM     12  C   UNL     1       6.207   7.773  -3.178  1.00  0.00     0.025 A 
ATOM     13  C   UNL     1       5.419   8.904  -2.896  1.00  0.00     0.016 A 
ATOM     14  C   UNL     1       5.298   9.371  -1.585  1.00  0.00     0.051 A 
ATOM     15  C   UNL     1       5.949   8.710  -0.535  1.00  0.00     0.157 A 
ATOM     16  C   UNL     1       6.840   7.102  -2.119  1.00  0.00     0.062 A 
ATOM     17  C   UNL     1       6.722   7.568  -0.805  1.00  0.00     0.158 A 
BRANCH  15  18
ATOM     18  O   UNL     1       5.827   9.180   0.771  1.00  0.00    -0.504 OA
ATOM     19  H   UNL     1       6.212   8.670   1.557  1.00  0.00     0.293 HD
ENDBRANCH  15  18
BRANCH  17  20
ATOM     20  O   UNL     1       7.377   6.884   0.218  1.00  0.00    -0.504 OA
ATOM     21  H   UNL     1       8.307   7.139   0.527  1.00  0.00     0.293 HD
ENDBRANCH  17  20
ENDBRANCH   1  12
BRANCH   2  22
ATOM     22  O   UNL     1       7.482   9.238  -5.329  1.00  0.00    -0.502 OA
ATOM     23  H   UNL     1       7.966   9.456  -4.466  1.00  0.00     0.293 HD
ENDBRANCH   2  22
BRANCH   6  24
ATOM     24  O   UNL     1       7.242   5.906  -9.478  1.00  0.00    -0.507 OA
ATOM     25  H   UNL     1       8.211   5.733  -9.700  1.00  0.00     0.293 HD
ENDBRANCH   6  24
BRANCH   8  26
ATOM     26  O   UNL     1       4.769   2.289  -7.518  1.00  0.00    -0.508 OA
ATOM     27  H   UNL     1       5.185   1.566  -8.094  1.00  0.00     0.293 HD
ENDBRANCH   8  26
TORSDOF 6
ENDMDL
MODEL 5
REMARK VINA RESULT:    -4.898     11.966     13.295
REMARK INTER + INTRA:          -6.058
REMARK INTER:                  -5.865
REMARK INTRA:                  -0.192
REMARK UNBOUND:                -0.158
REMARK SMILES O=c1c(O)c(-c2ccc(O)c(O)c2)oc2cc(O)cc(O)c12
REMARK SMILES IDX 5 1 3 2 2 3 1 4 22 5 20 6 19 7 17 8 16 9 15 10 14 11 6 12
REMARK SMILES IDX 7 13 8 14 9 15 13 16 11 17 10 18 12 20 4 22 21 24 18 26
REMARK H PARENT 10 19 12 21 4 23 21 25 18 27
REMARK Flexibility Score: inf
ROOT
ATOM      1  C   UNL     1       6.318   8.104  -3.983  1.00  0.00     0.180 A 
ATOM      2  C   UNL     1       5.252   8.886  -3.507  1.00  0.00     0.208 A 
ATOM      3  C   UNL     1       5.294   9.364  -2.188  1.00  0.00     0.238 A 
ATOM      4  O   UNL     1       4.373  10.125  -1.793  1.00  0.00    -0.285 OA
ATOM      5  C   UNL     1       6.373   9.009  -1.343  1.00  0.00     0.111 A 
ATOM      6  C   UNL     1       6.497   9.401   0.025  1.00  0.00     0.134 A 
ATOM      7  C   UNL     1       7.662   9.078   0.733  1.00  0.00     0.093 A 
ATOM      8  C   UNL     1       8.679   8.325   0.142  1.00  0.00     0.123 A 
ATOM      9  C   UNL     1       8.543   7.892  -1.174  1.00  0.00     0.094 A 
ATOM     10  C   UNL     1       7.410   8.229  -1.919  1.00  0.00     0.146 A 
ATOM     11  O   UNL     1       7.333   7.814  -3.177  1.00  0.00    -0.452 OA
ENDROOT
BRANCH   1  12
ATOM     12  C   UNL     1       6.353   7.575  -5.365  1.00  0.00     0.025 A 
ATOM     13  C   UNL     1       6.438   8.433  -6.476  1.00  0.00     0.016 A 
ATOM     14  C   UNL     1       6.495   7.908  -7.769  1.00  0.00     0.051 A 
ATOM     15  C   UNL     1       6.480   6.523  -7.973  1.00  0.00     0.157 A 
ATOM     16  C   UNL     1       6.360   6.185  -5.573  1.00  0.00     0.062 A 
ATOM     17  C   UNL     1       6.415   5.658  -6.868  1.00  0.00     0.158 A 
BRANCH  15  18
ATOM     18  O   UNL     1       6.534   6.003  -9.266  1.00  0.00    -0.504 OA
ATOM     19  H   UNL     1       5.723   5.582  -9.703  1.00  0.00     0.293 HD
ENDBRANCH  15  18
BRANCH  17  20
ATOM     20  O   UNL     1       6.406   4.273  -7.036  1.00  0.00    -0.504 OA
ATOM     21  H   UNL     1       6.306   3.842  -7.948  1.00  0.00     0.293 HD
ENDBRANCH  17  20
ENDBRANCH   1  12
BRANCH   2  22
ATOM     22  O   UNL     1       4.158   9.162  -4.333  1.00  0.00    -0.502 OA
ATOM     23  H   UNL     1       4.162   8.963  -5.326  1.00  0.00     0.293 HD
ENDBRANCH   2  22
BRANCH   6  24
ATOM     24  O   UNL     1       5.504  10.078   0.739  1.00  0.00    -0.507 OA
ATOM     25  H   UNL     1       4.526   9.828   0.749  1.00  0.00     0.293 HD
ENDBRANCH   6  24
BRANCH   8  26
ATOM     26  O   UNL     1       9.826   7.995   0.859  1.00  0.00    -0.508 OA
ATOM     27  H   UNL     1      10.745   8.020   0.432  1.00  0.00     0.293 HD
ENDBRANCH   8  26
TORSDOF 6
ENDMDL
MODEL 6
REMARK VINA RESULT:    -4.645     12.873     14.458
REMARK INTER + INTRA:          -5.753
REMARK INTER:                  -5.487
REMARK INTRA:                  -0.265
REMARK UNBOUND:                -0.158
REMARK SMILES O=c1c(O)c(-c2ccc(O)c(O)c2)oc2cc(O)cc(O)c12
REMARK SMILES IDX 5 1 3 2 2 3 1 4 22 5 20 6 19 7 17 8 16 9 15 10 14 11 6 12
REMARK SMILES IDX 7 13 8 14 9 15 13 16 11 17 10 18 12 20 4 22 21 24 18 26
REMARK H PARENT 10 19 12 21 4 23 21 25 18 27
REMARK Flexibility Score: inf
ROOT
ATOM      1  C   UNL     1       6.787   6.382  -5.012  1.00  0.00     0.180 A 
ATOM      2  C   UNL     1       8.177   6.322  -4.816  1.00  0.00     0.208 A 
ATOM      3  C   UNL     1       8.739   6.984  -3.713  1.00  0.00     0.238 A 
ATOM      4  O   UNL     1       9.974   6.864  -3.503  1.00  0.00    -0.285 OA
ATOM      5  C   UNL     1       7.913   7.745  -2.851  1.00  0.00     0.111 A 
ATOM      6  C   UNL     1       8.380   8.493  -1.728  1.00  0.00     0.134 A 
ATOM      7  C   UNL     1       7.456   9.121  -0.884  1.00  0.00     0.093 A 
ATOM      8  C   UNL     1       6.086   9.082  -1.158  1.00  0.00     0.123 A 
ATOM      9  C   UNL     1       5.626   8.401  -2.280  1.00  0.00     0.094 A 
ATOM     10  C   UNL     1       6.519   7.731  -3.121  1.00  0.00     0.146 A 
ATOM     11  O   UNL     1       6.033   7.076  -4.168  1.00  0.00    -0.452 OA
ENDROOT
BRANCH   1  12
ATOM     12  C   UNL     1       6.119   5.699  -6.143  1.00  0.00     0.025 A 
ATOM     13  C   UNL     1       6.195   6.206  -7.453  1.00  0.00     0.016 A 
ATOM     14  C   UNL     1       5.577   5.530  -8.508  1.00  0.00     0.051 A 
ATOM     15  C   UNL     1       4.888   4.333  -8.275  1.00  0.00     0.157 A 
ATOM     16  C   UNL     1       5.445   4.487  -5.918  1.00  0.00     0.062 A 
ATOM     17  C   UNL     1       4.824   3.809  -6.973  1.00  0.00     0.158 A 
BRANCH  15  18
ATOM     18  O   UNL     1       4.271   3.663  -9.330  1.00  0.00    -0.504 OA
ATOM     19  H   UNL     1       4.110   2.663  -9.302  1.00  0.00     0.293 HD
ENDBRANCH  15  18
BRANCH  17  20
ATOM     20  O   UNL     1       4.152   2.616  -6.708  1.00  0.00    -0.504 OA
ATOM     21  H   UNL     1       4.392   2.027  -5.919  1.00  0.00     0.293 HD
ENDBRANCH  17  20
ENDBRANCH   1  12
BRANCH   2  22
ATOM     22  O   UNL     1       8.986   5.629  -5.722  1.00  0.00    -0.502 OA
ATOM     23  H   UNL     1       8.940   4.624  -5.834  1.00  0.00     0.293 HD
ENDBRANCH   2  22
BRANCH   6  24
ATOM     24  O   UNL     1       9.730   8.672  -1.413  1.00  0.00    -0.507 OA
ATOM     25  H   UNL     1      10.075   9.160  -0.599  1.00  0.00     0.293 HD
ENDBRANCH   6  24
BRANCH   8  26
ATOM     26  O   UNL     1       5.177   9.724  -0.322  1.00  0.00    -0.508 OA
ATOM     27  H   UNL     1       4.552  10.443  -0.669  1.00  0.00     0.293 HD
ENDBRANCH   8  26
TORSDOF 6
ENDMDL
MODEL 7
REMARK VINA RESULT:    -4.621     16.347     18.087
REMARK INTER + INTRA:          -5.724
REMARK INTER:                  -5.400
REMARK INTRA:                  -0.324
REMARK UNBOUND:                -0.158
REMARK SMILES O=c1c(O)c(-c2ccc(O)c(O)c2)oc2cc(O)cc(O)c12
REMARK SMILES IDX 5 1 3 2 2 3 1 4 22 5 20 6 19 7 17 8 16 9 15 10 14 11 6 12
REMARK SMILES IDX 7 13 8 14 9 15 13 16 11 17 10 18 12 20 4 22 21 24 18 26
REMARK H PARENT 10 19 12 21 4 23 21 25 18 27
REMARK Flexibility Score: inf
ROOT
ATOM      1  C   UNL     1       6.420   2.310  -8.009  1.00  0.00     0.180 A 
ATOM      2  C   UNL     1       5.657   2.599  -6.865  1.00  0.00     0.208 A 
ATOM      3  C   UNL     1       5.578   3.927  -6.416  1.00  0.00     0.238 A 
ATOM      4  O   UNL     1       4.834   4.189  -5.436  1.00  0.00    -0.285 OA
ATOM      5  C   UNL     1       6.307   4.942  -7.084  1.00  0.00     0.111 A 
ATOM      6  C   UNL     1       6.336   6.314  -6.690  1.00  0.00     0.134 A 
ATOM      7  C   UNL     1       7.007   7.247  -7.490  1.00  0.00     0.093 A 
ATOM      8  C   UNL     1       7.704   6.849  -8.633  1.00  0.00     0.123 A 
ATOM      9  C   UNL     1       7.727   5.505  -8.995  1.00  0.00     0.094 A 
ATOM     10  C   UNL     1       7.035   4.555  -8.239  1.00  0.00     0.146 A 
ATOM     11  O   UNL     1       7.066   3.287  -8.633  1.00  0.00    -0.452 OA
ENDROOT
BRANCH   1  12
ATOM     12  C   UNL     1       6.541   0.938  -8.551  1.00  0.00     0.025 A 
ATOM     13  C   UNL     1       5.564   0.400  -9.408  1.00  0.00     0.016 A 
ATOM     14  C   UNL     1       5.713  -0.889  -9.926  1.00  0.00     0.051 A 
ATOM     15  C   UNL     1       6.842  -1.654  -9.608  1.00  0.00     0.157 A 
ATOM     16  C   UNL     1       7.681   0.174  -8.251  1.00  0.00     0.062 A 
ATOM     17  C   UNL     1       7.832  -1.117  -8.768  1.00  0.00     0.158 A 
BRANCH  15  18
ATOM     18  O   UNL     1       6.985  -2.940 -10.125  1.00  0.00    -0.504 OA
ATOM     19  H   UNL     1       7.898  -3.358 -10.265  1.00  0.00     0.293 HD
ENDBRANCH  15  18
BRANCH  17  20
ATOM     20  O   UNL     1       8.971  -1.850  -8.437  1.00  0.00    -0.504 OA
ATOM     21  H   UNL     1       9.573  -1.589  -7.664  1.00  0.00     0.293 HD
ENDBRANCH  17  20
ENDBRANCH   1  12
BRANCH   2  22
ATOM     22  O   UNL     1       5.007   1.572  -6.174  1.00  0.00    -0.502 OA
ATOM     23  H   UNL     1       4.123   1.710  -5.700  1.00  0.00     0.293 HD
ENDBRANCH   2  22
BRANCH   6  24
ATOM     24  O   UNL     1       5.749   6.807  -5.520  1.00  0.00    -0.507 OA
ATOM     25  H   UNL     1       5.400   7.746  -5.399  1.00  0.00     0.293 HD
ENDBRANCH   6  24
BRANCH   8  26
ATOM     26  O   UNL     1       8.383   7.782  -9.413  1.00  0.00    -0.508 OA
ATOM     27  H   UNL     1       9.116   8.365  -9.025  1.00  0.00     0.293 HD
ENDBRANCH   8  26
TORSDOF 6
ENDMDL
MODEL 8
REMARK VINA RESULT:    -4.609     14.523     16.187
REMARK INTER + INTRA:          -5.709
REMARK INTER:                  -5.385
REMARK INTRA:                  -0.325
REMARK UNBOUND:                -0.158
REMARK SMILES O=c1c(O)c(-c2ccc(O)c(O)c2)oc2cc(O)cc(O)c12
REMARK SMILES IDX 5 1 3 2 2 3 1 4 22 5 20 6 19 7 17 8 16 9 15 10 14 11 6 12
REMARK SMILES IDX 7 13 8 14 9 15 13 16 11 17 10 18 12 20 4 22 21 24 18 26
REMARK H PARENT 10 19 12 21 4 23 21 25 18 27
REMARK Flexibility Score: inf
ROOT
ATOM      1  C   UNL     1       6.739   5.124  -6.797  1.00  0.00     0.180 A 
ATOM      2  C   UNL     1       6.591   6.086  -7.810  1.00  0.00     0.208 A 
ATOM      3  C   UNL     1       6.292   7.411  -7.453  1.00  0.00     0.238 A 
ATOM      4  O   UNL     1       6.235   8.281  -8.359  1.00  0.00    -0.285 OA
ATOM      5  C   UNL     1       6.089   7.745  -6.092  1.00  0.00     0.111 A 
ATOM      6  C   UNL     1       5.738   9.046  -5.618  1.00  0.00     0.134 A 
ATOM      7  C   UNL     1       5.668   9.283  -4.240  1.00  0.00     0.093 A 
ATOM      8  C   UNL     1       5.873   8.253  -3.320  1.00  0.00     0.123 A 
ATOM      9  C   UNL     1       6.162   6.969  -3.773  1.00  0.00     0.094 A 
ATOM     10  C   UNL     1       6.277   6.708  -5.141  1.00  0.00     0.146 A 
ATOM     11  O   UNL     1       6.575   5.474  -5.527  1.00  0.00    -0.452 OA
ENDROOT
BRANCH   1  12
ATOM     12  C   UNL     1       7.068   3.711  -7.094  1.00  0.00     0.025 A 
ATOM     13  C   UNL     1       8.396   3.294  -7.292  1.00  0.00     0.016 A 
ATOM     14  C   UNL     1       8.683   1.950  -7.545  1.00  0.00     0.051 A 
ATOM     15  C   UNL     1       7.653   1.003  -7.592  1.00  0.00     0.157 A 
ATOM     16  C   UNL     1       6.040   2.753  -7.121  1.00  0.00     0.062 A 
ATOM     17  C   UNL     1       6.325   1.407  -7.376  1.00  0.00     0.158 A 
BRANCH  15  18
ATOM     18  O   UNL     1       7.943  -0.336  -7.849  1.00  0.00    -0.504 OA
ATOM     19  H   UNL     1       8.888  -0.647  -8.043  1.00  0.00     0.293 HD
ENDBRANCH  15  18
BRANCH  17  20
ATOM     20  O   UNL     1       5.277   0.488  -7.409  1.00  0.00    -0.504 OA
ATOM     21  H   UNL     1       4.618   0.396  -6.645  1.00  0.00     0.293 HD
ENDBRANCH  17  20
ENDBRANCH   1  12
BRANCH   2  22
ATOM     22  O   UNL     1       6.719   5.720  -9.153  1.00  0.00    -0.502 OA
ATOM     23  H   UNL     1       6.171   4.977  -9.569  1.00  0.00     0.293 HD
ENDBRANCH   2  22
BRANCH   6  24
ATOM     24  O   UNL     1       5.426  10.125  -6.451  1.00  0.00    -0.507 OA
ATOM     25  H   UNL     1       5.396  11.091  -6.160  1.00  0.00     0.293 HD
ENDBRANCH   6  24
BRANCH   8  26
ATOM     26  O   UNL     1       5.784   8.495  -1.951  1.00  0.00    -0.508 OA
ATOM     27  H   UNL     1       4.889   8.611  -1.489  1.00  0.00     0.293 HD
ENDBRANCH   8  26
TORSDOF 6
ENDMDL
MODEL 9
REMARK VINA RESULT:    -4.551     16.133     18.213
REMARK INTER + INTRA:          -5.640
REMARK INTER:                  -5.308
REMARK INTRA:                  -0.332
REMARK UNBOUND:                -0.158
REMARK SMILES O=c1c(O)c(-c2ccc(O)c(O)c2)oc2cc(O)cc(O)c12
REMARK SMILES IDX 5 1 3 2 2 3 1 4 22 5 20 6 19 7 17 8 16 9 15 10 14 11 6 12
REMARK SMILES IDX 7 13 8 14 9 15 13 16 11 17 10 18 12 20 4 22 21 24 18 26
REMARK H PARENT 10 19 12 21 4 23 21 25 18 27
REMARK Flexibility Score: inf
ROOT
ATOM      1  C   UNL     1       7.398   3.717  -7.261  1.00  0.00     0.180 A 
ATOM      2  C   UNL     1       8.703   3.230  -7.084  1.00  0.00     0.208 A 
ATOM      3  C   UNL     1       8.942   1.853  -7.222  1.00  0.00     0.238 A 
ATOM      4  O   UNL     1      10.125   1.434  -7.135  1.00  0.00    -0.285 OA
ATOM      5  C   UNL     1       7.863   0.973  -7.480  1.00  0.00     0.111 A 
ATOM      6  C   UNL     1       7.981  -0.446  -7.596  1.00  0.00     0.134 A 
ATOM      7  C   UNL     1       6.861  -1.204  -7.959  1.00  0.00     0.093 A 
ATOM      8  C   UNL     1       5.614  -0.604  -8.149  1.00  0.00     0.123 A 
ATOM      9  C   UNL     1       5.477   0.772  -7.985  1.00  0.00     0.094 A 
ATOM     10  C   UNL     1       6.583   1.561  -7.660  1.00  0.00     0.146 A 
ATOM     11  O   UNL     1       6.411   2.872  -7.535  1.00  0.00    -0.452 OA
ENDROOT
BRANCH   1  12
ATOM     12  C   UNL     1       7.070   5.156  -7.145  1.00  0.00     0.025 A 
ATOM     13  C   UNL     1       7.187   6.025  -8.245  1.00  0.00     0.016 A 
ATOM     14  C   UNL     1       6.848   7.374  -8.117  1.00  0.00     0.051 A 
ATOM     15  C   UNL     1       6.377   7.873  -6.896  1.00  0.00     0.157 A 
ATOM     16  C   UNL     1       6.577   5.657  -5.929  1.00  0.00     0.062 A 
ATOM     17  C   UNL     1       6.239   7.008  -5.798  1.00  0.00     0.158 A 
BRANCH  15  18
ATOM     18  O   UNL     1       6.042   9.220  -6.772  1.00  0.00    -0.504 OA
ATOM     19  H   UNL     1       6.753   9.940  -6.707  1.00  0.00     0.293 HD
ENDBRANCH  15  18
BRANCH  17  20
ATOM     20  O   UNL     1       5.766   7.472  -4.571  1.00  0.00    -0.504 OA
ATOM     21  H   UNL     1       6.267   8.166  -4.028  1.00  0.00     0.293 HD
ENDBRANCH  17  20
ENDBRANCH   1  12
BRANCH   2  22
ATOM     22  O   UNL     1       9.742   4.104  -6.752  1.00  0.00    -0.502 OA
ATOM     23  H   UNL     1      10.325   4.547  -7.452  1.00  0.00     0.293 HD
ENDBRANCH   2  22
BRANCH   6  24
ATOM     24  O   UNL     1       9.157  -1.158  -7.342  1.00  0.00    -0.507 OA
ATOM     25  H   UNL     1       9.457  -1.473  -6.431  1.00  0.00     0.293 HD
ENDBRANCH   6  24
BRANCH   8  26
ATOM     26  O   UNL     1       4.502  -1.369  -8.493  1.00  0.00    -0.508 OA
ATOM     27  H   UNL     1       3.684  -1.416  -7.896  1.00  0.00     0.293 HD
ENDBRANCH   8  26
TORSDOF 6
ENDMDL
