MODEL 1
REMARK VINA RESULT:    -5.916      0.000      0.000
REMARK INTER + INTRA:         -15.955
REMARK INTER:                 -12.833
REMARK INTRA:                  -3.122
REMARK UNBOUND:                -3.122
REMARK SMILES CCCCCCCCCCCCCCCCCCCCCC(=O)[O-]
REMARK SMILES IDX 12 1 11 2 10 3 9 4 8 5 7 6 6 7 5 8 4 9 3 10 2 11 1 12 13 13
REMARK SMILES IDX 14 14 15 15 16 16 17 17 18 18 19 19 20 20 21 21 22 22 23 23
REMARK SMILES IDX 24 24
REMARK H PARENT
REMARK Flexibility Score: inf
ROOT
ATOM      1  C   UNL     1      62.755   1.878  19.665  1.00  0.00     0.000 C 
ENDROOT
BRANCH   1   2
ATOM      2  C   UNL     1      64.136   2.432  19.268  1.00  0.00     0.000 C 
BRANCH   2   3
ATOM      3  C   UNL     1      64.065   3.874  18.742  1.00  0.00     0.000 C 
BRANCH   3   4
ATOM      4  C   UNL     1      65.376   4.648  18.963  1.00  0.00    -0.000 C 
BRANCH   4   5
ATOM      5  C   UNL     1      65.778   4.706  20.453  1.00  0.00    -0.000 C 
BRANCH   5   6
ATOM      6  C   UNL     1      65.756   6.131  21.043  1.00  0.00    -0.000 C 
BRANCH   6   7
ATOM      7  C   UNL     1      65.322   7.231  20.058  1.00  0.00    -0.000 C 
BRANCH   7   8
ATOM      8  C   UNL     1      66.381   8.322  19.803  1.00  0.00    -0.000 C 
BRANCH   8   9
ATOM      9  C   UNL     1      65.777   9.716  19.530  1.00  0.00    -0.000 C 
BRANCH   9  10
ATOM     10  C   UNL     1      64.244   9.681  19.452  1.00  0.00    -0.000 C 
BRANCH  10  11
ATOM     11  C   UNL     1      63.624  10.772  20.334  1.00  0.00    -0.003 C 
ATOM     12  C   UNL     1      62.434  10.234  21.125  1.00  0.00     0.004 C 
ENDBRANCH  10  11
ENDBRANCH   9  10
ENDBRANCH   8   9
ENDBRANCH   7   8
ENDBRANCH   6   7
ENDBRANCH   5   6
ENDBRANCH   4   5
ENDBRANCH   3   4
ENDBRANCH   2   3
ENDBRANCH   1   2
BRANCH   1  13
ATOM     13  C   UNL     1      61.693   2.982  19.794  1.00  0.00     0.000 C 
BRANCH  13  14
ATOM     14  C   UNL     1      61.330   3.279  21.260  1.00  0.00     0.000 C 
BRANCH  14  15
ATOM     15  C   UNL     1      62.085   4.493  21.834  1.00  0.00     0.000 C 
BRANCH  15  16
ATOM     16  C   UNL     1      63.123   4.170  22.923  1.00  0.00     0.000 C 
BRANCH  16  17
ATOM     17  C   UNL     1      63.238   2.664  23.215  1.00  0.00     0.000 C 
BRANCH  17  18
ATOM     18  C   UNL     1      64.641   2.103  22.915  1.00  0.00     0.000 C 
BRANCH  18  19
ATOM     19  C   UNL     1      65.676   2.273  24.045  1.00  0.00     0.000 C 
BRANCH  19  20
ATOM     20  C   UNL     1      66.876   3.174  23.702  1.00  0.00     0.006 C 
BRANCH  20  21
ATOM     21  C   UNL     1      66.756   4.582  24.302  1.00  0.00     0.053 C 
BRANCH  21  22
ATOM     22  C   UNL     1      67.563   4.692  25.559  1.00  0.00     0.041 C 
ATOM     23  O   UNL     1      67.031   4.462  26.677  1.00  0.00    -0.550 OA
ATOM     24  O   UNL     1      68.902   5.060  25.498  1.00  0.00    -0.550 OA
ENDBRANCH  21  22
ENDBRANCH  20  21
ENDBRANCH  19  20
ENDBRANCH  18  19
ENDBRANCH  17  18
ENDBRANCH  16  17
ENDBRANCH  15  16
ENDBRANCH  14  15
ENDBRANCH  13  14
ENDBRANCH   1  13
TORSDOF 20
ENDMDL
MODEL 2
REMARK VINA RESULT:    -5.849      2.908      5.496
REMARK INTER + INTRA:         -15.810
REMARK INTER:                 -12.012
REMARK INTRA:                  -3.798
REMARK UNBOUND:                -3.122
REMARK SMILES CCCCCCCCCCCCCCCCCCCCCC(=O)[O-]
REMARK SMILES IDX 12 1 11 2 10 3 9 4 8 5 7 6 6 7 5 8 4 9 3 10 2 11 1 12 13 13
REMARK SMILES IDX 14 14 15 15 16 16 17 17 18 18 19 19 20 20 21 21 22 22 23 23
REMARK SMILES IDX 24 24
REMARK H PARENT
REMARK Flexibility Score: inf
ROOT
ATOM      1  C   UNL     1      64.254   1.547  19.467  1.00  0.00     0.000 C 
ENDROOT
BRANCH   1   2
ATOM      2  C   UNL     1      62.771   1.530  19.880  1.00  0.00     0.000 C 
BRANCH   2   3
ATOM      3  C   UNL     1      62.068   2.870  19.610  1.00  0.00     0.000 C 
BRANCH   3   4
ATOM      4  C   UNL     1      61.812   3.672  20.898  1.00  0.00    -0.000 C 
BRANCH   4   5
ATOM      5  C   UNL     1      62.049   2.829  22.170  1.00  0.00    -0.000 C 
BRANCH   5   6
ATOM      6  C   UNL     1      63.307   3.244  22.960  1.00  0.00    -0.000 C 
BRANCH   6   7
ATOM      7  C   UNL     1      64.086   2.078  23.594  1.00  0.00    -0.000 C 
BRANCH   7   8
ATOM      8  C   UNL     1      65.465   1.805  22.963  1.00  0.00    -0.000 C 
BRANCH   8   9
ATOM      9  C   UNL     1      66.596   2.674  23.554  1.00  0.00    -0.000 C 
BRANCH   9  10
ATOM     10  C   UNL     1      66.292   3.128  24.989  1.00  0.00    -0.000 C 
BRANCH  10  11
ATOM     11  C   UNL     1      66.521   4.637  25.147  1.00  0.00    -0.003 C 
ATOM     12  C   UNL     1      67.509   4.930  26.274  1.00  0.00     0.004 C 
ENDBRANCH  10  11
ENDBRANCH   9  10
ENDBRANCH   8   9
ENDBRANCH   7   8
ENDBRANCH   6   7
ENDBRANCH   5   6
ENDBRANCH   4   5
ENDBRANCH   3   4
ENDBRANCH   2   3
ENDBRANCH   1   2
BRANCH   1  13
ATOM     13  C   UNL     1      64.671   2.879  18.823  1.00  0.00     0.000 C 
BRANCH  13  14
ATOM     14  C   UNL     1      65.727   3.628  19.655  1.00  0.00     0.000 C 
BRANCH  14  15
ATOM     15  C   UNL     1      65.306   5.066  20.010  1.00  0.00     0.000 C 
BRANCH  15  16
ATOM     16  C   UNL     1      65.578   5.494  21.463  1.00  0.00     0.000 C 
BRANCH  16  17
ATOM     17  C   UNL     1      66.866   6.320  21.615  1.00  0.00     0.000 C 
BRANCH  17  18
ATOM     18  C   UNL     1      68.100   5.451  21.926  1.00  0.00     0.000 C 
BRANCH  18  19
ATOM     19  C   UNL     1      69.156   6.107  22.838  1.00  0.00     0.000 C 
BRANCH  19  20
ATOM     20  C   UNL     1      70.049   5.123  23.615  1.00  0.00     0.006 C 
BRANCH  20  21
ATOM     21  C   UNL     1      70.139   3.744  22.947  1.00  0.00     0.053 C 
BRANCH  21  22
ATOM     22  C   UNL     1      71.440   3.590  22.222  1.00  0.00     0.041 C 
ATOM     23  O   UNL     1      71.725   4.354  21.262  1.00  0.00    -0.550 OA
ATOM     24  O   UNL     1      72.335   2.596  22.598  1.00  0.00    -0.550 OA
ENDBRANCH  21  22
ENDBRANCH  20  21
ENDBRANCH  19  20
ENDBRANCH  18  19
ENDBRANCH  17  18
ENDBRANCH  16  17
ENDBRANCH  15  16
ENDBRANCH  14  15
ENDBRANCH  13  14
ENDBRANCH   1  13
TORSDOF 20
ENDMDL
MODEL 3
REMARK VINA RESULT:    -5.779      9.380     12.310
REMARK INTER + INTRA:         -15.658
REMARK INTER:                 -12.593
REMARK INTRA:                  -3.065
REMARK UNBOUND:                -3.122
REMARK SMILES CCCCCCCCCCCCCCCCCCCCCC(=O)[O-]
REMARK SMILES IDX 12 1 11 2 10 3 9 4 8 5 7 6 6 7 5 8 4 9 3 10 2 11 1 12 13 13
REMARK SMILES IDX 14 14 15 15 16 16 17 17 18 18 19 19 20 20 21 21 22 22 23 23
REMARK SMILES IDX 24 24
REMARK H PARENT
REMARK Flexibility Score: inf
ROOT
ATOM      1  C   UNL     1      75.805   6.963  23.494  1.00  0.00     0.000 C 
ENDROOT
BRANCH   1   2
ATOM      2  C   UNL     1      76.989   6.690  24.439  1.00  0.00     0.000 C 
BRANCH   2   3
ATOM      3  C   UNL     1      76.867   7.445  25.772  1.00  0.00     0.000 C 
BRANCH   3   4
ATOM      4  C   UNL     1      75.893   8.634  25.690  1.00  0.00    -0.000 C 
BRANCH   4   5
ATOM      5  C   UNL     1      76.614   9.961  25.367  1.00  0.00    -0.000 C 
BRANCH   5   6
ATOM      6  C   UNL     1      75.859  10.843  24.352  1.00  0.00    -0.000 C 
BRANCH   6   7
ATOM      7  C   UNL     1      74.449  10.345  23.986  1.00  0.00    -0.000 C 
BRANCH   7   8
ATOM      8  C   UNL     1      74.179  10.229  22.473  1.00  0.00    -0.000 C 
BRANCH   8   9
ATOM      9  C   UNL     1      72.754  10.661  22.066  1.00  0.00    -0.000 C 
BRANCH   9  10
ATOM     10  C   UNL     1      72.012   9.561  21.294  1.00  0.00    -0.000 C 
BRANCH  10  11
ATOM     11  C   UNL     1      72.950   8.393  20.964  1.00  0.00    -0.003 C 
ATOM     12  C   UNL     1      72.423   7.577  19.786  1.00  0.00     0.004 C 
ENDBRANCH  10  11
ENDBRANCH   9  10
ENDBRANCH   8   9
ENDBRANCH   7   8
ENDBRANCH   6   7
ENDBRANCH   5   6
ENDBRANCH   4   5
ENDBRANCH   3   4
ENDBRANCH   2   3
ENDBRANCH   1   2
BRANCH   1  13
ATOM     13  C   UNL     1      76.247   7.144  22.033  1.00  0.00     0.000 C 
BRANCH  13  14
ATOM     14  C   UNL     1      77.771   7.016  21.861  1.00  0.00     0.000 C 
BRANCH  14  15
ATOM     15  C   UNL     1      78.172   5.997  20.778  1.00  0.00     0.000 C 
BRANCH  15  16
ATOM     16  C   UNL     1      79.485   5.238  21.041  1.00  0.00     0.000 C 
BRANCH  16  17
ATOM     17  C   UNL     1      79.394   4.282  22.242  1.00  0.00     0.000 C 
BRANCH  17  18
ATOM     18  C   UNL     1      78.255   3.254  22.104  1.00  0.00     0.000 C 
BRANCH  18  19
ATOM     19  C   UNL     1      77.124   3.378  23.144  1.00  0.00     0.000 C 
BRANCH  19  20
ATOM     20  C   UNL     1      75.699   3.387  22.562  1.00  0.00     0.006 C 
BRANCH  20  21
ATOM     21  C   UNL     1      75.569   2.535  21.291  1.00  0.00     0.053 C 
BRANCH  21  22
ATOM     22  C   UNL     1      74.129   2.276  20.972  1.00  0.00     0.041 C 
ATOM     23  O   UNL     1      73.239   2.489  21.837  1.00  0.00    -0.550 OA
ATOM     24  O   UNL     1      73.769   1.788  19.721  1.00  0.00    -0.550 OA
ENDBRANCH  21  22
ENDBRANCH  20  21
ENDBRANCH  19  20
ENDBRANCH  18  19
ENDBRANCH  17  18
ENDBRANCH  16  17
ENDBRANCH  15  16
ENDBRANCH  14  15
ENDBRANCH  13  14
ENDBRANCH   1  13
TORSDOF 20
ENDMDL
MODEL 4
REMARK VINA RESULT:    -5.761      2.797      6.217
REMARK INTER + INTRA:         -15.619
REMARK INTER:                 -12.650
REMARK INTRA:                  -2.969
REMARK UNBOUND:                -3.122
REMARK SMILES CCCCCCCCCCCCCCCCCCCCCC(=O)[O-]
REMARK SMILES IDX 12 1 11 2 10 3 9 4 8 5 7 6 6 7 5 8 4 9 3 10 2 11 1 12 13 13
REMARK SMILES IDX 14 14 15 15 16 16 17 17 18 18 19 19 20 20 21 21 22 22 23 23
REMARK SMILES IDX 24 24
REMARK H PARENT
REMARK Flexibility Score: inf
ROOT
ATOM      1  C   UNL     1      62.867   1.482  19.536  1.00  0.00     0.000 C 
ENDROOT
BRANCH   1   2
ATOM      2  C   UNL     1      62.126   2.830  19.472  1.00  0.00     0.000 C 
BRANCH   2   3
ATOM      3  C   UNL     1      60.934   2.896  20.439  1.00  0.00     0.000 C 
BRANCH   3   4
ATOM      4  C   UNL     1      61.004   4.111  21.380  1.00  0.00    -0.000 C 
BRANCH   4   5
ATOM      5  C   UNL     1      62.451   4.435  21.812  1.00  0.00    -0.000 C 
BRANCH   5   6
ATOM      6  C   UNL     1      62.902   3.678  23.077  1.00  0.00    -0.000 C 
BRANCH   6   7
ATOM      7  C   UNL     1      63.908   2.541  22.826  1.00  0.00    -0.000 C 
BRANCH   7   8
ATOM      8  C   UNL     1      65.071   2.474  23.835  1.00  0.00    -0.000 C 
BRANCH   8   9
ATOM      9  C   UNL     1      66.280   3.350  23.442  1.00  0.00    -0.000 C 
BRANCH   9  10
ATOM     10  C   UNL     1      66.183   4.768  24.024  1.00  0.00    -0.000 C 
BRANCH  10  11
ATOM     11  C   UNL     1      67.398   5.084  24.905  1.00  0.00    -0.003 C 
ATOM     12  C   UNL     1      67.142   4.694  26.358  1.00  0.00     0.004 C 
ENDBRANCH  10  11
ENDBRANCH   9  10
ENDBRANCH   8   9
ENDBRANCH   7   8
ENDBRANCH   6   7
ENDBRANCH   5   6
ENDBRANCH   4   5
ENDBRANCH   3   4
ENDBRANCH   2   3
ENDBRANCH   1   2
BRANCH   1  13
ATOM     13  C   UNL     1      64.395   1.649  19.538  1.00  0.00     0.000 C 
BRANCH  13  14
ATOM     14  C   UNL     1      64.849   2.918  18.795  1.00  0.00     0.000 C 
BRANCH  14  15
ATOM     15  C   UNL     1      65.559   3.932  19.711  1.00  0.00     0.000 C 
BRANCH  15  16
ATOM     16  C   UNL     1      65.218   5.410  19.449  1.00  0.00     0.000 C 
BRANCH  16  17
ATOM     17  C   UNL     1      65.428   6.301  20.684  1.00  0.00     0.000 C 
BRANCH  17  18
ATOM     18  C   UNL     1      66.908   6.655  20.921  1.00  0.00     0.000 C 
BRANCH  18  19
ATOM     19  C   UNL     1      67.295   8.117  20.617  1.00  0.00     0.000 C 
BRANCH  19  20
ATOM     20  C   UNL     1      66.429   8.813  19.552  1.00  0.00     0.006 C 
BRANCH  20  21
ATOM     21  C   UNL     1      66.056  10.252  19.935  1.00  0.00     0.053 C 
BRANCH  21  22
ATOM     22  C   UNL     1      64.569  10.419  19.989  1.00  0.00     0.041 C 
ATOM     23  O   UNL     1      63.815   9.412  19.929  1.00  0.00    -0.550 OA
ATOM     24  O   UNL     1      64.013  11.688  20.096  1.00  0.00    -0.550 OA
ENDBRANCH  21  22
ENDBRANCH  20  21
ENDBRANCH  19  20
ENDBRANCH  18  19
ENDBRANCH  17  18
ENDBRANCH  16  17
ENDBRANCH  15  16
ENDBRANCH  14  15
ENDBRANCH  13  14
ENDBRANCH   1  13
TORSDOF 20
ENDMDL
MODEL 5
REMARK VINA RESULT:    -5.715      9.887     12.809
REMARK INTER + INTRA:         -15.520
REMARK INTER:                 -11.720
REMARK INTRA:                  -3.800
REMARK UNBOUND:                -3.122
REMARK SMILES CCCCCCCCCCCCCCCCCCCCCC(=O)[O-]
REMARK SMILES IDX 12 1 11 2 10 3 9 4 8 5 7 6 6 7 5 8 4 9 3 10 2 11 1 12 13 13
REMARK SMILES IDX 14 14 15 15 16 16 17 17 18 18 19 19 20 20 21 21 22 22 23 23
REMARK SMILES IDX 24 24
REMARK H PARENT
REMARK Flexibility Score: inf
ROOT
ATOM      1  C   UNL     1      78.887   5.425  21.298  1.00  0.00     0.000 C 
ENDROOT
BRANCH   1   2
ATOM      2  C   UNL     1      77.994   6.599  21.739  1.00  0.00     0.000 C 
BRANCH   2   3
ATOM      3  C   UNL     1      78.646   7.458  22.833  1.00  0.00     0.000 C 
BRANCH   3   4
ATOM      4  C   UNL     1      78.273   6.990  24.251  1.00  0.00    -0.000 C 
BRANCH   4   5
ATOM      5  C   UNL     1      76.746   6.853  24.440  1.00  0.00    -0.000 C 
BRANCH   5   6
ATOM      6  C   UNL     1      76.160   7.843  25.466  1.00  0.00    -0.000 C 
BRANCH   6   7
ATOM      7  C   UNL     1      74.989   8.696  24.945  1.00  0.00    -0.000 C 
BRANCH   7   8
ATOM      8  C   UNL     1      75.403   9.881  24.050  1.00  0.00    -0.000 C 
BRANCH   8   9
ATOM      9  C   UNL     1      76.316  10.902  24.763  1.00  0.00    -0.000 C 
BRANCH   9  10
ATOM     10  C   UNL     1      77.765  10.838  24.257  1.00  0.00    -0.000 C 
BRANCH  10  11
ATOM     11  C   UNL     1      78.744  10.645  25.422  1.00  0.00    -0.003 C 
ATOM     12  C   UNL     1      80.157  10.369  24.915  1.00  0.00     0.004 C 
ENDBRANCH  10  11
ENDBRANCH   9  10
ENDBRANCH   8   9
ENDBRANCH   7   8
ENDBRANCH   6   7
ENDBRANCH   5   6
ENDBRANCH   4   5
ENDBRANCH   3   4
ENDBRANCH   2   3
ENDBRANCH   1   2
BRANCH   1  13
ATOM     13  C   UNL     1      78.666   4.165  22.150  1.00  0.00     0.000 C 
BRANCH  13  14
ATOM     14  C   UNL     1      78.099   2.993  21.330  1.00  0.00     0.000 C 
BRANCH  14  15
ATOM     15  C   UNL     1      76.562   2.906  21.385  1.00  0.00     0.000 C 
BRANCH  15  16
ATOM     16  C   UNL     1      75.906   3.589  22.599  1.00  0.00     0.000 C 
BRANCH  16  17
ATOM     17  C   UNL     1      74.759   4.535  22.207  1.00  0.00     0.000 C 
BRANCH  17  18
ATOM     18  C   UNL     1      74.698   4.806  20.692  1.00  0.00     0.000 C 
BRANCH  18  19
ATOM     19  C   UNL     1      74.629   6.293  20.289  1.00  0.00     0.000 C 
BRANCH  19  20
ATOM     20  C   UNL     1      74.510   7.282  21.463  1.00  0.00     0.006 C 
BRANCH  20  21
ATOM     21  C   UNL     1      73.376   8.299  21.273  1.00  0.00     0.053 C 
BRANCH  21  22
ATOM     22  C   UNL     1      72.177   7.914  22.084  1.00  0.00     0.041 C 
ATOM     23  O   UNL     1      72.237   6.941  22.882  1.00  0.00    -0.550 OA
ATOM     24  O   UNL     1      70.989   8.622  21.951  1.00  0.00    -0.550 OA
ENDBRANCH  21  22
ENDBRANCH  20  21
ENDBRANCH  19  20
ENDBRANCH  18  19
ENDBRANCH  17  18
ENDBRANCH  16  17
ENDBRANCH  15  16
ENDBRANCH  14  15
ENDBRANCH  13  14
ENDBRANCH   1  13
TORSDOF 20
ENDMDL
MODEL 6
REMARK VINA RESULT:    -5.665      9.803     13.355
REMARK INTER + INTRA:         -15.410
REMARK INTER:                 -11.583
REMARK INTRA:                  -3.827
REMARK UNBOUND:                -3.122
REMARK SMILES CCCCCCCCCCCCCCCCCCCCCC(=O)[O-]
REMARK SMILES IDX 12 1 11 2 10 3 9 4 8 5 7 6 6 7 5 8 4 9 3 10 2 11 1 12 13 13
REMARK SMILES IDX 14 14 15 15 16 16 17 17 18 18 19 19 20 20 21 21 22 22 23 23
REMARK SMILES IDX 24 24
REMARK H PARENT
REMARK Flexibility Score: inf
ROOT
ATOM      1  C   UNL     1      76.198   7.089  23.961  1.00  0.00     0.000 C 
ENDROOT
BRANCH   1   2
ATOM      2  C   UNL     1      76.754   7.635  22.634  1.00  0.00     0.000 C 
BRANCH   2   3
ATOM      3  C   UNL     1      75.962   7.139  21.414  1.00  0.00     0.000 C 
BRANCH   3   4
ATOM      4  C   UNL     1      74.909   6.080  21.785  1.00  0.00    -0.000 C 
BRANCH   4   5
ATOM      5  C   UNL     1      74.371   5.329  20.547  1.00  0.00    -0.000 C 
BRANCH   5   6
ATOM      6  C   UNL     1      74.526   3.798  20.639  1.00  0.00    -0.000 C 
BRANCH   6   7
ATOM      7  C   UNL     1      75.002   3.277  22.007  1.00  0.00    -0.000 C 
BRANCH   7   8
ATOM      8  C   UNL     1      76.486   2.863  22.058  1.00  0.00    -0.000 C 
BRANCH   8   9
ATOM      9  C   UNL     1      77.261   3.490  23.237  1.00  0.00    -0.000 C 
BRANCH   9  10
ATOM     10  C   UNL     1      78.488   4.286  22.768  1.00  0.00    -0.000 C 
BRANCH  10  11
ATOM     11  C   UNL     1      78.690   4.141  21.254  1.00  0.00    -0.003 C 
ATOM     12  C   UNL     1      79.103   5.468  20.623  1.00  0.00     0.004 C 
ENDBRANCH  10  11
ENDBRANCH   9  10
ENDBRANCH   8   9
ENDBRANCH   7   8
ENDBRANCH   6   7
ENDBRANCH   5   6
ENDBRANCH   4   5
ENDBRANCH   3   4
ENDBRANCH   2   3
ENDBRANCH   1   2
BRANCH   1  13
ATOM     13  C   UNL     1      77.179   7.272  25.131  1.00  0.00     0.000 C 
BRANCH  13  14
ATOM     14  C   UNL     1      76.599   8.152  26.252  1.00  0.00     0.000 C 
BRANCH  14  15
ATOM     15  C   UNL     1      77.420   9.431  26.501  1.00  0.00     0.000 C 
BRANCH  15  16
ATOM     16  C   UNL     1      78.275   9.907  25.313  1.00  0.00     0.000 C 
BRANCH  16  17
ATOM     17  C   UNL     1      77.524  10.874  24.383  1.00  0.00     0.000 C 
BRANCH  17  18
ATOM     18  C   UNL     1      76.457  11.704  25.120  1.00  0.00     0.000 C 
BRANCH  18  19
ATOM     19  C   UNL     1      75.058  11.707  24.470  1.00  0.00     0.000 C 
BRANCH  19  20
ATOM     20  C   UNL     1      74.661  10.396  23.770  1.00  0.00     0.006 C 
BRANCH  20  21
ATOM     21  C   UNL     1      73.737  10.619  22.564  1.00  0.00     0.053 C 
BRANCH  21  22
ATOM     22  C   UNL     1      73.094   9.334  22.143  1.00  0.00     0.041 C 
ATOM     23  O   UNL     1      72.766   9.152  20.941  1.00  0.00    -0.550 OA
ATOM     24  O   UNL     1      72.846   8.339  23.081  1.00  0.00    -0.550 OA
ENDBRANCH  21  22
ENDBRANCH  20  21
ENDBRANCH  19  20
ENDBRANCH  18  19
ENDBRANCH  17  18
ENDBRANCH  16  17
ENDBRANCH  15  16
ENDBRANCH  14  15
ENDBRANCH  13  14
ENDBRANCH   1  13
TORSDOF 20
ENDMDL
MODEL 7
REMARK VINA RESULT:    -5.639      2.361      5.484
REMARK INTER + INTRA:         -15.354
REMARK INTER:                 -12.424
REMARK INTRA:                  -2.930
REMARK UNBOUND:                -3.122
REMARK SMILES CCCCCCCCCCCCCCCCCCCCCC(=O)[O-]
REMARK SMILES IDX 12 1 11 2 10 3 9 4 8 5 7 6 6 7 5 8 4 9 3 10 2 11 1 12 13 13
REMARK SMILES IDX 14 14 15 15 16 16 17 17 18 18 19 19 20 20 21 21 22 22 23 23
REMARK SMILES IDX 24 24
REMARK H PARENT
REMARK Flexibility Score: inf
ROOT
ATOM      1  C   UNL     1      62.368   1.782  19.806  1.00  0.00     0.000 C 
ENDROOT
BRANCH   1   2
ATOM      2  C   UNL     1      61.536   3.061  19.596  1.00  0.00     0.000 C 
BRANCH   2   3
ATOM      3  C   UNL     1      60.946   3.602  20.908  1.00  0.00     0.000 C 
BRANCH   3   4
ATOM      4  C   UNL     1      60.892   2.535  22.015  1.00  0.00    -0.000 C 
BRANCH   4   5
ATOM      5  C   UNL     1      61.742   2.924  23.246  1.00  0.00    -0.000 C 
BRANCH   5   6
ATOM      6  C   UNL     1      62.713   4.091  22.981  1.00  0.00    -0.000 C 
BRANCH   6   7
ATOM      7  C   UNL     1      64.193   3.687  22.857  1.00  0.00    -0.000 C 
BRANCH   7   8
ATOM      8  C   UNL     1      64.574   2.400  23.615  1.00  0.00    -0.000 C 
BRANCH   8   9
ATOM      9  C   UNL     1      65.958   2.472  24.295  1.00  0.00    -0.000 C 
BRANCH   9  10
ATOM     10  C   UNL     1      66.929   3.394  23.543  1.00  0.00    -0.000 C 
BRANCH  10  11
ATOM     11  C   UNL     1      67.516   4.456  24.482  1.00  0.00    -0.003 C 
ATOM     12  C   UNL     1      66.506   4.867  25.550  1.00  0.00     0.004 C 
ENDBRANCH  10  11
ENDBRANCH   9  10
ENDBRANCH   8   9
ENDBRANCH   7   8
ENDBRANCH   6   7
ENDBRANCH   5   6
ENDBRANCH   4   5
ENDBRANCH   3   4
ENDBRANCH   2   3
ENDBRANCH   1   2
BRANCH   1  13
ATOM     13  C   UNL     1      63.800   1.915  19.262  1.00  0.00     0.000 C 
BRANCH  13  14
ATOM     14  C   UNL     1      64.151   3.365  18.881  1.00  0.00     0.000 C 
BRANCH  14  15
ATOM     15  C   UNL     1      65.666   3.636  18.875  1.00  0.00     0.000 C 
BRANCH  15  16
ATOM     16  C   UNL     1      66.199   4.428  20.083  1.00  0.00     0.000 C 
BRANCH  16  17
ATOM     17  C   UNL     1      65.423   5.731  20.336  1.00  0.00     0.000 C 
BRANCH  17  18
ATOM     18  C   UNL     1      66.339   6.905  20.729  1.00  0.00     0.000 C 
BRANCH  18  19
ATOM     19  C   UNL     1      67.684   6.507  21.371  1.00  0.00     0.000 C 
BRANCH  19  20
ATOM     20  C   UNL     1      68.195   7.465  22.462  1.00  0.00     0.006 C 
BRANCH  20  21
ATOM     21  C   UNL     1      69.618   7.131  22.930  1.00  0.00     0.053 C 
BRANCH  21  22
ATOM     22  C   UNL     1      70.328   6.292  21.913  1.00  0.00     0.041 C 
ATOM     23  O   UNL     1      70.863   6.832  20.908  1.00  0.00    -0.550 OA
ATOM     24  O   UNL     1      70.391   4.913  22.067  1.00  0.00    -0.550 OA
ENDBRANCH  21  22
ENDBRANCH  20  21
ENDBRANCH  19  20
ENDBRANCH  18  19
ENDBRANCH  17  18
ENDBRANCH  16  17
ENDBRANCH  15  16
ENDBRANCH  14  15
ENDBRANCH  13  14
ENDBRANCH   1  13
TORSDOF 20
ENDMDL
MODEL 8
REMARK VINA RESULT:    -5.585      1.789      5.467
REMARK INTER + INTRA:         -15.237
REMARK INTER:                 -12.168
REMARK INTRA:                  -3.068
REMARK UNBOUND:                -3.122
REMARK SMILES CCCCCCCCCCCCCCCCCCCCCC(=O)[O-]
REMARK SMILES IDX 12 1 11 2 10 3 9 4 8 5 7 6 6 7 5 8 4 9 3 10 2 11 1 12 13 13
REMARK SMILES IDX 14 14 15 15 16 16 17 17 18 18 19 19 20 20 21 21 22 22 23 23
REMARK SMILES IDX 24 24
REMARK H PARENT
REMARK Flexibility Score: inf
ROOT
ATOM      1  C   UNL     1      64.084   3.335  19.167  1.00  0.00     0.000 C 
ENDROOT
BRANCH   1   2
ATOM      2  C   UNL     1      63.786   1.863  19.508  1.00  0.00     0.000 C 
BRANCH   2   3
ATOM      3  C   UNL     1      62.314   1.630  19.882  1.00  0.00     0.000 C 
BRANCH   3   4
ATOM      4  C   UNL     1      61.437   2.868  19.626  1.00  0.00    -0.000 C 
BRANCH   4   5
ATOM      5  C   UNL     1      60.959   3.529  20.937  1.00  0.00    -0.000 C 
BRANCH   5   6
ATOM      6  C   UNL     1      61.023   2.592  22.160  1.00  0.00    -0.000 C 
BRANCH   6   7
ATOM      7  C   UNL     1      61.945   3.072  23.295  1.00  0.00    -0.000 C 
BRANCH   7   8
ATOM      8  C   UNL     1      63.125   3.952  22.839  1.00  0.00    -0.000 C 
BRANCH   8   9
ATOM      9  C   UNL     1      64.502   3.418  23.288  1.00  0.00    -0.000 C 
BRANCH   9  10
ATOM     10  C   UNL     1      65.427   4.539  23.782  1.00  0.00    -0.000 C 
BRANCH  10  11
ATOM     11  C   UNL     1      66.670   3.962  24.472  1.00  0.00    -0.003 C 
ATOM     12  C   UNL     1      66.909   4.627  25.825  1.00  0.00     0.004 C 
ENDBRANCH  10  11
ENDBRANCH   9  10
ENDBRANCH   8   9
ENDBRANCH   7   8
ENDBRANCH   6   7
ENDBRANCH   5   6
ENDBRANCH   4   5
ENDBRANCH   3   4
ENDBRANCH   2   3
ENDBRANCH   1   2
BRANCH   1  13
ATOM     13  C   UNL     1      65.581   3.594  18.931  1.00  0.00     0.000 C 
BRANCH  13  14
ATOM     14  C   UNL     1      66.212   4.451  20.043  1.00  0.00     0.000 C 
BRANCH  14  15
ATOM     15  C   UNL     1      65.348   5.665  20.432  1.00  0.00     0.000 C 
BRANCH  15  16
ATOM     16  C   UNL     1      65.434   6.868  19.477  1.00  0.00     0.000 C 
BRANCH  16  17
ATOM     17  C   UNL     1      66.058   8.111  20.132  1.00  0.00     0.000 C 
BRANCH  17  18
ATOM     18  C   UNL     1      66.979   7.763  21.317  1.00  0.00     0.000 C 
BRANCH  18  19
ATOM     19  C   UNL     1      68.485   7.990  21.072  1.00  0.00     0.000 C 
BRANCH  19  20
ATOM     20  C   UNL     1      69.338   6.710  21.018  1.00  0.00     0.006 C 
BRANCH  20  21
ATOM     21  C   UNL     1      68.998   5.719  22.140  1.00  0.00     0.053 C 
BRANCH  21  22
ATOM     22  C   UNL     1      70.073   5.708  23.182  1.00  0.00     0.041 C 
ATOM     23  O   UNL     1      70.076   4.825  24.080  1.00  0.00    -0.550 OA
ATOM     24  O   UNL     1      71.068   6.678  23.169  1.00  0.00    -0.550 OA
ENDBRANCH  21  22
ENDBRANCH  20  21
ENDBRANCH  19  20
ENDBRANCH  18  19
ENDBRANCH  17  18
ENDBRANCH  16  17
ENDBRANCH  15  16
ENDBRANCH  14  15
ENDBRANCH  13  14
ENDBRANCH   1  13
TORSDOF 20
ENDMDL
MODEL 9
REMARK VINA RESULT:    -5.561     10.385     13.387
REMARK INTER + INTRA:         -15.185
REMARK INTER:                 -11.667
REMARK INTRA:                  -3.518
REMARK UNBOUND:                -3.122
REMARK SMILES CCCCCCCCCCCCCCCCCCCCCC(=O)[O-]
REMARK SMILES IDX 12 1 11 2 10 3 9 4 8 5 7 6 6 7 5 8 4 9 3 10 2 11 1 12 13 13
REMARK SMILES IDX 14 14 15 15 16 16 17 17 18 18 19 19 20 20 21 21 22 22 23 23
REMARK SMILES IDX 24 24
REMARK H PARENT
REMARK Flexibility Score: inf
ROOT
ATOM      1  C   UNL     1      77.894   6.585  24.521  1.00  0.00     0.000 C 
ENDROOT
BRANCH   1   2
ATOM      2  C   UNL     1      76.553   6.975  23.875  1.00  0.00     0.000 C 
BRANCH   2   3
ATOM      3  C   UNL     1      76.727   7.587  22.476  1.00  0.00     0.000 C 
BRANCH   3   4
ATOM      4  C   UNL     1      75.384   7.811  21.759  1.00  0.00    -0.000 C 
BRANCH   4   5
ATOM      5  C   UNL     1      74.299   8.367  22.707  1.00  0.00    -0.000 C 
BRANCH   5   6
ATOM      6  C   UNL     1      74.400   9.888  22.938  1.00  0.00    -0.000 C 
BRANCH   6   7
ATOM      7  C   UNL     1      74.840  10.299  24.355  1.00  0.00    -0.000 C 
BRANCH   7   8
ATOM      8  C   UNL     1      75.496  11.690  24.448  1.00  0.00    -0.000 C 
BRANCH   8   9
ATOM      9  C   UNL     1      76.829  11.692  25.227  1.00  0.00    -0.000 C 
BRANCH   9  10
ATOM     10  C   UNL     1      77.923  10.887  24.510  1.00  0.00    -0.000 C 
BRANCH  10  11
ATOM     11  C   UNL     1      78.936  10.322  25.514  1.00  0.00    -0.003 C 
ATOM     12  C   UNL     1      78.231   9.624  26.675  1.00  0.00     0.004 C 
ENDBRANCH  10  11
ENDBRANCH   9  10
ENDBRANCH   8   9
ENDBRANCH   7   8
ENDBRANCH   6   7
ENDBRANCH   5   6
ENDBRANCH   4   5
ENDBRANCH   3   4
ENDBRANCH   2   3
ENDBRANCH   1   2
BRANCH   1  13
ATOM     13  C   UNL     1      79.104   7.100  23.724  1.00  0.00     0.000 C 
BRANCH  13  14
ATOM     14  C   UNL     1      80.348   6.213  23.907  1.00  0.00     0.000 C 
BRANCH  14  15
ATOM     15  C   UNL     1      80.436   5.076  22.871  1.00  0.00     0.000 C 
BRANCH  15  16
ATOM     16  C   UNL     1      79.671   5.320  21.558  1.00  0.00     0.000 C 
BRANCH  16  17
ATOM     17  C   UNL     1      78.585   4.264  21.291  1.00  0.00     0.000 C 
BRANCH  17  18
ATOM     18  C   UNL     1      78.384   3.301  22.476  1.00  0.00     0.000 C 
BRANCH  18  19
ATOM     19  C   UNL     1      76.936   3.182  22.992  1.00  0.00     0.000 C 
BRANCH  19  20
ATOM     20  C   UNL     1      75.873   3.870  22.117  1.00  0.00     0.006 C 
BRANCH  20  21
ATOM     21  C   UNL     1      74.887   2.878  21.485  1.00  0.00     0.053 C 
BRANCH  21  22
ATOM     22  C   UNL     1      73.473   3.314  21.717  1.00  0.00     0.041 C 
ATOM     23  O   UNL     1      72.679   2.576  22.358  1.00  0.00    -0.550 OA
ATOM     24  O   UNL     1      73.028   4.532  21.217  1.00  0.00    -0.550 OA
ENDBRANCH  21  22
ENDBRANCH  20  21
ENDBRANCH  19  20
ENDBRANCH  18  19
ENDBRANCH  17  18
ENDBRANCH  16  17
ENDBRANCH  15  16
ENDBRANCH  14  15
ENDBRANCH  13  14
ENDBRANCH   1  13
TORSDOF 20
ENDMDL
