MODEL 1
REMARK VINA RESULT:    -4.373      0.000      0.000
REMARK INTER + INTRA:          -9.304
REMARK INTER:                  -7.441
REMARK INTRA:                  -1.863
REMARK UNBOUND:                -1.863
REMARK SMILES CCCCCCCCCCCCCC(=O)[O-]
REMARK SMILES IDX 8 1 9 2 10 3 11 4 12 5 13 6 14 7 15 8 16 9 7 10 6 11 5 12
REMARK SMILES IDX 4 13 3 14 2 15 1 16
REMARK H PARENT
REMARK Flexibility Score: inf
ROOT
ATOM      1  C   UNL     1      55.350  40.219  48.471  1.00  0.00     0.000 C 
ENDROOT
BRANCH   1   2
ATOM      2  C   UNL     1      54.515  39.223  47.654  1.00  0.00     0.000 C 
BRANCH   2   3
ATOM      3  C   UNL     1      53.315  39.886  46.960  1.00  0.00     0.000 C 
BRANCH   3   4
ATOM      4  C   UNL     1      52.319  40.496  47.962  1.00  0.00     0.000 C 
BRANCH   4   5
ATOM      5  C   UNL     1      51.854  41.910  47.565  1.00  0.00     0.006 C 
BRANCH   5   6
ATOM      6  C   UNL     1      53.008  42.893  47.298  1.00  0.00     0.053 C 
BRANCH   6   7
ATOM      7  C   UNL     1      52.550  44.320  47.259  1.00  0.00     0.041 C 
ATOM      8  O   UNL     1      51.718  44.694  46.390  1.00  0.00    -0.550 OA
ATOM      9  O   UNL     1      53.013  45.229  48.202  1.00  0.00    -0.550 OA
ENDBRANCH   6   7
ENDBRANCH   5   6
ENDBRANCH   4   5
ENDBRANCH   3   4
ENDBRANCH   2   3
ENDBRANCH   1   2
BRANCH   1  10
ATOM     10  C   UNL     1      55.427  39.792  49.944  1.00  0.00     0.000 C 
BRANCH  10  11
ATOM     11  C   UNL     1      54.615  38.518  50.241  1.00  0.00    -0.000 C 
BRANCH  11  12
ATOM     12  C   UNL     1      53.329  38.739  51.063  1.00  0.00    -0.000 C 
BRANCH  12  13
ATOM     13  C   UNL     1      53.255  40.084  51.809  1.00  0.00    -0.000 C 
BRANCH  13  14
ATOM     14  C   UNL     1      51.920  40.812  51.593  1.00  0.00    -0.000 C 
BRANCH  14  15
ATOM     15  C   UNL     1      52.057  42.307  51.901  1.00  0.00    -0.003 C 
ATOM     16  C   UNL     1      53.078  42.969  50.979  1.00  0.00     0.004 C 
ENDBRANCH  14  15
ENDBRANCH  13  14
ENDBRANCH  12  13
ENDBRANCH  11  12
ENDBRANCH  10  11
ENDBRANCH   1  10
TORSDOF 12
ENDMDL
MODEL 2
REMARK VINA RESULT:    -4.344      2.458      4.489
REMARK INTER + INTRA:          -9.254
REMARK INTER:                  -7.232
REMARK INTRA:                  -2.022
REMARK UNBOUND:                -1.863
REMARK SMILES CCCCCCCCCCCCCC(=O)[O-]
REMARK SMILES IDX 8 1 9 2 10 3 11 4 12 5 13 6 14 7 15 8 16 9 7 10 6 11 5 12
REMARK SMILES IDX 4 13 3 14 2 15 1 16
REMARK H PARENT
REMARK Flexibility Score: inf
ROOT
ATOM      1  C   UNL     1      55.077  39.984  48.450  1.00  0.00     0.000 C 
ENDROOT
BRANCH   1   2
ATOM      2  C   UNL     1      54.891  38.591  49.070  1.00  0.00     0.000 C 
BRANCH   2   3
ATOM      3  C   UNL     1      54.543  38.651  50.565  1.00  0.00     0.000 C 
BRANCH   3   4
ATOM      4  C   UNL     1      54.078  40.050  51.007  1.00  0.00     0.000 C 
BRANCH   4   5
ATOM      5  C   UNL     1      52.610  40.078  51.473  1.00  0.00     0.006 C 
BRANCH   5   6
ATOM      6  C   UNL     1      52.153  41.446  52.010  1.00  0.00     0.053 C 
BRANCH   6   7
ATOM      7  C   UNL     1      53.091  42.002  53.040  1.00  0.00     0.041 C 
ATOM      8  O   UNL     1      53.686  43.092  52.830  1.00  0.00    -0.550 OA
ATOM      9  O   UNL     1      53.282  41.336  54.243  1.00  0.00    -0.550 OA
ENDBRANCH   6   7
ENDBRANCH   5   6
ENDBRANCH   4   5
ENDBRANCH   3   4
ENDBRANCH   2   3
ENDBRANCH   1   2
BRANCH   1  10
ATOM     10  C   UNL     1      54.251  40.127  47.164  1.00  0.00     0.000 C 
BRANCH  10  11
ATOM     11  C   UNL     1      52.735  40.015  47.411  1.00  0.00    -0.000 C 
BRANCH  11  12
ATOM     12  C   UNL     1      52.067  41.292  47.960  1.00  0.00    -0.000 C 
BRANCH  12  13
ATOM     13  C   UNL     1      52.207  42.538  47.067  1.00  0.00    -0.000 C 
BRANCH  13  14
ATOM     14  C   UNL     1      52.623  43.791  47.853  1.00  0.00    -0.000 C 
BRANCH  14  15
ATOM     15  C   UNL     1      53.090  43.421  49.265  1.00  0.00    -0.003 C 
ATOM     16  C   UNL     1      54.602  43.581  49.406  1.00  0.00     0.004 C 
ENDBRANCH  14  15
ENDBRANCH  13  14
ENDBRANCH  12  13
ENDBRANCH  11  12
ENDBRANCH  10  11
ENDBRANCH   1  10
TORSDOF 12
ENDMDL
MODEL 3
REMARK VINA RESULT:    -4.338      2.544      4.698
REMARK INTER + INTRA:          -9.245
REMARK INTER:                  -7.511
REMARK INTRA:                  -1.733
REMARK UNBOUND:                -1.863
REMARK SMILES CCCCCCCCCCCCCC(=O)[O-]
REMARK SMILES IDX 8 1 9 2 10 3 11 4 12 5 13 6 14 7 15 8 16 9 7 10 6 11 5 12
REMARK SMILES IDX 4 13 3 14 2 15 1 16
REMARK H PARENT
REMARK Flexibility Score: inf
ROOT
ATOM      1  C   UNL     1      52.041  40.837  47.948  1.00  0.00     0.000 C 
ENDROOT
BRANCH   1   2
ATOM      2  C   UNL     1      52.214  42.310  47.549  1.00  0.00     0.000 C 
BRANCH   2   3
ATOM      3  C   UNL     1      52.827  43.159  48.674  1.00  0.00     0.000 C 
BRANCH   3   4
ATOM      4  C   UNL     1      52.978  42.374  49.989  1.00  0.00     0.000 C 
BRANCH   4   5
ATOM      5  C   UNL     1      52.351  43.096  51.197  1.00  0.00     0.006 C 
BRANCH   5   6
ATOM      6  C   UNL     1      52.196  42.206  52.443  1.00  0.00     0.053 C 
BRANCH   6   7
ATOM      7  C   UNL     1      53.427  42.193  53.297  1.00  0.00     0.041 C 
ATOM      8  O   UNL     1      54.175  43.206  53.345  1.00  0.00    -0.550 OA
ATOM      9  O   UNL     1      53.731  41.079  54.068  1.00  0.00    -0.550 OA
ENDBRANCH   6   7
ENDBRANCH   5   6
ENDBRANCH   4   5
ENDBRANCH   3   4
ENDBRANCH   2   3
ENDBRANCH   1   2
BRANCH   1  10
ATOM     10  C   UNL     1      52.873  39.921  47.039  1.00  0.00     0.000 C 
BRANCH  10  11
ATOM     11  C   UNL     1      54.343  40.364  46.926  1.00  0.00    -0.000 C 
BRANCH  11  12
ATOM     12  C   UNL     1      55.253  39.911  48.086  1.00  0.00    -0.000 C 
BRANCH  12  13
ATOM     13  C   UNL     1      54.829  38.601  48.775  1.00  0.00    -0.000 C 
BRANCH  13  14
ATOM     14  C   UNL     1      55.482  38.413  50.153  1.00  0.00    -0.000 C 
BRANCH  14  15
ATOM     15  C   UNL     1      54.661  39.107  51.246  1.00  0.00    -0.003 C 
ATOM     16  C   UNL     1      53.164  38.905  51.023  1.00  0.00     0.004 C 
ENDBRANCH  14  15
ENDBRANCH  13  14
ENDBRANCH  12  13
ENDBRANCH  11  12
ENDBRANCH  10  11
ENDBRANCH   1  10
TORSDOF 12
ENDMDL
MODEL 4
REMARK VINA RESULT:    -4.220      3.349      5.277
REMARK INTER + INTRA:          -9.043
REMARK INTER:                  -7.311
REMARK INTRA:                  -1.733
REMARK UNBOUND:                -1.863
REMARK SMILES CCCCCCCCCCCCCC(=O)[O-]
REMARK SMILES IDX 8 1 9 2 10 3 11 4 12 5 13 6 14 7 15 8 16 9 7 10 6 11 5 12
REMARK SMILES IDX 4 13 3 14 2 15 1 16
REMARK H PARENT
REMARK Flexibility Score: inf
ROOT
ATOM      1  C   UNL     1      52.277  40.383  47.960  1.00  0.00     0.000 C 
ENDROOT
BRANCH   1   2
ATOM      2  C   UNL     1      53.209  39.855  46.859  1.00  0.00     0.000 C 
BRANCH   2   3
ATOM      3  C   UNL     1      54.509  39.258  47.421  1.00  0.00     0.000 C 
BRANCH   3   4
ATOM      4  C   UNL     1      54.745  39.639  48.893  1.00  0.00     0.000 C 
BRANCH   4   5
ATOM      5  C   UNL     1      54.762  38.421  49.836  1.00  0.00     0.006 C 
BRANCH   5   6
ATOM      6  C   UNL     1      55.591  38.635  51.115  1.00  0.00     0.053 C 
BRANCH   6   7
ATOM      7  C   UNL     1      57.016  38.198  50.956  1.00  0.00     0.041 C 
ATOM      8  O   UNL     1      57.535  37.415  51.796  1.00  0.00    -0.550 OA
ATOM      9  O   UNL     1      57.760  38.625  49.864  1.00  0.00    -0.550 OA
ENDBRANCH   6   7
ENDBRANCH   5   6
ENDBRANCH   4   5
ENDBRANCH   3   4
ENDBRANCH   2   3
ENDBRANCH   1   2
BRANCH   1  10
ATOM     10  C   UNL     1      51.902  41.850  47.705  1.00  0.00     0.000 C 
BRANCH  10  11
ATOM     11  C   UNL     1      53.075  42.818  47.949  1.00  0.00    -0.000 C 
BRANCH  11  12
ATOM     12  C   UNL     1      52.992  43.627  49.259  1.00  0.00    -0.000 C 
BRANCH  12  13
ATOM     13  C   UNL     1      54.155  43.399  50.242  1.00  0.00    -0.000 C 
BRANCH  13  14
ATOM     14  C   UNL     1      53.873  42.274  51.248  1.00  0.00    -0.000 C 
BRANCH  14  15
ATOM     15  C   UNL     1      52.375  42.180  51.559  1.00  0.00    -0.003 C 
ATOM     16  C   UNL     1      51.898  40.729  51.539  1.00  0.00     0.004 C 
ENDBRANCH  14  15
ENDBRANCH  13  14
ENDBRANCH  12  13
ENDBRANCH  11  12
ENDBRANCH  10  11
ENDBRANCH   1  10
TORSDOF 12
ENDMDL
MODEL 5
REMARK VINA RESULT:    -4.204      2.809      4.731
REMARK INTER + INTRA:          -9.016
REMARK INTER:                  -7.239
REMARK INTRA:                  -1.777
REMARK UNBOUND:                -1.863
REMARK SMILES CCCCCCCCCCCCCC(=O)[O-]
REMARK SMILES IDX 8 1 9 2 10 3 11 4 12 5 13 6 14 7 15 8 16 9 7 10 6 11 5 12
REMARK SMILES IDX 4 13 3 14 2 15 1 16
REMARK H PARENT
REMARK Flexibility Score: inf
ROOT
ATOM      1  C   UNL     1      53.312  39.887  46.803  1.00  0.00     0.000 C 
ENDROOT
BRANCH   1   2
ATOM      2  C   UNL     1      54.499  39.202  47.496  1.00  0.00     0.000 C 
BRANCH   2   3
ATOM      3  C   UNL     1      54.285  39.036  49.009  1.00  0.00     0.000 C 
BRANCH   3   4
ATOM      4  C   UNL     1      55.589  38.707  49.756  1.00  0.00     0.000 C 
BRANCH   4   5
ATOM      5  C   UNL     1      55.524  39.042  51.258  1.00  0.00     0.006 C 
BRANCH   5   6
ATOM      6  C   UNL     1      55.956  40.480  51.595  1.00  0.00     0.053 C 
BRANCH   6   7
ATOM      7  C   UNL     1      55.363  40.973  52.881  1.00  0.00     0.041 C 
ATOM      8  O   UNL     1      54.729  40.182  53.629  1.00  0.00    -0.550 OA
ATOM      9  O   UNL     1      55.540  42.294  53.272  1.00  0.00    -0.550 OA
ENDBRANCH   6   7
ENDBRANCH   5   6
ENDBRANCH   4   5
ENDBRANCH   3   4
ENDBRANCH   2   3
ENDBRANCH   1   2
BRANCH   1  10
ATOM     10  C   UNL     1      52.326  40.452  47.835  1.00  0.00     0.000 C 
BRANCH  10  11
ATOM     11  C   UNL     1      52.013  41.943  47.611  1.00  0.00    -0.000 C 
BRANCH  11  12
ATOM     12  C   UNL     1      52.862  42.921  48.448  1.00  0.00    -0.000 C 
BRANCH  12  13
ATOM     13  C   UNL     1      53.268  42.407  49.841  1.00  0.00    -0.000 C 
BRANCH  13  14
ATOM     14  C   UNL     1      52.597  43.185  50.983  1.00  0.00    -0.000 C 
BRANCH  14  15
ATOM     15  C   UNL     1      52.039  42.228  52.042  1.00  0.00    -0.003 C 
ATOM     16  C   UNL     1      51.901  40.812  51.488  1.00  0.00     0.004 C 
ENDBRANCH  14  15
ENDBRANCH  13  14
ENDBRANCH  12  13
ENDBRANCH  11  12
ENDBRANCH  10  11
ENDBRANCH   1  10
TORSDOF 12
ENDMDL
MODEL 6
REMARK VINA RESULT:    -4.184      1.883      3.772
REMARK INTER + INTRA:          -8.983
REMARK INTER:                  -7.329
REMARK INTRA:                  -1.653
REMARK UNBOUND:                -1.863
REMARK SMILES CCCCCCCCCCCCCC(=O)[O-]
REMARK SMILES IDX 8 1 9 2 10 3 11 4 12 5 13 6 14 7 15 8 16 9 7 10 6 11 5 12
REMARK SMILES IDX 4 13 3 14 2 15 1 16
REMARK H PARENT
REMARK Flexibility Score: inf
ROOT
ATOM      1  C   UNL     1      52.587  43.280  48.341  1.00  0.00     0.000 C 
ENDROOT
BRANCH   1   2
ATOM      2  C   UNL     1      52.054  42.204  47.384  1.00  0.00     0.000 C 
BRANCH   2   3
ATOM      3  C   UNL     1      52.186  40.785  47.958  1.00  0.00     0.000 C 
BRANCH   3   4
ATOM      4  C   UNL     1      52.932  39.832  47.008  1.00  0.00     0.000 C 
BRANCH   4   5
ATOM      5  C   UNL     1      54.298  40.379  46.555  1.00  0.00     0.006 C 
BRANCH   5   6
ATOM      6  C   UNL     1      55.300  40.584  47.706  1.00  0.00     0.053 C 
BRANCH   6   7
ATOM      7  C   UNL     1      56.160  41.797  47.510  1.00  0.00     0.041 C 
ATOM      8  O   UNL     1      55.700  42.810  46.921  1.00  0.00    -0.550 OA
ATOM      9  O   UNL     1      57.456  41.822  48.008  1.00  0.00    -0.550 OA
ENDBRANCH   6   7
ENDBRANCH   5   6
ENDBRANCH   4   5
ENDBRANCH   3   4
ENDBRANCH   2   3
ENDBRANCH   1   2
BRANCH   1  10
ATOM     10  C   UNL     1      53.132  42.647  49.630  1.00  0.00     0.000 C 
BRANCH  10  11
ATOM     11  C   UNL     1      52.537  43.276  50.904  1.00  0.00    -0.000 C 
BRANCH  11  12
ATOM     12  C   UNL     1      52.173  42.274  52.018  1.00  0.00    -0.000 C 
BRANCH  12  13
ATOM     13  C   UNL     1      51.996  40.817  51.553  1.00  0.00    -0.000 C 
BRANCH  13  14
ATOM     14  C   UNL     1      53.252  39.962  51.780  1.00  0.00    -0.000 C 
BRANCH  14  15
ATOM     15  C   UNL     1      53.318  38.808  50.773  1.00  0.00    -0.003 C 
ATOM     16  C   UNL     1      54.749  38.303  50.606  1.00  0.00     0.004 C 
ENDBRANCH  14  15
ENDBRANCH  13  14
ENDBRANCH  12  13
ENDBRANCH  11  12
ENDBRANCH  10  11
ENDBRANCH   1  10
TORSDOF 12
ENDMDL
MODEL 7
REMARK VINA RESULT:    -4.181      2.724      5.557
REMARK INTER + INTRA:          -8.977
REMARK INTER:                  -7.090
REMARK INTRA:                  -1.888
REMARK UNBOUND:                -1.863
REMARK SMILES CCCCCCCCCCCCCC(=O)[O-]
REMARK SMILES IDX 8 1 9 2 10 3 11 4 12 5 13 6 14 7 15 8 16 9 7 10 6 11 5 12
REMARK SMILES IDX 4 13 3 14 2 15 1 16
REMARK H PARENT
REMARK Flexibility Score: inf
ROOT
ATOM      1  C   UNL     1      54.003  43.202  50.265  1.00  0.00     0.000 C 
ENDROOT
BRANCH   1   2
ATOM      2  C   UNL     1      52.584  43.308  50.842  1.00  0.00     0.000 C 
BRANCH   2   3
ATOM      3  C   UNL     1      52.335  42.312  51.985  1.00  0.00     0.000 C 
BRANCH   3   4
ATOM      4  C   UNL     1      51.876  40.934  51.477  1.00  0.00     0.000 C 
BRANCH   4   5
ATOM      5  C   UNL     1      52.978  39.861  51.563  1.00  0.00     0.006 C 
BRANCH   5   6
ATOM      6  C   UNL     1      54.134  40.231  52.510  1.00  0.00     0.053 C 
BRANCH   6   7
ATOM      7  C   UNL     1      55.477  39.895  51.935  1.00  0.00     0.041 C 
ATOM      8  O   UNL     1      55.802  38.693  51.745  1.00  0.00    -0.550 OA
ATOM      9  O   UNL     1      56.356  40.909  51.575  1.00  0.00    -0.550 OA
ENDBRANCH   6   7
ENDBRANCH   5   6
ENDBRANCH   4   5
ENDBRANCH   3   4
ENDBRANCH   2   3
ENDBRANCH   1   2
BRANCH   1  10
ATOM     10  C   UNL     1      53.964  42.990  48.745  1.00  0.00     0.000 C 
BRANCH  10  11
ATOM     11  C   UNL     1      52.571  43.249  48.140  1.00  0.00    -0.000 C 
BRANCH  11  12
ATOM     12  C   UNL     1      51.952  42.052  47.391  1.00  0.00    -0.000 C 
BRANCH  12  13
ATOM     13  C   UNL     1      52.402  40.666  47.887  1.00  0.00    -0.000 C 
BRANCH  13  14
ATOM     14  C   UNL     1      52.989  39.793  46.768  1.00  0.00    -0.000 C 
BRANCH  14  15
ATOM     15  C   UNL     1      54.505  39.640  46.932  1.00  0.00    -0.003 C 
ATOM     16  C   UNL     1      54.865  39.197  48.348  1.00  0.00     0.004 C 
ENDBRANCH  14  15
ENDBRANCH  13  14
ENDBRANCH  12  13
ENDBRANCH  11  12
ENDBRANCH  10  11
ENDBRANCH   1  10
TORSDOF 12
ENDMDL
MODEL 8
REMARK VINA RESULT:    -4.177      3.156      5.601
REMARK INTER + INTRA:          -8.970
REMARK INTER:                  -6.929
REMARK INTRA:                  -2.041
REMARK UNBOUND:                -1.863
REMARK SMILES CCCCCCCCCCCCCC(=O)[O-]
REMARK SMILES IDX 8 1 9 2 10 3 11 4 12 5 13 6 14 7 15 8 16 9 7 10 6 11 5 12
REMARK SMILES IDX 4 13 3 14 2 15 1 16
REMARK H PARENT
REMARK Flexibility Score: inf
ROOT
ATOM      1  C   UNL     1      52.511  42.491  51.508  1.00  0.00     0.000 C 
ENDROOT
BRANCH   1   2
ATOM      2  C   UNL     1      52.222  41.018  51.834  1.00  0.00     0.000 C 
BRANCH   2   3
ATOM      3  C   UNL     1      53.483  40.142  51.778  1.00  0.00     0.000 C 
BRANCH   3   4
ATOM      4  C   UNL     1      53.267  38.848  50.974  1.00  0.00     0.000 C 
BRANCH   4   5
ATOM      5  C   UNL     1      54.552  38.337  50.296  1.00  0.00     0.006 C 
BRANCH   5   6
ATOM      6  C   UNL     1      55.630  39.420  50.109  1.00  0.00     0.053 C 
BRANCH   6   7
ATOM      7  C   UNL     1      56.932  39.052  50.755  1.00  0.00     0.041 C 
ATOM      8  O   UNL     1      57.538  38.004  50.405  1.00  0.00    -0.550 OA
ATOM      9  O   UNL     1      57.494  39.881  51.716  1.00  0.00    -0.550 OA
ENDBRANCH   6   7
ENDBRANCH   5   6
ENDBRANCH   4   5
ENDBRANCH   3   4
ENDBRANCH   2   3
ENDBRANCH   1   2
BRANCH   1  10
ATOM     10  C   UNL     1      53.950  42.670  51.005  1.00  0.00     0.000 C 
BRANCH  10  11
ATOM     11  C   UNL     1      54.022  42.988  49.500  1.00  0.00    -0.000 C 
BRANCH  11  12
ATOM     12  C   UNL     1      52.661  43.238  48.819  1.00  0.00    -0.000 C 
BRANCH  12  13
ATOM     13  C   UNL     1      52.344  42.310  47.633  1.00  0.00    -0.000 C 
BRANCH  13  14
ATOM     14  C   UNL     1      52.058  40.864  48.066  1.00  0.00    -0.000 C 
BRANCH  14  15
ATOM     15  C   UNL     1      52.983  39.883  47.338  1.00  0.00    -0.003 C 
ATOM     16  C   UNL     1      53.987  40.621  46.456  1.00  0.00     0.004 C 
ENDBRANCH  14  15
ENDBRANCH  13  14
ENDBRANCH  12  13
ENDBRANCH  11  12
ENDBRANCH  10  11
ENDBRANCH   1  10
TORSDOF 12
ENDMDL
MODEL 9
REMARK VINA RESULT:    -4.123      2.555      4.977
REMARK INTER + INTRA:          -8.878
REMARK INTER:                  -7.089
REMARK INTRA:                  -1.788
REMARK UNBOUND:                -1.863
REMARK SMILES CCCCCCCCCCCCCC(=O)[O-]
REMARK SMILES IDX 8 1 9 2 10 3 11 4 12 5 13 6 14 7 15 8 16 9 7 10 6 11 5 12
REMARK SMILES IDX 4 13 3 14 2 15 1 16
REMARK H PARENT
REMARK Flexibility Score: inf
ROOT
ATOM      1  C   UNL     1      52.277  40.390  47.732  1.00  0.00     0.000 C 
ENDROOT
BRANCH   1   2
ATOM      2  C   UNL     1      53.493  40.136  46.830  1.00  0.00     0.000 C 
BRANCH   2   3
ATOM      3  C   UNL     1      54.518  39.188  47.473  1.00  0.00     0.000 C 
BRANCH   3   4
ATOM      4  C   UNL     1      55.377  39.885  48.542  1.00  0.00     0.000 C 
BRANCH   4   5
ATOM      5  C   UNL     1      55.894  38.919  49.624  1.00  0.00     0.006 C 
BRANCH   5   6
ATOM      6  C   UNL     1      54.778  38.227  50.426  1.00  0.00     0.053 C 
BRANCH   6   7
ATOM      7  C   UNL     1      53.980  39.192  51.252  1.00  0.00     0.041 C 
ATOM      8  O   UNL     1      54.536  39.844  52.175  1.00  0.00    -0.550 OA
ATOM      9  O   UNL     1      52.634  39.396  50.980  1.00  0.00    -0.550 OA
ENDBRANCH   6   7
ENDBRANCH   5   6
ENDBRANCH   4   5
ENDBRANCH   3   4
ENDBRANCH   2   3
ENDBRANCH   1   2
BRANCH   1  10
ATOM     10  C   UNL     1      51.875  41.871  47.709  1.00  0.00     0.000 C 
BRANCH  10  11
ATOM     11  C   UNL     1      52.683  42.694  46.688  1.00  0.00    -0.000 C 
BRANCH  11  12
ATOM     12  C   UNL     1      53.062  44.116  47.149  1.00  0.00    -0.000 C 
BRANCH  12  13
ATOM     13  C   UNL     1      53.094  44.322  48.674  1.00  0.00    -0.000 C 
BRANCH  13  14
ATOM     14  C   UNL     1      54.433  43.912  49.304  1.00  0.00    -0.000 C 
BRANCH  14  15
ATOM     15  C   UNL     1      54.220  42.897  50.432  1.00  0.00    -0.003 C 
ATOM     16  C   UNL     1      52.819  43.020  51.026  1.00  0.00     0.004 C 
ENDBRANCH  14  15
ENDBRANCH  13  14
ENDBRANCH  12  13
ENDBRANCH  11  12
ENDBRANCH  10  11
ENDBRANCH   1  10
TORSDOF 12
ENDMDL
