MODEL 1
REMARK VINA RESULT:    -6.101      0.000      0.000
REMARK INTER + INTRA:          -6.101
REMARK INTER:                  -6.101
REMARK INTRA:                   0.000
REMARK UNBOUND:                 0.000
REMARK SMILES C=C1CCC[C@]2(C)CC(=O)C(=C(C)C)C[C@@H]12
REMARK SMILES IDX 13 1 12 2 11 3 15 4 16 5 2 6 1 7 3 8 4 9 5 10 6 11 8 12 9 13
REMARK SMILES IDX 10 14 7 15 14 16
REMARK H PARENT
REMARK Flexibility Score: inf
ROOT
ATOM      1  C   UNL     1       6.437  25.148  71.525  1.00  0.00     0.039 C 
ATOM      2  C   UNL     1       7.605  24.357  72.068  1.00  0.00    -0.070 C 
ATOM      3  C   UNL     1       8.657  24.976  72.682  1.00  0.00    -0.006 C 
ATOM      4  C   UNL     1       8.707  26.492  72.821  1.00  0.00     0.047 C 
ATOM      5  C   UNL     1      10.152  27.048  72.820  1.00  0.00     0.025 C 
ATOM      6  C   UNL     1      10.266  28.562  72.999  1.00  0.00    -0.073 C 
ATOM      7  C   UNL     1       9.212  29.384  73.159  1.00  0.00     0.008 C 
ATOM      8  C   UNL     1      11.662  29.138  72.942  1.00  0.00     0.031 C 
ATOM      9  C   UNL     1      12.579  28.411  73.930  1.00  0.00     0.005 C 
ATOM     10  C   UNL     1      12.518  26.886  73.744  1.00  0.00     0.008 C 
ATOM     11  C   UNL     1      11.071  26.314  73.847  1.00  0.00    -0.018 C 
ATOM     12  C   UNL     1      11.121  24.811  73.481  1.00  0.00     0.088 C 
ATOM     13  C   UNL     1       9.749  24.213  73.354  1.00  0.00     0.159 C 
ATOM     14  O   UNL     1       9.544  23.068  73.839  1.00  0.00    -0.295 OA
ATOM     15  C   UNL     1      10.552  26.472  75.303  1.00  0.00     0.012 C 
ATOM     16  C   UNL     1       7.569  22.859  71.868  1.00  0.00     0.039 C 
ENDROOT
TORSDOF 0
ENDMDL
MODEL 2
REMARK VINA RESULT:    -6.093      1.730      2.788
REMARK INTER + INTRA:          -6.093
REMARK INTER:                  -6.093
REMARK INTRA:                   0.000
REMARK UNBOUND:                 0.000
REMARK SMILES C=C1CCC[C@]2(C)CC(=O)C(=C(C)C)C[C@@H]12
REMARK SMILES IDX 13 1 12 2 11 3 15 4 16 5 2 6 1 7 3 8 4 9 5 10 6 11 8 12 9 13
REMARK SMILES IDX 10 14 7 15 14 16
REMARK H PARENT
REMARK Flexibility Score: inf
ROOT
ATOM      1  C   UNL     1       8.164  24.998  72.161  1.00  0.00     0.039 C 
ATOM      2  C   UNL     1       9.254  25.261  73.175  1.00  0.00    -0.070 C 
ATOM      3  C   UNL     1       9.698  26.528  73.427  1.00  0.00    -0.006 C 
ATOM      4  C   UNL     1       9.127  27.726  72.678  1.00  0.00     0.047 C 
ATOM      5  C   UNL     1      10.156  28.871  72.507  1.00  0.00     0.025 C 
ATOM      6  C   UNL     1       9.627  30.118  71.798  1.00  0.00    -0.073 C 
ATOM      7  C   UNL     1       8.364  30.253  71.351  1.00  0.00     0.008 C 
ATOM      8  C   UNL     1      10.626  31.228  71.564  1.00  0.00     0.031 C 
ATOM      9  C   UNL     1      11.315  31.610  72.878  1.00  0.00     0.005 C 
ATOM     10  C   UNL     1      11.896  30.378  73.592  1.00  0.00     0.008 C 
ATOM     11  C   UNL     1      10.835  29.267  73.856  1.00  0.00    -0.018 C 
ATOM     12  C   UNL     1      11.569  28.026  74.423  1.00  0.00     0.088 C 
ATOM     13  C   UNL     1      10.665  26.830  74.522  1.00  0.00     0.159 C 
ATOM     14  O   UNL     1      10.737  26.106  75.550  1.00  0.00    -0.295 OA
ATOM     15  C   UNL     1       9.800  29.772  74.898  1.00  0.00     0.012 C 
ATOM     16  C   UNL     1       9.851  24.056  73.865  1.00  0.00     0.039 C 
ENDROOT
TORSDOF 0
ENDMDL
MODEL 3
REMARK VINA RESULT:    -5.844      4.543      7.515
REMARK INTER + INTRA:          -5.844
REMARK INTER:                  -5.844
REMARK INTRA:                   0.000
REMARK UNBOUND:                 0.000
REMARK SMILES C=C1CCC[C@]2(C)CC(=O)C(=C(C)C)C[C@@H]12
REMARK SMILES IDX 13 1 12 2 11 3 15 4 16 5 2 6 1 7 3 8 4 9 5 10 6 11 8 12 9 13
REMARK SMILES IDX 10 14 7 15 14 16
REMARK H PARENT
REMARK Flexibility Score: inf
ROOT
ATOM      1  C   UNL     1       9.410  35.237  71.126  1.00  0.00     0.039 C 
ATOM      2  C   UNL     1      10.467  34.911  72.157  1.00  0.00    -0.070 C 
ATOM      3  C   UNL     1      10.745  33.619  72.504  1.00  0.00    -0.006 C 
ATOM      4  C   UNL     1       9.984  32.455  71.882  1.00  0.00     0.047 C 
ATOM      5  C   UNL     1       9.860  31.241  72.836  1.00  0.00     0.025 C 
ATOM      6  C   UNL     1       9.141  30.026  72.250  1.00  0.00    -0.073 C 
ATOM      7  C   UNL     1       8.647  29.972  70.998  1.00  0.00     0.008 C 
ATOM      8  C   UNL     1       8.954  28.849  73.179  1.00  0.00     0.031 C 
ATOM      9  C   UNL     1      10.295  28.435  73.792  1.00  0.00     0.005 C 
ATOM     10  C   UNL     1      11.022  29.631  74.428  1.00  0.00     0.008 C 
ATOM     11  C   UNL     1      11.237  30.815  73.436  1.00  0.00    -0.018 C 
ATOM     12  C   UNL     1      11.821  32.008  74.231  1.00  0.00     0.088 C 
ATOM     13  C   UNL     1      11.877  33.263  73.408  1.00  0.00     0.159 C 
ATOM     14  O   UNL     1      12.902  33.992  73.490  1.00  0.00    -0.295 OA
ATOM     15  C   UNL     1      12.243  30.391  72.331  1.00  0.00     0.012 C 
ATOM     16  C   UNL     1      11.170  36.080  72.809  1.00  0.00     0.039 C 
ENDROOT
TORSDOF 0
ENDMDL
MODEL 4
REMARK VINA RESULT:    -5.624      1.576      4.917
REMARK INTER + INTRA:          -5.624
REMARK INTER:                  -5.624
REMARK INTRA:                   0.000
REMARK UNBOUND:                 0.000
REMARK SMILES C=C1CCC[C@]2(C)CC(=O)C(=C(C)C)C[C@@H]12
REMARK SMILES IDX 13 1 12 2 11 3 15 4 16 5 2 6 1 7 3 8 4 9 5 10 6 11 8 12 9 13
REMARK SMILES IDX 10 14 7 15 14 16
REMARK H PARENT
REMARK Flexibility Score: inf
ROOT
ATOM      1  C   UNL     1       8.997  29.099  72.220  1.00  0.00     0.039 C 
ATOM      2  C   UNL     1       9.783  28.339  73.263  1.00  0.00    -0.070 C 
ATOM      3  C   UNL     1       9.717  26.977  73.348  1.00  0.00    -0.006 C 
ATOM      4  C   UNL     1       8.828  26.171  72.409  1.00  0.00     0.047 C 
ATOM      5  C   UNL     1       8.297  24.868  73.057  1.00  0.00     0.025 C 
ATOM      6  C   UNL     1       7.432  23.997  72.147  1.00  0.00    -0.073 C 
ATOM      7  C   UNL     1       7.139  24.300  70.867  1.00  0.00     0.008 C 
ATOM      8  C   UNL     1       6.851  22.749  72.771  1.00  0.00     0.031 C 
ATOM      9  C   UNL     1       7.959  21.913  73.419  1.00  0.00     0.005 C 
ATOM     10  C   UNL     1       8.819  22.755  74.376  1.00  0.00     0.008 C 
ATOM     11  C   UNL     1       9.438  24.014  73.695  1.00  0.00    -0.018 C 
ATOM     12  C   UNL     1      10.136  24.859  74.788  1.00  0.00     0.088 C 
ATOM     13  C   UNL     1      10.590  26.193  74.269  1.00  0.00     0.159 C 
ATOM     14  O   UNL     1      11.724  26.620  74.618  1.00  0.00    -0.295 OA
ATOM     15  C   UNL     1      10.488  23.571  72.639  1.00  0.00     0.012 C 
ATOM     16  C   UNL     1      10.613  29.158  74.226  1.00  0.00     0.039 C 
ENDROOT
TORSDOF 0
ENDMDL
MODEL 5
REMARK VINA RESULT:    -5.541      5.218      8.139
REMARK INTER + INTRA:          -5.541
REMARK INTER:                  -5.541
REMARK INTRA:                   0.000
REMARK UNBOUND:                 0.000
REMARK SMILES C=C1CCC[C@]2(C)CC(=O)C(=C(C)C)C[C@@H]12
REMARK SMILES IDX 13 1 12 2 11 3 15 4 16 5 2 6 1 7 3 8 4 9 5 10 6 11 8 12 9 13
REMARK SMILES IDX 10 14 7 15 14 16
REMARK H PARENT
REMARK Flexibility Score: inf
ROOT
ATOM      1  C   UNL     1       8.753  35.453  70.225  1.00  0.00     0.039 C 
ATOM      2  C   UNL     1       9.768  35.532  71.343  1.00  0.00    -0.070 C 
ATOM      3  C   UNL     1      10.249  34.403  71.945  1.00  0.00    -0.006 C 
ATOM      4  C   UNL     1       9.762  33.021  71.530  1.00  0.00     0.047 C 
ATOM      5  C   UNL     1       9.788  32.002  72.696  1.00  0.00     0.025 C 
ATOM      6  C   UNL     1       9.348  30.584  72.329  1.00  0.00    -0.073 C 
ATOM      7  C   UNL     1       8.970  30.208  71.092  1.00  0.00     0.008 C 
ATOM      8  C   UNL     1       9.307  29.584  73.461  1.00  0.00     0.031 C 
ATOM      9  C   UNL     1      10.650  29.555  74.196  1.00  0.00     0.005 C 
ATOM     10  C   UNL     1      11.096  30.965  74.618  1.00  0.00     0.008 C 
ATOM     11  C   UNL     1      11.169  31.966  73.424  1.00  0.00    -0.018 C 
ATOM     12  C   UNL     1      11.464  33.374  73.995  1.00  0.00     0.088 C 
ATOM     13  C   UNL     1      11.354  34.444  72.946  1.00  0.00     0.159 C 
ATOM     14  O   UNL     1      12.221  35.359  72.927  1.00  0.00    -0.295 OA
ATOM     15  C   UNL     1      12.317  31.549  72.464  1.00  0.00     0.012 C 
ATOM     16  C   UNL     1      10.195  36.913  71.783  1.00  0.00     0.039 C 
ENDROOT
TORSDOF 0
ENDMDL
MODEL 6
REMARK VINA RESULT:    -5.378      1.762      5.894
REMARK INTER + INTRA:          -5.378
REMARK INTER:                  -5.378
REMARK INTRA:                   0.000
REMARK UNBOUND:                 0.000
REMARK SMILES C=C1CCC[C@]2(C)CC(=O)C(=C(C)C)C[C@@H]12
REMARK SMILES IDX 13 1 12 2 11 3 15 4 16 5 2 6 1 7 3 8 4 9 5 10 6 11 8 12 9 13
REMARK SMILES IDX 10 14 7 15 14 16
REMARK H PARENT
REMARK Flexibility Score: inf
ROOT
ATOM      1  C   UNL     1       9.055  27.493  73.042  1.00  0.00     0.039 C 
ATOM      2  C   UNL     1       9.218  26.001  73.223  1.00  0.00    -0.070 C 
ATOM      3  C   UNL     1       8.391  25.116  72.590  1.00  0.00    -0.006 C 
ATOM      4  C   UNL     1       7.256  25.599  71.696  1.00  0.00     0.047 C 
ATOM      5  C   UNL     1       6.048  24.630  71.683  1.00  0.00     0.025 C 
ATOM      6  C   UNL     1       4.894  25.042  70.769  1.00  0.00    -0.073 C 
ATOM      7  C   UNL     1       4.894  26.154  70.008  1.00  0.00     0.008 C 
ATOM      8  C   UNL     1       3.678  24.145  70.783  1.00  0.00     0.031 C 
ATOM      9  C   UNL     1       4.084  22.694  70.511  1.00  0.00     0.005 C 
ATOM     10  C   UNL     1       5.215  22.236  71.447  1.00  0.00     0.008 C 
ATOM     11  C   UNL     1       6.472  23.157  71.383  1.00  0.00    -0.018 C 
ATOM     12  C   UNL     1       7.463  22.695  72.479  1.00  0.00     0.088 C 
ATOM     13  C   UNL     1       8.618  23.642  72.634  1.00  0.00     0.159 C 
ATOM     14  O   UNL     1       9.774  23.163  72.786  1.00  0.00    -0.295 OA
ATOM     15  C   UNL     1       7.146  23.022  69.990  1.00  0.00     0.012 C 
ATOM     16  C   UNL     1      10.310  25.540  74.160  1.00  0.00     0.039 C 
ENDROOT
TORSDOF 0
ENDMDL
MODEL 7
REMARK VINA RESULT:    -5.257     10.339     12.604
REMARK INTER + INTRA:          -5.257
REMARK INTER:                  -5.257
REMARK INTRA:                   0.000
REMARK UNBOUND:                 0.000
REMARK SMILES C=C1CCC[C@]2(C)CC(=O)C(=C(C)C)C[C@@H]12
REMARK SMILES IDX 13 1 12 2 11 3 15 4 16 5 2 6 1 7 3 8 4 9 5 10 6 11 8 12 9 13
REMARK SMILES IDX 10 14 7 15 14 16
REMARK H PARENT
REMARK Flexibility Score: inf
ROOT
ATOM      1  C   UNL     1      12.021  38.550  71.732  1.00  0.00     0.039 C 
ATOM      2  C   UNL     1      11.037  37.404  71.795  1.00  0.00    -0.070 C 
ATOM      3  C   UNL     1      10.168  37.158  70.770  1.00  0.00    -0.006 C 
ATOM      4  C   UNL     1      10.140  38.044  69.531  1.00  0.00     0.047 C 
ATOM      5  C   UNL     1       8.736  38.125  68.883  1.00  0.00     0.025 C 
ATOM      6  C   UNL     1       8.656  38.968  67.610  1.00  0.00    -0.073 C 
ATOM      7  C   UNL     1       9.709  39.601  67.056  1.00  0.00     0.008 C 
ATOM      8  C   UNL     1       7.286  39.113  66.990  1.00  0.00     0.031 C 
ATOM      9  C   UNL     1       6.656  37.736  66.761  1.00  0.00     0.005 C 
ATOM     10  C   UNL     1       6.683  36.881  68.039  1.00  0.00     0.008 C 
ATOM     11  C   UNL     1       8.114  36.715  68.634  1.00  0.00    -0.018 C 
ATOM     12  C   UNL     1       7.988  35.983  69.993  1.00  0.00     0.088 C 
ATOM     13  C   UNL     1       9.290  35.953  70.742  1.00  0.00     0.159 C 
ATOM     14  O   UNL     1       9.622  34.887  71.328  1.00  0.00    -0.295 OA
ATOM     15  C   UNL     1       8.983  35.862  67.669  1.00  0.00     0.012 C 
ATOM     16  C   UNL     1      11.035  36.572  73.057  1.00  0.00     0.039 C 
ENDROOT
TORSDOF 0
ENDMDL
MODEL 8
REMARK VINA RESULT:    -5.096      5.852      7.371
REMARK INTER + INTRA:          -5.096
REMARK INTER:                  -5.096
REMARK INTRA:                   0.000
REMARK UNBOUND:                 0.000
REMARK SMILES C=C1CCC[C@]2(C)CC(=O)C(=C(C)C)C[C@@H]12
REMARK SMILES IDX 13 1 12 2 11 3 15 4 16 5 2 6 1 7 3 8 4 9 5 10 6 11 8 12 9 13
REMARK SMILES IDX 10 14 7 15 14 16
REMARK H PARENT
REMARK Flexibility Score: inf
ROOT
ATOM      1  C   UNL     1       4.243  27.201  66.215  1.00  0.00     0.039 C 
ATOM      2  C   UNL     1       5.372  26.196  66.209  1.00  0.00    -0.070 C 
ATOM      3  C   UNL     1       5.529  25.299  67.229  1.00  0.00    -0.006 C 
ATOM      4  C   UNL     1       4.585  25.293  68.424  1.00  0.00     0.047 C 
ATOM      5  C   UNL     1       5.272  24.815  69.728  1.00  0.00     0.025 C 
ATOM      6  C   UNL     1       4.361  24.748  70.954  1.00  0.00    -0.073 C 
ATOM      7  C   UNL     1       3.052  25.063  70.940  1.00  0.00     0.008 C 
ATOM      8  C   UNL     1       5.019  24.342  72.252  1.00  0.00     0.031 C 
ATOM      9  C   UNL     1       5.777  23.023  72.076  1.00  0.00     0.005 C 
ATOM     10  C   UNL     1       6.735  23.076  70.873  1.00  0.00     0.008 C 
ATOM     11  C   UNL     1       6.023  23.459  69.541  1.00  0.00    -0.018 C 
ATOM     12  C   UNL     1       7.107  23.640  68.451  1.00  0.00     0.088 C 
ATOM     13  C   UNL     1       6.542  24.206  67.179  1.00  0.00     0.159 C 
ATOM     14  O   UNL     1       6.934  23.726  66.081  1.00  0.00    -0.295 OA
ATOM     15  C   UNL     1       5.057  22.317  69.120  1.00  0.00     0.012 C 
ATOM     16  C   UNL     1       6.335  26.255  65.046  1.00  0.00     0.039 C 
ENDROOT
TORSDOF 0
ENDMDL
MODEL 9
REMARK VINA RESULT:    -5.046     10.784     11.477
REMARK INTER + INTRA:          -5.046
REMARK INTER:                  -5.046
REMARK INTRA:                   0.000
REMARK UNBOUND:                 0.000
REMARK SMILES C=C1CCC[C@]2(C)CC(=O)C(=C(C)C)C[C@@H]12
REMARK SMILES IDX 13 1 12 2 11 3 15 4 16 5 2 6 1 7 3 8 4 9 5 10 6 11 8 12 9 13
REMARK SMILES IDX 10 14 7 15 14 16
REMARK H PARENT
REMARK Flexibility Score: inf
ROOT
ATOM      1  C   UNL     1       3.762  31.679  66.263  1.00  0.00     0.039 C 
ATOM      2  C   UNL     1       3.241  32.617  67.330  1.00  0.00    -0.070 C 
ATOM      3  C   UNL     1       3.929  33.744  67.679  1.00  0.00    -0.006 C 
ATOM      4  C   UNL     1       5.261  34.090  67.025  1.00  0.00     0.047 C 
ATOM      5  C   UNL     1       6.207  34.874  67.968  1.00  0.00     0.025 C 
ATOM      6  C   UNL     1       7.544  35.285  67.351  1.00  0.00    -0.073 C 
ATOM      7  C   UNL     1       7.905  35.013  66.082  1.00  0.00     0.008 C 
ATOM      8  C   UNL     1       8.510  35.999  68.267  1.00  0.00     0.031 C 
ATOM      9  C   UNL     1       7.830  37.204  68.923  1.00  0.00     0.005 C 
ATOM     10  C   UNL     1       6.501  36.812  69.591  1.00  0.00     0.008 C 
ATOM     11  C   UNL     1       5.509  36.113  68.614  1.00  0.00    -0.018 C 
ATOM     12  C   UNL     1       4.291  35.622  69.434  1.00  0.00     0.088 C 
ATOM     13  C   UNL     1       3.370  34.758  68.620  1.00  0.00     0.159 C 
ATOM     14  O   UNL     1       2.127  34.923  68.741  1.00  0.00    -0.295 OA
ATOM     15  C   UNL     1       5.030  37.130  67.542  1.00  0.00     0.012 C 
ATOM     16  C   UNL     1       1.950  32.228  68.011  1.00  0.00     0.039 C 
ENDROOT
TORSDOF 0
ENDMDL
