MODEL 1
REMARK VINA RESULT:    -5.139      0.000      0.000
REMARK INTER + INTRA:          -6.333
REMARK INTER:                  -6.040
REMARK INTRA:                  -0.293
REMARK UNBOUND:                -0.293
REMARK SMILES O=c1cc(-c2ccc(O)c(O)c2)oc2cc(O)cc(O)c12
REMARK SMILES IDX 4 1 3 2 2 3 1 4 21 5 19 6 18 7 16 8 15 9 14 10 13 11 5 12
REMARK SMILES IDX 6 13 7 14 8 15 12 16 10 17 9 18 11 20 20 22 17 24
REMARK H PARENT 9 19 11 21 20 23 17 25
REMARK Flexibility Score: inf
ROOT
ATOM      1  C   UNL     1       6.729   1.595 -11.394  1.00  0.00     0.138 A 
ATOM      2  C   UNL     1       6.177   0.794 -12.404  1.00  0.00     0.100 A 
ATOM      3  C   UNL     1       6.484   1.059 -13.739  1.00  0.00     0.197 A 
ATOM      4  O   UNL     1       6.025   0.286 -14.619  1.00  0.00    -0.289 OA
ATOM      5  C   UNL     1       7.323   2.151 -14.065  1.00  0.00     0.107 A 
ATOM      6  C   UNL     1       7.672   2.540 -15.393  1.00  0.00     0.134 A 
ATOM      7  C   UNL     1       8.604   3.568 -15.589  1.00  0.00     0.093 A 
ATOM      8  C   UNL     1       9.153   4.258 -14.509  1.00  0.00     0.123 A 
ATOM      9  C   UNL     1       8.778   3.922 -13.208  1.00  0.00     0.094 A 
ATOM     10  C   UNL     1       7.877   2.879 -12.978  1.00  0.00     0.146 A 
ATOM     11  O   UNL     1       7.557   2.580 -11.724  1.00  0.00    -0.456 OA
ENDROOT
BRANCH   1  12
ATOM     12  C   UNL     1       6.434   1.358  -9.958  1.00  0.00     0.021 A 
ATOM     13  C   UNL     1       6.787   2.295  -8.967  1.00  0.00     0.016 A 
ATOM     14  C   UNL     1       6.507   2.042  -7.621  1.00  0.00     0.051 A 
ATOM     15  C   UNL     1       5.880   0.853  -7.240  1.00  0.00     0.157 A 
ATOM     16  C   UNL     1       5.816   0.158  -9.566  1.00  0.00     0.062 A 
ATOM     17  C   UNL     1       5.533  -0.096  -8.215  1.00  0.00     0.158 A 
BRANCH  15  18
ATOM     18  O   UNL     1       5.613   0.630  -5.890  1.00  0.00    -0.504 OA
ATOM     19  H   UNL     1       5.723  -0.281  -5.462  1.00  0.00     0.293 HD
ENDBRANCH  15  18
BRANCH  17  20
ATOM     20  O   UNL     1       4.910  -1.285  -7.842  1.00  0.00    -0.504 OA
ATOM     21  H   UNL     1       4.094  -1.634  -8.332  1.00  0.00     0.293 HD
ENDBRANCH  17  20
ENDBRANCH   1  12
BRANCH   6  22
ATOM     22  O   UNL     1       7.118   1.973 -16.545  1.00  0.00    -0.507 OA
ATOM     23  H   UNL     1       7.230   2.337 -17.478  1.00  0.00     0.293 HD
ENDBRANCH   6  22
BRANCH   8  24
ATOM     24  O   UNL     1      10.066   5.284 -14.743  1.00  0.00    -0.508 OA
ATOM     25  H   UNL     1      11.043   5.091 -14.932  1.00  0.00     0.293 HD
ENDBRANCH   8  24
TORSDOF 5
ENDMDL
MODEL 2
REMARK VINA RESULT:    -5.080      5.952      8.392
REMARK INTER + INTRA:          -6.264
REMARK INTER:                  -5.947
REMARK INTRA:                  -0.317
REMARK UNBOUND:                -0.293
REMARK SMILES O=c1cc(-c2ccc(O)c(O)c2)oc2cc(O)cc(O)c12
REMARK SMILES IDX 4 1 3 2 2 3 1 4 21 5 19 6 18 7 16 8 15 9 14 10 13 11 5 12
REMARK SMILES IDX 6 13 7 14 8 15 12 16 10 17 9 18 11 20 20 22 17 24
REMARK H PARENT 9 19 11 21 20 23 17 25
REMARK Flexibility Score: inf
ROOT
ATOM      1  C   UNL     1       4.382   4.806  -6.674  1.00  0.00     0.138 A 
ATOM      2  C   UNL     1       3.057   5.180  -6.413  1.00  0.00     0.100 A 
ATOM      3  C   UNL     1       2.032   4.246  -6.570  1.00  0.00     0.197 A 
ATOM      4  O   UNL     1       0.861   4.594  -6.269  1.00  0.00    -0.289 OA
ATOM      5  C   UNL     1       2.334   2.939  -7.021  1.00  0.00     0.107 A 
ATOM      6  C   UNL     1       1.367   1.916  -7.255  1.00  0.00     0.134 A 
ATOM      7  C   UNL     1       1.796   0.625  -7.588  1.00  0.00     0.093 A 
ATOM      8  C   UNL     1       3.150   0.335  -7.754  1.00  0.00     0.123 A 
ATOM      9  C   UNL     1       4.100   1.341  -7.580  1.00  0.00     0.094 A 
ATOM     10  C   UNL     1       3.708   2.631  -7.213  1.00  0.00     0.146 A 
ATOM     11  O   UNL     1       4.645   3.556  -7.043  1.00  0.00    -0.456 OA
ENDROOT
BRANCH   1  12
ATOM     12  C   UNL     1       5.511   5.760  -6.525  1.00  0.00     0.021 A 
ATOM     13  C   UNL     1       5.323   7.050  -5.995  1.00  0.00     0.016 A 
ATOM     14  C   UNL     1       6.400   7.932  -5.875  1.00  0.00     0.051 A 
ATOM     15  C   UNL     1       7.679   7.546  -6.288  1.00  0.00     0.157 A 
ATOM     16  C   UNL     1       6.797   5.383  -6.951  1.00  0.00     0.062 A 
ATOM     17  C   UNL     1       7.880   6.267  -6.830  1.00  0.00     0.158 A 
BRANCH  15  18
ATOM     18  O   UNL     1       8.735   8.447  -6.155  1.00  0.00    -0.504 OA
ATOM     19  H   UNL     1       9.676   8.145  -5.935  1.00  0.00     0.293 HD
ENDBRANCH  15  18
BRANCH  17  20
ATOM     20  O   UNL     1       9.151   5.876  -7.247  1.00  0.00    -0.504 OA
ATOM     21  H   UNL     1       9.492   4.933  -7.102  1.00  0.00     0.293 HD
ENDBRANCH  17  20
ENDBRANCH   1  12
BRANCH   6  22
ATOM     22  O   UNL     1      -0.015   2.120  -7.199  1.00  0.00    -0.507 OA
ATOM     23  H   UNL     1      -0.497   2.602  -6.456  1.00  0.00     0.293 HD
ENDBRANCH   6  22
BRANCH   8  24
ATOM     24  O   UNL     1       3.537  -0.958  -8.100  1.00  0.00    -0.508 OA
ATOM     25  H   UNL     1       3.295  -1.361  -8.998  1.00  0.00     0.293 HD
ENDBRANCH   8  24
TORSDOF 5
ENDMDL
MODEL 3
REMARK VINA RESULT:    -5.061     11.152     14.313
REMARK INTER + INTRA:          -6.241
REMARK INTER:                  -5.924
REMARK INTRA:                  -0.317
REMARK UNBOUND:                -0.293
REMARK SMILES O=c1cc(-c2ccc(O)c(O)c2)oc2cc(O)cc(O)c12
REMARK SMILES IDX 4 1 3 2 2 3 1 4 21 5 19 6 18 7 16 8 15 9 14 10 13 11 5 12
REMARK SMILES IDX 6 13 7 14 8 15 12 16 10 17 9 18 11 20 20 22 17 24
REMARK H PARENT 9 19 11 21 20 23 17 25
REMARK Flexibility Score: inf
ROOT
ATOM      1  C   UNL     1      -4.341  -4.810  -6.674  1.00  0.00     0.138 A 
ATOM      2  C   UNL     1      -3.009  -5.141  -6.388  1.00  0.00     0.100 A 
ATOM      3  C   UNL     1      -2.011  -4.178  -6.542  1.00  0.00     0.197 A 
ATOM      4  O   UNL     1      -0.835  -4.485  -6.219  1.00  0.00    -0.289 OA
ATOM      5  C   UNL     1      -2.346  -2.886  -7.013  1.00  0.00     0.107 A 
ATOM      6  C   UNL     1      -1.407  -1.837  -7.245  1.00  0.00     0.134 A 
ATOM      7  C   UNL     1      -1.869  -0.563  -7.601  1.00  0.00     0.093 A 
ATOM      8  C   UNL     1      -3.229  -0.317  -7.790  1.00  0.00     0.123 A 
ATOM      9  C   UNL     1      -4.151  -1.349  -7.618  1.00  0.00     0.094 A 
ATOM     10  C   UNL     1      -3.725  -2.622  -7.230  1.00  0.00     0.146 A 
ATOM     11  O   UNL     1      -4.636  -3.574  -7.062  1.00  0.00    -0.456 OA
ENDROOT
BRANCH   1  12
ATOM     12  C   UNL     1      -5.442  -5.796  -6.530  1.00  0.00     0.021 A 
ATOM     13  C   UNL     1      -5.221  -7.078  -5.990  1.00  0.00     0.016 A 
ATOM     14  C   UNL     1      -6.273  -7.990  -5.875  1.00  0.00     0.051 A 
ATOM     15  C   UNL     1      -7.559  -7.645  -6.303  1.00  0.00     0.157 A 
ATOM     16  C   UNL     1      -6.735  -5.461  -6.969  1.00  0.00     0.062 A 
ATOM     17  C   UNL     1      -7.792  -6.375  -6.854  1.00  0.00     0.158 A 
BRANCH  15  18
ATOM     18  O   UNL     1      -8.588  -8.576  -6.174  1.00  0.00    -0.504 OA
ATOM     19  H   UNL     1      -9.296  -8.501  -5.454  1.00  0.00     0.293 HD
ENDBRANCH  15  18
BRANCH  17  20
ATOM     20  O   UNL     1      -9.071  -6.025  -7.285  1.00  0.00    -0.504 OA
ATOM     21  H   UNL     1      -9.735  -5.576  -6.665  1.00  0.00     0.293 HD
ENDBRANCH  17  20
ENDBRANCH   1  12
BRANCH   6  22
ATOM     22  O   UNL     1      -0.020  -1.998  -7.166  1.00  0.00    -0.507 OA
ATOM     23  H   UNL     1       0.643  -1.244  -7.069  1.00  0.00     0.293 HD
ENDBRANCH   6  22
BRANCH   8  24
ATOM     24  O   UNL     1      -3.650   0.959  -8.158  1.00  0.00    -0.508 OA
ATOM     25  H   UNL     1      -4.024   1.610  -7.478  1.00  0.00     0.293 HD
ENDBRANCH   8  24
TORSDOF 5
ENDMDL
MODEL 4
REMARK VINA RESULT:    -5.033     13.020     14.851
REMARK INTER + INTRA:          -6.208
REMARK INTER:                  -5.914
REMARK INTRA:                  -0.294
REMARK UNBOUND:                -0.293
REMARK SMILES O=c1cc(-c2ccc(O)c(O)c2)oc2cc(O)cc(O)c12
REMARK SMILES IDX 4 1 3 2 2 3 1 4 21 5 19 6 18 7 16 8 15 9 14 10 13 11 5 12
REMARK SMILES IDX 6 13 7 14 8 15 12 16 10 17 9 18 11 20 20 22 17 24
REMARK H PARENT 9 19 11 21 20 23 17 25
REMARK Flexibility Score: inf
ROOT
ATOM      1  C   UNL     1      -6.484  -1.660 -11.291  1.00  0.00     0.138 A 
ATOM      2  C   UNL     1      -5.977  -0.916 -12.366  1.00  0.00     0.100 A 
ATOM      3  C   UNL     1      -6.312  -1.275 -13.672  1.00  0.00     0.197 A 
ATOM      4  O   UNL     1      -5.893  -0.551 -14.612  1.00  0.00    -0.289 OA
ATOM      5  C   UNL     1      -7.133  -2.404 -13.904  1.00  0.00     0.107 A 
ATOM      6  C   UNL     1      -7.506  -2.887 -15.194  1.00  0.00     0.134 A 
ATOM      7  C   UNL     1      -8.418  -3.945 -15.297  1.00  0.00     0.093 A 
ATOM      8  C   UNL     1      -8.924  -4.574 -14.160  1.00  0.00     0.123 A 
ATOM      9  C   UNL     1      -8.524  -4.145 -12.894  1.00  0.00     0.094 A 
ATOM     10  C   UNL     1      -7.642  -3.070 -12.757  1.00  0.00     0.146 A 
ATOM     11  O   UNL     1      -7.298  -2.683 -11.534  1.00  0.00    -0.456 OA
ENDROOT
BRANCH   1  12
ATOM     12  C   UNL     1      -6.160  -1.324  -9.882  1.00  0.00     0.021 A 
ATOM     13  C   UNL     1      -6.709  -2.044  -8.804  1.00  0.00     0.016 A 
ATOM     14  C   UNL     1      -6.394  -1.700  -7.487  1.00  0.00     0.051 A 
ATOM     15  C   UNL     1      -5.535  -0.629  -7.221  1.00  0.00     0.157 A 
ATOM     16  C   UNL     1      -5.307  -0.240  -9.607  1.00  0.00     0.062 A 
ATOM     17  C   UNL     1      -4.989   0.106  -8.286  1.00  0.00     0.158 A 
BRANCH  15  18
ATOM     18  O   UNL     1      -5.239  -0.310  -5.897  1.00  0.00    -0.504 OA
ATOM     19  H   UNL     1      -4.377   0.151  -5.634  1.00  0.00     0.293 HD
ENDBRANCH  15  18
BRANCH  17  20
ATOM     20  O   UNL     1      -4.134   1.177  -8.028  1.00  0.00    -0.504 OA
ATOM     21  H   UNL     1      -3.303   1.068  -7.458  1.00  0.00     0.293 HD
ENDBRANCH  17  20
ENDBRANCH   1  12
BRANCH   6  22
ATOM     22  O   UNL     1      -6.994  -2.385 -16.394  1.00  0.00    -0.507 OA
ATOM     23  H   UNL     1      -7.524  -2.274 -17.245  1.00  0.00     0.293 HD
ENDBRANCH   6  22
BRANCH   8  24
ATOM     24  O   UNL     1      -9.818  -5.633 -14.302  1.00  0.00    -0.508 OA
ATOM     25  H   UNL     1     -10.820  -5.481 -14.319  1.00  0.00     0.293 HD
ENDBRANCH   8  24
TORSDOF 5
ENDMDL
MODEL 5
REMARK VINA RESULT:    -5.009      2.290      6.877
REMARK INTER + INTRA:          -6.180
REMARK INTER:                  -5.918
REMARK INTRA:                  -0.262
REMARK UNBOUND:                -0.293
REMARK SMILES O=c1cc(-c2ccc(O)c(O)c2)oc2cc(O)cc(O)c12
REMARK SMILES IDX 4 1 3 2 2 3 1 4 21 5 19 6 18 7 16 8 15 9 14 10 13 11 5 12
REMARK SMILES IDX 6 13 7 14 8 15 12 16 10 17 9 18 11 20 20 22 17 24
REMARK H PARENT 9 19 11 21 20 23 17 25
REMARK Flexibility Score: inf
ROOT
ATOM      1  C   UNL     1       6.387   0.936 -12.453  1.00  0.00     0.138 A 
ATOM      2  C   UNL     1       6.754   2.289 -12.459  1.00  0.00     0.100 A 
ATOM      3  C   UNL     1       6.885   2.974 -11.251  1.00  0.00     0.197 A 
ATOM      4  O   UNL     1       7.276   4.169 -11.285  1.00  0.00    -0.289 OA
ATOM      5  C   UNL     1       6.618   2.308 -10.031  1.00  0.00     0.107 A 
ATOM      6  C   UNL     1       6.680   2.916  -8.742  1.00  0.00     0.134 A 
ATOM      7  C   UNL     1       6.508   2.126  -7.598  1.00  0.00     0.093 A 
ATOM      8  C   UNL     1       6.216   0.766  -7.698  1.00  0.00     0.123 A 
ATOM      9  C   UNL     1       6.100   0.173  -8.955  1.00  0.00     0.094 A 
ATOM     10  C   UNL     1       6.300   0.925 -10.115  1.00  0.00     0.146 A 
ATOM     11  O   UNL     1       6.194   0.319 -11.292  1.00  0.00    -0.456 OA
ENDROOT
BRANCH   1  12
ATOM     12  C   UNL     1       6.231   0.160 -13.710  1.00  0.00     0.021 A 
ATOM     13  C   UNL     1       4.963  -0.111 -14.259  1.00  0.00     0.016 A 
ATOM     14  C   UNL     1       4.844  -0.852 -15.437  1.00  0.00     0.051 A 
ATOM     15  C   UNL     1       5.983  -1.342 -16.083  1.00  0.00     0.157 A 
ATOM     16  C   UNL     1       7.371  -0.347 -14.357  1.00  0.00     0.062 A 
ATOM     17  C   UNL     1       7.254  -1.090 -15.541  1.00  0.00     0.158 A 
BRANCH  15  18
ATOM     18  O   UNL     1       5.833  -2.078 -17.258  1.00  0.00    -0.504 OA
ATOM     19  H   UNL     1       5.332  -1.715 -18.060  1.00  0.00     0.293 HD
ENDBRANCH  15  18
BRANCH  17  20
ATOM     20  O   UNL     1       8.394  -1.578 -16.177  1.00  0.00    -0.504 OA
ATOM     21  H   UNL     1       8.697  -1.217 -17.075  1.00  0.00     0.293 HD
ENDBRANCH  17  20
ENDBRANCH   1  12
BRANCH   6  22
ATOM     22  O   UNL     1       6.882   4.283  -8.532  1.00  0.00    -0.507 OA
ATOM     23  H   UNL     1       6.164   4.936  -8.257  1.00  0.00     0.293 HD
ENDBRANCH   6  22
BRANCH   8  24
ATOM     24  O   UNL     1       6.037   0.015  -6.538  1.00  0.00    -0.508 OA
ATOM     25  H   UNL     1       6.644   0.129  -5.734  1.00  0.00     0.293 HD
ENDBRANCH   8  24
TORSDOF 5
ENDMDL
MODEL 6
REMARK VINA RESULT:    -4.962     12.580     15.149
REMARK INTER + INTRA:          -6.125
REMARK INTER:                  -5.862
REMARK INTRA:                  -0.264
REMARK UNBOUND:                -0.293
REMARK SMILES O=c1cc(-c2ccc(O)c(O)c2)oc2cc(O)cc(O)c12
REMARK SMILES IDX 4 1 3 2 2 3 1 4 21 5 19 6 18 7 16 8 15 9 14 10 13 11 5 12
REMARK SMILES IDX 6 13 7 14 8 15 12 16 10 17 9 18 11 20 20 22 17 24
REMARK H PARENT 9 19 11 21 20 23 17 25
REMARK Flexibility Score: inf
ROOT
ATOM      1  C   UNL     1      -6.146  -0.942 -12.594  1.00  0.00     0.138 A 
ATOM      2  C   UNL     1      -6.443  -2.309 -12.683  1.00  0.00     0.100 A 
ATOM      3  C   UNL     1      -6.592  -3.060 -11.516  1.00  0.00     0.197 A 
ATOM      4  O   UNL     1      -6.920  -4.270 -11.627  1.00  0.00    -0.289 OA
ATOM      5  C   UNL     1      -6.411  -2.445 -10.255  1.00  0.00     0.107 A 
ATOM      6  C   UNL     1      -6.499  -3.120  -9.001  1.00  0.00     0.134 A 
ATOM      7  C   UNL     1      -6.416  -2.383  -7.813  1.00  0.00     0.093 A 
ATOM      8  C   UNL     1      -6.190  -1.007  -7.833  1.00  0.00     0.123 A 
ATOM      9  C   UNL     1      -6.050  -0.345  -9.053  1.00  0.00     0.094 A 
ATOM     10  C   UNL     1      -6.161  -1.046 -10.256  1.00  0.00     0.146 A 
ATOM     11  O   UNL     1      -6.036  -0.376 -11.396  1.00  0.00    -0.456 OA
ENDROOT
BRANCH   1  12
ATOM     12  C   UNL     1      -5.976  -0.096 -13.803  1.00  0.00     0.021 A 
ATOM     13  C   UNL     1      -4.705   0.330 -14.233  1.00  0.00     0.016 A 
ATOM     14  C   UNL     1      -4.574   1.134 -15.369  1.00  0.00     0.051 A 
ATOM     15  C   UNL     1      -5.704   1.534 -16.088  1.00  0.00     0.157 A 
ATOM     16  C   UNL     1      -7.110   0.320 -14.522  1.00  0.00     0.062 A 
ATOM     17  C   UNL     1      -6.980   1.127 -15.663  1.00  0.00     0.158 A 
BRANCH  15  18
ATOM     18  O   UNL     1      -5.542   2.335 -17.217  1.00  0.00    -0.504 OA
ATOM     19  H   UNL     1      -6.297   2.506 -17.869  1.00  0.00     0.293 HD
ENDBRANCH  15  18
BRANCH  17  20
ATOM     20  O   UNL     1      -8.112   1.523 -16.373  1.00  0.00    -0.504 OA
ATOM     21  H   UNL     1      -8.235   2.480 -16.685  1.00  0.00     0.293 HD
ENDBRANCH  17  20
ENDBRANCH   1  12
BRANCH   6  22
ATOM     22  O   UNL     1      -6.639  -4.505  -8.868  1.00  0.00    -0.507 OA
ATOM     23  H   UNL     1      -6.045  -5.190  -9.310  1.00  0.00     0.293 HD
ENDBRANCH   6  22
BRANCH   8  24
ATOM     24  O   UNL     1      -6.099  -0.309  -6.631  1.00  0.00    -0.508 OA
ATOM     25  H   UNL     1      -5.505   0.506  -6.535  1.00  0.00     0.293 HD
ENDBRANCH   8  24
TORSDOF 5
ENDMDL
MODEL 7
REMARK VINA RESULT:    -4.952      6.878     10.080
REMARK INTER + INTRA:          -6.113
REMARK INTER:                  -5.825
REMARK INTRA:                  -0.288
REMARK UNBOUND:                -0.293
REMARK SMILES O=c1cc(-c2ccc(O)c(O)c2)oc2cc(O)cc(O)c12
REMARK SMILES IDX 4 1 3 2 2 3 1 4 21 5 19 6 18 7 16 8 15 9 14 10 13 11 5 12
REMARK SMILES IDX 6 13 7 14 8 15 12 16 10 17 9 18 11 20 20 22 17 24
REMARK H PARENT 9 19 11 21 20 23 17 25
REMARK Flexibility Score: inf
ROOT
ATOM      1  C   UNL     1       0.057  -0.061  -8.162  1.00  0.00     0.138 A 
ATOM      2  C   UNL     1      -0.164  -0.210  -9.539  1.00  0.00     0.100 A 
ATOM      3  C   UNL     1      -1.469  -0.307 -10.022  1.00  0.00     0.197 A 
ATOM      4  O   UNL     1      -1.638  -0.377 -11.267  1.00  0.00    -0.289 OA
ATOM      5  C   UNL     1      -2.557  -0.287  -9.118  1.00  0.00     0.107 A 
ATOM      6  C   UNL     1      -3.928  -0.419  -9.492  1.00  0.00     0.134 A 
ATOM      7  C   UNL     1      -4.926  -0.268  -8.522  1.00  0.00     0.093 A 
ATOM      8  C   UNL     1      -4.603  -0.048  -7.183  1.00  0.00     0.123 A 
ATOM      9  C   UNL     1      -3.265   0.029  -6.797  1.00  0.00     0.094 A 
ATOM     10  C   UNL     1      -2.246  -0.084  -7.747  1.00  0.00     0.146 A 
ATOM     11  O   UNL     1      -0.985   0.010  -7.340  1.00  0.00    -0.456 OA
ENDROOT
BRANCH   1  12
ATOM     12  C   UNL     1       1.425   0.045  -7.594  1.00  0.00     0.021 A 
ATOM     13  C   UNL     1       1.672   0.718  -6.382  1.00  0.00     0.016 A 
ATOM     14  C   UNL     1       2.971   0.812  -5.875  1.00  0.00     0.051 A 
ATOM     15  C   UNL     1       4.044   0.246  -6.569  1.00  0.00     0.157 A 
ATOM     16  C   UNL     1       2.511  -0.509  -8.294  1.00  0.00     0.062 A 
ATOM     17  C   UNL     1       3.815  -0.417  -7.786  1.00  0.00     0.158 A 
BRANCH  15  18
ATOM     18  O   UNL     1       5.328   0.356  -6.038  1.00  0.00    -0.504 OA
ATOM     19  H   UNL     1       5.534   0.951  -5.245  1.00  0.00     0.293 HD
ENDBRANCH  15  18
BRANCH  17  20
ATOM     20  O   UNL     1       4.881  -0.981  -8.485  1.00  0.00    -0.504 OA
ATOM     21  H   UNL     1       4.778  -1.304  -9.440  1.00  0.00     0.293 HD
ENDBRANCH  17  20
ENDBRANCH   1  12
BRANCH   6  22
ATOM     22  O   UNL     1      -4.358  -0.722 -10.788  1.00  0.00    -0.507 OA
ATOM     23  H   UNL     1      -3.834  -0.533 -11.628  1.00  0.00     0.293 HD
ENDBRANCH   6  22
BRANCH   8  24
ATOM     24  O   UNL     1      -5.622   0.083  -6.243  1.00  0.00    -0.508 OA
ATOM     25  H   UNL     1      -5.790   0.959  -5.762  1.00  0.00     0.293 HD
ENDBRANCH   8  24
TORSDOF 5
ENDMDL
MODEL 8
REMARK VINA RESULT:    -4.938      6.217      8.639
REMARK INTER + INTRA:          -6.097
REMARK INTER:                  -5.809
REMARK INTRA:                  -0.288
REMARK UNBOUND:                -0.293
REMARK SMILES O=c1cc(-c2ccc(O)c(O)c2)oc2cc(O)cc(O)c12
REMARK SMILES IDX 4 1 3 2 2 3 1 4 21 5 19 6 18 7 16 8 15 9 14 10 13 11 5 12
REMARK SMILES IDX 6 13 7 14 8 15 12 16 10 17 9 18 11 20 20 22 17 24
REMARK H PARENT 9 19 11 21 20 23 17 25
REMARK Flexibility Score: inf
ROOT
ATOM      1  C   UNL     1      -0.052   0.101  -8.164  1.00  0.00     0.138 A 
ATOM      2  C   UNL     1       0.173   0.254  -9.539  1.00  0.00     0.100 A 
ATOM      3  C   UNL     1       1.480   0.346 -10.019  1.00  0.00     0.197 A 
ATOM      4  O   UNL     1       1.652   0.419 -11.263  1.00  0.00    -0.289 OA
ATOM      5  C   UNL     1       2.566   0.315  -9.112  1.00  0.00     0.107 A 
ATOM      6  C   UNL     1       3.938   0.441  -9.482  1.00  0.00     0.134 A 
ATOM      7  C   UNL     1       4.933   0.279  -8.510  1.00  0.00     0.093 A 
ATOM      8  C   UNL     1       4.605   0.056  -7.173  1.00  0.00     0.123 A 
ATOM      9  C   UNL     1       3.265  -0.015  -6.791  1.00  0.00     0.094 A 
ATOM     10  C   UNL     1       2.250   0.108  -7.742  1.00  0.00     0.146 A 
ATOM     11  O   UNL     1       0.987   0.020  -7.339  1.00  0.00    -0.456 OA
ENDROOT
BRANCH   1  12
ATOM     12  C   UNL     1      -1.422   0.000  -7.600  1.00  0.00     0.021 A 
ATOM     13  C   UNL     1      -1.674  -0.663  -6.384  1.00  0.00     0.016 A 
ATOM     14  C   UNL     1      -2.975  -0.751  -5.880  1.00  0.00     0.051 A 
ATOM     15  C   UNL     1      -4.045  -0.190  -6.582  1.00  0.00     0.157 A 
ATOM     16  C   UNL     1      -2.505   0.552  -8.307  1.00  0.00     0.062 A 
ATOM     17  C   UNL     1      -3.811   0.464  -7.803  1.00  0.00     0.158 A 
BRANCH  15  18
ATOM     18  O   UNL     1      -5.331  -0.293  -6.054  1.00  0.00    -0.504 OA
ATOM     19  H   UNL     1      -5.890  -1.132  -6.158  1.00  0.00     0.293 HD
ENDBRANCH  15  18
BRANCH  17  20
ATOM     20  O   UNL     1      -4.874   1.025  -8.510  1.00  0.00    -0.504 OA
ATOM     21  H   UNL     1      -5.108   0.719  -9.447  1.00  0.00     0.293 HD
ENDBRANCH  17  20
ENDBRANCH   1  12
BRANCH   6  22
ATOM     22  O   UNL     1       4.373   0.746 -10.775  1.00  0.00    -0.507 OA
ATOM     23  H   UNL     1       4.878   1.581 -11.031  1.00  0.00     0.293 HD
ENDBRANCH   6  22
BRANCH   8  24
ATOM     24  O   UNL     1       5.621  -0.086  -6.231  1.00  0.00    -0.508 OA
ATOM     25  H   UNL     1       5.960   0.705  -5.694  1.00  0.00     0.293 HD
ENDBRANCH   8  24
TORSDOF 5
ENDMDL
MODEL 9
REMARK VINA RESULT:    -4.930      1.352      3.004
REMARK INTER + INTRA:          -6.088
REMARK INTER:                  -5.770
REMARK INTRA:                  -0.317
REMARK UNBOUND:                -0.293
REMARK SMILES O=c1cc(-c2ccc(O)c(O)c2)oc2cc(O)cc(O)c12
REMARK SMILES IDX 4 1 3 2 2 3 1 4 21 5 19 6 18 7 16 8 15 9 14 10 13 11 5 12
REMARK SMILES IDX 6 13 7 14 8 15 12 16 10 17 9 18 11 20 20 22 17 24
REMARK H PARENT 9 19 11 21 20 23 17 25
REMARK Flexibility Score: inf
ROOT
ATOM      1  C   UNL     1       6.610   1.463 -11.467  1.00  0.00     0.138 A 
ATOM      2  C   UNL     1       7.355   2.538 -11.972  1.00  0.00     0.100 A 
ATOM      3  C   UNL     1       7.548   2.656 -13.349  1.00  0.00     0.197 A 
ATOM      4  O   UNL     1       8.167   3.664 -13.777  1.00  0.00    -0.289 OA
ATOM      5  C   UNL     1       7.019   1.676 -14.221  1.00  0.00     0.107 A 
ATOM      6  C   UNL     1       7.187   1.672 -15.638  1.00  0.00     0.134 A 
ATOM      7  C   UNL     1       6.518   0.713 -16.410  1.00  0.00     0.093 A 
ATOM      8  C   UNL     1       5.737  -0.276 -15.813  1.00  0.00     0.123 A 
ATOM      9  C   UNL     1       5.610  -0.314 -14.424  1.00  0.00     0.094 A 
ATOM     10  C   UNL     1       6.236   0.649 -13.629  1.00  0.00     0.146 A 
ATOM     11  O   UNL     1       6.077   0.586 -12.311  1.00  0.00    -0.456 OA
ENDROOT
BRANCH   1  12
ATOM     12  C   UNL     1       6.375   1.287 -10.011  1.00  0.00     0.021 A 
ATOM     13  C   UNL     1       6.788   2.253  -9.074  1.00  0.00     0.016 A 
ATOM     14  C   UNL     1       6.563   2.058  -7.708  1.00  0.00     0.051 A 
ATOM     15  C   UNL     1       5.932   0.897  -7.254  1.00  0.00     0.157 A 
ATOM     16  C   UNL     1       5.752   0.116  -9.546  1.00  0.00     0.062 A 
ATOM     17  C   UNL     1       5.525  -0.081  -8.176  1.00  0.00     0.158 A 
BRANCH  15  18
ATOM     18  O   UNL     1       5.720   0.731  -5.886  1.00  0.00    -0.504 OA
ATOM     19  H   UNL     1       4.865   0.333  -5.518  1.00  0.00     0.293 HD
ENDBRANCH  15  18
BRANCH  17  20
ATOM     20  O   UNL     1       4.897  -1.243  -7.730  1.00  0.00    -0.504 OA
ATOM     21  H   UNL     1       5.428  -2.062  -7.457  1.00  0.00     0.293 HD
ENDBRANCH  17  20
ENDBRANCH   1  12
BRANCH   6  22
ATOM     22  O   UNL     1       8.012   2.564 -16.329  1.00  0.00    -0.507 OA
ATOM     23  H   UNL     1       8.843   2.993 -15.950  1.00  0.00     0.293 HD
ENDBRANCH   6  22
BRANCH   8  24
ATOM     24  O   UNL     1       5.099  -1.222 -16.612  1.00  0.00    -0.508 OA
ATOM     25  H   UNL     1       4.964  -1.072 -17.605  1.00  0.00     0.293 HD
ENDBRANCH   8  24
TORSDOF 5
ENDMDL
