MODEL 1
REMARK VINA RESULT:    -7.912      0.000      0.000
REMARK INTER + INTRA:          -9.585
REMARK INTER:                  -9.762
REMARK INTRA:                   0.177
REMARK UNBOUND:                 0.177
REMARK SMILES O=c1c(O)c(-c2cc(O)c(O)c(O)c2)oc2cc(O)cc(O)c12
REMARK SMILES IDX 5 1 3 2 2 3 1 4 23 5 21 6 20 7 18 8 17 9 16 10 15 11 6 12
REMARK SMILES IDX 7 13 8 14 14 15 10 16 12 17 9 18 11 20 13 22 4 24 22 26
REMARK SMILES IDX 19 28
REMARK H PARENT 9 19 11 21 13 23 4 25 22 27 19 29
REMARK Flexibility Score: inf
ROOT
ATOM      1  C   UNL     1      15.532  23.245  41.006  1.00  0.00     0.180 A 
ATOM      2  C   UNL     1      14.904  24.438  40.608  1.00  0.00     0.208 A 
ATOM      3  C   UNL     1      13.897  24.981  41.422  1.00  0.00     0.238 A 
ATOM      4  O   UNL     1      13.288  26.007  41.023  1.00  0.00    -0.285 OA
ATOM      5  C   UNL     1      13.569  24.358  42.650  1.00  0.00     0.111 A 
ATOM      6  C   UNL     1      12.597  24.846  43.575  1.00  0.00     0.134 A 
ATOM      7  C   UNL     1      12.280  24.087  44.709  1.00  0.00     0.093 A 
ATOM      8  C   UNL     1      12.946  22.891  44.984  1.00  0.00     0.123 A 
ATOM      9  C   UNL     1      13.934  22.434  44.117  1.00  0.00     0.094 A 
ATOM     10  C   UNL     1      14.246  23.148  42.958  1.00  0.00     0.146 A 
ATOM     11  O   UNL     1      15.180  22.665  42.148  1.00  0.00    -0.452 OA
ENDROOT
BRANCH   1  12
ATOM     12  C   UNL     1      16.592  22.604  40.195  1.00  0.00     0.029 A 
ATOM     13  C   UNL     1      17.547  23.406  39.552  1.00  0.00     0.062 A 
ATOM     14  C   UNL     1      18.574  22.824  38.795  1.00  0.00     0.162 A 
ATOM     15  C   UNL     1      16.699  21.206  40.104  1.00  0.00     0.062 A 
ATOM     16  C   UNL     1      18.661  21.426  38.690  1.00  0.00     0.200 A 
ATOM     17  C   UNL     1      17.724  20.618  39.350  1.00  0.00     0.162 A 
BRANCH  14  18
ATOM     18  O   UNL     1      19.510  23.630  38.148  1.00  0.00    -0.504 OA
ATOM     19  H   UNL     1      19.454  23.813  37.152  1.00  0.00     0.293 HD
ENDBRANCH  14  18
BRANCH  16  20
ATOM     20  O   UNL     1      19.671  20.823  37.942  1.00  0.00    -0.502 OA
ATOM     21  H   UNL     1      19.620  20.746  36.932  1.00  0.00     0.293 HD
ENDBRANCH  16  20
BRANCH  17  22
ATOM     22  O   UNL     1      17.822  19.231  39.256  1.00  0.00    -0.504 OA
ATOM     23  H   UNL     1      18.494  18.707  39.805  1.00  0.00     0.293 HD
ENDBRANCH  17  22
ENDBRANCH   1  12
BRANCH   2  24
ATOM     24  O   UNL     1      15.295  25.079  39.431  1.00  0.00    -0.502 OA
ATOM     25  H   UNL     1      15.194  24.651  38.518  1.00  0.00     0.293 HD
ENDBRANCH   2  24
BRANCH   6  26
ATOM     26  O   UNL     1      11.936  26.071  43.443  1.00  0.00    -0.507 OA
ATOM     27  H   UNL     1      12.330  26.968  43.678  1.00  0.00     0.293 HD
ENDBRANCH   6  26
BRANCH   8  28
ATOM     28  O   UNL     1      12.637  22.151  46.124  1.00  0.00    -0.508 OA
ATOM     29  H   UNL     1      12.857  21.164  46.191  1.00  0.00     0.293 HD
ENDBRANCH   8  28
TORSDOF 7
ENDMDL
MODEL 2
REMARK VINA RESULT:    -7.869      1.783      3.248
REMARK INTER + INTRA:          -9.532
REMARK INTER:                  -9.903
REMARK INTRA:                   0.371
REMARK UNBOUND:                 0.177
REMARK SMILES O=c1c(O)c(-c2cc(O)c(O)c(O)c2)oc2cc(O)cc(O)c12
REMARK SMILES IDX 5 1 3 2 2 3 1 4 23 5 21 6 20 7 18 8 17 9 16 10 15 11 6 12
REMARK SMILES IDX 7 13 8 14 14 15 10 16 12 17 9 18 11 20 13 22 4 24 22 26
REMARK SMILES IDX 19 28
REMARK H PARENT 9 19 11 21 13 23 4 25 22 27 19 29
REMARK Flexibility Score: inf
ROOT
ATOM      1  C   UNL     1      17.634  22.609  40.171  1.00  0.00     0.180 A 
ATOM      2  C   UNL     1      17.339  23.676  39.305  1.00  0.00     0.208 A 
ATOM      3  C   UNL     1      16.184  24.440  39.534  1.00  0.00     0.238 A 
ATOM      4  O   UNL     1      15.887  25.345  38.712  1.00  0.00    -0.285 OA
ATOM      5  C   UNL     1      15.368  24.166  40.659  1.00  0.00     0.111 A 
ATOM      6  C   UNL     1      14.199  24.905  41.014  1.00  0.00     0.134 A 
ATOM      7  C   UNL     1      13.411  24.475  42.089  1.00  0.00     0.093 A 
ATOM      8  C   UNL     1      13.783  23.372  42.860  1.00  0.00     0.123 A 
ATOM      9  C   UNL     1      14.950  22.678  42.555  1.00  0.00     0.094 A 
ATOM     10  C   UNL     1      15.738  23.058  41.466  1.00  0.00     0.146 A 
ATOM     11  O   UNL     1      16.831  22.355  41.199  1.00  0.00    -0.452 OA
ENDROOT
BRANCH   1  12
ATOM     12  C   UNL     1      18.824  21.749  39.986  1.00  0.00     0.029 A 
ATOM     13  C   UNL     1      18.852  20.474  40.571  1.00  0.00     0.062 A 
ATOM     14  C   UNL     1      19.957  19.631  40.394  1.00  0.00     0.162 A 
ATOM     15  C   UNL     1      19.905  22.157  39.185  1.00  0.00     0.062 A 
ATOM     16  C   UNL     1      21.043  20.056  39.610  1.00  0.00     0.200 A 
ATOM     17  C   UNL     1      21.012  21.318  39.003  1.00  0.00     0.162 A 
BRANCH  14  18
ATOM     18  O   UNL     1      19.981  18.371  40.993  1.00  0.00    -0.504 OA
ATOM     19  H   UNL     1      19.441  17.598  40.622  1.00  0.00     0.293 HD
ENDBRANCH  14  18
BRANCH  16  20
ATOM     20  O   UNL     1      22.156  19.237  39.420  1.00  0.00    -0.502 OA
ATOM     21  H   UNL     1      22.845  19.087  40.149  1.00  0.00     0.293 HD
ENDBRANCH  16  20
BRANCH  17  22
ATOM     22  O   UNL     1      22.085  21.730  38.214  1.00  0.00    -0.504 OA
ATOM     23  H   UNL     1      22.903  21.147  38.084  1.00  0.00     0.293 HD
ENDBRANCH  17  22
ENDBRANCH   1  12
BRANCH   2  24
ATOM     24  O   UNL     1      18.198  23.979  38.246  1.00  0.00    -0.502 OA
ATOM     25  H   UNL     1      19.072  24.473  38.379  1.00  0.00     0.293 HD
ENDBRANCH   2  24
BRANCH   6  26
ATOM     26  O   UNL     1      13.784  26.073  40.367  1.00  0.00    -0.507 OA
ATOM     27  H   UNL     1      13.038  26.125  39.690  1.00  0.00     0.293 HD
ENDBRANCH   6  26
BRANCH   8  28
ATOM     28  O   UNL     1      13.001  22.962  43.939  1.00  0.00    -0.508 OA
ATOM     29  H   UNL     1      12.316  22.222  43.846  1.00  0.00     0.293 HD
ENDBRANCH   8  28
TORSDOF 7
ENDMDL
MODEL 3
REMARK VINA RESULT:    -6.683      1.125      6.921
REMARK INTER + INTRA:          -8.068
REMARK INTER:                  -8.510
REMARK INTRA:                   0.442
REMARK UNBOUND:                 0.177
REMARK SMILES O=c1c(O)c(-c2cc(O)c(O)c(O)c2)oc2cc(O)cc(O)c12
REMARK SMILES IDX 5 1 3 2 2 3 1 4 23 5 21 6 20 7 18 8 17 9 16 10 15 11 6 12
REMARK SMILES IDX 7 13 8 14 14 15 10 16 12 17 9 18 11 20 13 22 4 24 22 26
REMARK SMILES IDX 19 28
REMARK H PARENT 9 19 11 21 13 23 4 25 22 27 19 29
REMARK Flexibility Score: inf
ROOT
ATOM      1  C   UNL     1      14.952  23.500  41.671  1.00  0.00     0.180 A 
ATOM      2  C   UNL     1      15.069  24.491  40.681  1.00  0.00     0.208 A 
ATOM      3  C   UNL     1      16.125  24.413  39.760  1.00  0.00     0.238 A 
ATOM      4  O   UNL     1      16.266  25.343  38.924  1.00  0.00    -0.285 OA
ATOM      5  C   UNL     1      17.018  23.315  39.802  1.00  0.00     0.111 A 
ATOM      6  C   UNL     1      18.097  23.110  38.889  1.00  0.00     0.134 A 
ATOM      7  C   UNL     1      18.981  22.043  39.094  1.00  0.00     0.093 A 
ATOM      8  C   UNL     1      18.789  21.138  40.140  1.00  0.00     0.123 A 
ATOM      9  C   UNL     1      17.708  21.298  41.002  1.00  0.00     0.094 A 
ATOM     10  C   UNL     1      16.830  22.373  40.848  1.00  0.00     0.146 A 
ATOM     11  O   UNL     1      15.825  22.500  41.706  1.00  0.00    -0.452 OA
ENDROOT
BRANCH   1  12
ATOM     12  C   UNL     1      13.875  23.522  42.686  1.00  0.00     0.029 A 
ATOM     13  C   UNL     1      13.888  22.579  43.725  1.00  0.00     0.062 A 
ATOM     14  C   UNL     1      12.892  22.591  44.712  1.00  0.00     0.162 A 
ATOM     15  C   UNL     1      12.871  24.505  42.667  1.00  0.00     0.062 A 
ATOM     16  C   UNL     1      11.879  23.563  44.672  1.00  0.00     0.200 A 
ATOM     17  C   UNL     1      11.874  24.523  43.651  1.00  0.00     0.162 A 
BRANCH  14  18
ATOM     18  O   UNL     1      12.906  21.640  45.732  1.00  0.00    -0.504 OA
ATOM     19  H   UNL     1      12.973  21.909  46.706  1.00  0.00     0.293 HD
ENDBRANCH  14  18
BRANCH  16  20
ATOM     20  O   UNL     1      10.875  23.595  45.640  1.00  0.00    -0.502 OA
ATOM     21  H   UNL     1      10.581  24.458  46.082  1.00  0.00     0.293 HD
ENDBRANCH  16  20
BRANCH  17  22
ATOM     22  O   UNL     1      10.875  25.496  43.624  1.00  0.00    -0.504 OA
ATOM     23  H   UNL     1      10.318  25.708  44.443  1.00  0.00     0.293 HD
ENDBRANCH  17  22
ENDBRANCH   1  12
BRANCH   2  24
ATOM     24  O   UNL     1      14.131  25.524  40.608  1.00  0.00    -0.502 OA
ATOM     25  H   UNL     1      14.321  26.457  40.957  1.00  0.00     0.293 HD
ENDBRANCH   2  24
BRANCH   6  26
ATOM     26  O   UNL     1      18.330  23.902  37.760  1.00  0.00    -0.507 OA
ATOM     27  H   UNL     1      18.075  23.652  36.817  1.00  0.00     0.293 HD
ENDBRANCH   6  26
BRANCH   8  28
ATOM     28  O   UNL     1      19.664  20.069  40.325  1.00  0.00    -0.508 OA
ATOM     29  H   UNL     1      20.666  20.208  40.378  1.00  0.00     0.293 HD
ENDBRANCH   8  28
TORSDOF 7
ENDMDL
MODEL 4
REMARK VINA RESULT:    -6.421      1.116      6.776
REMARK INTER + INTRA:          -7.746
REMARK INTER:                  -8.267
REMARK INTRA:                   0.522
REMARK UNBOUND:                 0.177
REMARK SMILES O=c1c(O)c(-c2cc(O)c(O)c(O)c2)oc2cc(O)cc(O)c12
REMARK SMILES IDX 5 1 3 2 2 3 1 4 23 5 21 6 20 7 18 8 17 9 16 10 15 11 6 12
REMARK SMILES IDX 7 13 8 14 14 15 10 16 12 17 9 18 11 20 13 22 4 24 22 26
REMARK SMILES IDX 19 28
REMARK H PARENT 9 19 11 21 13 23 4 25 22 27 19 29
REMARK Flexibility Score: inf
ROOT
ATOM      1  C   UNL     1      14.950  23.492  41.731  1.00  0.00     0.180 A 
ATOM      2  C   UNL     1      15.015  24.469  40.722  1.00  0.00     0.208 A 
ATOM      3  C   UNL     1      16.039  24.393  39.765  1.00  0.00     0.238 A 
ATOM      4  O   UNL     1      16.134  25.311  38.911  1.00  0.00    -0.285 OA
ATOM      5  C   UNL     1      16.952  23.311  39.793  1.00  0.00     0.111 A 
ATOM      6  C   UNL     1      18.002  23.109  38.846  1.00  0.00     0.134 A 
ATOM      7  C   UNL     1      18.911  22.061  39.036  1.00  0.00     0.093 A 
ATOM      8  C   UNL     1      18.771  21.170  40.103  1.00  0.00     0.123 A 
ATOM      9  C   UNL     1      17.718  21.326  41.000  1.00  0.00     0.094 A 
ATOM     10  C   UNL     1      16.817  22.384  40.860  1.00  0.00     0.146 A 
ATOM     11  O   UNL     1      15.841  22.507  41.751  1.00  0.00    -0.452 OA
ENDROOT
BRANCH   1  12
ATOM     12  C   UNL     1      13.909  23.513  42.783  1.00  0.00     0.029 A 
ATOM     13  C   UNL     1      12.890  24.476  42.725  1.00  0.00     0.062 A 
ATOM     14  C   UNL     1      11.879  24.505  43.696  1.00  0.00     0.162 A 
ATOM     15  C   UNL     1      13.883  22.550  43.807  1.00  0.00     0.062 A 
ATOM     16  C   UNL     1      11.874  23.553  44.729  1.00  0.00     0.200 A 
ATOM     17  C   UNL     1      12.875  22.573  44.779  1.00  0.00     0.162 A 
BRANCH  14  18
ATOM     18  O   UNL     1      10.880  25.476  43.637  1.00  0.00    -0.504 OA
ATOM     19  H   UNL     1      11.037  26.419  43.971  1.00  0.00     0.293 HD
ENDBRANCH  14  18
BRANCH  16  20
ATOM     20  O   UNL     1      10.881  23.562  45.709  1.00  0.00    -0.502 OA
ATOM     21  H   UNL     1      11.047  23.926  46.640  1.00  0.00     0.293 HD
ENDBRANCH  16  20
BRANCH  17  22
ATOM     22  O   UNL     1      12.857  21.621  45.798  1.00  0.00    -0.504 OA
ATOM     23  H   UNL     1      13.420  20.780  45.748  1.00  0.00     0.293 HD
ENDBRANCH  17  22
ENDBRANCH   1  12
BRANCH   2  24
ATOM     24  O   UNL     1      14.058  25.485  40.666  1.00  0.00    -0.502 OA
ATOM     25  H   UNL     1      14.172  26.308  40.087  1.00  0.00     0.293 HD
ENDBRANCH   2  24
BRANCH   6  26
ATOM     26  O   UNL     1      18.181  23.886  37.697  1.00  0.00    -0.507 OA
ATOM     27  H   UNL     1      19.050  23.984  37.196  1.00  0.00     0.293 HD
ENDBRANCH   6  26
BRANCH   8  28
ATOM     28  O   UNL     1      19.670  20.119  40.274  1.00  0.00    -0.508 OA
ATOM     29  H   UNL     1      20.578  20.120  39.823  1.00  0.00     0.293 HD
ENDBRANCH   8  28
TORSDOF 7
ENDMDL
MODEL 5
REMARK VINA RESULT:    -6.240      1.461      7.073
REMARK INTER + INTRA:          -7.522
REMARK INTER:                  -7.955
REMARK INTRA:                   0.432
REMARK UNBOUND:                 0.177
REMARK SMILES O=c1c(O)c(-c2cc(O)c(O)c(O)c2)oc2cc(O)cc(O)c12
REMARK SMILES IDX 5 1 3 2 2 3 1 4 23 5 21 6 20 7 18 8 17 9 16 10 15 11 6 12
REMARK SMILES IDX 7 13 8 14 14 15 10 16 12 17 9 18 11 20 13 22 4 24 22 26
REMARK SMILES IDX 19 28
REMARK H PARENT 9 19 11 21 13 23 4 25 22 27 19 29
REMARK Flexibility Score: inf
ROOT
ATOM      1  C   UNL     1      16.579  23.122  40.537  1.00  0.00     0.180 A 
ATOM      2  C   UNL     1      17.095  23.929  39.508  1.00  0.00     0.208 A 
ATOM      3  C   UNL     1      18.248  23.510  38.826  1.00  0.00     0.238 A 
ATOM      4  O   UNL     1      18.746  24.273  37.959  1.00  0.00    -0.285 OA
ATOM      5  C   UNL     1      18.840  22.263  39.141  1.00  0.00     0.111 A 
ATOM      6  C   UNL     1      19.984  21.716  38.484  1.00  0.00     0.134 A 
ATOM      7  C   UNL     1      20.545  20.522  38.953  1.00  0.00     0.093 A 
ATOM      8  C   UNL     1      19.967  19.822  40.014  1.00  0.00     0.123 A 
ATOM      9  C   UNL     1      18.819  20.318  40.626  1.00  0.00     0.094 A 
ATOM     10  C   UNL     1      18.257  21.526  40.206  1.00  0.00     0.146 A 
ATOM     11  O   UNL     1      17.175  21.972  40.832  1.00  0.00    -0.452 OA
ENDROOT
BRANCH   1  12
ATOM     12  C   UNL     1      15.376  23.503  41.310  1.00  0.00     0.029 A 
ATOM     13  C   UNL     1      15.013  22.749  42.436  1.00  0.00     0.062 A 
ATOM     14  C   UNL     1      13.890  23.101  43.199  1.00  0.00     0.162 A 
ATOM     15  C   UNL     1      14.622  24.642  40.977  1.00  0.00     0.062 A 
ATOM     16  C   UNL     1      13.129  24.227  42.846  1.00  0.00     0.200 A 
ATOM     17  C   UNL     1      13.500  24.999  41.737  1.00  0.00     0.162 A 
BRANCH  14  18
ATOM     18  O   UNL     1      13.530  22.336  44.308  1.00  0.00    -0.504 OA
ATOM     19  H   UNL     1      13.192  21.386  44.209  1.00  0.00     0.293 HD
ENDBRANCH  14  18
BRANCH  16  20
ATOM     20  O   UNL     1      12.007  24.597  43.587  1.00  0.00    -0.502 OA
ATOM     21  H   UNL     1      11.861  24.278  44.538  1.00  0.00     0.293 HD
ENDBRANCH  16  20
BRANCH  17  22
ATOM     22  O   UNL     1      12.751  26.125  41.398  1.00  0.00    -0.504 OA
ATOM     23  H   UNL     1      11.756  26.065  41.215  1.00  0.00     0.293 HD
ENDBRANCH  17  22
ENDBRANCH   1  12
BRANCH   2  24
ATOM     24  O   UNL     1      16.452  25.119  39.160  1.00  0.00    -0.502 OA
ATOM     25  H   UNL     1      16.335  25.413  38.197  1.00  0.00     0.293 HD
ENDBRANCH   2  24
BRANCH   6  26
ATOM     26  O   UNL     1      20.589  22.288  37.360  1.00  0.00    -0.507 OA
ATOM     27  H   UNL     1      21.565  22.526  37.288  1.00  0.00     0.293 HD
ENDBRANCH   6  26
BRANCH   8  28
ATOM     28  O   UNL     1      20.523  18.625  40.463  1.00  0.00    -0.508 OA
ATOM     29  H   UNL     1      21.156  18.598  41.253  1.00  0.00     0.293 HD
ENDBRANCH   8  28
TORSDOF 7
ENDMDL
MODEL 6
REMARK VINA RESULT:    -5.874      1.841      7.628
REMARK INTER + INTRA:          -7.070
REMARK INTER:                  -6.995
REMARK INTRA:                  -0.075
REMARK UNBOUND:                 0.177
REMARK SMILES O=c1c(O)c(-c2cc(O)c(O)c(O)c2)oc2cc(O)cc(O)c12
REMARK SMILES IDX 5 1 3 2 2 3 1 4 23 5 21 6 20 7 18 8 17 9 16 10 15 11 6 12
REMARK SMILES IDX 7 13 8 14 14 15 10 16 12 17 9 18 11 20 13 22 4 24 22 26
REMARK SMILES IDX 19 28
REMARK H PARENT 9 19 11 21 13 23 4 25 22 27 19 29
REMARK Flexibility Score: inf
ROOT
ATOM      1  C   UNL     1      17.114  22.112  40.884  1.00  0.00     0.180 A 
ATOM      2  C   UNL     1      17.217  20.735  40.619  1.00  0.00     0.208 A 
ATOM      3  C   UNL     1      18.407  20.236  40.067  1.00  0.00     0.238 A 
ATOM      4  O   UNL     1      18.464  19.016  39.764  1.00  0.00    -0.285 OA
ATOM      5  C   UNL     1      19.499  21.106  39.837  1.00  0.00     0.111 A 
ATOM      6  C   UNL     1      20.768  20.701  39.323  1.00  0.00     0.134 A 
ATOM      7  C   UNL     1      21.739  21.669  39.037  1.00  0.00     0.093 A 
ATOM      8  C   UNL     1      21.510  23.020  39.306  1.00  0.00     0.123 A 
ATOM      9  C   UNL     1      20.297  23.419  39.859  1.00  0.00     0.094 A 
ATOM     10  C   UNL     1      19.294  22.483  40.120  1.00  0.00     0.146 A 
ATOM     11  O   UNL     1      18.144  22.910  40.627  1.00  0.00    -0.452 OA
ENDROOT
BRANCH   1  12
ATOM     12  C   UNL     1      15.888  22.716  41.452  1.00  0.00     0.029 A 
ATOM     13  C   UNL     1      15.390  22.243  42.676  1.00  0.00     0.062 A 
ATOM     14  C   UNL     1      14.243  22.811  43.248  1.00  0.00     0.162 A 
ATOM     15  C   UNL     1      15.243  23.795  40.823  1.00  0.00     0.062 A 
ATOM     16  C   UNL     1      13.592  23.875  42.601  1.00  0.00     0.200 A 
ATOM     17  C   UNL     1      14.097  24.368  41.390  1.00  0.00     0.162 A 
BRANCH  14  18
ATOM     18  O   UNL     1      13.749  22.324  44.457  1.00  0.00    -0.504 OA
ATOM     19  H   UNL     1      13.073  21.569  44.488  1.00  0.00     0.293 HD
ENDBRANCH  14  18
BRANCH  16  20
ATOM     20  O   UNL     1      12.448  24.455  43.147  1.00  0.00    -0.502 OA
ATOM     21  H   UNL     1      12.444  24.869  44.072  1.00  0.00     0.293 HD
ENDBRANCH  16  20
BRANCH  17  22
ATOM     22  O   UNL     1      13.457  25.433  40.758  1.00  0.00    -0.504 OA
ATOM     23  H   UNL     1      12.455  25.568  40.831  1.00  0.00     0.293 HD
ENDBRANCH  17  22
ENDBRANCH   1  12
BRANCH   2  24
ATOM     24  O   UNL     1      16.156  19.880  40.925  1.00  0.00    -0.502 OA
ATOM     25  H   UNL     1      16.280  18.883  41.051  1.00  0.00     0.293 HD
ENDBRANCH   2  24
BRANCH   6  26
ATOM     26  O   UNL     1      21.134  19.369  39.101  1.00  0.00    -0.507 OA
ATOM     27  H   UNL     1      20.798  18.797  38.342  1.00  0.00     0.293 HD
ENDBRANCH   6  26
BRANCH   8  28
ATOM     28  O   UNL     1      22.489  23.974  39.035  1.00  0.00    -0.508 OA
ATOM     29  H   UNL     1      23.461  23.821  39.279  1.00  0.00     0.293 HD
ENDBRANCH   8  28
TORSDOF 7
ENDMDL
MODEL 7
REMARK VINA RESULT:    -5.854      1.453      6.895
REMARK INTER + INTRA:          -7.046
REMARK INTER:                  -7.558
REMARK INTRA:                   0.512
REMARK UNBOUND:                 0.177
REMARK SMILES O=c1c(O)c(-c2cc(O)c(O)c(O)c2)oc2cc(O)cc(O)c12
REMARK SMILES IDX 5 1 3 2 2 3 1 4 23 5 21 6 20 7 18 8 17 9 16 10 15 11 6 12
REMARK SMILES IDX 7 13 8 14 14 15 10 16 12 17 9 18 11 20 13 22 4 24 22 26
REMARK SMILES IDX 19 28
REMARK H PARENT 9 19 11 21 13 23 4 25 22 27 19 29
REMARK Flexibility Score: inf
ROOT
ATOM      1  C   UNL     1      16.577  23.123  40.592  1.00  0.00     0.180 A 
ATOM      2  C   UNL     1      17.075  23.927  39.551  1.00  0.00     0.208 A 
ATOM      3  C   UNL     1      18.216  23.505  38.851  1.00  0.00     0.238 A 
ATOM      4  O   UNL     1      18.699  24.264  37.972  1.00  0.00    -0.285 OA
ATOM      5  C   UNL     1      18.814  22.259  39.160  1.00  0.00     0.111 A 
ATOM      6  C   UNL     1      19.946  21.710  38.486  1.00  0.00     0.134 A 
ATOM      7  C   UNL     1      20.516  20.518  38.949  1.00  0.00     0.093 A 
ATOM      8  C   UNL     1      19.956  19.822  40.023  1.00  0.00     0.123 A 
ATOM      9  C   UNL     1      18.819  20.320  40.652  1.00  0.00     0.094 A 
ATOM     10  C   UNL     1      18.249  21.526  40.238  1.00  0.00     0.146 A 
ATOM     11  O   UNL     1      17.179  21.975  40.881  1.00  0.00    -0.452 OA
ENDROOT
BRANCH   1  12
ATOM     12  C   UNL     1      15.388  23.508  41.384  1.00  0.00     0.029 A 
ATOM     13  C   UNL     1      14.635  24.628  40.998  1.00  0.00     0.062 A 
ATOM     14  C   UNL     1      13.492  25.001  41.718  1.00  0.00     0.162 A 
ATOM     15  C   UNL     1      14.959  22.740  42.481  1.00  0.00     0.062 A 
ATOM     16  C   UNL     1      13.083  24.242  42.827  1.00  0.00     0.200 A 
ATOM     17  C   UNL     1      13.816  23.108  43.203  1.00  0.00     0.162 A 
BRANCH  14  18
ATOM     18  O   UNL     1      12.759  26.125  41.335  1.00  0.00    -0.504 OA
ATOM     19  H   UNL     1      13.214  26.998  41.095  1.00  0.00     0.293 HD
ENDBRANCH  14  18
BRANCH  16  20
ATOM     20  O   UNL     1      11.951  24.594  43.561  1.00  0.00    -0.502 OA
ATOM     21  H   UNL     1      11.497  25.494  43.453  1.00  0.00     0.293 HD
ENDBRANCH  16  20
BRANCH  17  22
ATOM     22  O   UNL     1      13.399  22.348  44.295  1.00  0.00    -0.504 OA
ATOM     23  H   UNL     1      13.824  21.454  44.513  1.00  0.00     0.293 HD
ENDBRANCH  17  22
ENDBRANCH   1  12
BRANCH   2  24
ATOM     24  O   UNL     1      16.426  25.116  39.209  1.00  0.00    -0.502 OA
ATOM     25  H   UNL     1      15.833  25.618  39.860  1.00  0.00     0.293 HD
ENDBRANCH   2  24
BRANCH   6  26
ATOM     26  O   UNL     1      20.531  22.278  37.349  1.00  0.00    -0.507 OA
ATOM     27  H   UNL     1      21.512  22.236  37.122  1.00  0.00     0.293 HD
ENDBRANCH   6  26
BRANCH   8  28
ATOM     28  O   UNL     1      20.519  18.626  40.466  1.00  0.00    -0.508 OA
ATOM     29  H   UNL     1      21.314  18.616  41.094  1.00  0.00     0.293 HD
ENDBRANCH   8  28
TORSDOF 7
ENDMDL
MODEL 8
REMARK VINA RESULT:    -5.650      1.853      7.487
REMARK INTER + INTRA:          -6.794
REMARK INTER:                  -6.726
REMARK INTRA:                  -0.068
REMARK UNBOUND:                 0.177
REMARK SMILES O=c1c(O)c(-c2cc(O)c(O)c(O)c2)oc2cc(O)cc(O)c12
REMARK SMILES IDX 5 1 3 2 2 3 1 4 23 5 21 6 20 7 18 8 17 9 16 10 15 11 6 12
REMARK SMILES IDX 7 13 8 14 14 15 10 16 12 17 9 18 11 20 13 22 4 24 22 26
REMARK SMILES IDX 19 28
REMARK H PARENT 9 19 11 21 13 23 4 25 22 27 19 29
REMARK Flexibility Score: inf
ROOT
ATOM      1  C   UNL     1      17.139  22.085  40.940  1.00  0.00     0.180 A 
ATOM      2  C   UNL     1      17.223  20.706  40.676  1.00  0.00     0.208 A 
ATOM      3  C   UNL     1      18.398  20.192  40.105  1.00  0.00     0.238 A 
ATOM      4  O   UNL     1      18.437  18.971  39.804  1.00  0.00    -0.285 OA
ATOM      5  C   UNL     1      19.496  21.051  39.857  1.00  0.00     0.111 A 
ATOM      6  C   UNL     1      20.752  20.630  39.323  1.00  0.00     0.134 A 
ATOM      7  C   UNL     1      21.729  21.587  39.020  1.00  0.00     0.093 A 
ATOM      8  C   UNL     1      21.519  22.941  39.290  1.00  0.00     0.123 A 
ATOM      9  C   UNL     1      20.319  23.354  39.861  1.00  0.00     0.094 A 
ATOM     10  C   UNL     1      19.310  22.430  40.140  1.00  0.00     0.146 A 
ATOM     11  O   UNL     1      18.174  22.871  40.665  1.00  0.00    -0.452 OA
ENDROOT
BRANCH   1  12
ATOM     12  C   UNL     1      15.929  22.703  41.527  1.00  0.00     0.029 A 
ATOM     13  C   UNL     1      15.289  23.749  40.844  1.00  0.00     0.062 A 
ATOM     14  C   UNL     1      14.129  24.338  41.366  1.00  0.00     0.162 A 
ATOM     15  C   UNL     1      15.371  22.226  42.725  1.00  0.00     0.062 A 
ATOM     16  C   UNL     1      13.590  23.869  42.576  1.00  0.00     0.200 A 
ATOM     17  C   UNL     1      14.211  22.810  43.251  1.00  0.00     0.162 A 
BRANCH  14  18
ATOM     18  O   UNL     1      13.509  25.386  40.686  1.00  0.00    -0.504 OA
ATOM     19  H   UNL     1      13.955  25.845  39.901  1.00  0.00     0.293 HD
ENDBRANCH  14  18
BRANCH  16  20
ATOM     20  O   UNL     1      12.439  24.440  43.118  1.00  0.00    -0.502 OA
ATOM     21  H   UNL     1      12.399  24.763  44.078  1.00  0.00     0.293 HD
ENDBRANCH  16  20
BRANCH  17  22
ATOM     22  O   UNL     1      13.665  22.338  44.444  1.00  0.00    -0.504 OA
ATOM     23  H   UNL     1      13.316  22.970  45.155  1.00  0.00     0.293 HD
ENDBRANCH  17  22
ENDBRANCH   1  12
BRANCH   2  24
ATOM     24  O   UNL     1      16.157  19.863  41.000  1.00  0.00    -0.502 OA
ATOM     25  H   UNL     1      15.594  19.994  41.832  1.00  0.00     0.293 HD
ENDBRANCH   2  24
BRANCH   6  26
ATOM     26  O   UNL     1      21.099  19.294  39.097  1.00  0.00    -0.507 OA
ATOM     27  H   UNL     1      21.229  18.877  38.189  1.00  0.00     0.293 HD
ENDBRANCH   6  26
BRANCH   8  28
ATOM     28  O   UNL     1      22.504  23.884  39.001  1.00  0.00    -0.508 OA
ATOM     29  H   UNL     1      23.247  23.688  38.340  1.00  0.00     0.293 HD
ENDBRANCH   8  28
TORSDOF 7
ENDMDL
