MODEL 1
REMARK VINA RESULT:    -3.169      0.000      0.000
REMARK INTER + INTRA:          -8.217
REMARK INTER:                  -5.948
REMARK INTRA:                  -2.268
REMARK UNBOUND:                -2.268
REMARK SMILES CCCCCCCCC=CCCCCCCCC(=O)[O-]
REMARK SMILES IDX 10 1 9 2 11 3 12 4 13 5 14 6 15 7 16 8 17 9 18 10 19 11
REMARK SMILES IDX 20 12 8 13 7 14 6 15 5 16 4 17 3 18 2 19 1 20
REMARK H PARENT
REMARK Flexibility Score: inf
ROOT
ATOM      1  C   UNL     1      96.036  55.231 221.856  1.00  0.00    -0.031 C 
ATOM      2  C   UNL     1      95.274  55.652 222.877  1.00  0.00    -0.031 C 
ENDROOT
BRANCH   1   3
ATOM      3  C   UNL     1      96.088  55.977 220.552  1.00  0.00     0.027 C 
BRANCH   3   4
ATOM      4  C   UNL     1      97.246  56.982 220.536  1.00  0.00     0.004 C 
BRANCH   4   5
ATOM      5  C   UNL     1      98.434  56.440 219.731  1.00  0.00     0.000 C 
BRANCH   5   6
ATOM      6  C   UNL     1      98.151  56.504 218.223  1.00  0.00     0.000 C 
BRANCH   6   7
ATOM      7  C   UNL     1      99.267  57.211 217.439  1.00  0.00     0.000 C 
BRANCH   7   8
ATOM      8  C   UNL     1     100.372  57.764 218.352  1.00  0.00     0.006 C 
BRANCH   8   9
ATOM      9  C   UNL     1     100.641  59.243 218.052  1.00  0.00     0.053 C 
BRANCH   9  10
ATOM     10  C   UNL     1     100.284  60.090 219.232  1.00  0.00     0.041 C 
ATOM     11  O   UNL     1      99.258  59.829 219.913  1.00  0.00    -0.550 OA
ATOM     12  O   UNL     1     101.112  61.140 219.610  1.00  0.00    -0.550 OA
ENDBRANCH   9  10
ENDBRANCH   8   9
ENDBRANCH   7   8
ENDBRANCH   6   7
ENDBRANCH   5   6
ENDBRANCH   4   5
ENDBRANCH   3   4
ENDBRANCH   1   3
BRANCH   2  13
ATOM     13  C   UNL     1      95.211  54.897 224.175  1.00  0.00     0.027 C 
BRANCH  13  14
ATOM     14  C   UNL     1      95.789  55.726 225.328  1.00  0.00     0.004 C 
BRANCH  14  15
ATOM     15  C   UNL     1      96.093  57.161 224.875  1.00  0.00     0.000 C 
BRANCH  15  16
ATOM     16  C   UNL     1      97.596  57.492 224.898  1.00  0.00     0.000 C 
BRANCH  16  17
ATOM     17  C   UNL     1      98.533  56.274 224.773  1.00  0.00    -0.000 C 
BRANCH  17  18
ATOM     18  C   UNL     1      99.433  56.270 223.523  1.00  0.00    -0.000 C 
BRANCH  18  19
ATOM     19  C   UNL     1     100.068  57.641 223.208  1.00  0.00    -0.003 C 
ATOM     20  C   UNL     1     101.037  57.585 222.027  1.00  0.00     0.004 C 
ENDBRANCH  18  19
ENDBRANCH  17  18
ENDBRANCH  16  17
ENDBRANCH  15  16
ENDBRANCH  14  15
ENDBRANCH  13  14
ENDBRANCH   2  13
TORSDOF 15
ENDMDL
MODEL 2
REMARK VINA RESULT:    -3.136      8.016     10.126
REMARK INTER + INTRA:          -8.155
REMARK INTER:                  -5.160
REMARK INTRA:                  -2.995
REMARK UNBOUND:                -2.268
REMARK SMILES CCCCCCCCC=CCCCCCCCC(=O)[O-]
REMARK SMILES IDX 10 1 9 2 11 3 12 4 13 5 14 6 15 7 16 8 17 9 18 10 19 11
REMARK SMILES IDX 20 12 8 13 7 14 6 15 5 16 4 17 3 18 2 19 1 20
REMARK H PARENT
REMARK Flexibility Score: inf
ROOT
ATOM      1  C   UNL     1      97.087  65.584 228.750  1.00  0.00    -0.031 C 
ATOM      2  C   UNL     1      96.909  66.731 228.075  1.00  0.00    -0.031 C 
ENDROOT
BRANCH   1   3
ATOM      3  C   UNL     1      98.273  65.378 229.651  1.00  0.00     0.027 C 
BRANCH   3   4
ATOM      4  C   UNL     1      99.237  64.338 229.066  1.00  0.00     0.004 C 
BRANCH   4   5
ATOM      5  C   UNL     1      98.494  63.051 228.688  1.00  0.00     0.000 C 
BRANCH   5   6
ATOM      6  C   UNL     1      99.301  62.230 227.671  1.00  0.00     0.000 C 
BRANCH   6   7
ATOM      7  C   UNL     1     100.796  62.584 227.676  1.00  0.00     0.000 C 
BRANCH   7   8
ATOM      8  C   UNL     1     101.628  61.649 226.786  1.00  0.00     0.006 C 
BRANCH   8   9
ATOM      9  C   UNL     1     101.893  62.287 225.418  1.00  0.00     0.053 C 
BRANCH   9  10
ATOM     10  C   UNL     1     102.970  63.321 225.522  1.00  0.00     0.041 C 
ATOM     11  O   UNL     1     104.162  62.975 225.732  1.00  0.00    -0.550 OA
ATOM     12  O   UNL     1     102.665  64.663 225.338  1.00  0.00    -0.550 OA
ENDBRANCH   9  10
ENDBRANCH   8   9
ENDBRANCH   7   8
ENDBRANCH   6   7
ENDBRANCH   5   6
ENDBRANCH   4   5
ENDBRANCH   3   4
ENDBRANCH   1   3
BRANCH   2  13
ATOM     13  C   UNL     1      95.730  66.931 227.163  1.00  0.00     0.027 C 
BRANCH  13  14
ATOM     14  C   UNL     1      95.391  65.642 226.405  1.00  0.00     0.004 C 
BRANCH  14  15
ATOM     15  C   UNL     1      95.455  65.863 224.888  1.00  0.00     0.000 C 
BRANCH  15  16
ATOM     16  C   UNL     1      96.777  65.380 224.265  1.00  0.00     0.000 C 
BRANCH  16  17
ATOM     17  C   UNL     1      97.613  64.442 225.158  1.00  0.00    -0.000 C 
BRANCH  17  18
ATOM     18  C   UNL     1      99.079  64.868 225.359  1.00  0.00    -0.000 C 
BRANCH  18  19
ATOM     19  C   UNL     1      99.293  66.396 225.332  1.00  0.00    -0.003 C 
ATOM     20  C   UNL     1     100.218  66.881 226.448  1.00  0.00     0.004 C 
ENDBRANCH  18  19
ENDBRANCH  17  18
ENDBRANCH  16  17
ENDBRANCH  15  16
ENDBRANCH  14  15
ENDBRANCH  13  14
ENDBRANCH   2  13
TORSDOF 15
ENDMDL
MODEL 3
REMARK VINA RESULT:    -3.130      9.697     11.793
REMARK INTER + INTRA:          -8.143
REMARK INTER:                  -5.644
REMARK INTRA:                  -2.499
REMARK UNBOUND:                -2.268
REMARK SMILES CCCCCCCCC=CCCCCCCCC(=O)[O-]
REMARK SMILES IDX 10 1 9 2 11 3 12 4 13 5 14 6 15 7 16 8 17 9 18 10 19 11
REMARK SMILES IDX 20 12 8 13 7 14 6 15 5 16 4 17 3 18 2 19 1 20
REMARK H PARENT
REMARK Flexibility Score: inf
ROOT
ATOM      1  C   UNL     1      97.498  64.526 225.221  1.00  0.00    -0.031 C 
ATOM      2  C   UNL     1      97.541  64.213 226.526  1.00  0.00    -0.031 C 
ENDROOT
BRANCH   1   3
ATOM      3  C   UNL     1      96.426  65.421 224.663  1.00  0.00     0.027 C 
BRANCH   3   4
ATOM      4  C   UNL     1      95.369  65.746 225.725  1.00  0.00     0.004 C 
BRANCH   4   5
ATOM      5  C   UNL     1      95.321  67.252 226.011  1.00  0.00     0.000 C 
BRANCH   5   6
ATOM      6  C   UNL     1      96.192  67.609 227.224  1.00  0.00     0.000 C 
BRANCH   6   7
ATOM      7  C   UNL     1      95.638  68.802 228.021  1.00  0.00     0.000 C 
BRANCH   7   8
ATOM      8  C   UNL     1      95.478  68.492 229.516  1.00  0.00     0.006 C 
BRANCH   8   9
ATOM      9  C   UNL     1      96.688  67.715 230.047  1.00  0.00     0.053 C 
BRANCH   9  10
ATOM     10  C   UNL     1      96.243  66.511 230.815  1.00  0.00     0.041 C 
ATOM     11  O   UNL     1      95.418  65.705 230.308  1.00  0.00    -0.550 OA
ATOM     12  O   UNL     1      96.775  66.252 232.072  1.00  0.00    -0.550 OA
ENDBRANCH   9  10
ENDBRANCH   8   9
ENDBRANCH   7   8
ENDBRANCH   6   7
ENDBRANCH   5   6
ENDBRANCH   4   5
ENDBRANCH   3   4
ENDBRANCH   1   3
BRANCH   2  13
ATOM     13  C   UNL     1      98.604  63.305 227.081  1.00  0.00     0.027 C 
BRANCH  13  14
ATOM     14  C   UNL     1      99.215  63.886 228.361  1.00  0.00     0.004 C 
BRANCH  14  15
ATOM     15  C   UNL     1      99.042  65.410 228.412  1.00  0.00     0.000 C 
BRANCH  15  16
ATOM     16  C   UNL     1     100.295  66.173 227.945  1.00  0.00     0.000 C 
BRANCH  16  17
ATOM     17  C   UNL     1     100.209  66.757 226.521  1.00  0.00    -0.000 C 
BRANCH  17  18
ATOM     18  C   UNL     1     101.407  66.430 225.609  1.00  0.00    -0.000 C 
BRANCH  18  19
ATOM     19  C   UNL     1     101.146  65.263 224.633  1.00  0.00    -0.003 C 
ATOM     20  C   UNL     1     101.668  63.926 225.160  1.00  0.00     0.004 C 
ENDBRANCH  18  19
ENDBRANCH  17  18
ENDBRANCH  16  17
ENDBRANCH  15  16
ENDBRANCH  14  15
ENDBRANCH  13  14
ENDBRANCH   2  13
TORSDOF 15
ENDMDL
MODEL 4
REMARK VINA RESULT:    -3.070      7.705      9.611
REMARK INTER + INTRA:          -8.030
REMARK INTER:                  -5.426
REMARK INTRA:                  -2.603
REMARK UNBOUND:                -2.268
REMARK SMILES CCCCCCCCC=CCCCCCCCC(=O)[O-]
REMARK SMILES IDX 10 1 9 2 11 3 12 4 13 5 14 6 15 7 16 8 17 9 18 10 19 11
REMARK SMILES IDX 20 12 8 13 7 14 6 15 5 16 4 17 3 18 2 19 1 20
REMARK H PARENT
REMARK Flexibility Score: inf
ROOT
ATOM      1  C   UNL     1      96.601  66.159 228.567  1.00  0.00    -0.031 C 
ATOM      2  C   UNL     1      97.831  65.843 229.002  1.00  0.00    -0.031 C 
ENDROOT
BRANCH   1   3
ATOM      3  C   UNL     1      96.384  67.222 227.527  1.00  0.00     0.027 C 
BRANCH   3   4
ATOM      4  C   UNL     1      95.484  66.712 226.394  1.00  0.00     0.004 C 
BRANCH   4   5
ATOM      5  C   UNL     1      95.708  65.215 226.146  1.00  0.00     0.000 C 
BRANCH   5   6
ATOM      6  C   UNL     1      96.674  64.989 224.974  1.00  0.00     0.000 C 
BRANCH   6   7
ATOM      7  C   UNL     1      98.081  64.579 225.436  1.00  0.00     0.000 C 
BRANCH   7   8
ATOM      8  C   UNL     1      99.108  65.710 225.282  1.00  0.00     0.006 C 
BRANCH   8   9
ATOM      9  C   UNL     1     100.270  65.532 226.265  1.00  0.00     0.053 C 
BRANCH   9  10
ATOM     10  C   UNL     1     101.578  65.553 225.539  1.00  0.00     0.041 C 
ATOM     11  O   UNL     1     102.652  65.728 226.173  1.00  0.00    -0.550 OA
ATOM     12  O   UNL     1     101.617  65.330 224.169  1.00  0.00    -0.550 OA
ENDBRANCH   9  10
ENDBRANCH   8   9
ENDBRANCH   7   8
ENDBRANCH   6   7
ENDBRANCH   5   6
ENDBRANCH   4   5
ENDBRANCH   3   4
ENDBRANCH   1   3
BRANCH   2  13
ATOM     13  C   UNL     1      98.047  64.790 230.053  1.00  0.00     0.027 C 
BRANCH  13  14
ATOM     14  C   UNL     1      98.829  63.598 229.492  1.00  0.00     0.004 C 
BRANCH  14  15
ATOM     15  C   UNL     1      97.916  62.677 228.671  1.00  0.00     0.000 C 
BRANCH  15  16
ATOM     16  C   UNL     1      98.695  61.751 227.720  1.00  0.00     0.000 C 
BRANCH  16  17
ATOM     17  C   UNL     1     100.189  62.091 227.559  1.00  0.00    -0.000 C 
BRANCH  17  18
ATOM     18  C   UNL     1     101.146  60.888 227.652  1.00  0.00    -0.000 C 
BRANCH  18  19
ATOM     19  C   UNL     1     102.137  60.787 226.473  1.00  0.00    -0.003 C 
ATOM     20  C   UNL     1     102.006  61.951 225.491  1.00  0.00     0.004 C 
ENDBRANCH  18  19
ENDBRANCH  17  18
ENDBRANCH  16  17
ENDBRANCH  15  16
ENDBRANCH  14  15
ENDBRANCH  13  14
ENDBRANCH   2  13
TORSDOF 15
ENDMDL
MODEL 5
REMARK VINA RESULT:    -3.049      9.303     11.658
REMARK INTER + INTRA:          -7.992
REMARK INTER:                  -5.442
REMARK INTRA:                  -2.550
REMARK UNBOUND:                -2.268
REMARK SMILES CCCCCCCCC=CCCCCCCCC(=O)[O-]
REMARK SMILES IDX 10 1 9 2 11 3 12 4 13 5 14 6 15 7 16 8 17 9 18 10 19 11
REMARK SMILES IDX 20 12 8 13 7 14 6 15 5 16 4 17 3 18 2 19 1 20
REMARK H PARENT
REMARK Flexibility Score: inf
ROOT
ATOM      1  C   UNL     1      98.115  64.893 225.579  1.00  0.00    -0.031 C 
ATOM      2  C   UNL     1      99.002  65.829 225.207  1.00  0.00    -0.031 C 
ENDROOT
BRANCH   1   3
ATOM      3  C   UNL     1      96.673  64.966 225.164  1.00  0.00     0.027 C 
BRANCH   3   4
ATOM      4  C   UNL     1      95.785  65.422 226.328  1.00  0.00     0.004 C 
BRANCH   4   5
ATOM      5  C   UNL     1      95.108  66.762 226.013  1.00  0.00     0.000 C 
BRANCH   5   6
ATOM      6  C   UNL     1      95.425  67.805 227.094  1.00  0.00     0.000 C 
BRANCH   6   7
ATOM      7  C   UNL     1      96.930  67.928 227.377  1.00  0.00     0.000 C 
BRANCH   7   8
ATOM      8  C   UNL     1      97.259  67.844 228.875  1.00  0.00     0.006 C 
BRANCH   8   9
ATOM      9  C   UNL     1      95.983  67.906 229.721  1.00  0.00     0.053 C 
BRANCH   9  10
ATOM     10  C   UNL     1      95.931  66.756 230.676  1.00  0.00     0.041 C 
ATOM     11  O   UNL     1      95.416  65.662 230.324  1.00  0.00    -0.550 OA
ATOM     12  O   UNL     1      96.495  66.875 231.940  1.00  0.00    -0.550 OA
ENDBRANCH   9  10
ENDBRANCH   8   9
ENDBRANCH   7   8
ENDBRANCH   6   7
ENDBRANCH   5   6
ENDBRANCH   4   5
ENDBRANCH   3   4
ENDBRANCH   1   3
BRANCH   2  13
ATOM     13  C   UNL     1     100.442  65.763 225.635  1.00  0.00     0.027 C 
BRANCH  13  14
ATOM     14  C   UNL     1     101.307  65.080 224.570  1.00  0.00     0.004 C 
BRANCH  14  15
ATOM     15  C   UNL     1     101.706  63.665 225.009  1.00  0.00     0.000 C 
BRANCH  15  16
ATOM     16  C   UNL     1     101.529  63.432 226.521  1.00  0.00     0.000 C 
BRANCH  16  17
ATOM     17  C   UNL     1     100.626  62.241 226.895  1.00  0.00    -0.000 C 
BRANCH  17  18
ATOM     18  C   UNL     1      99.678  62.489 228.083  1.00  0.00    -0.000 C 
BRANCH  18  19
ATOM     19  C   UNL     1      99.730  63.931 228.630  1.00  0.00    -0.003 C 
ATOM     20  C   UNL     1      98.410  64.369 229.265  1.00  0.00     0.004 C 
ENDBRANCH  18  19
ENDBRANCH  17  18
ENDBRANCH  16  17
ENDBRANCH  15  16
ENDBRANCH  14  15
ENDBRANCH  13  14
ENDBRANCH   2  13
TORSDOF 15
ENDMDL
MODEL 6
REMARK VINA RESULT:    -3.048      8.636     10.851
REMARK INTER + INTRA:          -7.989
REMARK INTER:                  -5.146
REMARK INTRA:                  -2.843
REMARK UNBOUND:                -2.268
REMARK SMILES CCCCCCCCC=CCCCCCCCC(=O)[O-]
REMARK SMILES IDX 10 1 9 2 11 3 12 4 13 5 14 6 15 7 16 8 17 9 18 10 19 11
REMARK SMILES IDX 20 12 8 13 7 14 6 15 5 16 4 17 3 18 2 19 1 20
REMARK H PARENT
REMARK Flexibility Score: inf
ROOT
ATOM      1  C   UNL     1      97.838  63.794 226.698  1.00  0.00    -0.031 C 
ATOM      2  C   UNL     1      97.910  64.446 225.526  1.00  0.00    -0.031 C 
ENDROOT
BRANCH   1   3
ATOM      3  C   UNL     1      99.052  63.168 227.326  1.00  0.00     0.027 C 
BRANCH   3   4
ATOM      4  C   UNL     1      99.236  63.647 228.771  1.00  0.00     0.004 C 
BRANCH   4   5
ATOM      5  C   UNL     1     100.723  63.735 229.137  1.00  0.00     0.000 C 
BRANCH   5   6
ATOM      6  C   UNL     1     101.101  65.162 229.559  1.00  0.00     0.000 C 
BRANCH   6   7
ATOM      7  C   UNL     1     100.875  66.191 228.440  1.00  0.00     0.000 C 
BRANCH   7   8
ATOM      8  C   UNL     1     101.855  66.019 227.270  1.00  0.00     0.006 C 
BRANCH   8   9
ATOM      9  C   UNL     1     101.103  65.911 225.939  1.00  0.00     0.053 C 
BRANCH   9  10
ATOM     10  C   UNL     1     101.663  64.799 225.109  1.00  0.00     0.041 C 
ATOM     11  O   UNL     1     101.030  64.374 224.107  1.00  0.00    -0.550 OA
ATOM     12  O   UNL     1     102.909  64.264 225.414  1.00  0.00    -0.550 OA
ENDBRANCH   9  10
ENDBRANCH   8   9
ENDBRANCH   7   8
ENDBRANCH   6   7
ENDBRANCH   5   6
ENDBRANCH   4   5
ENDBRANCH   3   4
ENDBRANCH   1   3
BRANCH   2  13
ATOM     13  C   UNL     1      96.693  65.059 224.891  1.00  0.00     0.027 C 
BRANCH  13  14
ATOM     14  C   UNL     1      95.646  65.433 225.946  1.00  0.00     0.004 C 
BRANCH  14  15
ATOM     15  C   UNL     1      95.352  66.939 225.920  1.00  0.00     0.000 C 
BRANCH  15  16
ATOM     16  C   UNL     1      95.806  67.663 227.201  1.00  0.00     0.000 C 
BRANCH  16  17
ATOM     17  C   UNL     1      97.259  67.379 227.628  1.00  0.00    -0.000 C 
BRANCH  17  18
ATOM     18  C   UNL     1      97.437  66.971 229.103  1.00  0.00    -0.000 C 
BRANCH  18  19
ATOM     19  C   UNL     1      96.480  65.850 229.559  1.00  0.00    -0.003 C 
ATOM     20  C   UNL     1      96.704  65.440 231.015  1.00  0.00     0.004 C 
ENDBRANCH  18  19
ENDBRANCH  17  18
ENDBRANCH  16  17
ENDBRANCH  15  16
ENDBRANCH  14  15
ENDBRANCH  13  14
ENDBRANCH   2  13
TORSDOF 15
ENDMDL
MODEL 7
REMARK VINA RESULT:    -3.014      8.973     10.635
REMARK INTER + INTRA:          -7.926
REMARK INTER:                  -5.116
REMARK INTRA:                  -2.810
REMARK UNBOUND:                -2.268
REMARK SMILES CCCCCCCCC=CCCCCCCCC(=O)[O-]
REMARK SMILES IDX 10 1 9 2 11 3 12 4 13 5 14 6 15 7 16 8 17 9 18 10 19 11
REMARK SMILES IDX 20 12 8 13 7 14 6 15 5 16 4 17 3 18 2 19 1 20
REMARK H PARENT
REMARK Flexibility Score: inf
ROOT
ATOM      1  C   UNL     1      95.984  66.167 226.719  1.00  0.00    -0.031 C 
ATOM      2  C   UNL     1      95.862  67.469 227.021  1.00  0.00    -0.031 C 
ENDROOT
BRANCH   1   3
ATOM      3  C   UNL     1      95.943  65.682 225.297  1.00  0.00     0.027 C 
BRANCH   3   4
ATOM      4  C   UNL     1      97.145  64.782 224.986  1.00  0.00     0.004 C 
BRANCH   4   5
ATOM      5  C   UNL     1      97.720  64.168 226.268  1.00  0.00     0.000 C 
BRANCH   5   6
ATOM      6  C   UNL     1      99.229  63.920 226.131  1.00  0.00     0.000 C 
BRANCH   6   7
ATOM      7  C   UNL     1      99.889  64.842 225.093  1.00  0.00     0.000 C 
BRANCH   7   8
ATOM      8  C   UNL     1     101.300  64.378 224.702  1.00  0.00     0.006 C 
BRANCH   8   9
ATOM      9  C   UNL     1     102.216  64.315 225.929  1.00  0.00     0.053 C 
BRANCH   9  10
ATOM     10  C   UNL     1     103.261  63.260 225.750  1.00  0.00     0.041 C 
ATOM     11  O   UNL     1     102.932  62.047 225.677  1.00  0.00    -0.550 OA
ATOM     12  O   UNL     1     104.596  63.620 225.612  1.00  0.00    -0.550 OA
ENDBRANCH   9  10
ENDBRANCH   8   9
ENDBRANCH   7   8
ENDBRANCH   6   7
ENDBRANCH   5   6
ENDBRANCH   4   5
ENDBRANCH   3   4
ENDBRANCH   1   3
BRANCH   2  13
ATOM     13  C   UNL     1      95.887  67.952 228.445  1.00  0.00     0.027 C 
BRANCH  13  14
ATOM     14  C   UNL     1      96.534  66.916 229.370  1.00  0.00     0.004 C 
BRANCH  14  15
ATOM     15  C   UNL     1      97.988  67.291 229.686  1.00  0.00     0.000 C 
BRANCH  15  16
ATOM     16  C   UNL     1      99.009  66.346 229.027  1.00  0.00     0.000 C 
BRANCH  16  17
ATOM     17  C   UNL     1     100.027  67.035 228.097  1.00  0.00    -0.000 C 
BRANCH  17  18
ATOM     18  C   UNL     1      99.411  67.839 226.937  1.00  0.00    -0.000 C 
BRANCH  18  19
ATOM     19  C   UNL     1     100.457  68.454 225.982  1.00  0.00    -0.003 C 
ATOM     20  C   UNL     1     101.872  67.939 226.246  1.00  0.00     0.004 C 
ENDBRANCH  18  19
ENDBRANCH  17  18
ENDBRANCH  16  17
ENDBRANCH  15  16
ENDBRANCH  14  15
ENDBRANCH  13  14
ENDBRANCH   2  13
TORSDOF 15
ENDMDL
MODEL 8
REMARK VINA RESULT:    -2.961      8.114     10.324
REMARK INTER + INTRA:          -7.826
REMARK INTER:                  -5.551
REMARK INTRA:                  -2.275
REMARK UNBOUND:                -2.268
REMARK SMILES CCCCCCCCC=CCCCCCCCC(=O)[O-]
REMARK SMILES IDX 10 1 9 2 11 3 12 4 13 5 14 6 15 7 16 8 17 9 18 10 19 11
REMARK SMILES IDX 20 12 8 13 7 14 6 15 5 16 4 17 3 18 2 19 1 20
REMARK H PARENT
REMARK Flexibility Score: inf
ROOT
ATOM      1  C   UNL     1      97.799  64.161 230.346  1.00  0.00    -0.031 C 
ATOM      2  C   UNL     1      96.874  64.993 230.849  1.00  0.00    -0.031 C 
ENDROOT
BRANCH   1   3
ATOM      3  C   UNL     1      98.256  62.944 231.102  1.00  0.00     0.027 C 
BRANCH   3   4
ATOM      4  C   UNL     1      98.667  61.820 230.142  1.00  0.00     0.004 C 
BRANCH   4   5
ATOM      5  C   UNL     1      97.777  61.810 228.893  1.00  0.00     0.000 C 
BRANCH   5   6
ATOM      6  C   UNL     1      98.626  61.832 227.614  1.00  0.00     0.000 C 
BRANCH   6   7
ATOM      7  C   UNL     1     100.047  62.367 227.854  1.00  0.00     0.000 C 
BRANCH   7   8
ATOM      8  C   UNL     1     100.665  62.991 226.594  1.00  0.00     0.006 C 
BRANCH   8   9
ATOM      9  C   UNL     1     100.690  64.520 226.696  1.00  0.00     0.053 C 
BRANCH   9  10
ATOM     10  C   UNL     1     101.251  65.119 225.445  1.00  0.00     0.041 C 
ATOM     11  O   UNL     1     102.074  66.069 225.511  1.00  0.00    -0.550 OA
ATOM     12  O   UNL     1     100.903  64.595 224.206  1.00  0.00    -0.550 OA
ENDBRANCH   9  10
ENDBRANCH   8   9
ENDBRANCH   7   8
ENDBRANCH   6   7
ENDBRANCH   5   6
ENDBRANCH   4   5
ENDBRANCH   3   4
ENDBRANCH   1   3
BRANCH   2  13
ATOM     13  C   UNL     1      96.429  66.219 230.100  1.00  0.00     0.027 C 
BRANCH  13  14
ATOM     14  C   UNL     1      97.348  66.504 228.907  1.00  0.00     0.004 C 
BRANCH  14  15
ATOM     15  C   UNL     1      96.551  67.054 227.717  1.00  0.00     0.000 C 
BRANCH  15  16
ATOM     16  C   UNL     1      95.872  65.949 226.886  1.00  0.00     0.000 C 
BRANCH  16  17
ATOM     17  C   UNL     1      96.743  64.706 226.621  1.00  0.00    -0.000 C 
BRANCH  17  18
ATOM     18  C   UNL     1      97.331  64.612 225.201  1.00  0.00    -0.000 C 
BRANCH  18  19
ATOM     19  C   UNL     1      96.943  65.794 224.287  1.00  0.00    -0.003 C 
ATOM     20  C   UNL     1      95.931  65.401 223.212  1.00  0.00     0.004 C 
ENDBRANCH  18  19
ENDBRANCH  17  18
ENDBRANCH  16  17
ENDBRANCH  15  16
ENDBRANCH  14  15
ENDBRANCH  13  14
ENDBRANCH   2  13
TORSDOF 15
ENDMDL
MODEL 9
REMARK VINA RESULT:    -2.939      8.656     10.985
REMARK INTER + INTRA:          -7.784
REMARK INTER:                  -4.746
REMARK INTRA:                  -3.038
REMARK UNBOUND:                -2.268
REMARK SMILES CCCCCCCCC=CCCCCCCCC(=O)[O-]
REMARK SMILES IDX 10 1 9 2 11 3 12 4 13 5 14 6 15 7 16 8 17 9 18 10 19 11
REMARK SMILES IDX 20 12 8 13 7 14 6 15 5 16 4 17 3 18 2 19 1 20
REMARK H PARENT
REMARK Flexibility Score: inf
ROOT
ATOM      1  C   UNL     1      99.802  66.937 228.982  1.00  0.00    -0.031 C 
ATOM      2  C   UNL     1     100.028  67.058 227.664  1.00  0.00    -0.031 C 
ENDROOT
BRANCH   1   3
ATOM      3  C   UNL     1      98.550  66.293 229.509  1.00  0.00     0.027 C 
BRANCH   3   4
ATOM      4  C   UNL     1      97.345  66.619 228.619  1.00  0.00     0.004 C 
BRANCH   4   5
ATOM      5  C   UNL     1      96.344  65.457 228.602  1.00  0.00     0.000 C 
BRANCH   5   6
ATOM      6  C   UNL     1      96.114  64.950 227.171  1.00  0.00     0.000 C 
BRANCH   6   7
ATOM      7  C   UNL     1      97.387  64.369 226.537  1.00  0.00     0.000 C 
BRANCH   7   8
ATOM      8  C   UNL     1      97.506  64.697 225.041  1.00  0.00     0.006 C 
BRANCH   8   9
ATOM      9  C   UNL     1      97.228  66.182 224.783  1.00  0.00     0.053 C 
BRANCH   9  10
ATOM     10  C   UNL     1      96.217  66.344 223.693  1.00  0.00     0.041 C 
ATOM     11  O   UNL     1      95.475  67.361 223.662  1.00  0.00    -0.550 OA
ATOM     12  O   UNL     1      96.126  65.396 222.682  1.00  0.00    -0.550 OA
ENDBRANCH   9  10
ENDBRANCH   8   9
ENDBRANCH   7   8
ENDBRANCH   6   7
ENDBRANCH   5   6
ENDBRANCH   4   5
ENDBRANCH   3   4
ENDBRANCH   1   3
BRANCH   2  13
ATOM     13  C   UNL     1     101.273  67.716 227.137  1.00  0.00     0.027 C 
BRANCH  13  14
ATOM     14  C   UNL     1     101.881  66.909 225.984  1.00  0.00     0.004 C 
BRANCH  14  15
ATOM     15  C   UNL     1     100.803  66.097 225.253  1.00  0.00     0.000 C 
BRANCH  15  16
ATOM     16  C   UNL     1     101.345  64.789 224.647  1.00  0.00     0.000 C 
BRANCH  16  17
ATOM     17  C   UNL     1     101.804  63.737 225.674  1.00  0.00    -0.000 C 
BRANCH  17  18
ATOM     18  C   UNL     1     100.682  63.139 226.542  1.00  0.00    -0.000 C 
BRANCH  18  19
ATOM     19  C   UNL     1     100.850  63.411 228.052  1.00  0.00    -0.003 C 
ATOM     20  C   UNL     1     102.183  64.079 228.386  1.00  0.00     0.004 C 
ENDBRANCH  18  19
ENDBRANCH  17  18
ENDBRANCH  16  17
ENDBRANCH  15  16
ENDBRANCH  14  15
ENDBRANCH  13  14
ENDBRANCH   2  13
TORSDOF 15
ENDMDL
