MODEL 1
REMARK VINA RESULT:    -6.710      0.000      0.000
REMARK INTER + INTRA:          -8.155
REMARK INTER:                  -7.886
REMARK INTRA:                  -0.269
REMARK UNBOUND:                -0.269
REMARK SMILES O=c1c(O)c(-c2ccc(O)c(O)c2)oc2cc(O)ccc12
REMARK SMILES IDX 5 1 3 2 2 3 1 4 21 5 15 6 14 7 16 8 17 9 19 10 20 11 6 12
REMARK SMILES IDX 7 13 8 14 9 15 13 16 11 17 10 18 12 20 4 22 18 24
REMARK H PARENT 10 19 12 21 4 23 18 25
REMARK Flexibility Score: inf
ROOT
ATOM      1  C   UNL     1       1.378   3.252  40.964  1.00  0.00     0.180 A 
ATOM      2  C   UNL     1       2.096   3.088  39.760  1.00  0.00     0.208 A 
ATOM      3  C   UNL     1       2.514   4.232  39.062  1.00  0.00     0.235 A 
ATOM      4  O   UNL     1       3.148   4.112  37.977  1.00  0.00    -0.285 OA
ATOM      5  C   UNL     1       2.230   5.503  39.585  1.00  0.00     0.069 A 
ATOM      6  C   UNL     1       1.528   5.582  40.808  1.00  0.00     0.142 A 
ATOM      7  O   UNL     1       1.142   4.476  41.433  1.00  0.00    -0.452 OA
ATOM      8  C   UNL     1       1.235   6.830  41.367  1.00  0.00     0.094 A 
ATOM      9  C   UNL     1       1.631   8.005  40.718  1.00  0.00     0.119 A 
ATOM     10  C   UNL     1       2.326   7.931  39.503  1.00  0.00     0.047 A 
ATOM     11  C   UNL     1       2.626   6.688  38.937  1.00  0.00     0.020 A 
ENDROOT
BRANCH   1  12
ATOM     12  C   UNL     1       0.886   2.097  41.748  1.00  0.00     0.025 A 
ATOM     13  C   UNL     1       1.752   1.335  42.553  1.00  0.00     0.016 A 
ATOM     14  C   UNL     1       1.270   0.235  43.265  1.00  0.00     0.051 A 
ATOM     15  C   UNL     1      -0.080  -0.129  43.174  1.00  0.00     0.157 A 
ATOM     16  C   UNL     1      -0.461   1.714  41.644  1.00  0.00     0.062 A 
ATOM     17  C   UNL     1      -0.949   0.613  42.356  1.00  0.00     0.158 A 
BRANCH  15  18
ATOM     18  O   UNL     1      -0.559  -1.227  43.888  1.00  0.00    -0.504 OA
ATOM     19  H   UNL     1       0.049  -1.783  44.479  1.00  0.00     0.293 HD
ENDBRANCH  15  18
BRANCH  17  20
ATOM     20  O   UNL     1      -2.296   0.272  42.239  1.00  0.00    -0.504 OA
ATOM     21  H   UNL     1      -2.845   0.521  41.425  1.00  0.00     0.293 HD
ENDBRANCH  17  20
ENDBRANCH   1  12
BRANCH   2  22
ATOM     22  O   UNL     1       2.407   1.810  39.289  1.00  0.00    -0.502 OA
ATOM     23  H   UNL     1       3.330   1.567  38.953  1.00  0.00     0.293 HD
ENDBRANCH   2  22
BRANCH   9  24
ATOM     24  O   UNL     1       1.330   9.240  41.288  1.00  0.00    -0.508 OA
ATOM     25  H   UNL     1       1.176  10.063  40.718  1.00  0.00     0.293 HD
ENDBRANCH   9  24
TORSDOF 5
ENDMDL
MODEL 2
REMARK VINA RESULT:    -6.259      2.686      7.006
REMARK INTER + INTRA:          -7.626
REMARK INTER:                  -7.575
REMARK INTRA:                  -0.051
REMARK UNBOUND:                -0.269
REMARK SMILES O=c1c(O)c(-c2ccc(O)c(O)c2)oc2cc(O)ccc12
REMARK SMILES IDX 5 1 3 2 2 3 1 4 21 5 15 6 14 7 16 8 17 9 19 10 20 11 6 12
REMARK SMILES IDX 7 13 8 14 9 15 13 16 11 17 10 18 12 20 4 22 18 24
REMARK H PARENT 10 19 12 21 4 23 18 25
REMARK Flexibility Score: inf
ROOT
ATOM      1  C   UNL     1       1.830   6.241  40.509  1.00  0.00     0.180 A 
ATOM      2  C   UNL     1       1.298   5.376  41.489  1.00  0.00     0.208 A 
ATOM      3  C   UNL     1       1.394   3.990  41.290  1.00  0.00     0.235 A 
ATOM      4  O   UNL     1       0.917   3.195  42.146  1.00  0.00    -0.285 OA
ATOM      5  C   UNL     1       2.032   3.499  40.140  1.00  0.00     0.069 A 
ATOM      6  C   UNL     1       2.559   4.430  39.219  1.00  0.00     0.142 A 
ATOM      7  O   UNL     1       2.440   5.734  39.439  1.00  0.00    -0.452 OA
ATOM      8  C   UNL     1       3.211   3.981  38.066  1.00  0.00     0.094 A 
ATOM      9  C   UNL     1       3.341   2.610  37.817  1.00  0.00     0.119 A 
ATOM     10  C   UNL     1       2.817   1.683  38.728  1.00  0.00     0.047 A 
ATOM     11  C   UNL     1       2.166   2.122  39.885  1.00  0.00     0.020 A 
ENDROOT
BRANCH   1  12
ATOM     12  C   UNL     1       1.751   7.714  40.635  1.00  0.00     0.025 A 
ATOM     13  C   UNL     1       2.908   8.512  40.638  1.00  0.00     0.016 A 
ATOM     14  C   UNL     1       2.811   9.898  40.783  1.00  0.00     0.051 A 
ATOM     15  C   UNL     1       1.558  10.506  40.941  1.00  0.00     0.157 A 
ATOM     16  C   UNL     1       0.500   8.326  40.815  1.00  0.00     0.062 A 
ATOM     17  C   UNL     1       0.397   9.714  40.960  1.00  0.00     0.158 A 
BRANCH  15  18
ATOM     18  O   UNL     1       1.464  11.889  41.083  1.00  0.00    -0.504 OA
ATOM     19  H   UNL     1       0.650  12.326  41.501  1.00  0.00     0.293 HD
ENDBRANCH  15  18
BRANCH  17  20
ATOM     20  O   UNL     1      -0.863  10.288  41.122  1.00  0.00    -0.504 OA
ATOM     21  H   UNL     1      -1.448  10.085  41.924  1.00  0.00     0.293 HD
ENDBRANCH  17  20
ENDBRANCH   1  12
BRANCH   2  22
ATOM     22  O   UNL     1       0.712   5.893  42.647  1.00  0.00    -0.502 OA
ATOM     23  H   UNL     1      -0.057   6.550  42.617  1.00  0.00     0.293 HD
ENDBRANCH   2  22
BRANCH   9  24
ATOM     24  O   UNL     1       3.992   2.180  36.663  1.00  0.00    -0.508 OA
ATOM     25  H   UNL     1       3.487   2.013  35.801  1.00  0.00     0.293 HD
ENDBRANCH   9  24
TORSDOF 5
ENDMDL
MODEL 3
REMARK VINA RESULT:    -6.236      1.940      7.027
REMARK INTER + INTRA:          -7.598
REMARK INTER:                  -7.316
REMARK INTRA:                  -0.282
REMARK UNBOUND:                -0.269
REMARK SMILES O=c1c(O)c(-c2ccc(O)c(O)c2)oc2cc(O)ccc12
REMARK SMILES IDX 5 1 3 2 2 3 1 4 21 5 15 6 14 7 16 8 17 9 19 10 20 11 6 12
REMARK SMILES IDX 7 13 8 14 9 15 13 16 11 17 10 18 12 20 4 22 18 24
REMARK H PARENT 10 19 12 21 4 23 18 25
REMARK Flexibility Score: inf
ROOT
ATOM      1  C   UNL     1       0.299   4.989  40.685  1.00  0.00     0.180 A 
ATOM      2  C   UNL     1      -1.061   4.922  40.311  1.00  0.00     0.208 A 
ATOM      3  C   UNL     1      -1.786   3.758  40.609  1.00  0.00     0.235 A 
ATOM      4  O   UNL     1      -3.000   3.669  40.276  1.00  0.00    -0.285 OA
ATOM      5  C   UNL     1      -1.154   2.703  41.286  1.00  0.00     0.069 A 
ATOM      6  C   UNL     1       0.203   2.857  41.646  1.00  0.00     0.142 A 
ATOM      7  O   UNL     1       0.857   3.971  41.338  1.00  0.00    -0.452 OA
ATOM      8  C   UNL     1       0.865   1.833  42.330  1.00  0.00     0.094 A 
ATOM      9  C   UNL     1       0.191   0.652  42.657  1.00  0.00     0.119 A 
ATOM     10  C   UNL     1      -1.155   0.494  42.299  1.00  0.00     0.047 A 
ATOM     11  C   UNL     1      -1.826   1.513  41.617  1.00  0.00     0.020 A 
ENDROOT
BRANCH   1  12
ATOM     12  C   UNL     1       1.137   6.173  40.390  1.00  0.00     0.025 A 
ATOM     13  C   UNL     1       1.392   7.151  41.367  1.00  0.00     0.016 A 
ATOM     14  C   UNL     1       2.166   8.272  41.059  1.00  0.00     0.051 A 
ATOM     15  C   UNL     1       2.685   8.441  39.768  1.00  0.00     0.157 A 
ATOM     16  C   UNL     1       1.641   6.357  39.093  1.00  0.00     0.062 A 
ATOM     17  C   UNL     1       2.417   7.479  38.779  1.00  0.00     0.158 A 
BRANCH  15  18
ATOM     18  O   UNL     1       3.458   9.559  39.464  1.00  0.00    -0.504 OA
ATOM     19  H   UNL     1       4.455   9.583  39.651  1.00  0.00     0.293 HD
ENDBRANCH  15  18
BRANCH  17  20
ATOM     20  O   UNL     1       2.913   7.620  37.484  1.00  0.00    -0.504 OA
ATOM     21  H   UNL     1       3.003   6.832  36.853  1.00  0.00     0.293 HD
ENDBRANCH  17  20
ENDBRANCH   1  12
BRANCH   2  22
ATOM     22  O   UNL     1      -1.676   6.007  39.683  1.00  0.00    -0.502 OA
ATOM     23  H   UNL     1      -2.680   6.065  39.563  1.00  0.00     0.293 HD
ENDBRANCH   2  22
BRANCH   9  24
ATOM     24  O   UNL     1       0.867  -0.359  43.338  1.00  0.00    -0.508 OA
ATOM     25  H   UNL     1       1.841  -0.565  43.149  1.00  0.00     0.293 HD
ENDBRANCH   9  24
TORSDOF 5
ENDMDL
MODEL 4
REMARK VINA RESULT:    -6.202      1.523      6.422
REMARK INTER + INTRA:          -7.558
REMARK INTER:                  -7.319
REMARK INTRA:                  -0.240
REMARK UNBOUND:                -0.269
REMARK SMILES O=c1c(O)c(-c2ccc(O)c(O)c2)oc2cc(O)ccc12
REMARK SMILES IDX 5 1 3 2 2 3 1 4 21 5 15 6 14 7 16 8 17 9 19 10 20 11 6 12
REMARK SMILES IDX 7 13 8 14 9 15 13 16 11 17 10 18 12 20 4 22 18 24
REMARK H PARENT 10 19 12 21 4 23 18 25
REMARK Flexibility Score: inf
ROOT
ATOM      1  C   UNL     1       1.792   5.201  40.150  1.00  0.00     0.180 A 
ATOM      2  C   UNL     1       2.495   4.755  39.010  1.00  0.00     0.208 A 
ATOM      3  C   UNL     1       2.761   3.384  38.874  1.00  0.00     0.235 A 
ATOM      4  O   UNL     1       3.397   2.961  37.869  1.00  0.00    -0.285 OA
ATOM      5  C   UNL     1       2.307   2.490  39.857  1.00  0.00     0.069 A 
ATOM      6  C   UNL     1       1.590   3.013  40.956  1.00  0.00     0.142 A 
ATOM      7  O   UNL     1       1.366   4.319  41.052  1.00  0.00    -0.452 OA
ATOM      8  C   UNL     1       1.111   2.155  41.951  1.00  0.00     0.094 A 
ATOM      9  C   UNL     1       1.343   0.778  41.866  1.00  0.00     0.119 A 
ATOM     10  C   UNL     1       2.056   0.255  40.779  1.00  0.00     0.047 A 
ATOM     11  C   UNL     1       2.536   1.105  39.778  1.00  0.00     0.020 A 
ENDROOT
BRANCH   1  12
ATOM     12  C   UNL     1       1.489   6.632  40.375  1.00  0.00     0.025 A 
ATOM     13  C   UNL     1       2.500   7.553  40.703  1.00  0.00     0.016 A 
ATOM     14  C   UNL     1       2.186   8.894  40.936  1.00  0.00     0.051 A 
ATOM     15  C   UNL     1       0.858   9.333  40.857  1.00  0.00     0.157 A 
ATOM     16  C   UNL     1       0.157   7.074  40.319  1.00  0.00     0.062 A 
ATOM     17  C   UNL     1      -0.162   8.416  40.550  1.00  0.00     0.158 A 
BRANCH  15  18
ATOM     18  O   UNL     1       0.548  10.672  41.087  1.00  0.00    -0.504 OA
ATOM     19  H   UNL     1       0.708  11.383  40.382  1.00  0.00     0.293 HD
ENDBRANCH  15  18
BRANCH  17  20
ATOM     20  O   UNL     1      -1.494   8.820  40.471  1.00  0.00    -0.504 OA
ATOM     21  H   UNL     1      -2.204   8.459  41.097  1.00  0.00     0.293 HD
ENDBRANCH  17  20
ENDBRANCH   1  12
BRANCH   2  22
ATOM     22  O   UNL     1       2.892   5.661  38.024  1.00  0.00    -0.502 OA
ATOM     23  H   UNL     1       2.897   5.422  37.040  1.00  0.00     0.293 HD
ENDBRANCH   2  22
BRANCH   9  24
ATOM     24  O   UNL     1       0.860  -0.063  42.867  1.00  0.00    -0.508 OA
ATOM     25  H   UNL     1       1.434  -0.327  43.659  1.00  0.00     0.293 HD
ENDBRANCH   9  24
TORSDOF 5
ENDMDL
MODEL 5
REMARK VINA RESULT:    -6.070      1.829      6.869
REMARK INTER + INTRA:          -7.403
REMARK INTER:                  -7.165
REMARK INTRA:                  -0.239
REMARK UNBOUND:                -0.269
REMARK SMILES O=c1c(O)c(-c2ccc(O)c(O)c2)oc2cc(O)ccc12
REMARK SMILES IDX 5 1 3 2 2 3 1 4 21 5 15 6 14 7 16 8 17 9 19 10 20 11 6 12
REMARK SMILES IDX 7 13 8 14 9 15 13 16 11 17 10 18 12 20 4 22 18 24
REMARK H PARENT 10 19 12 21 4 23 18 25
REMARK Flexibility Score: inf
ROOT
ATOM      1  C   UNL     1       1.071   4.459  41.384  1.00  0.00     0.180 A 
ATOM      2  C   UNL     1      -0.111   3.894  40.859  1.00  0.00     0.208 A 
ATOM      3  C   UNL     1      -0.446   2.579  41.214  1.00  0.00     0.235 A 
ATOM      4  O   UNL     1      -1.492   2.047  40.749  1.00  0.00    -0.285 OA
ATOM      5  C   UNL     1       0.384   1.867  42.094  1.00  0.00     0.069 A 
ATOM      6  C   UNL     1       1.537   2.512  42.594  1.00  0.00     0.142 A 
ATOM      7  O   UNL     1       1.824   3.755  42.227  1.00  0.00    -0.452 OA
ATOM      8  C   UNL     1       2.384   1.840  43.482  1.00  0.00     0.094 A 
ATOM      9  C   UNL     1       2.098   0.528  43.874  1.00  0.00     0.119 A 
ATOM     10  C   UNL     1       0.956  -0.116  43.378  1.00  0.00     0.047 A 
ATOM     11  C   UNL     1       0.102   0.548  42.493  1.00  0.00     0.020 A 
ENDROOT
BRANCH   1  12
ATOM     12  C   UNL     1       1.504   5.833  41.042  1.00  0.00     0.025 A 
ATOM     13  C   UNL     1       1.369   6.893  41.957  1.00  0.00     0.016 A 
ATOM     14  C   UNL     1       1.761   8.185  41.604  1.00  0.00     0.051 A 
ATOM     15  C   UNL     1       2.282   8.443  40.329  1.00  0.00     0.157 A 
ATOM     16  C   UNL     1       2.006   6.101  39.758  1.00  0.00     0.062 A 
ATOM     17  C   UNL     1       2.401   7.395  39.400  1.00  0.00     0.158 A 
BRANCH  15  18
ATOM     18  O   UNL     1       2.675   9.734  39.980  1.00  0.00    -0.504 OA
ATOM     19  H   UNL     1       3.186   9.921  39.124  1.00  0.00     0.293 HD
ENDBRANCH  15  18
BRANCH  17  20
ATOM     20  O   UNL     1       2.909   7.619  38.121  1.00  0.00    -0.504 OA
ATOM     21  H   UNL     1       3.286   6.870  37.553  1.00  0.00     0.293 HD
ENDBRANCH  17  20
ENDBRANCH   1  12
BRANCH   2  22
ATOM     22  O   UNL     1      -0.944   4.644  40.024  1.00  0.00    -0.502 OA
ATOM     23  H   UNL     1      -1.322   4.272  39.162  1.00  0.00     0.293 HD
ENDBRANCH   2  22
BRANCH   9  24
ATOM     24  O   UNL     1       2.953  -0.127  44.758  1.00  0.00    -0.508 OA
ATOM     25  H   UNL     1       3.900   0.196  44.915  1.00  0.00     0.293 HD
ENDBRANCH   9  24
TORSDOF 5
ENDMDL
MODEL 6
REMARK VINA RESULT:    -5.780      2.393      7.360
REMARK INTER + INTRA:          -7.062
REMARK INTER:                  -7.183
REMARK INTRA:                   0.121
REMARK UNBOUND:                -0.269
REMARK SMILES O=c1c(O)c(-c2ccc(O)c(O)c2)oc2cc(O)ccc12
REMARK SMILES IDX 5 1 3 2 2 3 1 4 21 5 15 6 14 7 16 8 17 9 19 10 20 11 6 12
REMARK SMILES IDX 7 13 8 14 9 15 13 16 11 17 10 18 12 20 4 22 18 24
REMARK H PARENT 10 19 12 21 4 23 18 25
REMARK Flexibility Score: inf
ROOT
ATOM      1  C   UNL     1       0.339   6.676  40.781  1.00  0.00     0.180 A 
ATOM      2  C   UNL     1      -0.905   6.395  40.177  1.00  0.00     0.208 A 
ATOM      3  C   UNL     1      -1.394   5.081  40.218  1.00  0.00     0.235 A 
ATOM      4  O   UNL     1      -2.499   4.801  39.676  1.00  0.00    -0.285 OA
ATOM      5  C   UNL     1      -0.650   4.086  40.872  1.00  0.00     0.069 A 
ATOM      6  C   UNL     1       0.575   4.453  41.472  1.00  0.00     0.142 A 
ATOM      7  O   UNL     1       1.007   5.707  41.404  1.00  0.00    -0.452 OA
ATOM      8  C   UNL     1       1.341   3.494  42.143  1.00  0.00     0.094 A 
ATOM      9  C   UNL     1       0.901   2.168  42.219  1.00  0.00     0.119 A 
ATOM     10  C   UNL     1      -0.312   1.799  41.623  1.00  0.00     0.047 A 
ATOM     11  C   UNL     1      -1.086   2.751  40.953  1.00  0.00     0.020 A 
ENDROOT
BRANCH   1  12
ATOM     12  C   UNL     1       0.932   8.033  40.765  1.00  0.00     0.025 A 
ATOM     13  C   UNL     1       2.299   8.233  40.507  1.00  0.00     0.016 A 
ATOM     14  C   UNL     1       2.841   9.520  40.520  1.00  0.00     0.051 A 
ATOM     15  C   UNL     1       2.028  10.626  40.805  1.00  0.00     0.157 A 
ATOM     16  C   UNL     1       0.126   9.143  41.070  1.00  0.00     0.062 A 
ATOM     17  C   UNL     1       0.664  10.434  41.084  1.00  0.00     0.158 A 
BRANCH  15  18
ATOM     18  O   UNL     1       2.570  11.910  40.815  1.00  0.00    -0.504 OA
ATOM     19  H   UNL     1       2.440  12.548  40.039  1.00  0.00     0.293 HD
ENDBRANCH  15  18
BRANCH  17  20
ATOM     20  O   UNL     1      -0.170  11.513  41.377  1.00  0.00    -0.504 OA
ATOM     21  H   UNL     1      -1.068  11.637  40.926  1.00  0.00     0.293 HD
ENDBRANCH  17  20
ENDBRANCH   1  12
BRANCH   2  22
ATOM     22  O   UNL     1      -1.647   7.415  39.576  1.00  0.00    -0.502 OA
ATOM     23  H   UNL     1      -2.520   7.750  39.964  1.00  0.00     0.293 HD
ENDBRANCH   2  22
BRANCH   9  24
ATOM     24  O   UNL     1       1.677   1.225  42.889  1.00  0.00    -0.508 OA
ATOM     25  H   UNL     1       2.399   1.501  43.544  1.00  0.00     0.293 HD
ENDBRANCH   9  24
TORSDOF 5
ENDMDL
MODEL 7
REMARK VINA RESULT:    -5.740      2.136      3.668
REMARK INTER + INTRA:          -7.016
REMARK INTER:                  -6.825
REMARK INTRA:                  -0.191
REMARK UNBOUND:                -0.269
REMARK SMILES O=c1c(O)c(-c2ccc(O)c(O)c2)oc2cc(O)ccc12
REMARK SMILES IDX 5 1 3 2 2 3 1 4 21 5 15 6 14 7 16 8 17 9 19 10 20 11 6 12
REMARK SMILES IDX 7 13 8 14 9 15 13 16 11 17 10 18 12 20 4 22 18 24
REMARK H PARENT 10 19 12 21 4 23 18 25
REMARK Flexibility Score: inf
ROOT
ATOM      1  C   UNL     1       0.708   4.805  40.584  1.00  0.00     0.180 A 
ATOM      2  C   UNL     1      -0.666   5.084  40.425  1.00  0.00     0.208 A 
ATOM      3  C   UNL     1      -1.095   6.419  40.484  1.00  0.00     0.235 A 
ATOM      4  O   UNL     1      -2.320   6.694  40.355  1.00  0.00    -0.285 OA
ATOM      5  C   UNL     1      -0.152   7.441  40.678  1.00  0.00     0.069 A 
ATOM      6  C   UNL     1       1.207   7.080  40.805  1.00  0.00     0.142 A 
ATOM      7  O   UNL     1       1.572   5.804  40.752  1.00  0.00    -0.452 OA
ATOM      8  C   UNL     1       2.179   8.069  40.989  1.00  0.00     0.094 A 
ATOM      9  C   UNL     1       1.811   9.417  41.052  1.00  0.00     0.119 A 
ATOM     10  C   UNL     1       0.462   9.779  40.928  1.00  0.00     0.047 A 
ATOM     11  C   UNL     1      -0.516   8.798  40.742  1.00  0.00     0.020 A 
ENDROOT
BRANCH   1  12
ATOM     12  C   UNL     1       1.237   3.423  40.553  1.00  0.00     0.025 A 
ATOM     13  C   UNL     1       0.890   2.482  41.539  1.00  0.00     0.016 A 
ATOM     14  C   UNL     1       1.421   1.191  41.503  1.00  0.00     0.051 A 
ATOM     15  C   UNL     1       2.316   0.823  40.489  1.00  0.00     0.157 A 
ATOM     16  C   UNL     1       2.150   3.055  39.552  1.00  0.00     0.062 A 
ATOM     17  C   UNL     1       2.684   1.762  39.511  1.00  0.00     0.158 A 
BRANCH  15  18
ATOM     18  O   UNL     1       2.842  -0.467  40.454  1.00  0.00    -0.504 OA
ATOM     19  H   UNL     1       3.649  -0.727  41.010  1.00  0.00     0.293 HD
ENDBRANCH  15  18
BRANCH  17  20
ATOM     20  O   UNL     1       3.578   1.429  38.493  1.00  0.00    -0.504 OA
ATOM     21  H   UNL     1       3.281   1.322  37.530  1.00  0.00     0.293 HD
ENDBRANCH  17  20
ENDBRANCH   1  12
BRANCH   2  22
ATOM     22  O   UNL     1      -1.576   4.051  40.184  1.00  0.00    -0.502 OA
ATOM     23  H   UNL     1      -1.702   3.645  39.266  1.00  0.00     0.293 HD
ENDBRANCH   2  22
BRANCH   9  24
ATOM     24  O   UNL     1       2.791  10.390  41.237  1.00  0.00    -0.508 OA
ATOM     25  H   UNL     1       3.337  10.745  40.461  1.00  0.00     0.293 HD
ENDBRANCH   9  24
TORSDOF 5
ENDMDL
MODEL 8
REMARK VINA RESULT:    -5.633      2.991      7.931
REMARK INTER + INTRA:          -6.890
REMARK INTER:                  -6.807
REMARK INTRA:                  -0.083
REMARK UNBOUND:                -0.269
REMARK SMILES O=c1c(O)c(-c2ccc(O)c(O)c2)oc2cc(O)ccc12
REMARK SMILES IDX 5 1 3 2 2 3 1 4 21 5 15 6 14 7 16 8 17 9 19 10 20 11 6 12
REMARK SMILES IDX 7 13 8 14 9 15 13 16 11 17 10 18 12 20 4 22 18 24
REMARK H PARENT 10 19 12 21 4 23 18 25
REMARK Flexibility Score: inf
ROOT
ATOM      1  C   UNL     1       0.952   8.006  41.134  1.00  0.00     0.180 A 
ATOM      2  C   UNL     1       0.566   7.176  42.208  1.00  0.00     0.208 A 
ATOM      3  C   UNL     1       0.830   5.801  42.128  1.00  0.00     0.235 A 
ATOM      4  O   UNL     1       0.485   5.036  43.070  1.00  0.00    -0.285 OA
ATOM      5  C   UNL     1       1.487   5.288  40.998  1.00  0.00     0.069 A 
ATOM      6  C   UNL     1       1.862   6.188  39.976  1.00  0.00     0.142 A 
ATOM      7  O   UNL     1       1.586   7.482  40.086  1.00  0.00    -0.452 OA
ATOM      8  C   UNL     1       2.528   5.718  38.839  1.00  0.00     0.094 A 
ATOM      9  C   UNL     1       2.822   4.356  38.707  1.00  0.00     0.119 A 
ATOM     10  C   UNL     1       2.450   3.460  39.717  1.00  0.00     0.047 A 
ATOM     11  C   UNL     1       1.786   3.920  40.858  1.00  0.00     0.020 A 
ENDROOT
BRANCH   1  12
ATOM     12  C   UNL     1       0.691   9.464  41.134  1.00  0.00     0.025 A 
ATOM     13  C   UNL     1      -0.605   9.977  41.311  1.00  0.00     0.016 A 
ATOM     14  C   UNL     1      -0.830  11.355  41.283  1.00  0.00     0.051 A 
ATOM     15  C   UNL     1       0.234  12.240  41.066  1.00  0.00     0.157 A 
ATOM     16  C   UNL     1       1.751  10.355  40.896  1.00  0.00     0.062 A 
ATOM     17  C   UNL     1       1.530  11.736  40.868  1.00  0.00     0.158 A 
BRANCH  15  18
ATOM     18  O   UNL     1       0.007  13.615  41.041  1.00  0.00    -0.504 OA
ATOM     19  H   UNL     1      -0.568  14.046  40.326  1.00  0.00     0.293 HD
ENDBRANCH  15  18
BRANCH  17  20
ATOM     20  O   UNL     1       2.609  12.591  40.642  1.00  0.00    -0.504 OA
ATOM     21  H   UNL     1       3.557  12.340  40.898  1.00  0.00     0.293 HD
ENDBRANCH  17  20
ENDBRANCH   1  12
BRANCH   2  22
ATOM     22  O   UNL     1      -0.042   7.722  43.341  1.00  0.00    -0.502 OA
ATOM     23  H   UNL     1      -0.326   8.693  43.388  1.00  0.00     0.293 HD
ENDBRANCH   2  22
BRANCH   9  24
ATOM     24  O   UNL     1       3.484   3.905  37.567  1.00  0.00    -0.508 OA
ATOM     25  H   UNL     1       4.286   4.396  37.190  1.00  0.00     0.293 HD
ENDBRANCH   9  24
TORSDOF 5
ENDMDL
MODEL 9
REMARK VINA RESULT:    -5.565      1.979      3.313
REMARK INTER + INTRA:          -6.810
REMARK INTER:                  -6.623
REMARK INTRA:                  -0.187
REMARK UNBOUND:                -0.269
REMARK SMILES O=c1c(O)c(-c2ccc(O)c(O)c2)oc2cc(O)ccc12
REMARK SMILES IDX 5 1 3 2 2 3 1 4 21 5 15 6 14 7 16 8 17 9 19 10 20 11 6 12
REMARK SMILES IDX 7 13 8 14 9 15 13 16 11 17 10 18 12 20 4 22 18 24
REMARK H PARENT 10 19 12 21 4 23 18 25
REMARK Flexibility Score: inf
ROOT
ATOM      1  C   UNL     1       0.605   4.538  40.852  1.00  0.00     0.180 A 
ATOM      2  C   UNL     1      -0.784   4.788  40.827  1.00  0.00     0.208 A 
ATOM      3  C   UNL     1      -1.233   6.116  40.878  1.00  0.00     0.235 A 
ATOM      4  O   UNL     1      -2.470   6.365  40.868  1.00  0.00    -0.285 OA
ATOM      5  C   UNL     1      -0.296   7.161  40.930  1.00  0.00     0.069 A 
ATOM      6  C   UNL     1       1.076   6.829  40.927  1.00  0.00     0.142 A 
ATOM      7  O   UNL     1       1.460   5.559  40.887  1.00  0.00    -0.452 OA
ATOM      8  C   UNL     1       2.041   7.842  40.968  1.00  0.00     0.094 A 
ATOM      9  C   UNL     1       1.652   9.185  41.015  1.00  0.00     0.119 A 
ATOM     10  C   UNL     1       0.291   9.518  41.021  1.00  0.00     0.047 A 
ATOM     11  C   UNL     1      -0.680   8.513  40.978  1.00  0.00     0.020 A 
ENDROOT
BRANCH   1  12
ATOM     12  C   UNL     1       1.157   3.165  40.820  1.00  0.00     0.025 A 
ATOM     13  C   UNL     1       1.845   2.677  39.695  1.00  0.00     0.016 A 
ATOM     14  C   UNL     1       2.336   1.370  39.679  1.00  0.00     0.051 A 
ATOM     15  C   UNL     1       2.137   0.526  40.780  1.00  0.00     0.157 A 
ATOM     16  C   UNL     1       0.942   2.308  41.912  1.00  0.00     0.062 A 
ATOM     17  C   UNL     1       1.433   0.998  41.901  1.00  0.00     0.158 A 
BRANCH  15  18
ATOM     18  O   UNL     1       2.630  -0.777  40.762  1.00  0.00    -0.504 OA
ATOM     19  H   UNL     1       3.558  -0.990  40.413  1.00  0.00     0.293 HD
ENDBRANCH  15  18
BRANCH  17  20
ATOM     20  O   UNL     1       1.212   0.181  43.009  1.00  0.00    -0.504 OA
ATOM     21  H   UNL     1       1.782  -0.634  43.199  1.00  0.00     0.293 HD
ENDBRANCH  17  20
ENDBRANCH   1  12
BRANCH   2  22
ATOM     22  O   UNL     1      -1.691   3.730  40.725  1.00  0.00    -0.502 OA
ATOM     23  H   UNL     1      -2.513   3.664  41.312  1.00  0.00     0.293 HD
ENDBRANCH   2  22
BRANCH   9  24
ATOM     24  O   UNL     1       2.626  10.181  41.057  1.00  0.00    -0.508 OA
ATOM     25  H   UNL     1       3.305  10.288  40.314  1.00  0.00     0.293 HD
ENDBRANCH   9  24
TORSDOF 5
ENDMDL
