MODEL 1
REMARK VINA RESULT:    -4.587      0.000      0.000
REMARK INTER + INTRA:          -6.949
REMARK INTER:                  -6.195
REMARK INTRA:                  -0.754
REMARK UNBOUND:                -0.754
REMARK SMILES O=c1c(-c2ccc(O)cc2)coc2c([C@H]3O[C@H](CO)[C@@H](O)[C@H](O)[C@H]3O)c(O)ccc12
REMARK SMILES IDX 3 1 11 2 12 3 13 4 30 5 2 6 1 7 29 8 28 9 26 10 14 11 4 12
REMARK SMILES IDX 5 13 6 14 7 15 10 16 9 17 8 18 15 20 24 21 16 22 22 23 17 24
REMARK SMILES IDX 20 25 25 26 23 28 18 30 19 31 21 33 27 35
REMARK H PARENT 8 19 25 27 23 29 19 32 21 34 27 36
REMARK Flexibility Score: inf
ROOT
ATOM      1  C   UNL     1     116.140  11.010 140.451  1.00  0.00     0.065 A 
ATOM      2  C   UNL     1     117.172  10.076 140.276  1.00  0.00     0.208 A 
ATOM      3  O   UNL     1     117.142   8.902 140.894  1.00  0.00    -0.463 OA
ATOM      4  C   UNL     1     116.157   8.531 141.709  1.00  0.00     0.147 A 
ATOM      5  C   UNL     1     115.075   9.411 141.942  1.00  0.00     0.066 A 
ATOM      6  C   UNL     1     115.067  10.656 141.289  1.00  0.00     0.200 A 
ATOM      7  O   UNL     1     114.091  11.445 141.437  1.00  0.00    -0.288 OA
ATOM      8  C   UNL     1     114.037   9.018 142.794  1.00  0.00     0.020 A 
ATOM      9  C   UNL     1     114.087   7.784 143.434  1.00  0.00     0.047 A 
ATOM     10  C   UNL     1     115.157   6.906 143.226  1.00  0.00     0.125 A 
ATOM     11  C   UNL     1     116.199   7.255 142.330  1.00  0.00     0.069 A 
ENDROOT
BRANCH   1  12
ATOM     12  C   UNL     1     116.210  12.330 139.768  1.00  0.00    -0.011 A 
ATOM     13  C   UNL     1     116.661  13.467 140.461  1.00  0.00     0.013 A 
ATOM     14  C   UNL     1     116.696  14.714 139.828  1.00  0.00     0.047 A 
ATOM     15  C   UNL     1     116.287  14.840 138.495  1.00  0.00     0.115 A 
ATOM     16  C   UNL     1     115.789  12.471 138.430  1.00  0.00     0.013 A 
ATOM     17  C   UNL     1     115.835  13.716 137.800  1.00  0.00     0.047 A 
BRANCH  15  18
ATOM     18  O   UNL     1     116.315  16.077 137.855  1.00  0.00    -0.508 OA
ATOM     19  H   UNL     1     117.074  16.733 138.003  1.00  0.00     0.293 HD
ENDBRANCH  15  18
ENDBRANCH   1  12
BRANCH  11  20
ATOM     20  C   UNL     1     117.336   6.297 141.944  1.00  0.00     0.188 C 
ATOM     21  C   UNL     1     116.894   5.239 140.879  1.00  0.00     0.179 C 
ATOM     22  O   UNL     1     118.068   5.782 143.057  1.00  0.00    -0.362 OA
ATOM     23  C   UNL     1     117.855   4.033 140.851  1.00  0.00     0.177 C 
ATOM     24  C   UNL     1     117.736   4.446 143.402  1.00  0.00     0.176 C 
ATOM     25  C   UNL     1     118.113   3.455 142.266  1.00  0.00     0.177 C 
BRANCH  21  26
ATOM     26  O   UNL     1     115.544   4.852 141.013  1.00  0.00    -0.387 OA
ATOM     27  H   UNL     1     115.036   5.588 141.428  1.00  0.00     0.211 HD
ENDBRANCH  21  26
BRANCH  23  28
ATOM     28  O   UNL     1     119.083   4.448 140.302  1.00  0.00    -0.387 OA
ATOM     29  H   UNL     1     119.226   3.919 139.473  1.00  0.00     0.211 HD
ENDBRANCH  23  28
BRANCH  24  30
ATOM     30  C   UNL     1     118.455   4.061 144.711  1.00  0.00     0.191 C 
BRANCH  30  31
ATOM     31  O   UNL     1     117.710   3.118 145.443  1.00  0.00    -0.394 OA
ATOM     32  H   UNL     1     118.198   2.980 146.300  1.00  0.00     0.210 HD
ENDBRANCH  30  31
ENDBRANCH  24  30
BRANCH  25  33
ATOM     33  O   UNL     1     117.453   2.224 142.444  1.00  0.00    -0.388 OA
ATOM     34  H   UNL     1     117.182   1.889 141.551  1.00  0.00     0.211 HD
ENDBRANCH  25  33
ENDBRANCH  11  20
BRANCH  10  35
ATOM     35  O   UNL     1     115.173   5.705 143.926  1.00  0.00    -0.507 OA
ATOM     36  H   UNL     1     115.946   5.055 143.849  1.00  0.00     0.293 HD
ENDBRANCH  10  35
TORSDOF 9
ENDMDL
MODEL 2
REMARK VINA RESULT:    -4.497      6.723     10.542
REMARK INTER + INTRA:          -6.828
REMARK INTER:                  -6.023
REMARK INTRA:                  -0.805
REMARK UNBOUND:                -0.754
REMARK SMILES O=c1c(-c2ccc(O)cc2)coc2c([C@H]3O[C@H](CO)[C@@H](O)[C@H](O)[C@H]3O)c(O)ccc12
REMARK SMILES IDX 3 1 11 2 12 3 13 4 30 5 2 6 1 7 29 8 28 9 26 10 14 11 4 12
REMARK SMILES IDX 5 13 6 14 7 15 10 16 9 17 8 18 15 20 24 21 16 22 22 23 17 24
REMARK SMILES IDX 20 25 25 26 23 28 18 30 19 31 21 33 27 35
REMARK H PARENT 8 19 25 27 23 29 19 32 21 34 27 36
REMARK Flexibility Score: inf
ROOT
ATOM      1  C   UNL     1     120.757   3.802 141.833  1.00  0.00     0.065 A 
ATOM      2  C   UNL     1     122.124   3.929 142.122  1.00  0.00     0.208 A 
ATOM      3  O   UNL     1     123.004   4.180 141.162  1.00  0.00    -0.463 OA
ATOM      4  C   UNL     1     122.668   4.326 139.882  1.00  0.00     0.147 A 
ATOM      5  C   UNL     1     121.311   4.215 139.501  1.00  0.00     0.066 A 
ATOM      6  C   UNL     1     120.350   3.965 140.496  1.00  0.00     0.200 A 
ATOM      7  O   UNL     1     119.124   3.910 140.196  1.00  0.00    -0.288 OA
ATOM      8  C   UNL     1     120.957   4.373 138.156  1.00  0.00     0.020 A 
ATOM      9  C   UNL     1     121.938   4.603 137.197  1.00  0.00     0.047 A 
ATOM     10  C   UNL     1     123.288   4.702 137.556  1.00  0.00     0.125 A 
ATOM     11  C   UNL     1     123.672   4.596 138.917  1.00  0.00     0.069 A 
ENDROOT
BRANCH   1  12
ATOM     12  C   UNL     1     119.793   3.494 142.923  1.00  0.00    -0.011 A 
ATOM     13  C   UNL     1     119.201   4.532 143.663  1.00  0.00     0.013 A 
ATOM     14  C   UNL     1     118.320   4.243 144.710  1.00  0.00     0.047 A 
ATOM     15  C   UNL     1     118.013   2.914 145.027  1.00  0.00     0.115 A 
ATOM     16  C   UNL     1     119.487   2.160 143.258  1.00  0.00     0.013 A 
ATOM     17  C   UNL     1     118.599   1.876 144.298  1.00  0.00     0.047 A 
BRANCH  15  18
ATOM     18  O   UNL     1     117.139   2.613 146.068  1.00  0.00    -0.508 OA
ATOM     19  H   UNL     1     117.478   2.374 146.993  1.00  0.00     0.293 HD
ENDBRANCH  15  18
ENDBRANCH   1  12
BRANCH  11  20
ATOM     20  C   UNL     1     125.109   4.826 139.407  1.00  0.00     0.188 C 
ATOM     21  C   UNL     1     125.448   6.343 139.583  1.00  0.00     0.179 C 
ATOM     22  O   UNL     1     126.092   4.051 138.719  1.00  0.00    -0.362 OA
ATOM     23  C   UNL     1     126.972   6.580 139.612  1.00  0.00     0.177 C 
ATOM     24  C   UNL     1     126.839   4.781 137.758  1.00  0.00     0.176 C 
ATOM     25  C   UNL     1     127.697   5.891 138.428  1.00  0.00     0.177 C 
BRANCH  21  26
ATOM     26  O   UNL     1     124.791   7.168 138.645  1.00  0.00    -0.387 OA
ATOM     27  H   UNL     1     124.049   7.639 139.093  1.00  0.00     0.211 HD
ENDBRANCH  21  26
BRANCH  23  28
ATOM     28  O   UNL     1     127.484   6.064 140.817  1.00  0.00    -0.387 OA
ATOM     29  H   UNL     1     128.475   6.131 140.766  1.00  0.00     0.211 HD
ENDBRANCH  23  28
BRANCH  24  30
ATOM     30  C   UNL     1     127.739   3.812 136.965  1.00  0.00     0.191 C 
BRANCH  30  31
ATOM     31  O   UNL     1     129.100   4.045 137.235  1.00  0.00    -0.394 OA
ATOM     32  H   UNL     1     129.158   4.278 138.202  1.00  0.00     0.210 HD
ENDBRANCH  30  31
ENDBRANCH  24  30
BRANCH  25  33
ATOM     33  O   UNL     1     128.124   6.831 137.472  1.00  0.00    -0.388 OA
ATOM     34  H   UNL     1     128.122   7.726 137.899  1.00  0.00     0.211 HD
ENDBRANCH  25  33
ENDBRANCH  11  20
BRANCH  10  35
ATOM     35  O   UNL     1     124.227   4.892 136.548  1.00  0.00    -0.507 OA
ATOM     36  H   UNL     1     124.613   4.112 136.028  1.00  0.00     0.293 HD
ENDBRANCH  10  35
TORSDOF 9
ENDMDL
MODEL 3
REMARK VINA RESULT:    -4.410      3.550      8.639
REMARK INTER + INTRA:          -6.711
REMARK INTER:                  -6.014
REMARK INTRA:                  -0.697
REMARK UNBOUND:                -0.754
REMARK SMILES O=c1c(-c2ccc(O)cc2)coc2c([C@H]3O[C@H](CO)[C@@H](O)[C@H](O)[C@H]3O)c(O)ccc12
REMARK SMILES IDX 3 1 11 2 12 3 13 4 30 5 2 6 1 7 29 8 28 9 26 10 14 11 4 12
REMARK SMILES IDX 5 13 6 14 7 15 10 16 9 17 8 18 15 20 24 21 16 22 22 23 17 24
REMARK SMILES IDX 20 25 25 26 23 28 18 30 19 31 21 33 27 35
REMARK H PARENT 8 19 25 27 23 29 19 32 21 34 27 36
REMARK Flexibility Score: inf
ROOT
ATOM      1  C   UNL     1     117.536   6.179 141.470  1.00  0.00     0.065 A 
ATOM      2  C   UNL     1     117.929   5.887 140.155  1.00  0.00     0.208 A 
ATOM      3  O   UNL     1     117.939   6.829 139.221  1.00  0.00    -0.463 OA
ATOM      4  C   UNL     1     117.585   8.092 139.451  1.00  0.00     0.147 A 
ATOM      5  C   UNL     1     117.177   8.475 140.750  1.00  0.00     0.066 A 
ATOM      6  C   UNL     1     117.170   7.505 141.768  1.00  0.00     0.200 A 
ATOM      7  O   UNL     1     116.858   7.826 142.949  1.00  0.00    -0.288 OA
ATOM      8  C   UNL     1     116.809   9.803 140.994  1.00  0.00     0.020 A 
ATOM      9  C   UNL     1     116.813  10.731 139.958  1.00  0.00     0.047 A 
ATOM     10  C   UNL     1     117.201  10.365 138.663  1.00  0.00     0.125 A 
ATOM     11  C   UNL     1     117.626   9.039 138.396  1.00  0.00     0.069 A 
ENDROOT
BRANCH   1  12
ATOM     12  C   UNL     1     117.508   5.100 142.493  1.00  0.00    -0.011 A 
ATOM     13  C   UNL     1     116.366   4.295 142.647  1.00  0.00     0.013 A 
ATOM     14  C   UNL     1     116.327   3.302 143.631  1.00  0.00     0.047 A 
ATOM     15  C   UNL     1     117.429   3.096 144.470  1.00  0.00     0.115 A 
ATOM     16  C   UNL     1     118.607   4.893 143.350  1.00  0.00     0.013 A 
ATOM     17  C   UNL     1     118.567   3.893 144.325  1.00  0.00     0.047 A 
BRANCH  15  18
ATOM     18  O   UNL     1     117.401   2.112 145.454  1.00  0.00    -0.508 OA
ATOM     19  H   UNL     1     116.910   1.235 145.314  1.00  0.00     0.293 HD
ENDBRANCH  15  18
ENDBRANCH   1  12
BRANCH  11  20
ATOM     20  C   UNL     1     118.193   8.593 137.040  1.00  0.00     0.188 C 
ATOM     21  C   UNL     1     119.739   8.808 136.935  1.00  0.00     0.179 C 
ATOM     22  O   UNL     1     117.432   9.034 135.915  1.00  0.00    -0.362 OA
ATOM     23  C   UNL     1     120.210   8.807 135.467  1.00  0.00     0.177 C 
ATOM     24  C   UNL     1     118.003  10.134 135.224  1.00  0.00     0.176 C 
ATOM     25  C   UNL     1     119.365   9.756 134.578  1.00  0.00     0.177 C 
BRANCH  21  26
ATOM     26  O   UNL     1     120.188   9.942 137.645  1.00  0.00    -0.387 OA
ATOM     27  H   UNL     1     119.408  10.439 137.988  1.00  0.00     0.211 HD
ENDBRANCH  21  26
BRANCH  23  28
ATOM     28  O   UNL     1     120.101   7.498 134.961  1.00  0.00    -0.387 OA
ATOM     29  H   UNL     1     119.987   6.892 135.740  1.00  0.00     0.211 HD
ENDBRANCH  23  28
BRANCH  24  30
ATOM     30  C   UNL     1     117.017  10.629 134.146  1.00  0.00     0.191 C 
BRANCH  30  31
ATOM     31  O   UNL     1     117.204  11.997 133.875  1.00  0.00    -0.394 OA
ATOM     32  H   UNL     1     116.559  12.230 133.153  1.00  0.00     0.210 HD
ENDBRANCH  30  31
ENDBRANCH  24  30
BRANCH  25  33
ATOM     33  O   UNL     1     120.088  10.912 134.233  1.00  0.00    -0.388 OA
ATOM     34  H   UNL     1     120.521  10.754 133.356  1.00  0.00     0.211 HD
ENDBRANCH  25  33
ENDBRANCH  11  20
BRANCH  10  35
ATOM     35  O   UNL     1     117.145  11.327 137.660  1.00  0.00    -0.507 OA
ATOM     36  H   UNL     1     117.958  11.873 137.402  1.00  0.00     0.293 HD
ENDBRANCH  10  35
TORSDOF 9
ENDMDL
MODEL 4
REMARK VINA RESULT:    -4.282      1.787      2.814
REMARK INTER + INTRA:          -6.538
REMARK INTER:                  -5.778
REMARK INTRA:                  -0.760
REMARK UNBOUND:                -0.754
REMARK SMILES O=c1c(-c2ccc(O)cc2)coc2c([C@H]3O[C@H](CO)[C@@H](O)[C@H](O)[C@H]3O)c(O)ccc12
REMARK SMILES IDX 3 1 11 2 12 3 13 4 30 5 2 6 1 7 29 8 28 9 26 10 14 11 4 12
REMARK SMILES IDX 5 13 6 14 7 15 10 16 9 17 8 18 15 20 24 21 16 22 22 23 17 24
REMARK SMILES IDX 20 25 25 26 23 28 18 30 19 31 21 33 27 35
REMARK H PARENT 8 19 25 27 23 29 19 32 21 34 27 36
REMARK Flexibility Score: inf
ROOT
ATOM      1  C   UNL     1     115.826  10.014 140.691  1.00  0.00     0.065 A 
ATOM      2  C   UNL     1     116.217   9.486 141.931  1.00  0.00     0.208 A 
ATOM      3  O   UNL     1     116.348   8.177 142.104  1.00  0.00    -0.463 OA
ATOM      4  C   UNL     1     116.124   7.286 141.140  1.00  0.00     0.147 A 
ATOM      5  C   UNL     1     115.727   7.731 139.858  1.00  0.00     0.066 A 
ATOM      6  C   UNL     1     115.595   9.113 139.635  1.00  0.00     0.200 A 
ATOM      7  O   UNL     1     115.291   9.545 138.488  1.00  0.00    -0.288 OA
ATOM      8  C   UNL     1     115.496   6.794 138.844  1.00  0.00     0.020 A 
ATOM      9  C   UNL     1     115.622   5.434 139.106  1.00  0.00     0.047 A 
ATOM     10  C   UNL     1     116.000   4.976 140.374  1.00  0.00     0.125 A 
ATOM     11  C   UNL     1     116.290   5.902 141.408  1.00  0.00     0.069 A 
ENDROOT
BRANCH   1  12
ATOM     12  C   UNL     1     115.661  11.483 140.529  1.00  0.00    -0.011 A 
ATOM     13  C   UNL     1     116.727  12.272 140.062  1.00  0.00     0.013 A 
ATOM     14  C   UNL     1     116.583  13.657 139.940  1.00  0.00     0.047 A 
ATOM     15  C   UNL     1     115.371  14.273 140.278  1.00  0.00     0.115 A 
ATOM     16  C   UNL     1     114.450  12.114 140.877  1.00  0.00     0.013 A 
ATOM     17  C   UNL     1     114.307  13.497 140.744  1.00  0.00     0.047 A 
BRANCH  15  18
ATOM     18  O   UNL     1     115.216  15.652 140.163  1.00  0.00    -0.508 OA
ATOM     19  H   UNL     1     114.475  16.057 139.601  1.00  0.00     0.293 HD
ENDBRANCH  15  18
ENDBRANCH   1  12
BRANCH  11  20
ATOM     20  C   UNL     1     116.839   5.488 142.781  1.00  0.00     0.188 C 
ATOM     21  C   UNL     1     118.369   5.166 142.744  1.00  0.00     0.179 C 
ATOM     22  O   UNL     1     116.025   4.539 143.473  1.00  0.00    -0.362 OA
ATOM     23  C   UNL     1     118.797   4.325 143.964  1.00  0.00     0.177 C 
ATOM     24  C   UNL     1     116.524   3.211 143.434  1.00  0.00     0.176 C 
ATOM     25  C   UNL     1     117.883   3.091 144.177  1.00  0.00     0.177 C 
BRANCH  21  26
ATOM     26  O   UNL     1     118.783   4.595 141.522  1.00  0.00    -0.387 OA
ATOM     27  H   UNL     1     118.215   4.941 140.794  1.00  0.00     0.211 HD
ENDBRANCH  21  26
BRANCH  23  28
ATOM     28  O   UNL     1     118.737   5.136 145.113  1.00  0.00    -0.387 OA
ATOM     29  H   UNL     1     118.514   4.541 145.878  1.00  0.00     0.211 HD
ENDBRANCH  23  28
BRANCH  24  30
ATOM     30  C   UNL     1     115.485   2.256 144.058  1.00  0.00     0.191 C 
BRANCH  30  31
ATOM     31  O   UNL     1     115.802   1.964 145.397  1.00  0.00    -0.394 OA
ATOM     32  H   UNL     1     115.957   2.839 145.846  1.00  0.00     0.210 HD
ENDBRANCH  30  31
ENDBRANCH  24  30
BRANCH  25  33
ATOM     33  O   UNL     1     118.540   1.899 143.818  1.00  0.00    -0.388 OA
ATOM     34  H   UNL     1     119.475   1.954 144.144  1.00  0.00     0.211 HD
ENDBRANCH  25  33
ENDBRANCH  11  20
BRANCH  10  35
ATOM     35  O   UNL     1     116.069   3.604 140.587  1.00  0.00    -0.507 OA
ATOM     36  H   UNL     1     115.251   3.064 140.844  1.00  0.00     0.293 HD
ENDBRANCH  10  35
TORSDOF 9
ENDMDL
MODEL 5
REMARK VINA RESULT:    -4.267      6.919     10.035
REMARK INTER + INTRA:          -6.518
REMARK INTER:                  -6.029
REMARK INTRA:                  -0.489
REMARK UNBOUND:                -0.754
REMARK SMILES O=c1c(-c2ccc(O)cc2)coc2c([C@H]3O[C@H](CO)[C@@H](O)[C@H](O)[C@H]3O)c(O)ccc12
REMARK SMILES IDX 3 1 11 2 12 3 13 4 30 5 2 6 1 7 29 8 28 9 26 10 14 11 4 12
REMARK SMILES IDX 5 13 6 14 7 15 10 16 9 17 8 18 15 20 24 21 16 22 22 23 17 24
REMARK SMILES IDX 20 25 25 26 23 28 18 30 19 31 21 33 27 35
REMARK H PARENT 8 19 25 27 23 29 19 32 21 34 27 36
REMARK Flexibility Score: inf
ROOT
ATOM      1  C   UNL     1     116.320  17.099 145.141  1.00  0.00     0.065 A 
ATOM      2  C   UNL     1     117.103  17.271 143.989  1.00  0.00     0.208 A 
ATOM      3  O   UNL     1     116.876  16.553 142.897  1.00  0.00    -0.463 OA
ATOM      4  C   UNL     1     115.913  15.637 142.811  1.00  0.00     0.147 A 
ATOM      5  C   UNL     1     115.075  15.400 143.924  1.00  0.00     0.066 A 
ATOM      6  C   UNL     1     115.278  16.155 145.093  1.00  0.00     0.200 A 
ATOM      7  O   UNL     1     114.515  16.003 146.088  1.00  0.00    -0.288 OA
ATOM      8  C   UNL     1     114.060  14.441 143.832  1.00  0.00     0.020 A 
ATOM      9  C   UNL     1     113.900  13.703 142.664  1.00  0.00     0.047 A 
ATOM     10  C   UNL     1     114.730  13.915 141.557  1.00  0.00     0.125 A 
ATOM     11  C   UNL     1     115.735  14.915 141.603  1.00  0.00     0.069 A 
ENDROOT
BRANCH   1  12
ATOM     12  C   UNL     1     116.611  17.897 146.362  1.00  0.00    -0.011 A 
ATOM     13  C   UNL     1     117.249  17.302 147.465  1.00  0.00     0.013 A 
ATOM     14  C   UNL     1     117.494  18.043 148.625  1.00  0.00     0.047 A 
ATOM     15  C   UNL     1     117.110  19.388 148.698  1.00  0.00     0.115 A 
ATOM     16  C   UNL     1     116.218  19.247 146.450  1.00  0.00     0.013 A 
ATOM     17  C   UNL     1     116.474  19.986 147.608  1.00  0.00     0.047 A 
BRANCH  15  18
ATOM     18  O   UNL     1     117.346  20.135 149.849  1.00  0.00    -0.508 OA
ATOM     19  H   UNL     1     116.827  19.970 150.705  1.00  0.00     0.293 HD
ENDBRANCH  15  18
ENDBRANCH   1  12
BRANCH  11  20
ATOM     20  C   UNL     1     116.595  15.301 140.390  1.00  0.00     0.188 C 
ATOM     21  C   UNL     1     116.191  16.685 139.784  1.00  0.00     0.179 C 
ATOM     22  O   UNL     1     116.782  14.245 139.446  1.00  0.00    -0.362 OA
ATOM     23  C   UNL     1     116.713  16.842 138.342  1.00  0.00     0.177 C 
ATOM     24  C   UNL     1     115.981  14.362 138.280  1.00  0.00     0.176 C 
ATOM     25  C   UNL     1     116.361  15.622 137.453  1.00  0.00     0.177 C 
BRANCH  21  26
ATOM     26  O   UNL     1     114.810  16.953 139.891  1.00  0.00    -0.387 OA
ATOM     27  H   UNL     1     114.399  16.294 140.499  1.00  0.00     0.211 HD
ENDBRANCH  21  26
BRANCH  23  28
ATOM     28  O   UNL     1     118.113  16.982 138.382  1.00  0.00    -0.387 OA
ATOM     29  H   UNL     1     118.351  17.278 139.301  1.00  0.00     0.211 HD
ENDBRANCH  23  28
BRANCH  24  30
ATOM     30  C   UNL     1     116.136  13.090 137.423  1.00  0.00     0.191 C 
BRANCH  30  31
ATOM     31  O   UNL     1     116.518  13.407 136.106  1.00  0.00    -0.394 OA
ATOM     32  H   UNL     1     117.514  13.433 136.102  1.00  0.00     0.210 HD
ENDBRANCH  30  31
ENDBRANCH  24  30
BRANCH  25  33
ATOM     33  O   UNL     1     115.343  15.935 136.533  1.00  0.00    -0.388 OA
ATOM     34  H   UNL     1     114.538  15.408 136.773  1.00  0.00     0.211 HD
ENDBRANCH  25  33
ENDBRANCH  11  20
BRANCH  10  35
ATOM     35  O   UNL     1     114.548  13.118 140.433  1.00  0.00    -0.507 OA
ATOM     36  H   UNL     1     113.648  12.708 140.212  1.00  0.00     0.293 HD
ENDBRANCH  10  35
TORSDOF 9
ENDMDL
MODEL 6
REMARK VINA RESULT:    -4.267      3.243     11.587
REMARK INTER + INTRA:          -6.518
REMARK INTER:                  -5.772
REMARK INTRA:                  -0.746
REMARK UNBOUND:                -0.754
REMARK SMILES O=c1c(-c2ccc(O)cc2)coc2c([C@H]3O[C@H](CO)[C@@H](O)[C@H](O)[C@H]3O)c(O)ccc12
REMARK SMILES IDX 3 1 11 2 12 3 13 4 30 5 2 6 1 7 29 8 28 9 26 10 14 11 4 12
REMARK SMILES IDX 5 13 6 14 7 15 10 16 9 17 8 18 15 20 24 21 16 22 22 23 17 24
REMARK SMILES IDX 20 25 25 26 23 28 18 30 19 31 21 33 27 35
REMARK H PARENT 8 19 25 27 23 29 19 32 21 34 27 36
REMARK Flexibility Score: inf
ROOT
ATOM      1  C   UNL     1     116.317  12.593 139.284  1.00  0.00     0.065 A 
ATOM      2  C   UNL     1     116.484  13.842 139.900  1.00  0.00     0.208 A 
ATOM      3  O   UNL     1     116.465  14.962 139.189  1.00  0.00    -0.463 OA
ATOM      4  C   UNL     1     116.292  14.986 137.869  1.00  0.00     0.147 A 
ATOM      5  C   UNL     1     116.114  13.772 137.167  1.00  0.00     0.066 A 
ATOM      6  C   UNL     1     116.112  12.568 137.892  1.00  0.00     0.200 A 
ATOM      7  O   UNL     1     115.907  11.470 137.301  1.00  0.00    -0.288 OA
ATOM      8  C   UNL     1     115.927  13.799 135.780  1.00  0.00     0.020 A 
ATOM      9  C   UNL     1     115.950  15.009 135.094  1.00  0.00     0.047 A 
ATOM     10  C   UNL     1     116.139  16.219 135.772  1.00  0.00     0.125 A 
ATOM     11  C   UNL     1     116.281  16.228 137.183  1.00  0.00     0.069 A 
ENDROOT
BRANCH   1  12
ATOM     12  C   UNL     1     116.369  11.350 140.099  1.00  0.00    -0.011 A 
ATOM     13  C   UNL     1     117.503  10.520 140.060  1.00  0.00     0.013 A 
ATOM     14  C   UNL     1     117.539   9.335 140.802  1.00  0.00     0.047 A 
ATOM     15  C   UNL     1     116.447   8.965 141.595  1.00  0.00     0.115 A 
ATOM     16  C   UNL     1     115.270  10.962 140.892  1.00  0.00     0.013 A 
ATOM     17  C   UNL     1     115.315   9.782 141.638  1.00  0.00     0.047 A 
BRANCH  15  18
ATOM     18  O   UNL     1     116.470   7.786 142.336  1.00  0.00    -0.508 OA
ATOM     19  H   UNL     1     117.328   7.437 142.750  1.00  0.00     0.293 HD
ENDBRANCH  15  18
ENDBRANCH   1  12
BRANCH  11  20
ATOM     20  C   UNL     1     116.357  17.518 138.014  1.00  0.00     0.188 C 
ATOM     21  C   UNL     1     114.954  18.171 138.239  1.00  0.00     0.179 C 
ATOM     22  O   UNL     1     117.395  18.413 137.610  1.00  0.00    -0.362 OA
ATOM     23  C   UNL     1     115.080  19.653 138.645  1.00  0.00     0.177 C 
ATOM     24  C   UNL     1     116.941  19.524 136.853  1.00  0.00     0.176 C 
ATOM     25  C   UNL     1     116.014  20.445 137.694  1.00  0.00     0.177 C 
BRANCH  21  26
ATOM     26  O   UNL     1     114.076  17.982 137.151  1.00  0.00    -0.387 OA
ATOM     27  H   UNL     1     114.595  17.980 136.312  1.00  0.00     0.211 HD
ENDBRANCH  21  26
BRANCH  23  28
ATOM     28  O   UNL     1     115.603  19.719 139.950  1.00  0.00    -0.387 OA
ATOM     29  H   UNL     1     116.044  20.606 140.043  1.00  0.00     0.211 HD
ENDBRANCH  23  28
BRANCH  24  30
ATOM     30  C   UNL     1     118.155  20.318 136.329  1.00  0.00     0.191 C 
BRANCH  30  31
ATOM     31  O   UNL     1     117.773  21.232 135.330  1.00  0.00    -0.394 OA
ATOM     32  H   UNL     1     117.508  22.068 135.801  1.00  0.00     0.210 HD
ENDBRANCH  30  31
ENDBRANCH  24  30
BRANCH  25  33
ATOM     33  O   UNL     1     115.281  21.307 136.858  1.00  0.00    -0.388 OA
ATOM     34  H   UNL     1     115.364  22.228 137.216  1.00  0.00     0.211 HD
ENDBRANCH  25  33
ENDBRANCH  11  20
BRANCH  10  35
ATOM     35  O   UNL     1     116.194  17.392 135.028  1.00  0.00    -0.507 OA
ATOM     36  H   UNL     1     116.001  18.295 135.444  1.00  0.00     0.293 HD
ENDBRANCH  10  35
TORSDOF 9
ENDMDL
MODEL 7
REMARK VINA RESULT:    -4.267      2.319      9.450
REMARK INTER + INTRA:          -6.517
REMARK INTER:                  -6.129
REMARK INTRA:                  -0.389
REMARK UNBOUND:                -0.754
REMARK SMILES O=c1c(-c2ccc(O)cc2)coc2c([C@H]3O[C@H](CO)[C@@H](O)[C@H](O)[C@H]3O)c(O)ccc12
REMARK SMILES IDX 3 1 11 2 12 3 13 4 30 5 2 6 1 7 29 8 28 9 26 10 14 11 4 12
REMARK SMILES IDX 5 13 6 14 7 15 10 16 9 17 8 18 15 20 24 21 16 22 22 23 17 24
REMARK SMILES IDX 20 25 25 26 23 28 18 30 19 31 21 33 27 35
REMARK H PARENT 8 19 25 27 23 29 19 32 21 34 27 36
REMARK Flexibility Score: inf
ROOT
ATOM      1  C   UNL     1     116.857   9.182 139.824  1.00  0.00     0.065 A 
ATOM      2  C   UNL     1     117.285  10.233 140.648  1.00  0.00     0.208 A 
ATOM      3  O   UNL     1     117.017  11.495 140.339  1.00  0.00    -0.463 OA
ATOM      4  C   UNL     1     116.339  11.853 139.251  1.00  0.00     0.147 A 
ATOM      5  C   UNL     1     115.867  10.857 138.365  1.00  0.00     0.066 A 
ATOM      6  C   UNL     1     116.120   9.508 138.671  1.00  0.00     0.200 A 
ATOM      7  O   UNL     1     115.670   8.593 137.926  1.00  0.00    -0.288 OA
ATOM      8  C   UNL     1     115.150  11.234 137.223  1.00  0.00     0.020 A 
ATOM      9  C   UNL     1     114.933  12.579 136.946  1.00  0.00     0.047 A 
ATOM     10  C   UNL     1     115.405  13.578 137.805  1.00  0.00     0.125 A 
ATOM     11  C   UNL     1     116.092  13.227 138.995  1.00  0.00     0.069 A 
ENDROOT
BRANCH   1  12
ATOM     12  C   UNL     1     117.192   7.776 140.178  1.00  0.00    -0.011 A 
ATOM     13  C   UNL     1     116.798   7.241 141.417  1.00  0.00     0.013 A 
ATOM     14  C   UNL     1     117.141   5.931 141.763  1.00  0.00     0.047 A 
ATOM     15  C   UNL     1     117.878   5.136 140.876  1.00  0.00     0.115 A 
ATOM     16  C   UNL     1     117.944   6.972 139.298  1.00  0.00     0.013 A 
ATOM     17  C   UNL     1     118.276   5.661 139.644  1.00  0.00     0.047 A 
BRANCH  15  18
ATOM     18  O   UNL     1     118.228   3.830 141.211  1.00  0.00    -0.508 OA
ATOM     19  H   UNL     1     119.128   3.612 141.623  1.00  0.00     0.293 HD
ENDBRANCH  15  18
ENDBRANCH   1  12
BRANCH  11  20
ATOM     20  C   UNL     1     116.522  14.252 140.055  1.00  0.00     0.188 C 
ATOM     21  C   UNL     1     115.374  14.595 141.060  1.00  0.00     0.179 C 
ATOM     22  O   UNL     1     117.234  15.372 139.528  1.00  0.00    -0.362 OA
ATOM     23  C   UNL     1     115.647  15.922 141.796  1.00  0.00     0.177 C 
ATOM     24  C   UNL     1     116.458  16.557 139.424  1.00  0.00     0.176 C 
ATOM     25  C   UNL     1     116.014  17.070 140.821  1.00  0.00     0.177 C 
BRANCH  21  26
ATOM     26  O   UNL     1     114.093  14.559 140.469  1.00  0.00    -0.387 OA
ATOM     27  H   UNL     1     113.471  14.091 141.074  1.00  0.00     0.211 HD
ENDBRANCH  21  26
BRANCH  23  28
ATOM     28  O   UNL     1     116.718  15.729 142.690  1.00  0.00    -0.387 OA
ATOM     29  H   UNL     1     116.360  15.862 143.608  1.00  0.00     0.211 HD
ENDBRANCH  23  28
BRANCH  24  30
ATOM     30  C   UNL     1     117.273  17.640 138.687  1.00  0.00     0.191 C 
BRANCH  30  31
ATOM     31  O   UNL     1     118.303  17.067 137.919  1.00  0.00    -0.394 OA
ATOM     32  H   UNL     1     118.844  16.512 138.544  1.00  0.00     0.210 HD
ENDBRANCH  30  31
ENDBRANCH  24  30
BRANCH  25  33
ATOM     33  O   UNL     1     114.959  17.993 140.697  1.00  0.00    -0.388 OA
ATOM     34  H   UNL     1     114.243  17.570 140.158  1.00  0.00     0.211 HD
ENDBRANCH  25  33
ENDBRANCH  11  20
BRANCH  10  35
ATOM     35  O   UNL     1     115.194  14.907 137.454  1.00  0.00    -0.507 OA
ATOM     36  H   UNL     1     115.908  15.612 137.589  1.00  0.00     0.293 HD
ENDBRANCH  10  35
TORSDOF 9
ENDMDL
MODEL 8
REMARK VINA RESULT:    -4.193      8.209     10.261
REMARK INTER + INTRA:          -6.417
REMARK INTER:                  -5.717
REMARK INTRA:                  -0.700
REMARK UNBOUND:                -0.754
REMARK SMILES O=c1c(-c2ccc(O)cc2)coc2c([C@H]3O[C@H](CO)[C@@H](O)[C@H](O)[C@H]3O)c(O)ccc12
REMARK SMILES IDX 3 1 11 2 12 3 13 4 30 5 2 6 1 7 29 8 28 9 26 10 14 11 4 12
REMARK SMILES IDX 5 13 6 14 7 15 10 16 9 17 8 18 15 20 24 21 16 22 22 23 17 24
REMARK SMILES IDX 20 25 25 26 23 28 18 30 19 31 21 33 27 35
REMARK H PARENT 8 19 25 27 23 29 19 32 21 34 27 36
REMARK Flexibility Score: inf
ROOT
ATOM      1  C   UNL     1     115.766  15.982 139.125  1.00  0.00     0.065 A 
ATOM      2  C   UNL     1     116.644  15.609 140.154  1.00  0.00     0.208 A 
ATOM      3  O   UNL     1     116.600  16.207 141.337  1.00  0.00    -0.463 OA
ATOM      4  C   UNL     1     115.744  17.182 141.633  1.00  0.00     0.147 A 
ATOM      5  C   UNL     1     114.821  17.619 140.655  1.00  0.00     0.066 A 
ATOM      6  C   UNL     1     114.829  16.996 139.394  1.00  0.00     0.200 A 
ATOM      7  O   UNL     1     113.985  17.329 138.515  1.00  0.00    -0.288 OA
ATOM      8  C   UNL     1     113.917  18.641 140.967  1.00  0.00     0.020 A 
ATOM      9  C   UNL     1     113.949  19.245 142.219  1.00  0.00     0.047 A 
ATOM     10  C   UNL     1     114.866  18.834 143.195  1.00  0.00     0.125 A 
ATOM     11  C   UNL     1     115.761  17.767 142.925  1.00  0.00     0.069 A 
ENDROOT
BRANCH   1  12
ATOM     12  C   UNL     1     115.852  15.314 137.798  1.00  0.00    -0.011 A 
ATOM     13  C   UNL     1     116.430  15.981 136.703  1.00  0.00     0.013 A 
ATOM     14  C   UNL     1     116.482  15.366 135.448  1.00  0.00     0.047 A 
ATOM     15  C   UNL     1     115.963  14.078 135.270  1.00  0.00     0.115 A 
ATOM     16  C   UNL     1     115.322  14.023 137.606  1.00  0.00     0.013 A 
ATOM     17  C   UNL     1     115.385  13.410 136.352  1.00  0.00     0.047 A 
BRANCH  15  18
ATOM     18  O   UNL     1     116.006  13.457 134.025  1.00  0.00    -0.508 OA
ATOM     19  H   UNL     1     115.212  12.940 133.662  1.00  0.00     0.293 HD
ENDBRANCH  15  18
ENDBRANCH   1  12
BRANCH  11  20
ATOM     20  C   UNL     1     116.701  17.169 143.982  1.00  0.00     0.188 C 
ATOM     21  C   UNL     1     116.012  16.055 144.837  1.00  0.00     0.179 C 
ATOM     22  O   UNL     1     117.445  18.140 144.719  1.00  0.00    -0.362 OA
ATOM     23  C   UNL     1     116.774  15.803 146.154  1.00  0.00     0.177 C 
ATOM     24  C   UNL     1     116.948  18.381 146.027  1.00  0.00     0.176 C 
ATOM     25  C   UNL     1     117.067  17.117 146.923  1.00  0.00     0.177 C 
BRANCH  21  26
ATOM     26  O   UNL     1     114.636  16.291 145.045  1.00  0.00    -0.387 OA
ATOM     27  H   UNL     1     114.435  17.234 144.840  1.00  0.00     0.211 HD
ENDBRANCH  21  26
BRANCH  23  28
ATOM     28  O   UNL     1     117.996  15.173 145.854  1.00  0.00    -0.387 OA
ATOM     29  H   UNL     1     118.247  15.447 144.932  1.00  0.00     0.211 HD
ENDBRANCH  23  28
BRANCH  24  30
ATOM     30  C   UNL     1     117.715  19.561 146.657  1.00  0.00     0.191 C 
BRANCH  30  31
ATOM     31  O   UNL     1     118.454  19.145 147.780  1.00  0.00    -0.394 OA
ATOM     32  H   UNL     1     117.813  19.114 148.542  1.00  0.00     0.210 HD
ENDBRANCH  30  31
ENDBRANCH  24  30
BRANCH  25  33
ATOM     33  O   UNL     1     116.249  17.238 148.061  1.00  0.00    -0.388 OA
ATOM     34  H   UNL     1     116.769  17.703 148.766  1.00  0.00     0.211 HD
ENDBRANCH  25  33
ENDBRANCH  11  20
BRANCH  10  35
ATOM     35  O   UNL     1     114.878  19.503 144.413  1.00  0.00    -0.507 OA
ATOM     36  H   UNL     1     114.439  20.409 144.526  1.00  0.00     0.293 HD
ENDBRANCH  10  35
TORSDOF 9
ENDMDL
