MODEL 1
REMARK VINA RESULT:    -5.420      0.000      0.000
REMARK INTER + INTRA:          -7.820
REMARK INTER:                  -6.687
REMARK INTRA:                  -1.132
REMARK UNBOUND:                -1.132
REMARK SMILES CC(C)=CCC[C@H](C)c1ccc(C)cc1
REMARK SMILES IDX 6 1 7 2 8 3 9 4 13 5 12 6 11 7 14 8 10 9 15 10 5 11 4 12
REMARK SMILES IDX 2 13 1 14 3 15
REMARK H PARENT
REMARK Flexibility Score: inf
ROOT
ATOM      1  C   UNL     1      -7.756  13.109  16.091  1.00  0.00     0.012 C 
ENDROOT
BRANCH   1   2
ATOM      2  C   UNL     1      -6.573  14.055  15.779  1.00  0.00     0.016 C 
ATOM      3  C   UNL     1      -5.212  13.358  15.928  1.00  0.00     0.013 C 
BRANCH   2   4
ATOM      4  C   UNL     1      -6.634  15.287  16.665  1.00  0.00    -0.045 A 
ATOM      5  C   UNL     1      -6.778  18.808  19.163  1.00  0.00     0.044 C 
ATOM      6  C   UNL     1      -6.758  17.588  18.291  1.00  0.00    -0.051 A 
ATOM      7  C   UNL     1      -6.520  17.706  16.915  1.00  0.00     0.004 A 
ATOM      8  C   UNL     1      -6.909  16.314  18.856  1.00  0.00     0.004 A 
ATOM      9  C   UNL     1      -6.465  16.566  16.107  1.00  0.00     0.004 A 
ATOM     10  C   UNL     1      -6.855  15.173  18.051  1.00  0.00     0.004 A 
ENDBRANCH   2   4
ENDBRANCH   1   2
BRANCH   1  11
ATOM     11  C   UNL     1      -7.306  11.795  16.747  1.00  0.00     0.028 C 
BRANCH  11  12
ATOM     12  C   UNL     1      -7.891  11.648  18.132  1.00  0.00    -0.028 C 
ATOM     13  C   UNL     1      -7.138  11.671  19.253  1.00  0.00    -0.080 C 
ATOM     14  C   UNL     1      -7.789  11.519  20.604  1.00  0.00     0.039 C 
ATOM     15  C   UNL     1      -5.641  11.846  19.198  1.00  0.00     0.039 C 
ENDBRANCH  11  12
ENDBRANCH   1  11
TORSDOF 4
ENDMDL
MODEL 2
REMARK VINA RESULT:    -5.402      1.221      1.381
REMARK INTER + INTRA:          -7.798
REMARK INTER:                  -6.371
REMARK INTRA:                  -1.427
REMARK UNBOUND:                -1.132
REMARK SMILES CC(C)=CCC[C@H](C)c1ccc(C)cc1
REMARK SMILES IDX 6 1 7 2 8 3 9 4 13 5 12 6 11 7 14 8 10 9 15 10 5 11 4 12
REMARK SMILES IDX 2 13 1 14 3 15
REMARK H PARENT
REMARK Flexibility Score: inf
ROOT
ATOM      1  C   UNL     1      -7.424  12.627  16.124  1.00  0.00     0.012 C 
ENDROOT
BRANCH   1   2
ATOM      2  C   UNL     1      -6.123  13.347  15.702  1.00  0.00     0.016 C 
ATOM      3  C   UNL     1      -4.863  12.584  16.139  1.00  0.00     0.013 C 
BRANCH   2   4
ATOM      4  C   UNL     1      -6.100  14.762  16.253  1.00  0.00    -0.045 A 
ATOM      5  C   UNL     1      -6.000  18.778  17.839  1.00  0.00     0.044 C 
ATOM      6  C   UNL     1      -6.037  17.395  17.260  1.00  0.00    -0.051 A 
ATOM      7  C   UNL     1      -4.845  16.733  16.935  1.00  0.00     0.004 A 
ATOM      8  C   UNL     1      -7.259  16.728  17.103  1.00  0.00     0.004 A 
ATOM      9  C   UNL     1      -4.876  15.430  16.429  1.00  0.00     0.004 A 
ATOM     10  C   UNL     1      -7.293  15.425  16.598  1.00  0.00     0.004 A 
ENDBRANCH   2   4
ENDBRANCH   1   2
BRANCH   1  11
ATOM     11  C   UNL     1      -7.225  11.710  17.341  1.00  0.00     0.028 C 
BRANCH  11  12
ATOM     12  C   UNL     1      -8.065  12.165  18.511  1.00  0.00    -0.028 C 
ATOM     13  C   UNL     1      -7.565  12.886  19.538  1.00  0.00    -0.080 C 
ATOM     14  C   UNL     1      -8.463  13.307  20.673  1.00  0.00     0.039 C 
ATOM     15  C   UNL     1      -6.114  13.291  19.587  1.00  0.00     0.039 C 
ENDBRANCH  11  12
ENDBRANCH   1  11
TORSDOF 4
ENDMDL
MODEL 3
REMARK VINA RESULT:    -5.396      1.893      5.493
REMARK INTER + INTRA:          -7.790
REMARK INTER:                  -6.578
REMARK INTRA:                  -1.211
REMARK UNBOUND:                -1.132
REMARK SMILES CC(C)=CCC[C@H](C)c1ccc(C)cc1
REMARK SMILES IDX 6 1 7 2 8 3 9 4 13 5 12 6 11 7 14 8 10 9 15 10 5 11 4 12
REMARK SMILES IDX 2 13 1 14 3 15
REMARK H PARENT
REMARK Flexibility Score: inf
ROOT
ATOM      1  C   UNL     1      -6.070  13.833  15.507  1.00  0.00     0.012 C 
ENDROOT
BRANCH   1   2
ATOM      2  C   UNL     1      -7.210  13.821  16.552  1.00  0.00     0.016 C 
ATOM      3  C   UNL     1      -7.051  14.930  17.603  1.00  0.00     0.013 C 
BRANCH   2   4
ATOM      4  C   UNL     1      -7.293  12.463  17.227  1.00  0.00    -0.045 A 
ATOM      5  C   UNL     1      -7.553   8.588  19.117  1.00  0.00     0.044 C 
ATOM      6  C   UNL     1      -7.433   9.932  18.463  1.00  0.00    -0.051 A 
ATOM      7  C   UNL     1      -7.369  10.035  17.066  1.00  0.00     0.004 A 
ATOM      8  C   UNL     1      -7.452  11.099  19.239  1.00  0.00     0.004 A 
ATOM      9  C   UNL     1      -7.293  11.289  16.454  1.00  0.00     0.004 A 
ATOM     10  C   UNL     1      -7.376  12.354  18.628  1.00  0.00     0.004 A 
ENDBRANCH   2   4
ENDBRANCH   1   2
BRANCH   1  11
ATOM     11  C   UNL     1      -4.702  14.157  16.127  1.00  0.00     0.028 C 
BRANCH  11  12
ATOM     12  C   UNL     1      -3.593  13.412  15.422  1.00  0.00    -0.028 C 
ATOM     13  C   UNL     1      -3.107  12.231  15.863  1.00  0.00    -0.080 C 
ATOM     14  C   UNL     1      -1.999  11.542  15.108  1.00  0.00     0.039 C 
ATOM     15  C   UNL     1      -3.645  11.568  17.105  1.00  0.00     0.039 C 
ENDBRANCH  11  12
ENDBRANCH   1  11
TORSDOF 4
ENDMDL
MODEL 4
REMARK VINA RESULT:    -5.393      1.579      2.342
REMARK INTER + INTRA:          -7.787
REMARK INTER:                  -6.277
REMARK INTRA:                  -1.509
REMARK UNBOUND:                -1.132
REMARK SMILES CC(C)=CCC[C@H](C)c1ccc(C)cc1
REMARK SMILES IDX 6 1 7 2 8 3 9 4 13 5 12 6 11 7 14 8 10 9 15 10 5 11 4 12
REMARK SMILES IDX 2 13 1 14 3 15
REMARK H PARENT
REMARK Flexibility Score: inf
ROOT
ATOM      1  C   UNL     1      -7.716  11.883  17.309  1.00  0.00     0.012 C 
ENDROOT
BRANCH   1   2
ATOM      2  C   UNL     1      -6.451  12.251  16.501  1.00  0.00     0.016 C 
ATOM      3  C   UNL     1      -5.186  11.578  17.055  1.00  0.00     0.013 C 
BRANCH   2   4
ATOM      4  C   UNL     1      -6.270  13.759  16.460  1.00  0.00    -0.045 A 
ATOM      5  C   UNL     1      -5.788  18.049  16.322  1.00  0.00     0.044 C 
ATOM      6  C   UNL     1      -5.954  16.560  16.400  1.00  0.00    -0.051 A 
ATOM      7  C   UNL     1      -7.236  15.993  16.441  1.00  0.00     0.004 A 
ATOM      8  C   UNL     1      -4.832  15.722  16.364  1.00  0.00     0.004 A 
ATOM      9  C   UNL     1      -7.392  14.604  16.478  1.00  0.00     0.004 A 
ATOM     10  C   UNL     1      -4.986  14.333  16.400  1.00  0.00     0.004 A 
ENDBRANCH   2   4
ENDBRANCH   1   2
BRANCH   1  11
ATOM     11  C   UNL     1      -7.413  11.604  18.790  1.00  0.00     0.028 C 
BRANCH  11  12
ATOM     12  C   UNL     1      -8.053  12.641  19.682  1.00  0.00    -0.028 C 
ATOM     13  C   UNL     1      -7.357  13.649  20.253  1.00  0.00    -0.080 C 
ATOM     14  C   UNL     1      -8.062  14.650  21.133  1.00  0.00     0.039 C 
ATOM     15  C   UNL     1      -5.874  13.809  20.035  1.00  0.00     0.039 C 
ENDBRANCH  11  12
ENDBRANCH   1  11
TORSDOF 4
ENDMDL
MODEL 5
REMARK VINA RESULT:    -5.379      2.730      6.440
REMARK INTER + INTRA:          -7.769
REMARK INTER:                  -6.579
REMARK INTRA:                  -1.191
REMARK UNBOUND:                -1.132
REMARK SMILES CC(C)=CCC[C@H](C)c1ccc(C)cc1
REMARK SMILES IDX 6 1 7 2 8 3 9 4 13 5 12 6 11 7 14 8 10 9 15 10 5 11 4 12
REMARK SMILES IDX 2 13 1 14 3 15
REMARK H PARENT
REMARK Flexibility Score: inf
ROOT
ATOM      1  C   UNL     1      -7.690  12.547  16.205  1.00  0.00     0.012 C 
ENDROOT
BRANCH   1   2
ATOM      2  C   UNL     1      -7.854  11.867  17.584  1.00  0.00     0.016 C 
ATOM      3  C   UNL     1      -7.370  12.759  18.737  1.00  0.00     0.013 C 
BRANCH   2   4
ATOM      4  C   UNL     1      -7.123  10.535  17.606  1.00  0.00    -0.045 A 
ATOM      5  C   UNL     1      -5.079   6.731  17.682  1.00  0.00     0.044 C 
ATOM      6  C   UNL     1      -5.781   8.056  17.626  1.00  0.00    -0.051 A 
ATOM      7  C   UNL     1      -7.134   8.125  17.267  1.00  0.00     0.004 A 
ATOM      8  C   UNL     1      -5.107   9.227  18.000  1.00  0.00     0.004 A 
ATOM      9  C   UNL     1      -7.798   9.355  17.250  1.00  0.00     0.004 A 
ATOM     10  C   UNL     1      -5.769  10.458  17.983  1.00  0.00     0.004 A 
ENDBRANCH   2   4
ENDBRANCH   1   2
BRANCH   1  11
ATOM     11  C   UNL     1      -6.694  13.716  16.236  1.00  0.00     0.028 C 
BRANCH  11  12
ATOM     12  C   UNL     1      -5.464  13.407  15.416  1.00  0.00    -0.028 C 
ATOM     13  C   UNL     1      -4.224  13.346  15.947  1.00  0.00    -0.080 C 
ATOM     14  C   UNL     1      -3.040  13.031  15.069  1.00  0.00     0.039 C 
ATOM     15  C   UNL     1      -3.979  13.585  17.415  1.00  0.00     0.039 C 
ENDBRANCH  11  12
ENDBRANCH   1  11
TORSDOF 4
ENDMDL
MODEL 6
REMARK VINA RESULT:    -5.365      1.835      5.492
REMARK INTER + INTRA:          -7.752
REMARK INTER:                  -6.474
REMARK INTRA:                  -1.279
REMARK UNBOUND:                -1.132
REMARK SMILES CC(C)=CCC[C@H](C)c1ccc(C)cc1
REMARK SMILES IDX 6 1 7 2 8 3 9 4 13 5 12 6 11 7 14 8 10 9 15 10 5 11 4 12
REMARK SMILES IDX 2 13 1 14 3 15
REMARK H PARENT
REMARK Flexibility Score: inf
ROOT
ATOM      1  C   UNL     1      -6.005  14.189  15.697  1.00  0.00     0.012 C 
ENDROOT
BRANCH   1   2
ATOM      2  C   UNL     1      -7.162  14.098  16.718  1.00  0.00     0.016 C 
ATOM      3  C   UNL     1      -7.010  15.106  17.867  1.00  0.00     0.013 C 
BRANCH   2   4
ATOM      4  C   UNL     1      -7.272  12.686  17.267  1.00  0.00    -0.045 A 
ATOM      5  C   UNL     1      -7.563   8.681  18.858  1.00  0.00     0.044 C 
ATOM      6  C   UNL     1      -7.492  10.073  18.304  1.00  0.00    -0.051 A 
ATOM      7  C   UNL     1      -7.454  11.177  19.168  1.00  0.00     0.004 A 
ATOM      8  C   UNL     1      -7.394  10.278  16.921  1.00  0.00     0.004 A 
ATOM      9  C   UNL     1      -7.352  12.472  18.653  1.00  0.00     0.004 A 
ATOM     10  C   UNL     1      -7.292  11.573  16.405  1.00  0.00     0.004 A 
ENDBRANCH   2   4
ENDBRANCH   1   2
BRANCH   1  11
ATOM     11  C   UNL     1      -4.626  14.272  16.370  1.00  0.00     0.028 C 
BRANCH  11  12
ATOM     12  C   UNL     1      -3.586  13.514  15.580  1.00  0.00    -0.028 C 
ATOM     13  C   UNL     1      -3.140  12.290  15.939  1.00  0.00    -0.080 C 
ATOM     14  C   UNL     1      -2.100  11.590  15.101  1.00  0.00     0.039 C 
ATOM     15  C   UNL     1      -3.656  11.589  17.169  1.00  0.00     0.039 C 
ENDBRANCH  11  12
ENDBRANCH   1  11
TORSDOF 4
ENDMDL
MODEL 7
REMARK VINA RESULT:    -5.223      1.643      5.200
REMARK INTER + INTRA:          -7.577
REMARK INTER:                  -6.128
REMARK INTRA:                  -1.449
REMARK UNBOUND:                -1.132
REMARK SMILES CC(C)=CCC[C@H](C)c1ccc(C)cc1
REMARK SMILES IDX 6 1 7 2 8 3 9 4 13 5 12 6 11 7 14 8 10 9 15 10 5 11 4 12
REMARK SMILES IDX 2 13 1 14 3 15
REMARK H PARENT
REMARK Flexibility Score: inf
ROOT
ATOM      1  C   UNL     1      -5.535  15.984  16.497  1.00  0.00     0.012 C 
ENDROOT
BRANCH   1   2
ATOM      2  C   UNL     1      -6.802  15.613  17.302  1.00  0.00     0.016 C 
ATOM      3  C   UNL     1      -6.760  16.151  18.741  1.00  0.00     0.013 C 
BRANCH   2   4
ATOM      4  C   UNL     1      -7.002  14.107  17.309  1.00  0.00    -0.045 A 
ATOM      5  C   UNL     1      -7.546   9.823  17.357  1.00  0.00     0.044 C 
ATOM      6  C   UNL     1      -7.387  11.314  17.342  1.00  0.00    -0.051 A 
ATOM      7  C   UNL     1      -7.181  12.015  18.539  1.00  0.00     0.004 A 
ATOM      8  C   UNL     1      -7.375  12.011  16.126  1.00  0.00     0.004 A 
ATOM      9  C   UNL     1      -6.997  13.401  18.523  1.00  0.00     0.004 A 
ATOM     10  C   UNL     1      -7.192  13.397  16.108  1.00  0.00     0.004 A 
ENDBRANCH   2   4
ENDBRANCH   1   2
BRANCH   1  11
ATOM     11  C   UNL     1      -4.280  15.254  17.000  1.00  0.00     0.028 C 
BRANCH  11  12
ATOM     12  C   UNL     1      -3.533  14.604  15.860  1.00  0.00    -0.028 C 
ATOM     13  C   UNL     1      -3.271  13.279  15.813  1.00  0.00    -0.080 C 
ATOM     14  C   UNL     1      -2.522  12.698  14.642  1.00  0.00     0.039 C 
ATOM     15  C   UNL     1      -3.713  12.347  16.913  1.00  0.00     0.039 C 
ENDBRANCH  11  12
ENDBRANCH   1  11
TORSDOF 4
ENDMDL
MODEL 8
REMARK VINA RESULT:    -5.206      1.760      5.859
REMARK INTER + INTRA:          -7.555
REMARK INTER:                  -6.964
REMARK INTRA:                  -0.591
REMARK UNBOUND:                -1.132
REMARK SMILES CC(C)=CCC[C@H](C)c1ccc(C)cc1
REMARK SMILES IDX 6 1 7 2 8 3 9 4 13 5 12 6 11 7 14 8 10 9 15 10 5 11 4 12
REMARK SMILES IDX 2 13 1 14 3 15
REMARK H PARENT
REMARK Flexibility Score: inf
ROOT
ATOM      1  C   UNL     1      -6.490  13.859  15.630  1.00  0.00     0.012 C 
ENDROOT
BRANCH   1   2
ATOM      2  C   UNL     1      -5.359  13.227  16.473  1.00  0.00     0.016 C 
ATOM      3  C   UNL     1      -4.009  13.229  15.739  1.00  0.00     0.013 C 
BRANCH   2   4
ATOM      4  C   UNL     1      -5.733  11.813  16.884  1.00  0.00    -0.045 A 
ATOM      5  C   UNL     1      -6.833   7.805  18.060  1.00  0.00     0.044 C 
ATOM      6  C   UNL     1      -6.442   9.186  17.625  1.00  0.00    -0.051 A 
ATOM      7  C   UNL     1      -7.383  10.029  17.018  1.00  0.00     0.004 A 
ATOM      8  C   UNL     1      -5.152   9.669  17.883  1.00  0.00     0.004 A 
ATOM      9  C   UNL     1      -7.030  11.329  16.644  1.00  0.00     0.004 A 
ATOM     10  C   UNL     1      -4.796  10.968  17.510  1.00  0.00     0.004 A 
ENDBRANCH   2   4
ENDBRANCH   1   2
BRANCH   1  11
ATOM     11  C   UNL     1      -7.443  14.723  16.469  1.00  0.00     0.028 C 
BRANCH  11  12
ATOM     12  C   UNL     1      -7.055  16.181  16.408  1.00  0.00    -0.028 C 
ATOM     13  C   UNL     1      -6.744  16.905  17.505  1.00  0.00    -0.080 C 
ATOM     14  C   UNL     1      -6.364  18.357  17.369  1.00  0.00     0.039 C 
ATOM     15  C   UNL     1      -6.764  16.298  18.885  1.00  0.00     0.039 C 
ENDBRANCH  11  12
ENDBRANCH   1  11
TORSDOF 4
ENDMDL
MODEL 9
REMARK VINA RESULT:    -5.199      1.843      4.196
REMARK INTER + INTRA:          -7.547
REMARK INTER:                  -6.009
REMARK INTRA:                  -1.538
REMARK UNBOUND:                -1.132
REMARK SMILES CC(C)=CCC[C@H](C)c1ccc(C)cc1
REMARK SMILES IDX 6 1 7 2 8 3 9 4 13 5 12 6 11 7 14 8 10 9 15 10 5 11 4 12
REMARK SMILES IDX 2 13 1 14 3 15
REMARK H PARENT
REMARK Flexibility Score: inf
ROOT
ATOM      1  C   UNL     1      -6.515   9.831  19.218  1.00  0.00     0.012 C 
ENDROOT
BRANCH   1   2
ATOM      2  C   UNL     1      -7.553  10.194  18.132  1.00  0.00     0.016 C 
ATOM      3  C   UNL     1      -7.458   9.278  16.902  1.00  0.00     0.013 C 
BRANCH   2   4
ATOM      4  C   UNL     1      -7.400  11.648  17.719  1.00  0.00    -0.045 A 
ATOM      5  C   UNL     1      -6.980  15.793  16.579  1.00  0.00     0.044 C 
ATOM      6  C   UNL     1      -7.096  14.350  16.970  1.00  0.00    -0.051 A 
ATOM      7  C   UNL     1      -6.979  13.970  18.315  1.00  0.00     0.004 A 
ATOM      8  C   UNL     1      -7.390  13.377  16.004  1.00  0.00     0.004 A 
ATOM      9  C   UNL     1      -7.123  12.630  18.685  1.00  0.00     0.004 A 
ATOM     10  C   UNL     1      -7.534  12.037  16.372  1.00  0.00     0.004 A 
ENDBRANCH   2   4
ENDBRANCH   1   2
BRANCH   1  11
ATOM     11  C   UNL     1      -5.148   9.454  18.627  1.00  0.00     0.028 C 
BRANCH  11  12
ATOM     12  C   UNL     1      -4.074  10.416  19.078  1.00  0.00    -0.028 C 
ATOM     13  C   UNL     1      -3.514  11.329  18.255  1.00  0.00    -0.080 C 
ATOM     14  C   UNL     1      -2.448  12.260  18.773  1.00  0.00     0.039 C 
ATOM     15  C   UNL     1      -3.928  11.452  16.810  1.00  0.00     0.039 C 
ENDBRANCH  11  12
ENDBRANCH   1  11
TORSDOF 4
ENDMDL
