MODEL 1
REMARK VINA RESULT:    -5.611      0.000      0.000
REMARK INTER + INTRA:         -10.829
REMARK INTER:                  -9.875
REMARK INTRA:                  -0.954
REMARK UNBOUND:                -0.954
REMARK SMILES CCCCCCC=CCCCCCCCC(=O)[O-]
REMARK SMILES IDX 10 1 11 2 12 3 13 4 14 5 15 6 16 7 17 8 18 9 9 10 8 11 7 12
REMARK SMILES IDX 6 13 5 14 4 15 3 16 2 17 1 18
REMARK H PARENT
REMARK Flexibility Score: inf
ROOT
ATOM      1  C   UNL     1      82.892  60.882  10.265  1.00  0.00     0.004 C 
ENDROOT
BRANCH   1   2
ATOM      2  C   UNL     1      84.371  60.650  10.604  1.00  0.00     0.000 C 
BRANCH   2   3
ATOM      3  C   UNL     1      84.576  59.525  11.630  1.00  0.00     0.000 C 
BRANCH   3   4
ATOM      4  C   UNL     1      85.212  60.023  12.936  1.00  0.00     0.000 C 
BRANCH   4   5
ATOM      5  C   UNL     1      84.133  60.401  13.963  1.00  0.00     0.006 C 
BRANCH   5   6
ATOM      6  C   UNL     1      84.535  60.020  15.394  1.00  0.00     0.053 C 
BRANCH   6   7
ATOM      7  C   UNL     1      85.123  61.183  16.133  1.00  0.00     0.041 C 
ATOM      8  O   UNL     1      85.112  62.333  15.619  1.00  0.00    -0.550 OA
ATOM      9  O   UNL     1      85.716  60.991  17.375  1.00  0.00    -0.550 OA
ENDBRANCH   6   7
ENDBRANCH   5   6
ENDBRANCH   4   5
ENDBRANCH   3   4
ENDBRANCH   2   3
ENDBRANCH   1   2
BRANCH   1  10
ATOM     10  C   UNL     1      82.019  59.752  10.822  1.00  0.00     0.027 C 
BRANCH  10  11
ATOM     11  C   UNL     1      80.573  59.956  10.441  1.00  0.00    -0.031 C 
ATOM     12  C   UNL     1      79.689  58.961  10.240  1.00  0.00    -0.031 C 
BRANCH  12  13
ATOM     13  C   UNL     1      79.983  57.498  10.452  1.00  0.00     0.027 C 
BRANCH  13  14
ATOM     14  C   UNL     1      78.711  56.741  10.848  1.00  0.00     0.004 C 
BRANCH  14  15
ATOM     15  C   UNL     1      77.786  56.548   9.636  1.00  0.00     0.000 C 
BRANCH  15  16
ATOM     16  C   UNL     1      78.153  55.315   8.792  1.00  0.00    -0.000 C 
BRANCH  16  17
ATOM     17  C   UNL     1      78.169  55.554   7.272  1.00  0.00    -0.003 C 
ATOM     18  C   UNL     1      77.782  56.981   6.886  1.00  0.00     0.004 C 
ENDBRANCH  16  17
ENDBRANCH  15  16
ENDBRANCH  14  15
ENDBRANCH  13  14
ENDBRANCH  12  13
ENDBRANCH  10  11
ENDBRANCH   1  10
TORSDOF 13
ENDMDL
MODEL 2
REMARK VINA RESULT:    -5.477      4.520      9.112
REMARK INTER + INTRA:         -10.594
REMARK INTER:                  -9.655
REMARK INTRA:                  -0.939
REMARK UNBOUND:                -0.954
REMARK SMILES CCCCCCC=CCCCCCCCC(=O)[O-]
REMARK SMILES IDX 10 1 11 2 12 3 13 4 14 5 15 6 16 7 17 8 18 9 9 10 8 11 7 12
REMARK SMILES IDX 6 13 5 14 4 15 3 16 2 17 1 18
REMARK H PARENT
REMARK Flexibility Score: inf
ROOT
ATOM      1  C   UNL     1      82.037  58.938  10.994  1.00  0.00     0.004 C 
ENDROOT
BRANCH   1   2
ATOM      2  C   UNL     1      80.827  59.681  10.409  1.00  0.00     0.000 C 
BRANCH   2   3
ATOM      3  C   UNL     1      79.634  58.751  10.139  1.00  0.00     0.000 C 
BRANCH   3   4
ATOM      4  C   UNL     1      79.828  57.349  10.737  1.00  0.00     0.000 C 
BRANCH   4   5
ATOM      5  C   UNL     1      78.875  56.337  10.082  1.00  0.00     0.006 C 
BRANCH   5   6
ATOM      6  C   UNL     1      77.827  57.017   9.192  1.00  0.00     0.053 C 
BRANCH   6   7
ATOM      7  C   UNL     1      77.748  56.375   7.840  1.00  0.00     0.041 C 
ATOM      8  O   UNL     1      77.722  55.121   7.734  1.00  0.00    -0.550 OA
ATOM      9  O   UNL     1      77.739  57.163   6.695  1.00  0.00    -0.550 OA
ENDBRANCH   6   7
ENDBRANCH   5   6
ENDBRANCH   4   5
ENDBRANCH   3   4
ENDBRANCH   2   3
ENDBRANCH   1   2
BRANCH   1  10
ATOM     10  C   UNL     1      83.290  59.176  10.144  1.00  0.00     0.027 C 
BRANCH  10  11
ATOM     11  C   UNL     1      83.814  60.576  10.343  1.00  0.00    -0.031 C 
ATOM     12  C   UNL     1      84.793  60.910  11.204  1.00  0.00    -0.031 C 
BRANCH  12  13
ATOM     13  C   UNL     1      85.577  59.924  12.033  1.00  0.00     0.027 C 
BRANCH  13  14
ATOM     14  C   UNL     1      85.095  59.936  13.488  1.00  0.00     0.004 C 
BRANCH  14  15
ATOM     15  C   UNL     1      85.104  61.363  14.058  1.00  0.00     0.000 C 
BRANCH  15  16
ATOM     16  C   UNL     1      85.955  61.494  15.333  1.00  0.00    -0.000 C 
BRANCH  16  17
ATOM     17  C   UNL     1      85.162  61.835  16.608  1.00  0.00    -0.003 C 
ATOM     18  C   UNL     1      85.480  60.904  17.777  1.00  0.00     0.004 C 
ENDBRANCH  16  17
ENDBRANCH  15  16
ENDBRANCH  14  15
ENDBRANCH  13  14
ENDBRANCH  12  13
ENDBRANCH  10  11
ENDBRANCH   1  10
TORSDOF 13
ENDMDL
MODEL 3
REMARK VINA RESULT:    -5.324      3.945      5.209
REMARK INTER + INTRA:         -10.324
REMARK INTER:                  -8.498
REMARK INTRA:                  -1.825
REMARK UNBOUND:                -0.954
REMARK SMILES CCCCCCC=CCCCCCCCC(=O)[O-]
REMARK SMILES IDX 10 1 11 2 12 3 13 4 14 5 15 6 16 7 17 8 18 9 9 10 8 11 7 12
REMARK SMILES IDX 6 13 5 14 4 15 3 16 2 17 1 18
REMARK H PARENT
REMARK Flexibility Score: inf
ROOT
ATOM      1  C   UNL     1      79.773  59.350  10.283  1.00  0.00     0.004 C 
ENDROOT
BRANCH   1   2
ATOM      2  C   UNL     1      81.099  60.118  10.364  1.00  0.00     0.000 C 
BRANCH   2   3
ATOM      3  C   UNL     1      82.247  59.263  10.923  1.00  0.00     0.000 C 
BRANCH   3   4
ATOM      4  C   UNL     1      83.602  59.597  10.280  1.00  0.00     0.000 C 
BRANCH   4   5
ATOM      5  C   UNL     1      84.528  58.372  10.283  1.00  0.00     0.006 C 
BRANCH   5   6
ATOM      6  C   UNL     1      83.889  57.159   9.595  1.00  0.00     0.053 C 
BRANCH   6   7
ATOM      7  C   UNL     1      84.700  56.695   8.423  1.00  0.00     0.041 C 
ATOM      8  O   UNL     1      84.181  55.957   7.545  1.00  0.00    -0.550 OA
ATOM      9  O   UNL     1      86.039  57.051   8.320  1.00  0.00    -0.550 OA
ENDBRANCH   6   7
ENDBRANCH   5   6
ENDBRANCH   4   5
ENDBRANCH   3   4
ENDBRANCH   2   3
ENDBRANCH   1   2
BRANCH   1  10
ATOM     10  C   UNL     1      80.011  57.837  10.341  1.00  0.00     0.027 C 
BRANCH  10  11
ATOM     11  C   UNL     1      78.742  57.109  10.707  1.00  0.00    -0.031 C 
ATOM     12  C   UNL     1      77.833  56.664   9.820  1.00  0.00    -0.031 C 
BRANCH  12  13
ATOM     13  C   UNL     1      77.988  56.744   8.323  1.00  0.00     0.027 C 
BRANCH  13  14
ATOM     14  C   UNL     1      77.790  55.365   7.683  1.00  0.00     0.004 C 
BRANCH  14  15
ATOM     15  C   UNL     1      78.738  54.329   8.307  1.00  0.00     0.000 C 
BRANCH  15  16
ATOM     16  C   UNL     1      80.177  54.435   7.773  1.00  0.00    -0.000 C 
BRANCH  16  17
ATOM     17  C   UNL     1      81.265  54.512   8.860  1.00  0.00    -0.003 C 
ATOM     18  C   UNL     1      80.763  54.090  10.240  1.00  0.00     0.004 C 
ENDBRANCH  16  17
ENDBRANCH  15  16
ENDBRANCH  14  15
ENDBRANCH  13  14
ENDBRANCH  12  13
ENDBRANCH  10  11
ENDBRANCH   1  10
TORSDOF 13
ENDMDL
MODEL 4
REMARK VINA RESULT:    -5.265      5.043      8.535
REMARK INTER + INTRA:         -10.220
REMARK INTER:                  -9.104
REMARK INTRA:                  -1.116
REMARK UNBOUND:                -0.954
REMARK SMILES CCCCCCC=CCCCCCCCC(=O)[O-]
REMARK SMILES IDX 10 1 11 2 12 3 13 4 14 5 15 6 16 7 17 8 18 9 9 10 8 11 7 12
REMARK SMILES IDX 6 13 5 14 4 15 3 16 2 17 1 18
REMARK H PARENT
REMARK Flexibility Score: inf
ROOT
ATOM      1  C   UNL     1      82.047  59.116  10.658  1.00  0.00     0.004 C 
ENDROOT
BRANCH   1   2
ATOM      2  C   UNL     1      80.634  59.716  10.640  1.00  0.00     0.000 C 
BRANCH   2   3
ATOM      3  C   UNL     1      79.571  58.717  10.158  1.00  0.00     0.000 C 
BRANCH   3   4
ATOM      4  C   UNL     1      79.890  57.270  10.565  1.00  0.00     0.000 C 
BRANCH   4   5
ATOM      5  C   UNL     1      78.746  56.324  10.169  1.00  0.00     0.006 C 
BRANCH   5   6
ATOM      6  C   UNL     1      77.793  56.959   9.147  1.00  0.00     0.053 C 
BRANCH   6   7
ATOM      7  C   UNL     1      77.758  56.184   7.866  1.00  0.00     0.041 C 
ATOM      8  O   UNL     1      77.775  54.925   7.885  1.00  0.00    -0.550 OA
ATOM      9  O   UNL     1      77.741  56.854   6.648  1.00  0.00    -0.550 OA
ENDBRANCH   6   7
ENDBRANCH   5   6
ENDBRANCH   4   5
ENDBRANCH   3   4
ENDBRANCH   2   3
ENDBRANCH   1   2
BRANCH   1  10
ATOM     10  C   UNL     1      83.102  60.191  10.379  1.00  0.00     0.027 C 
BRANCH  10  11
ATOM     11  C   UNL     1      82.448  61.510  10.050  1.00  0.00    -0.031 C 
ATOM     12  C   UNL     1      83.115  62.637   9.741  1.00  0.00    -0.031 C 
BRANCH  12  13
ATOM     13  C   UNL     1      84.612  62.732   9.588  1.00  0.00     0.027 C 
BRANCH  13  14
ATOM     14  C   UNL     1      85.004  62.768   8.106  1.00  0.00     0.004 C 
BRANCH  14  15
ATOM     15  C   UNL     1      85.643  61.438   7.675  1.00  0.00     0.000 C 
BRANCH  15  16
ATOM     16  C   UNL     1      86.383  60.729   8.822  1.00  0.00    -0.000 C 
BRANCH  16  17
ATOM     17  C   UNL     1      87.030  59.385   8.441  1.00  0.00    -0.003 C 
ATOM     18  C   UNL     1      87.964  59.491   7.237  1.00  0.00     0.004 C 
ENDBRANCH  16  17
ENDBRANCH  15  16
ENDBRANCH  14  15
ENDBRANCH  13  14
ENDBRANCH  12  13
ENDBRANCH  10  11
ENDBRANCH   1  10
TORSDOF 13
ENDMDL
MODEL 5
REMARK VINA RESULT:    -5.249      3.287      4.658
REMARK INTER + INTRA:         -10.191
REMARK INTER:                  -9.081
REMARK INTRA:                  -1.111
REMARK UNBOUND:                -0.954
REMARK SMILES CCCCCCC=CCCCCCCCC(=O)[O-]
REMARK SMILES IDX 10 1 11 2 12 3 13 4 14 5 15 6 16 7 17 8 18 9 9 10 8 11 7 12
REMARK SMILES IDX 6 13 5 14 4 15 3 16 2 17 1 18
REMARK H PARENT
REMARK Flexibility Score: inf
ROOT
ATOM      1  C   UNL     1      79.768  59.283  10.363  1.00  0.00     0.004 C 
ENDROOT
BRANCH   1   2
ATOM      2  C   UNL     1      81.127  59.984  10.229  1.00  0.00     0.000 C 
BRANCH   2   3
ATOM      3  C   UNL     1      81.987  59.859  11.497  1.00  0.00     0.000 C 
BRANCH   3   4
ATOM      4  C   UNL     1      83.449  60.268  11.264  1.00  0.00     0.000 C 
BRANCH   4   5
ATOM      5  C   UNL     1      83.543  61.407  10.238  1.00  0.00     0.006 C 
BRANCH   5   6
ATOM      6  C   UNL     1      84.888  62.142  10.307  1.00  0.00     0.053 C 
BRANCH   6   7
ATOM      7  C   UNL     1      85.108  63.012   9.107  1.00  0.00     0.041 C 
ATOM      8  O   UNL     1      86.231  63.544   8.906  1.00  0.00    -0.550 OA
ATOM      9  O   UNL     1      84.060  63.261   8.228  1.00  0.00    -0.550 OA
ENDBRANCH   6   7
ENDBRANCH   5   6
ENDBRANCH   4   5
ENDBRANCH   3   4
ENDBRANCH   2   3
ENDBRANCH   1   2
BRANCH   1  10
ATOM     10  C   UNL     1      79.934  57.760  10.368  1.00  0.00     0.027 C 
BRANCH  10  11
ATOM     11  C   UNL     1      78.607  57.078  10.587  1.00  0.00    -0.031 C 
ATOM     12  C   UNL     1      77.790  56.661   9.602  1.00  0.00    -0.031 C 
BRANCH  12  13
ATOM     13  C   UNL     1      78.117  56.731   8.132  1.00  0.00     0.027 C 
BRANCH  13  14
ATOM     14  C   UNL     1      77.760  55.413   7.434  1.00  0.00     0.004 C 
BRANCH  14  15
ATOM     15  C   UNL     1      78.383  54.216   8.168  1.00  0.00     0.000 C 
BRANCH  15  16
ATOM     16  C   UNL     1      79.915  54.160   8.032  1.00  0.00    -0.000 C 
BRANCH  16  17
ATOM     17  C   UNL     1      80.684  54.219   9.364  1.00  0.00    -0.003 C 
ATOM     18  C   UNL     1      81.232  52.861   9.800  1.00  0.00     0.004 C 
ENDBRANCH  16  17
ENDBRANCH  15  16
ENDBRANCH  14  15
ENDBRANCH  13  14
ENDBRANCH  12  13
ENDBRANCH  10  11
ENDBRANCH   1  10
TORSDOF 13
ENDMDL
MODEL 6
REMARK VINA RESULT:    -5.209      2.200      4.497
REMARK INTER + INTRA:         -10.122
REMARK INTER:                  -8.581
REMARK INTRA:                  -1.541
REMARK UNBOUND:                -0.954
REMARK SMILES CCCCCCC=CCCCCCCCC(=O)[O-]
REMARK SMILES IDX 10 1 11 2 12 3 13 4 14 5 15 6 16 7 17 8 18 9 9 10 8 11 7 12
REMARK SMILES IDX 6 13 5 14 4 15 3 16 2 17 1 18
REMARK H PARENT
REMARK Flexibility Score: inf
ROOT
ATOM      1  C   UNL     1      79.523  57.332  10.536  1.00  0.00     0.004 C 
ENDROOT
BRANCH   1   2
ATOM      2  C   UNL     1      79.493  58.790  10.054  1.00  0.00     0.000 C 
BRANCH   2   3
ATOM      3  C   UNL     1      80.651  59.626  10.622  1.00  0.00     0.000 C 
BRANCH   3   4
ATOM      4  C   UNL     1      81.912  58.791  10.884  1.00  0.00     0.000 C 
BRANCH   4   5
ATOM      5  C   UNL     1      83.133  59.406  10.182  1.00  0.00     0.006 C 
BRANCH   5   6
ATOM      6  C   UNL     1      84.429  59.190  10.976  1.00  0.00     0.053 C 
BRANCH   6   7
ATOM      7  C   UNL     1      84.683  60.310  11.937  1.00  0.00     0.041 C 
ATOM      8  O   UNL     1      85.014  61.448  11.512  1.00  0.00    -0.550 OA
ATOM      9  O   UNL     1      84.589  60.087  13.306  1.00  0.00    -0.550 OA
ENDBRANCH   6   7
ENDBRANCH   5   6
ENDBRANCH   4   5
ENDBRANCH   3   4
ENDBRANCH   2   3
ENDBRANCH   1   2
BRANCH   1  10
ATOM     10  C   UNL     1      78.226  56.606  10.166  1.00  0.00     0.027 C 
BRANCH  10  11
ATOM     11  C   UNL     1      77.777  56.987   8.777  1.00  0.00    -0.031 C 
ATOM     12  C   UNL     1      77.744  56.146   7.727  1.00  0.00    -0.031 C 
BRANCH  12  13
ATOM     13  C   UNL     1      78.064  54.674   7.799  1.00  0.00     0.027 C 
BRANCH  13  14
ATOM     14  C   UNL     1      79.578  54.444   7.722  1.00  0.00     0.004 C 
BRANCH  14  15
ATOM     15  C   UNL     1      80.079  53.668   8.951  1.00  0.00     0.000 C 
BRANCH  15  16
ATOM     16  C   UNL     1      81.609  53.720   9.109  1.00  0.00    -0.000 C 
BRANCH  16  17
ATOM     17  C   UNL     1      82.117  54.736  10.147  1.00  0.00    -0.003 C 
ATOM     18  C   UNL     1      83.191  55.672   9.594  1.00  0.00     0.004 C 
ENDBRANCH  16  17
ENDBRANCH  15  16
ENDBRANCH  14  15
ENDBRANCH  13  14
ENDBRANCH  12  13
ENDBRANCH  10  11
ENDBRANCH   1  10
TORSDOF 13
ENDMDL
MODEL 7
REMARK VINA RESULT:    -5.187      1.442      2.744
REMARK INTER + INTRA:         -10.083
REMARK INTER:                  -8.981
REMARK INTRA:                  -1.102
REMARK UNBOUND:                -0.954
REMARK SMILES CCCCCCC=CCCCCCCCC(=O)[O-]
REMARK SMILES IDX 10 1 11 2 12 3 13 4 14 5 15 6 16 7 17 8 18 9 9 10 8 11 7 12
REMARK SMILES IDX 6 13 5 14 4 15 3 16 2 17 1 18
REMARK H PARENT
REMARK Flexibility Score: inf
ROOT
ATOM      1  C   UNL     1      81.444  58.574  10.692  1.00  0.00     0.004 C 
ENDROOT
BRANCH   1   2
ATOM      2  C   UNL     1      81.772  60.002  11.149  1.00  0.00     0.000 C 
BRANCH   2   3
ATOM      3  C   UNL     1      82.930  60.628  10.355  1.00  0.00     0.000 C 
BRANCH   3   4
ATOM      4  C   UNL     1      84.291  60.430  11.038  1.00  0.00     0.000 C 
BRANCH   4   5
ATOM      5  C   UNL     1      84.115  60.094  12.527  1.00  0.00     0.006 C 
BRANCH   5   6
ATOM      6  C   UNL     1      85.401  60.324  13.331  1.00  0.00     0.053 C 
BRANCH   6   7
ATOM      7  C   UNL     1      85.127  61.021  14.628  1.00  0.00     0.041 C 
ATOM      8  O   UNL     1      86.044  61.657  15.213  1.00  0.00    -0.550 OA
ATOM      9  O   UNL     1      83.868  60.939  15.209  1.00  0.00    -0.550 OA
ENDBRANCH   6   7
ENDBRANCH   5   6
ENDBRANCH   4   5
ENDBRANCH   3   4
ENDBRANCH   2   3
ENDBRANCH   1   2
BRANCH   1  10
ATOM     10  C   UNL     1      79.948  58.422  10.398  1.00  0.00     0.027 C 
BRANCH  10  11
ATOM     11  C   UNL     1      79.445  57.077  10.860  1.00  0.00    -0.031 C 
ATOM     12  C   UNL     1      78.380  56.440  10.340  1.00  0.00    -0.031 C 
BRANCH  12  13
ATOM     13  C   UNL     1      77.583  56.929   9.158  1.00  0.00     0.027 C 
BRANCH  13  14
ATOM     14  C   UNL     1      77.809  56.025   7.941  1.00  0.00     0.004 C 
BRANCH  14  15
ATOM     15  C   UNL     1      78.354  54.653   8.368  1.00  0.00     0.000 C 
BRANCH  15  16
ATOM     16  C   UNL     1      79.662  54.277   7.650  1.00  0.00    -0.000 C 
BRANCH  16  17
ATOM     17  C   UNL     1      80.920  54.315   8.535  1.00  0.00    -0.003 C 
ATOM     18  C   UNL     1      80.712  53.660   9.900  1.00  0.00     0.004 C 
ENDBRANCH  16  17
ENDBRANCH  15  16
ENDBRANCH  14  15
ENDBRANCH  13  14
ENDBRANCH  12  13
ENDBRANCH  10  11
ENDBRANCH   1  10
TORSDOF 13
ENDMDL
MODEL 8
REMARK VINA RESULT:    -5.140      4.872      8.825
REMARK INTER + INTRA:          -9.999
REMARK INTER:                  -9.173
REMARK INTRA:                  -0.826
REMARK UNBOUND:                -0.954
REMARK SMILES CCCCCCC=CCCCCCCCC(=O)[O-]
REMARK SMILES IDX 10 1 11 2 12 3 13 4 14 5 15 6 16 7 17 8 18 9 9 10 8 11 7 12
REMARK SMILES IDX 6 13 5 14 4 15 3 16 2 17 1 18
REMARK H PARENT
REMARK Flexibility Score: inf
ROOT
ATOM      1  C   UNL     1      78.242  56.573  10.305  1.00  0.00     0.004 C 
ENDROOT
BRANCH   1   2
ATOM      2  C   UNL     1      77.745  57.064   8.938  1.00  0.00     0.000 C 
BRANCH   2   3
ATOM      3  C   UNL     1      77.801  55.972   7.858  1.00  0.00     0.000 C 
BRANCH   3   4
ATOM      4  C   UNL     1      78.144  54.589   8.432  1.00  0.00     0.000 C 
BRANCH   4   5
ATOM      5  C   UNL     1      79.447  54.050   7.822  1.00  0.00     0.006 C 
BRANCH   5   6
ATOM      6  C   UNL     1      79.499  52.516   7.826  1.00  0.00     0.053 C 
BRANCH   6   7
ATOM      7  C   UNL     1      80.783  52.006   8.406  1.00  0.00     0.041 C 
ATOM      8  O   UNL     1      81.854  52.093   7.749  1.00  0.00    -0.550 OA
ATOM      9  O   UNL     1      80.790  51.403   9.658  1.00  0.00    -0.550 OA
ENDBRANCH   6   7
ENDBRANCH   5   6
ENDBRANCH   4   5
ENDBRANCH   3   4
ENDBRANCH   2   3
ENDBRANCH   1   2
BRANCH   1  10
ATOM     10  C   UNL     1      79.547  57.272  10.698  1.00  0.00     0.027 C 
BRANCH  10  11
ATOM     11  C   UNL     1      79.543  58.710  10.240  1.00  0.00    -0.031 C 
ATOM     12  C   UNL     1      80.595  59.544  10.332  1.00  0.00    -0.031 C 
BRANCH  12  13
ATOM     13  C   UNL     1      81.964  59.144  10.821  1.00  0.00     0.027 C 
BRANCH  13  14
ATOM     14  C   UNL     1      82.735  60.367  11.333  1.00  0.00     0.004 C 
BRANCH  14  15
ATOM     15  C   UNL     1      83.634  60.950  10.232  1.00  0.00     0.000 C 
BRANCH  15  16
ATOM     16  C   UNL     1      83.188  62.348   9.771  1.00  0.00    -0.000 C 
BRANCH  16  17
ATOM     17  C   UNL     1      84.056  62.972   8.664  1.00  0.00    -0.003 C 
ATOM     18  C   UNL     1      85.544  62.999   9.013  1.00  0.00     0.004 C 
ENDBRANCH  16  17
ENDBRANCH  15  16
ENDBRANCH  14  15
ENDBRANCH  13  14
ENDBRANCH  12  13
ENDBRANCH  10  11
ENDBRANCH   1  10
TORSDOF 13
ENDMDL
MODEL 9
REMARK VINA RESULT:    -5.139      6.097      7.145
REMARK INTER + INTRA:          -9.998
REMARK INTER:                  -8.221
REMARK INTRA:                  -1.777
REMARK UNBOUND:                -0.954
REMARK SMILES CCCCCCC=CCCCCCCCC(=O)[O-]
REMARK SMILES IDX 10 1 11 2 12 3 13 4 14 5 15 6 16 7 17 8 18 9 9 10 8 11 7 12
REMARK SMILES IDX 6 13 5 14 4 15 3 16 2 17 1 18
REMARK H PARENT
REMARK Flexibility Score: inf
ROOT
ATOM      1  C   UNL     1      80.343  54.961  11.549  1.00  0.00     0.004 C 
ENDROOT
BRANCH   1   2
ATOM      2  C   UNL     1      81.316  55.403  10.447  1.00  0.00     0.000 C 
BRANCH   2   3
ATOM      3  C   UNL     1      82.369  54.332  10.121  1.00  0.00     0.000 C 
BRANCH   3   4
ATOM      4  C   UNL     1      82.186  53.051  10.947  1.00  0.00     0.000 C 
BRANCH   4   5
ATOM      5  C   UNL     1      83.524  52.587  11.544  1.00  0.00     0.006 C 
BRANCH   5   6
ATOM      6  C   UNL     1      83.347  51.434  12.541  1.00  0.00     0.053 C 
BRANCH   6   7
ATOM      7  C   UNL     1      83.848  50.137  11.983  1.00  0.00     0.041 C 
ATOM      8  O   UNL     1      83.102  49.123  11.967  1.00  0.00    -0.550 OA
ATOM      9  O   UNL     1      85.152  50.039  11.513  1.00  0.00    -0.550 OA
ENDBRANCH   6   7
ENDBRANCH   5   6
ENDBRANCH   4   5
ENDBRANCH   3   4
ENDBRANCH   2   3
ENDBRANCH   1   2
BRANCH   1  10
ATOM     10  C   UNL     1      79.071  55.815  11.532  1.00  0.00     0.027 C 
BRANCH  10  11
ATOM     11  C   UNL     1      79.314  57.123  10.819  1.00  0.00    -0.031 C 
ATOM     12  C   UNL     1      78.644  57.533   9.727  1.00  0.00    -0.031 C 
BRANCH  12  13
ATOM     13  C   UNL     1      77.489  56.793   9.103  1.00  0.00     0.027 C 
BRANCH  13  14
ATOM     14  C   UNL     1      77.778  56.479   7.630  1.00  0.00     0.004 C 
BRANCH  14  15
ATOM     15  C   UNL     1      78.812  55.350   7.502  1.00  0.00     0.000 C 
BRANCH  15  16
ATOM     16  C   UNL     1      78.413  54.081   8.278  1.00  0.00    -0.000 C 
BRANCH  16  17
ATOM     17  C   UNL     1      79.463  52.955   8.259  1.00  0.00    -0.003 C 
ATOM     18  C   UNL     1      79.057  51.775   7.377  1.00  0.00     0.004 C 
ENDBRANCH  16  17
ENDBRANCH  15  16
ENDBRANCH  14  15
ENDBRANCH  13  14
ENDBRANCH  12  13
ENDBRANCH  10  11
ENDBRANCH   1  10
TORSDOF 13
ENDMDL
