MODEL 1
REMARK VINA RESULT:    -7.256      0.000      0.000
REMARK INTER + INTRA:          -9.770
REMARK INTER:                  -9.801
REMARK INTRA:                   0.031
REMARK UNBOUND:                 0.031
REMARK SMILES O=c1c(-c2ccc(O)cc2)coc2c([C@@H]3O[C@@H](CO)[C@H](O)[C@H](O)[C@@H]3O)c(O)ccc12
REMARK SMILES IDX 3 1 11 2 12 3 13 4 30 5 2 6 1 7 29 8 28 9 26 10 14 11 4 12
REMARK SMILES IDX 5 13 6 14 7 15 10 16 9 17 8 18 15 20 24 21 16 22 22 23 17 24
REMARK SMILES IDX 20 25 25 26 23 28 18 30 19 31 21 33 27 35
REMARK H PARENT 8 19 25 27 23 29 19 32 21 34 27 36
REMARK Flexibility Score: inf
ROOT
ATOM      1  C   UNL     1      19.825  48.612  43.903  1.00  0.00     0.065 A 
ATOM      2  C   UNL     1      19.988  47.310  43.411  1.00  0.00     0.208 A 
ATOM      3  O   UNL     1      19.074  46.761  42.617  1.00  0.00    -0.463 OA
ATOM      4  C   UNL     1      17.959  47.387  42.239  1.00  0.00     0.147 A 
ATOM      5  C   UNL     1      17.722  48.706  42.688  1.00  0.00     0.066 A 
ATOM      6  C   UNL     1      18.668  49.321  43.533  1.00  0.00     0.200 A 
ATOM      7  O   UNL     1      18.492  50.504  43.936  1.00  0.00    -0.288 OA
ATOM      8  C   UNL     1      16.568  49.379  42.268  1.00  0.00     0.020 A 
ATOM      9  C   UNL     1      15.670  48.756  41.400  1.00  0.00     0.047 A 
ATOM     10  C   UNL     1      15.892  47.451  40.945  1.00  0.00     0.125 A 
ATOM     11  C   UNL     1      17.034  46.726  41.386  1.00  0.00     0.069 A 
ENDROOT
BRANCH   1  12
ATOM     12  C   UNL     1      20.880  49.218  44.757  1.00  0.00    -0.011 A 
ATOM     13  C   UNL     1      22.155  49.501  44.235  1.00  0.00     0.013 A 
ATOM     14  C   UNL     1      23.138  50.079  45.046  1.00  0.00     0.047 A 
ATOM     15  C   UNL     1      22.857  50.384  46.387  1.00  0.00     0.115 A 
ATOM     16  C   UNL     1      20.607  49.527  46.103  1.00  0.00     0.013 A 
ATOM     17  C   UNL     1      21.592  50.108  46.911  1.00  0.00     0.047 A 
BRANCH  15  18
ATOM     18  O   UNL     1      23.823  50.963  47.205  1.00  0.00    -0.508 OA
ATOM     19  H   UNL     1      24.813  50.847  47.016  1.00  0.00     0.293 HD
ENDBRANCH  15  18
ENDBRANCH   1  12
BRANCH  11  20
ATOM     20  C   UNL     1      17.403  45.305  40.901  1.00  0.00     0.188 C 
ATOM     21  C   UNL     1      16.294  44.274  40.544  1.00  0.00     0.179 C 
ATOM     22  O   UNL     1      18.412  45.313  39.907  1.00  0.00    -0.362 OA
ATOM     23  C   UNL     1      16.146  44.034  39.010  1.00  0.00     0.177 C 
ATOM     24  C   UNL     1      17.949  45.904  38.702  1.00  0.00     0.176 C 
ATOM     25  C   UNL     1      16.715  45.152  38.095  1.00  0.00     0.177 C 
BRANCH  21  26
ATOM     26  O   UNL     1      15.061  44.550  41.173  1.00  0.00    -0.387 OA
ATOM     27  H   UNL     1      14.846  43.767  41.735  1.00  0.00     0.211 HD
ENDBRANCH  21  26
BRANCH  23  28
ATOM     28  O   UNL     1      14.799  43.773  38.652  1.00  0.00    -0.387 OA
ATOM     29  H   UNL     1      14.813  43.462  37.708  1.00  0.00     0.211 HD
ENDBRANCH  23  28
BRANCH  24  30
ATOM     30  C   UNL     1      19.129  45.944  37.715  1.00  0.00     0.191 C 
BRANCH  30  31
ATOM     31  O   UNL     1      18.677  45.672  36.415  1.00  0.00    -0.394 OA
ATOM     32  H   UNL     1      17.723  45.944  36.400  1.00  0.00     0.210 HD
ENDBRANCH  30  31
ENDBRANCH  24  30
BRANCH  25  33
ATOM     33  O   UNL     1      15.704  46.070  37.755  1.00  0.00    -0.388 OA
ATOM     34  H   UNL     1      15.069  45.605  37.148  1.00  0.00     0.211 HD
ENDBRANCH  25  33
ENDBRANCH  11  20
BRANCH  10  35
ATOM     35  O   UNL     1      14.967  46.899  40.055  1.00  0.00    -0.507 OA
ATOM     36  H   UNL     1      14.075  46.531  40.360  1.00  0.00     0.293 HD
ENDBRANCH  10  35
TORSDOF 9
ENDMDL
MODEL 2
REMARK VINA RESULT:    -7.118      2.901      5.458
REMARK INTER + INTRA:          -9.583
REMARK INTER:                  -9.550
REMARK INTRA:                  -0.033
REMARK UNBOUND:                 0.031
REMARK SMILES O=c1c(-c2ccc(O)cc2)coc2c([C@@H]3O[C@@H](CO)[C@H](O)[C@H](O)[C@@H]3O)c(O)ccc12
REMARK SMILES IDX 3 1 11 2 12 3 13 4 30 5 2 6 1 7 29 8 28 9 26 10 14 11 4 12
REMARK SMILES IDX 5 13 6 14 7 15 10 16 9 17 8 18 15 20 24 21 16 22 22 23 17 24
REMARK SMILES IDX 20 25 25 26 23 28 18 30 19 31 21 33 27 35
REMARK H PARENT 8 19 25 27 23 29 19 32 21 34 27 36
REMARK Flexibility Score: inf
ROOT
ATOM      1  C   UNL     1      22.206  50.644  47.574  1.00  0.00     0.065 A 
ATOM      2  C   UNL     1      22.285  50.473  46.186  1.00  0.00     0.208 A 
ATOM      3  O   UNL     1      21.491  49.612  45.557  1.00  0.00    -0.463 OA
ATOM      4  C   UNL     1      20.585  48.861  46.181  1.00  0.00     0.147 A 
ATOM      5  C   UNL     1      20.437  48.977  47.583  1.00  0.00     0.066 A 
ATOM      6  C   UNL     1      21.263  49.879  48.283  1.00  0.00     0.200 A 
ATOM      7  O   UNL     1      21.143  50.018  49.532  1.00  0.00    -0.288 OA
ATOM      8  C   UNL     1      19.463  48.213  48.238  1.00  0.00     0.020 A 
ATOM      9  C   UNL     1      18.636  47.358  47.510  1.00  0.00     0.047 A 
ATOM     10  C   UNL     1      18.768  47.233  46.121  1.00  0.00     0.125 A 
ATOM     11  C   UNL     1      19.774  47.964  45.432  1.00  0.00     0.069 A 
ENDROOT
BRANCH   1  12
ATOM     12  C   UNL     1      23.077  51.642  48.248  1.00  0.00    -0.011 A 
ATOM     13  C   UNL     1      24.401  51.321  48.599  1.00  0.00     0.013 A 
ATOM     14  C   UNL     1      25.215  52.271  49.226  1.00  0.00     0.047 A 
ATOM     15  C   UNL     1      24.717  53.554  49.505  1.00  0.00     0.115 A 
ATOM     16  C   UNL     1      22.586  52.930  48.532  1.00  0.00     0.013 A 
ATOM     17  C   UNL     1      23.404  53.879  49.157  1.00  0.00     0.047 A 
BRANCH  15  18
ATOM     18  O   UNL     1      25.516  54.510  50.125  1.00  0.00    -0.508 OA
ATOM     19  H   UNL     1      26.487  54.639  49.860  1.00  0.00     0.293 HD
ENDBRANCH  15  18
ENDBRANCH   1  12
BRANCH  11  20
ATOM     20  C   UNL     1      19.968  47.944  43.898  1.00  0.00     0.188 C 
ATOM     21  C   UNL     1      19.632  46.669  43.071  1.00  0.00     0.179 C 
ATOM     22  O   UNL     1      19.441  49.098  43.266  1.00  0.00    -0.362 OA
ATOM     23  C   UNL     1      18.324  46.805  42.233  1.00  0.00     0.177 C 
ATOM     24  C   UNL     1      18.025  49.143  43.366  1.00  0.00     0.176 C 
ATOM     25  C   UNL     1      17.332  47.903  42.704  1.00  0.00     0.177 C 
BRANCH  21  26
ATOM     26  O   UNL     1      19.665  45.488  43.843  1.00  0.00    -0.387 OA
ATOM     27  H   UNL     1      20.449  44.970  43.539  1.00  0.00     0.211 HD
ENDBRANCH  21  26
BRANCH  23  28
ATOM     28  O   UNL     1      17.641  45.566  42.133  1.00  0.00    -0.387 OA
ATOM     29  H   UNL     1      17.976  44.997  42.876  1.00  0.00     0.211 HD
ENDBRANCH  23  28
BRANCH  24  30
ATOM     30  C   UNL     1      17.552  50.462  42.730  1.00  0.00     0.191 C 
BRANCH  30  31
ATOM     31  O   UNL     1      17.653  50.386  41.334  1.00  0.00    -0.394 OA
ATOM     32  H   UNL     1      18.532  50.784  41.105  1.00  0.00     0.210 HD
ENDBRANCH  30  31
ENDBRANCH  24  30
BRANCH  25  33
ATOM     33  O   UNL     1      16.372  47.357  43.576  1.00  0.00    -0.388 OA
ATOM     34  H   UNL     1      15.478  47.652  43.258  1.00  0.00     0.211 HD
ENDBRANCH  25  33
ENDBRANCH  11  20
BRANCH  10  35
ATOM     35  O   UNL     1      17.887  46.380  45.452  1.00  0.00    -0.507 OA
ATOM     36  H   UNL     1      17.362  46.674  44.638  1.00  0.00     0.293 HD
ENDBRANCH  10  35
TORSDOF 9
ENDMDL
MODEL 3
REMARK VINA RESULT:    -7.027      1.141      1.245
REMARK INTER + INTRA:          -9.460
REMARK INTER:                  -9.553
REMARK INTRA:                   0.093
REMARK UNBOUND:                 0.031
REMARK SMILES O=c1c(-c2ccc(O)cc2)coc2c([C@@H]3O[C@@H](CO)[C@H](O)[C@H](O)[C@@H]3O)c(O)ccc12
REMARK SMILES IDX 3 1 11 2 12 3 13 4 30 5 2 6 1 7 29 8 28 9 26 10 14 11 4 12
REMARK SMILES IDX 5 13 6 14 7 15 10 16 9 17 8 18 15 20 24 21 16 22 22 23 17 24
REMARK SMILES IDX 20 25 25 26 23 28 18 30 19 31 21 33 27 35
REMARK H PARENT 8 19 25 27 23 29 19 32 21 34 27 36
REMARK Flexibility Score: inf
ROOT
ATOM      1  C   UNL     1      19.776  49.063  44.624  1.00  0.00     0.065 A 
ATOM      2  C   UNL     1      19.581  47.686  44.450  1.00  0.00     0.208 A 
ATOM      3  O   UNL     1      18.607  47.227  43.669  1.00  0.00    -0.463 OA
ATOM      4  C   UNL     1      17.761  48.019  43.011  1.00  0.00     0.147 A 
ATOM      5  C   UNL     1      17.893  49.422  43.128  1.00  0.00     0.066 A 
ATOM      6  C   UNL     1      18.913  49.944  43.949  1.00  0.00     0.200 A 
ATOM      7  O   UNL     1      19.067  51.193  44.060  1.00  0.00    -0.288 OA
ATOM      8  C   UNL     1      17.027  50.257  42.413  1.00  0.00     0.020 A 
ATOM      9  C   UNL     1      16.053  49.708  41.578  1.00  0.00     0.047 A 
ATOM     10  C   UNL     1      15.910  48.321  41.450  1.00  0.00     0.125 A 
ATOM     11  C   UNL     1      16.748  47.445  42.194  1.00  0.00     0.069 A 
ENDROOT
BRANCH   1  12
ATOM     12  C   UNL     1      20.896  49.550  45.471  1.00  0.00    -0.011 A 
ATOM     13  C   UNL     1      22.210  49.596  44.971  1.00  0.00     0.013 A 
ATOM     14  C   UNL     1      23.255  50.064  45.775  1.00  0.00     0.047 A 
ATOM     15  C   UNL     1      22.998  50.497  47.086  1.00  0.00     0.115 A 
ATOM     16  C   UNL     1      20.648  49.985  46.787  1.00  0.00     0.013 A 
ATOM     17  C   UNL     1      21.695  50.456  47.587  1.00  0.00     0.047 A 
BRANCH  15  18
ATOM     18  O   UNL     1      24.027  50.969  47.895  1.00  0.00    -0.508 OA
ATOM     19  H   UNL     1      24.847  51.418  47.500  1.00  0.00     0.293 HD
ENDBRANCH  15  18
ENDBRANCH   1  12
BRANCH  11  20
ATOM     20  C   UNL     1      16.713  45.903  42.083  1.00  0.00     0.188 C 
ATOM     21  C   UNL     1      15.368  45.152  41.869  1.00  0.00     0.179 C 
ATOM     22  O   UNL     1      17.708  45.397  41.211  1.00  0.00    -0.362 OA
ATOM     23  C   UNL     1      15.197  44.593  40.423  1.00  0.00     0.177 C 
ATOM     24  C   UNL     1      17.462  45.778  39.866  1.00  0.00     0.176 C 
ATOM     25  C   UNL     1      16.081  45.259  39.334  1.00  0.00     0.177 C 
BRANCH  21  26
ATOM     26  O   UNL     1      14.247  45.894  42.301  1.00  0.00    -0.387 OA
ATOM     27  H   UNL     1      13.578  45.848  41.577  1.00  0.00     0.211 HD
ENDBRANCH  21  26
BRANCH  23  28
ATOM     28  O   UNL     1      13.841  44.623  40.010  1.00  0.00    -0.387 OA
ATOM     29  H   UNL     1      13.658  45.553  39.709  1.00  0.00     0.211 HD
ENDBRANCH  23  28
BRANCH  24  30
ATOM     30  C   UNL     1      18.630  45.257  39.009  1.00  0.00     0.191 C 
BRANCH  30  31
ATOM     31  O   UNL     1      19.309  46.333  38.419  1.00  0.00    -0.394 OA
ATOM     32  H   UNL     1      19.065  46.310  37.457  1.00  0.00     0.210 HD
ENDBRANCH  30  31
ENDBRANCH  24  30
BRANCH  25  33
ATOM     33  O   UNL     1      15.380  46.301  38.701  1.00  0.00    -0.388 OA
ATOM     34  H   UNL     1      14.564  45.908  38.292  1.00  0.00     0.211 HD
ENDBRANCH  25  33
ENDBRANCH  11  20
BRANCH  10  35
ATOM     35  O   UNL     1      14.933  47.840  40.575  1.00  0.00    -0.507 OA
ATOM     36  H   UNL     1      14.720  48.296  39.697  1.00  0.00     0.293 HD
ENDBRANCH  10  35
TORSDOF 9
ENDMDL
MODEL 4
REMARK VINA RESULT:    -6.971      2.902      8.360
REMARK INTER + INTRA:          -9.384
REMARK INTER:                  -9.212
REMARK INTRA:                  -0.173
REMARK UNBOUND:                 0.031
REMARK SMILES O=c1c(-c2ccc(O)cc2)coc2c([C@@H]3O[C@@H](CO)[C@H](O)[C@H](O)[C@@H]3O)c(O)ccc12
REMARK SMILES IDX 3 1 11 2 12 3 13 4 30 5 2 6 1 7 29 8 28 9 26 10 14 11 4 12
REMARK SMILES IDX 5 13 6 14 7 15 10 16 9 17 8 18 15 20 24 21 16 22 22 23 17 24
REMARK SMILES IDX 20 25 25 26 23 28 18 30 19 31 21 33 27 35
REMARK H PARENT 8 19 25 27 23 29 19 32 21 34 27 36
REMARK Flexibility Score: inf
ROOT
ATOM      1  C   UNL     1      16.699  45.197  39.467  1.00  0.00     0.065 A 
ATOM      2  C   UNL     1      15.839  46.232  39.859  1.00  0.00     0.208 A 
ATOM      3  O   UNL     1      16.112  46.981  40.923  1.00  0.00    -0.463 OA
ATOM      4  C   UNL     1      17.194  46.810  41.682  1.00  0.00     0.147 A 
ATOM      5  C   UNL     1      18.116  45.791  41.352  1.00  0.00     0.066 A 
ATOM      6  C   UNL     1      17.859  44.975  40.231  1.00  0.00     0.200 A 
ATOM      7  O   UNL     1      18.673  44.068  39.901  1.00  0.00    -0.288 OA
ATOM      8  C   UNL     1      19.270  45.629  42.128  1.00  0.00     0.020 A 
ATOM      9  C   UNL     1      19.514  46.479  43.207  1.00  0.00     0.047 A 
ATOM     10  C   UNL     1      18.611  47.494  43.547  1.00  0.00     0.125 A 
ATOM     11  C   UNL     1      17.410  47.658  42.803  1.00  0.00     0.069 A 
ENDROOT
BRANCH   1  12
ATOM     12  C   UNL     1      16.392  44.399  38.252  1.00  0.00    -0.011 A 
ATOM     13  C   UNL     1      15.676  43.192  38.345  1.00  0.00     0.013 A 
ATOM     14  C   UNL     1      15.386  42.453  37.193  1.00  0.00     0.047 A 
ATOM     15  C   UNL     1      15.804  42.914  35.934  1.00  0.00     0.115 A 
ATOM     16  C   UNL     1      16.808  44.853  36.986  1.00  0.00     0.013 A 
ATOM     17  C   UNL     1      16.514  44.113  35.835  1.00  0.00     0.047 A 
BRANCH  15  18
ATOM     18  O   UNL     1      15.518  42.191  34.779  1.00  0.00    -0.508 OA
ATOM     19  H   UNL     1      16.220  41.611  34.332  1.00  0.00     0.293 HD
ENDBRANCH  15  18
ENDBRANCH   1  12
BRANCH  11  20
ATOM     20  C   UNL     1      16.377  48.781  43.056  1.00  0.00     0.188 C 
ATOM     21  C   UNL     1      16.187  49.380  44.478  1.00  0.00     0.179 C 
ATOM     22  O   UNL     1      16.445  49.813  42.087  1.00  0.00    -0.362 OA
ATOM     23  C   UNL     1      16.784  50.813  44.628  1.00  0.00     0.177 C 
ATOM     24  C   UNL     1      17.665  50.533  42.182  1.00  0.00     0.176 C 
ATOM     25  C   UNL     1      17.862  51.208  43.583  1.00  0.00     0.177 C 
BRANCH  21  26
ATOM     26  O   UNL     1      16.604  48.506  45.505  1.00  0.00    -0.387 OA
ATOM     27  H   UNL     1      16.443  47.588  45.181  1.00  0.00     0.211 HD
ENDBRANCH  21  26
BRANCH  23  28
ATOM     28  O   UNL     1      17.293  51.030  45.934  1.00  0.00    -0.387 OA
ATOM     29  H   UNL     1      17.574  50.141  46.279  1.00  0.00     0.211 HD
ENDBRANCH  23  28
BRANCH  24  30
ATOM     30  C   UNL     1      17.686  51.572  41.046  1.00  0.00     0.191 C 
BRANCH  30  31
ATOM     31  O   UNL     1      18.440  52.689  41.431  1.00  0.00    -0.394 OA
ATOM     32  H   UNL     1      17.855  53.476  41.275  1.00  0.00     0.210 HD
ENDBRANCH  30  31
ENDBRANCH  24  30
BRANCH  25  33
ATOM     33  O   UNL     1      19.150  50.934  44.079  1.00  0.00    -0.388 OA
ATOM     34  H   UNL     1      19.043  50.433  44.930  1.00  0.00     0.211 HD
ENDBRANCH  25  33
ENDBRANCH  11  20
BRANCH  10  35
ATOM     35  O   UNL     1      18.933  48.326  44.622  1.00  0.00    -0.507 OA
ATOM     36  H   UNL     1      18.302  48.474  45.400  1.00  0.00     0.293 HD
ENDBRANCH  10  35
TORSDOF 9
ENDMDL
MODEL 5
REMARK VINA RESULT:    -6.873      2.871      4.417
REMARK INTER + INTRA:          -9.252
REMARK INTER:                  -9.748
REMARK INTRA:                   0.495
REMARK UNBOUND:                 0.031
REMARK SMILES O=c1c(-c2ccc(O)cc2)coc2c([C@@H]3O[C@@H](CO)[C@H](O)[C@H](O)[C@@H]3O)c(O)ccc12
REMARK SMILES IDX 3 1 11 2 12 3 13 4 30 5 2 6 1 7 29 8 28 9 26 10 14 11 4 12
REMARK SMILES IDX 5 13 6 14 7 15 10 16 9 17 8 18 15 20 24 21 16 22 22 23 17 24
REMARK SMILES IDX 20 25 25 26 23 28 18 30 19 31 21 33 27 35
REMARK H PARENT 8 19 25 27 23 29 19 32 21 34 27 36
REMARK Flexibility Score: inf
ROOT
ATOM      1  C   UNL     1      20.510  49.728  47.274  1.00  0.00     0.065 A 
ATOM      2  C   UNL     1      20.674  49.178  45.996  1.00  0.00     0.208 A 
ATOM      3  O   UNL     1      19.626  48.761  45.291  1.00  0.00    -0.463 OA
ATOM      4  C   UNL     1      18.371  48.830  45.734  1.00  0.00     0.147 A 
ATOM      5  C   UNL     1      18.118  49.377  47.013  1.00  0.00     0.066 A 
ATOM      6  C   UNL     1      19.205  49.828  47.789  1.00  0.00     0.200 A 
ATOM      7  O   UNL     1      19.009  50.337  48.928  1.00  0.00    -0.288 OA
ATOM      8  C   UNL     1      16.798  49.480  47.468  1.00  0.00     0.020 A 
ATOM      9  C   UNL     1      15.742  49.061  46.659  1.00  0.00     0.047 A 
ATOM     10  C   UNL     1      15.976  48.518  45.390  1.00  0.00     0.125 A 
ATOM     11  C   UNL     1      17.307  48.362  44.914  1.00  0.00     0.069 A 
ENDROOT
BRANCH   1  12
ATOM     12  C   UNL     1      21.693  50.222  48.025  1.00  0.00    -0.011 A 
ATOM     13  C   UNL     1      21.743  50.134  49.428  1.00  0.00     0.013 A 
ATOM     14  C   UNL     1      22.866  50.595  50.125  1.00  0.00     0.047 A 
ATOM     15  C   UNL     1      23.953  51.145  49.427  1.00  0.00     0.115 A 
ATOM     16  C   UNL     1      22.787  50.775  47.334  1.00  0.00     0.013 A 
ATOM     17  C   UNL     1      23.910  51.233  48.033  1.00  0.00     0.047 A 
BRANCH  15  18
ATOM     18  O   UNL     1      25.078  51.604  50.106  1.00  0.00    -0.508 OA
ATOM     19  H   UNL     1      25.412  52.555  49.994  1.00  0.00     0.293 HD
ENDBRANCH  15  18
ENDBRANCH   1  12
BRANCH  11  20
ATOM     20  C   UNL     1      17.673  47.830  43.510  1.00  0.00     0.188 C 
ATOM     21  C   UNL     1      16.768  46.786  42.795  1.00  0.00     0.179 C 
ATOM     22  O   UNL     1      18.041  48.864  42.613  1.00  0.00    -0.362 OA
ATOM     23  C   UNL     1      15.942  47.390  41.618  1.00  0.00     0.177 C 
ATOM     24  C   UNL     1      16.939  49.706  42.312  1.00  0.00     0.176 C 
ATOM     25  C   UNL     1      15.749  48.930  41.650  1.00  0.00     0.177 C 
BRANCH  21  26
ATOM     26  O   UNL     1      15.974  46.039  43.691  1.00  0.00    -0.387 OA
ATOM     27  H   UNL     1      15.250  45.630  43.159  1.00  0.00     0.211 HD
ENDBRANCH  21  26
BRANCH  23  28
ATOM     28  O   UNL     1      14.677  46.760  41.494  1.00  0.00    -0.387 OA
ATOM     29  H   UNL     1      14.857  45.811  41.257  1.00  0.00     0.211 HD
ENDBRANCH  23  28
BRANCH  24  30
ATOM     30  C   UNL     1      17.449  50.840  41.405  1.00  0.00     0.191 C 
BRANCH  30  31
ATOM     31  O   UNL     1      17.415  50.434  40.063  1.00  0.00    -0.394 OA
ATOM     32  H   UNL     1      18.169  49.797  39.956  1.00  0.00     0.210 HD
ENDBRANCH  30  31
ENDBRANCH  24  30
BRANCH  25  33
ATOM     33  O   UNL     1      14.538  49.260  42.286  1.00  0.00    -0.388 OA
ATOM     34  H   UNL     1      14.718  49.317  43.261  1.00  0.00     0.211 HD
ENDBRANCH  25  33
ENDBRANCH  11  20
BRANCH  10  35
ATOM     35  O   UNL     1      14.870  48.146  44.621  1.00  0.00    -0.507 OA
ATOM     36  H   UNL     1      14.959  47.821  43.666  1.00  0.00     0.293 HD
ENDBRANCH  10  35
TORSDOF 9
ENDMDL
MODEL 6
REMARK VINA RESULT:    -6.687      2.446      8.449
REMARK INTER + INTRA:          -9.001
REMARK INTER:                  -8.964
REMARK INTRA:                  -0.037
REMARK UNBOUND:                 0.031
REMARK SMILES O=c1c(-c2ccc(O)cc2)coc2c([C@@H]3O[C@@H](CO)[C@H](O)[C@H](O)[C@@H]3O)c(O)ccc12
REMARK SMILES IDX 3 1 11 2 12 3 13 4 30 5 2 6 1 7 29 8 28 9 26 10 14 11 4 12
REMARK SMILES IDX 5 13 6 14 7 15 10 16 9 17 8 18 15 20 24 21 16 22 22 23 17 24
REMARK SMILES IDX 20 25 25 26 23 28 18 30 19 31 21 33 27 35
REMARK H PARENT 8 19 25 27 23 29 19 32 21 34 27 36
REMARK Flexibility Score: inf
ROOT
ATOM      1  C   UNL     1      17.257  47.473  41.317  1.00  0.00     0.065 A 
ATOM      2  C   UNL     1      17.977  46.777  42.297  1.00  0.00     0.208 A 
ATOM      3  O   UNL     1      18.473  47.407  43.357  1.00  0.00    -0.463 OA
ATOM      4  C   UNL     1      18.330  48.716  43.565  1.00  0.00     0.147 A 
ATOM      5  C   UNL     1      17.611  49.491  42.625  1.00  0.00     0.066 A 
ATOM      6  C   UNL     1      17.073  48.856  41.488  1.00  0.00     0.200 A 
ATOM      7  O   UNL     1      16.411  49.519  40.640  1.00  0.00    -0.288 OA
ATOM      8  C   UNL     1      17.432  50.860  42.857  1.00  0.00     0.020 A 
ATOM      9  C   UNL     1      17.944  51.449  44.013  1.00  0.00     0.047 A 
ATOM     10  C   UNL     1      18.657  50.696  44.953  1.00  0.00     0.125 A 
ATOM     11  C   UNL     1      18.891  49.311  44.728  1.00  0.00     0.069 A 
ENDROOT
BRANCH   1  12
ATOM     12  C   UNL     1      16.680  46.739  40.161  1.00  0.00    -0.011 A 
ATOM     13  C   UNL     1      15.332  46.334  40.165  1.00  0.00     0.013 A 
ATOM     14  C   UNL     1      14.797  45.650  39.067  1.00  0.00     0.047 A 
ATOM     15  C   UNL     1      15.602  45.366  37.952  1.00  0.00     0.115 A 
ATOM     16  C   UNL     1      17.479  46.450  39.038  1.00  0.00     0.013 A 
ATOM     17  C   UNL     1      16.940  45.768  37.941  1.00  0.00     0.047 A 
BRANCH  15  18
ATOM     18  O   UNL     1      15.082  44.691  36.851  1.00  0.00    -0.508 OA
ATOM     19  H   UNL     1      14.094  44.730  36.625  1.00  0.00     0.293 HD
ENDBRANCH  15  18
ENDBRANCH   1  12
BRANCH  11  20
ATOM     20  C   UNL     1      19.614  48.377  45.727  1.00  0.00     0.188 C 
ATOM     21  C   UNL     1      20.689  48.936  46.702  1.00  0.00     0.179 C 
ATOM     22  O   UNL     1      18.721  47.517  46.413  1.00  0.00    -0.362 OA
ATOM     23  C   UNL     1      20.194  49.029  48.178  1.00  0.00     0.177 C 
ATOM     24  C   UNL     1      17.866  48.244  47.282  1.00  0.00     0.176 C 
ATOM     25  C   UNL     1      18.654  49.048  48.373  1.00  0.00     0.177 C 
BRANCH  21  26
ATOM     26  O   UNL     1      21.275  50.137  46.247  1.00  0.00    -0.387 OA
ATOM     27  H   UNL     1      20.703  50.475  45.517  1.00  0.00     0.211 HD
ENDBRANCH  21  26
BRANCH  23  28
ATOM     28  O   UNL     1      20.767  50.139  48.849  1.00  0.00    -0.387 OA
ATOM     29  H   UNL     1      20.593  50.004  49.819  1.00  0.00     0.211 HD
ENDBRANCH  23  28
BRANCH  24  30
ATOM     30  C   UNL     1      16.882  47.244  47.917  1.00  0.00     0.191 C 
BRANCH  30  31
ATOM     31  O   UNL     1      16.738  46.121  47.090  1.00  0.00    -0.394 OA
ATOM     32  H   UNL     1      17.499  45.524  47.313  1.00  0.00     0.210 HD
ENDBRANCH  30  31
ENDBRANCH  24  30
BRANCH  25  33
ATOM     33  O   UNL     1      18.184  50.373  48.437  1.00  0.00    -0.388 OA
ATOM     34  H   UNL     1      18.534  50.854  47.642  1.00  0.00     0.211 HD
ENDBRANCH  25  33
ENDBRANCH  11  20
BRANCH  10  35
ATOM     35  O   UNL     1      19.117  51.344  46.102  1.00  0.00    -0.507 OA
ATOM     36  H   UNL     1      20.099  51.386  46.344  1.00  0.00     0.293 HD
ENDBRANCH  10  35
TORSDOF 9
ENDMDL
MODEL 7
REMARK VINA RESULT:    -6.647      2.470      4.534
REMARK INTER + INTRA:          -8.947
REMARK INTER:                  -9.419
REMARK INTRA:                   0.472
REMARK UNBOUND:                 0.031
REMARK SMILES O=c1c(-c2ccc(O)cc2)coc2c([C@@H]3O[C@@H](CO)[C@H](O)[C@H](O)[C@@H]3O)c(O)ccc12
REMARK SMILES IDX 3 1 11 2 12 3 13 4 30 5 2 6 1 7 29 8 28 9 26 10 14 11 4 12
REMARK SMILES IDX 5 13 6 14 7 15 10 16 9 17 8 18 15 20 24 21 16 22 22 23 17 24
REMARK SMILES IDX 20 25 25 26 23 28 18 30 19 31 21 33 27 35
REMARK H PARENT 8 19 25 27 23 29 19 32 21 34 27 36
REMARK Flexibility Score: inf
ROOT
ATOM      1  C   UNL     1      21.064  49.823  45.996  1.00  0.00     0.065 A 
ATOM      2  C   UNL     1      19.768  50.273  45.708  1.00  0.00     0.208 A 
ATOM      3  O   UNL     1      19.030  49.681  44.775  1.00  0.00    -0.463 OA
ATOM      4  C   UNL     1      19.453  48.642  44.056  1.00  0.00     0.147 A 
ATOM      5  C   UNL     1      20.748  48.122  44.288  1.00  0.00     0.066 A 
ATOM      6  C   UNL     1      21.559  48.726  45.269  1.00  0.00     0.200 A 
ATOM      7  O   UNL     1      22.713  48.273  45.510  1.00  0.00    -0.288 OA
ATOM      8  C   UNL     1      21.183  47.010  43.557  1.00  0.00     0.020 A 
ATOM      9  C   UNL     1      20.340  46.411  42.621  1.00  0.00     0.047 A 
ATOM     10  C   UNL     1      19.055  46.913  42.381  1.00  0.00     0.125 A 
ATOM     11  C   UNL     1      18.597  48.065  43.077  1.00  0.00     0.069 A 
ENDROOT
BRANCH   1  12
ATOM     12  C   UNL     1      21.854  50.478  47.070  1.00  0.00    -0.011 A 
ATOM     13  C   UNL     1      23.247  50.631  46.948  1.00  0.00     0.013 A 
ATOM     14  C   UNL     1      23.980  51.256  47.963  1.00  0.00     0.047 A 
ATOM     15  C   UNL     1      23.329  51.739  49.110  1.00  0.00     0.115 A 
ATOM     16  C   UNL     1      21.210  50.965  48.223  1.00  0.00     0.013 A 
ATOM     17  C   UNL     1      21.945  51.592  49.235  1.00  0.00     0.047 A 
BRANCH  15  18
ATOM     18  O   UNL     1      24.045  52.367  50.125  1.00  0.00    -0.508 OA
ATOM     19  H   UNL     1      24.648  51.842  50.749  1.00  0.00     0.293 HD
ENDBRANCH  15  18
ENDBRANCH   1  12
BRANCH  11  20
ATOM     20  C   UNL     1      17.180  48.665  42.931  1.00  0.00     0.188 C 
ATOM     21  C   UNL     1      16.402  48.550  41.588  1.00  0.00     0.179 C 
ATOM     22  O   UNL     1      16.335  48.342  44.022  1.00  0.00    -0.362 OA
ATOM     23  C   UNL     1      15.234  47.517  41.639  1.00  0.00     0.177 C 
ATOM     24  C   UNL     1      16.046  46.953  44.061  1.00  0.00     0.176 C 
ATOM     25  C   UNL     1      15.327  46.449  42.762  1.00  0.00     0.177 C 
BRANCH  21  26
ATOM     26  O   UNL     1      17.250  48.359  40.476  1.00  0.00    -0.387 OA
ATOM     27  H   UNL     1      17.181  47.406  40.225  1.00  0.00     0.211 HD
ENDBRANCH  21  26
BRANCH  23  28
ATOM     28  O   UNL     1      15.057  46.871  40.389  1.00  0.00    -0.387 OA
ATOM     29  H   UNL     1      15.645  46.069  40.399  1.00  0.00     0.211 HD
ENDBRANCH  23  28
BRANCH  24  30
ATOM     30  C   UNL     1      15.198  46.684  45.317  1.00  0.00     0.191 C 
BRANCH  30  31
ATOM     31  O   UNL     1      15.757  45.633  46.058  1.00  0.00    -0.394 OA
ATOM     32  H   UNL     1      16.250  45.075  45.402  1.00  0.00     0.210 HD
ENDBRANCH  30  31
ENDBRANCH  24  30
BRANCH  25  33
ATOM     33  O   UNL     1      15.950  45.283  42.281  1.00  0.00    -0.388 OA
ATOM     34  H   UNL     1      15.312  44.531  42.400  1.00  0.00     0.211 HD
ENDBRANCH  25  33
ENDBRANCH  11  20
BRANCH  10  35
ATOM     35  O   UNL     1      18.253  46.247  41.451  1.00  0.00    -0.507 OA
ATOM     36  H   UNL     1      18.471  46.229  40.462  1.00  0.00     0.293 HD
ENDBRANCH  10  35
TORSDOF 9
ENDMDL
MODEL 8
REMARK VINA RESULT:    -6.493      4.417      5.485
REMARK INTER + INTRA:          -8.740
REMARK INTER:                  -8.996
REMARK INTRA:                   0.256
REMARK UNBOUND:                 0.031
REMARK SMILES O=c1c(-c2ccc(O)cc2)coc2c([C@@H]3O[C@@H](CO)[C@H](O)[C@H](O)[C@@H]3O)c(O)ccc12
REMARK SMILES IDX 3 1 11 2 12 3 13 4 30 5 2 6 1 7 29 8 28 9 26 10 14 11 4 12
REMARK SMILES IDX 5 13 6 14 7 15 10 16 9 17 8 18 15 20 24 21 16 22 22 23 17 24
REMARK SMILES IDX 20 25 25 26 23 28 18 30 19 31 21 33 27 35
REMARK H PARENT 8 19 25 27 23 29 19 32 21 34 27 36
REMARK Flexibility Score: inf
ROOT
ATOM      1  C   UNL     1      18.203  49.600  45.935  1.00  0.00     0.065 A 
ATOM      2  C   UNL     1      17.373  48.862  46.789  1.00  0.00     0.208 A 
ATOM      3  O   UNL     1      16.117  48.588  46.452  1.00  0.00    -0.463 OA
ATOM      4  C   UNL     1      15.561  48.986  45.308  1.00  0.00     0.147 A 
ATOM      5  C   UNL     1      16.333  49.731  44.387  1.00  0.00     0.066 A 
ATOM      6  C   UNL     1      17.669  50.042  44.711  1.00  0.00     0.200 A 
ATOM      7  O   UNL     1      18.388  50.691  43.901  1.00  0.00    -0.288 OA
ATOM      8  C   UNL     1      15.762  50.123  43.170  1.00  0.00     0.020 A 
ATOM      9  C   UNL     1      14.449  49.766  42.864  1.00  0.00     0.047 A 
ATOM     10  C   UNL     1      13.672  49.027  43.764  1.00  0.00     0.125 A 
ATOM     11  C   UNL     1      14.209  48.648  45.026  1.00  0.00     0.069 A 
ENDROOT
BRANCH   1  12
ATOM     12  C   UNL     1      19.616  49.859  46.316  1.00  0.00    -0.011 A 
ATOM     13  C   UNL     1      20.673  49.454  45.482  1.00  0.00     0.013 A 
ATOM     14  C   UNL     1      22.000  49.710  45.848  1.00  0.00     0.047 A 
ATOM     15  C   UNL     1      22.284  50.378  47.050  1.00  0.00     0.115 A 
ATOM     16  C   UNL     1      19.911  50.528  47.520  1.00  0.00     0.013 A 
ATOM     17  C   UNL     1      21.238  50.785  47.881  1.00  0.00     0.047 A 
BRANCH  15  18
ATOM     18  O   UNL     1      23.598  50.643  47.424  1.00  0.00    -0.508 OA
ATOM     19  H   UNL     1      23.926  50.463  48.367  1.00  0.00     0.293 HD
ENDBRANCH  15  18
ENDBRANCH   1  12
BRANCH  11  20
ATOM     20  C   UNL     1      13.459  47.785  46.066  1.00  0.00     0.188 C 
ATOM     21  C   UNL     1      11.914  47.885  46.218  1.00  0.00     0.179 C 
ATOM     22  O   UNL     1      13.869  46.428  46.046  1.00  0.00    -0.362 OA
ATOM     23  C   UNL     1      11.156  46.651  45.637  1.00  0.00     0.177 C 
ATOM     24  C   UNL     1      13.492  45.791  44.835  1.00  0.00     0.176 C 
ATOM     25  C   UNL     1      11.942  45.804  44.601  1.00  0.00     0.177 C 
BRANCH  21  26
ATOM     26  O   UNL     1      11.393  49.112  45.753  1.00  0.00    -0.387 OA
ATOM     27  H   UNL     1      12.166  49.695  45.561  1.00  0.00     0.211 HD
ENDBRANCH  21  26
BRANCH  23  28
ATOM     28  O   UNL     1       9.903  47.022  45.088  1.00  0.00    -0.387 OA
ATOM     29  H   UNL     1       9.998  47.962  44.777  1.00  0.00     0.211 HD
ENDBRANCH  23  28
BRANCH  24  30
ATOM     30  C   UNL     1      14.048  44.356  44.868  1.00  0.00     0.191 C 
BRANCH  30  31
ATOM     31  O   UNL     1      14.905  44.197  45.966  1.00  0.00    -0.394 OA
ATOM     32  H   UNL     1      15.804  44.026  45.583  1.00  0.00     0.210 HD
ENDBRANCH  30  31
ENDBRANCH  24  30
BRANCH  25  33
ATOM     33  O   UNL     1      11.650  46.232  43.293  1.00  0.00    -0.388 OA
ATOM     34  H   UNL     1      11.694  47.225  43.287  1.00  0.00     0.211 HD
ENDBRANCH  25  33
ENDBRANCH  11  20
BRANCH  10  35
ATOM     35  O   UNL     1      12.375  48.679  43.380  1.00  0.00    -0.507 OA
ATOM     36  H   UNL     1      11.765  49.321  42.889  1.00  0.00     0.293 HD
ENDBRANCH  10  35
TORSDOF 9
ENDMDL
MODEL 9
REMARK VINA RESULT:    -6.486      1.892      8.406
REMARK INTER + INTRA:          -8.730
REMARK INTER:                  -8.663
REMARK INTRA:                  -0.066
REMARK UNBOUND:                 0.031
REMARK SMILES O=c1c(-c2ccc(O)cc2)coc2c([C@@H]3O[C@@H](CO)[C@H](O)[C@H](O)[C@@H]3O)c(O)ccc12
REMARK SMILES IDX 3 1 11 2 12 3 13 4 30 5 2 6 1 7 29 8 28 9 26 10 14 11 4 12
REMARK SMILES IDX 5 13 6 14 7 15 10 16 9 17 8 18 15 20 24 21 16 22 22 23 17 24
REMARK SMILES IDX 20 25 25 26 23 28 18 30 19 31 21 33 27 35
REMARK H PARENT 8 19 25 27 23 29 19 32 21 34 27 36
REMARK Flexibility Score: inf
ROOT
ATOM      1  C   UNL     1      17.065  45.984  41.068  1.00  0.00     0.065 A 
ATOM      2  C   UNL     1      18.155  45.651  41.883  1.00  0.00     0.208 A 
ATOM      3  O   UNL     1      18.746  46.568  42.643  1.00  0.00    -0.463 OA
ATOM      4  C   UNL     1      18.360  47.843  42.686  1.00  0.00     0.147 A 
ATOM      5  C   UNL     1      17.264  48.261  41.897  1.00  0.00     0.066 A 
ATOM      6  C   UNL     1      16.614  47.316  41.078  1.00  0.00     0.200 A 
ATOM      7  O   UNL     1      15.621  47.655  40.375  1.00  0.00    -0.288 OA
ATOM      8  C   UNL     1      16.836  49.592  41.964  1.00  0.00     0.020 A 
ATOM      9  C   UNL     1      17.476  50.493  42.815  1.00  0.00     0.047 A 
ATOM     10  C   UNL     1      18.563  50.095  43.604  1.00  0.00     0.125 A 
ATOM     11  C   UNL     1      19.047  48.760  43.529  1.00  0.00     0.069 A 
ENDROOT
BRANCH   1  12
ATOM     12  C   UNL     1      16.398  44.932  40.258  1.00  0.00    -0.011 A 
ATOM     13  C   UNL     1      16.746  44.732  38.910  1.00  0.00     0.013 A 
ATOM     14  C   UNL     1      16.117  43.734  38.158  1.00  0.00     0.047 A 
ATOM     15  C   UNL     1      15.135  42.920  38.747  1.00  0.00     0.115 A 
ATOM     16  C   UNL     1      15.412  44.112  40.839  1.00  0.00     0.013 A 
ATOM     17  C   UNL     1      14.786  43.112  40.086  1.00  0.00     0.047 A 
BRANCH  15  18
ATOM     18  O   UNL     1      14.504  41.920  38.013  1.00  0.00    -0.508 OA
ATOM     19  H   UNL     1      14.360  42.009  37.013  1.00  0.00     0.293 HD
ENDBRANCH  15  18
ENDBRANCH   1  12
BRANCH  11  20
ATOM     20  C   UNL     1      20.199  48.202  44.396  1.00  0.00     0.188 C 
ATOM     21  C   UNL     1      21.356  49.127  44.872  1.00  0.00     0.179 C 
ATOM     22  O   UNL     1      19.736  47.397  45.466  1.00  0.00    -0.362 OA
ATOM     23  C   UNL     1      21.278  49.481  46.390  1.00  0.00     0.177 C 
ATOM     24  C   UNL     1      19.018  48.165  46.420  1.00  0.00     0.176 C 
ATOM     25  C   UNL     1      19.884  49.309  47.051  1.00  0.00     0.177 C 
BRANCH  21  26
ATOM     26  O   UNL     1      21.521  50.267  44.056  1.00  0.00    -0.387 OA
ATOM     27  H   UNL     1      20.704  50.347  43.508  1.00  0.00     0.211 HD
ENDBRANCH  21  26
BRANCH  23  28
ATOM     28  O   UNL     1      21.761  50.789  46.644  1.00  0.00    -0.387 OA
ATOM     29  H   UNL     1      21.921  50.846  47.623  1.00  0.00     0.211 HD
ENDBRANCH  23  28
BRANCH  24  30
ATOM     30  C   UNL     1      18.485  47.200  47.495  1.00  0.00     0.191 C 
BRANCH  30  31
ATOM     31  O   UNL     1      19.549  46.688  48.251  1.00  0.00    -0.394 OA
ATOM     32  H   UNL     1      19.877  47.446  48.801  1.00  0.00     0.210 HD
ENDBRANCH  30  31
ENDBRANCH  24  30
BRANCH  25  33
ATOM     33  O   UNL     1      19.176  50.525  47.029  1.00  0.00    -0.388 OA
ATOM     34  H   UNL     1      19.179  50.855  46.092  1.00  0.00     0.211 HD
ENDBRANCH  25  33
ENDBRANCH  11  20
BRANCH  10  35
ATOM     35  O   UNL     1      19.138  51.041  44.455  1.00  0.00    -0.507 OA
ATOM     36  H   UNL     1      18.623  51.841  44.803  1.00  0.00     0.293 HD
ENDBRANCH  10  35
TORSDOF 9
ENDMDL
