MODEL 1
REMARK VINA RESULT:    -6.794      0.000      0.000
REMARK INTER + INTRA:          -8.685
REMARK INTER:                  -8.383
REMARK INTRA:                  -0.302
REMARK UNBOUND:                -0.302
REMARK SMILES O=c1c(O)c(-c2cc(O)c(O)c(O)c2)oc2cc(O)cc(O)c12
REMARK SMILES IDX 5 1 3 2 2 3 1 4 23 5 21 6 20 7 18 8 17 9 16 10 15 11 6 12
REMARK SMILES IDX 7 13 8 14 14 15 10 16 12 17 9 18 11 20 13 22 4 24 22 26
REMARK SMILES IDX 19 28
REMARK H PARENT 9 19 11 21 13 23 4 25 22 27 19 29
REMARK Flexibility Score: inf
ROOT
ATOM      1  C   UNL     1      -0.048   2.748  11.192  1.00  0.00     0.180 A 
ATOM      2  C   UNL     1      -0.684   4.001  11.199  1.00  0.00     0.208 A 
ATOM      3  C   UNL     1      -1.831   4.187  10.411  1.00  0.00     0.238 A 
ATOM      4  O   UNL     1      -2.428   5.295  10.463  1.00  0.00    -0.285 OA
ATOM      5  C   UNL     1      -2.320   3.123   9.616  1.00  0.00     0.111 A 
ATOM      6  C   UNL     1      -3.450   3.211   8.749  1.00  0.00     0.134 A 
ATOM      7  C   UNL     1      -3.921   2.059   8.108  1.00  0.00     0.093 A 
ATOM      8  C   UNL     1      -3.266   0.837   8.250  1.00  0.00     0.123 A 
ATOM      9  C   UNL     1      -2.124   0.752   9.047  1.00  0.00     0.094 A 
ATOM     10  C   UNL     1      -1.651   1.876   9.729  1.00  0.00     0.146 A 
ATOM     11  O   UNL     1      -0.568   1.750  10.485  1.00  0.00    -0.452 OA
ENDROOT
BRANCH   1  12
ATOM     12  C   UNL     1       1.180   2.483  11.976  1.00  0.00     0.029 A 
ATOM     13  C   UNL     1       2.425   2.477  11.330  1.00  0.00     0.062 A 
ATOM     14  C   UNL     1       3.608   2.251  12.043  1.00  0.00     0.162 A 
ATOM     15  C   UNL     1       1.133   2.294  13.365  1.00  0.00     0.062 A 
ATOM     16  C   UNL     1       3.549   2.038  13.441  1.00  0.00     0.200 A 
ATOM     17  C   UNL     1       2.308   2.067  14.093  1.00  0.00     0.162 A 
BRANCH  14  18
ATOM     18  O   UNL     1       4.807   2.248  11.328  1.00  0.00    -0.504 OA
ATOM     19  H   UNL     1       5.099   2.991  10.709  1.00  0.00     0.293 HD
ENDBRANCH  14  18
BRANCH  16  20
ATOM     20  O   UNL     1       4.689   1.801  14.212  1.00  0.00    -0.502 OA
ATOM     21  H   UNL     1       4.714   1.180  15.009  1.00  0.00     0.293 HD
ENDBRANCH  16  20
BRANCH  17  22
ATOM     22  O   UNL     1       2.251   1.873  15.472  1.00  0.00    -0.504 OA
ATOM     23  H   UNL     1       3.056   2.035  16.065  1.00  0.00     0.293 HD
ENDBRANCH  17  22
ENDBRANCH   1  12
BRANCH   2  24
ATOM     24  O   UNL     1      -0.198   5.031  12.008  1.00  0.00    -0.502 OA
ATOM     25  H   UNL     1      -0.261   5.005  13.019  1.00  0.00     0.293 HD
ENDBRANCH   2  24
BRANCH   6  26
ATOM     26  O   UNL     1      -4.124   4.403   8.464  1.00  0.00    -0.507 OA
ATOM     27  H   UNL     1      -4.367   5.104   9.149  1.00  0.00     0.293 HD
ENDBRANCH   6  26
BRANCH   8  28
ATOM     28  O   UNL     1      -3.753  -0.286   7.585  1.00  0.00    -0.508 OA
ATOM     29  H   UNL     1      -4.554  -0.231   6.967  1.00  0.00     0.293 HD
ENDBRANCH   8  28
TORSDOF 7
ENDMDL
MODEL 2
REMARK VINA RESULT:    -6.731      0.103      1.762
REMARK INTER + INTRA:          -8.607
REMARK INTER:                  -8.291
REMARK INTRA:                  -0.316
REMARK UNBOUND:                -0.302
REMARK SMILES O=c1c(O)c(-c2cc(O)c(O)c(O)c2)oc2cc(O)cc(O)c12
REMARK SMILES IDX 5 1 3 2 2 3 1 4 23 5 21 6 20 7 18 8 17 9 16 10 15 11 6 12
REMARK SMILES IDX 7 13 8 14 14 15 10 16 12 17 9 18 11 20 13 22 4 24 22 26
REMARK SMILES IDX 19 28
REMARK H PARENT 9 19 11 21 13 23 4 25 22 27 19 29
REMARK Flexibility Score: inf
ROOT
ATOM      1  C   UNL     1       0.030   2.843  11.160  1.00  0.00     0.180 A 
ATOM      2  C   UNL     1      -0.624   4.087  11.157  1.00  0.00     0.208 A 
ATOM      3  C   UNL     1      -1.783   4.245  10.380  1.00  0.00     0.238 A 
ATOM      4  O   UNL     1      -2.394   5.345  10.423  1.00  0.00    -0.285 OA
ATOM      5  C   UNL     1      -2.264   3.163   9.604  1.00  0.00     0.111 A 
ATOM      6  C   UNL     1      -3.405   3.223   8.749  1.00  0.00     0.134 A 
ATOM      7  C   UNL     1      -3.867   2.055   8.130  1.00  0.00     0.093 A 
ATOM      8  C   UNL     1      -3.192   0.845   8.281  1.00  0.00     0.123 A 
ATOM      9  C   UNL     1      -2.040   0.788   9.067  1.00  0.00     0.094 A 
ATOM     10  C   UNL     1      -1.576   1.927   9.727  1.00  0.00     0.146 A 
ATOM     11  O   UNL     1      -0.483   1.828  10.474  1.00  0.00    -0.452 OA
ENDROOT
BRANCH   1  12
ATOM     12  C   UNL     1       1.271   2.607  11.934  1.00  0.00     0.029 A 
ATOM     13  C   UNL     1       1.189   2.360  13.312  1.00  0.00     0.062 A 
ATOM     14  C   UNL     1       2.339   2.112  14.071  1.00  0.00     0.162 A 
ATOM     15  C   UNL     1       2.525   2.567  11.308  1.00  0.00     0.062 A 
ATOM     16  C   UNL     1       3.603   2.096  13.435  1.00  0.00     0.200 A 
ATOM     17  C   UNL     1       3.685   2.320  12.053  1.00  0.00     0.162 A 
BRANCH  14  18
ATOM     18  O   UNL     1       2.179   1.887  15.439  1.00  0.00    -0.504 OA
ATOM     19  H   UNL     1       1.970   0.985  15.844  1.00  0.00     0.293 HD
ENDBRANCH  14  18
BRANCH  16  20
ATOM     20  O   UNL     1       4.791   1.862  14.133  1.00  0.00    -0.502 OA
ATOM     21  H   UNL     1       4.848   1.766  15.137  1.00  0.00     0.293 HD
ENDBRANCH  16  20
BRANCH  17  22
ATOM     22  O   UNL     1       4.928   2.290  11.424  1.00  0.00    -0.504 OA
ATOM     23  H   UNL     1       5.689   1.720  11.777  1.00  0.00     0.293 HD
ENDBRANCH  17  22
ENDBRANCH   1  12
BRANCH   2  24
ATOM     24  O   UNL     1      -0.144   5.135  11.947  1.00  0.00    -0.502 OA
ATOM     25  H   UNL     1       0.709   5.635  11.727  1.00  0.00     0.293 HD
ENDBRANCH   2  24
BRANCH   6  26
ATOM     26  O   UNL     1      -4.099   4.401   8.456  1.00  0.00    -0.507 OA
ATOM     27  H   UNL     1      -4.053   4.892   7.575  1.00  0.00     0.293 HD
ENDBRANCH   6  26
BRANCH   8  28
ATOM     28  O   UNL     1      -3.670  -0.294   7.638  1.00  0.00    -0.508 OA
ATOM     29  H   UNL     1      -4.632  -0.363   7.326  1.00  0.00     0.293 HD
ENDBRANCH   8  28
TORSDOF 7
ENDMDL
MODEL 3
REMARK VINA RESULT:    -6.617      1.855      6.927
REMARK INTER + INTRA:          -8.466
REMARK INTER:                  -8.399
REMARK INTRA:                  -0.067
REMARK UNBOUND:                -0.302
REMARK SMILES O=c1c(O)c(-c2cc(O)c(O)c(O)c2)oc2cc(O)cc(O)c12
REMARK SMILES IDX 5 1 3 2 2 3 1 4 23 5 21 6 20 7 18 8 17 9 16 10 15 11 6 12
REMARK SMILES IDX 7 13 8 14 14 15 10 16 12 17 9 18 11 20 13 22 4 24 22 26
REMARK SMILES IDX 19 28
REMARK H PARENT 9 19 11 21 13 23 4 25 22 27 19 29
REMARK Flexibility Score: inf
ROOT
ATOM      1  C   UNL     1       0.164   2.921  11.008  1.00  0.00     0.180 A 
ATOM      2  C   UNL     1       0.336   4.316  10.998  1.00  0.00     0.208 A 
ATOM      3  C   UNL     1       1.282   4.892  11.860  1.00  0.00     0.238 A 
ATOM      4  O   UNL     1       1.470   6.136  11.809  1.00  0.00    -0.285 OA
ATOM      5  C   UNL     1       2.035   4.068  12.732  1.00  0.00     0.111 A 
ATOM      6  C   UNL     1       2.992   4.547  13.676  1.00  0.00     0.134 A 
ATOM      7  C   UNL     1       3.771   3.633  14.395  1.00  0.00     0.093 A 
ATOM      8  C   UNL     1       3.583   2.259  14.254  1.00  0.00     0.123 A 
ATOM      9  C   UNL     1       2.608   1.780  13.378  1.00  0.00     0.094 A 
ATOM     10  C   UNL     1       1.841   2.666  12.619  1.00  0.00     0.146 A 
ATOM     11  O   UNL     1       0.931   2.169  11.790  1.00  0.00    -0.452 OA
ENDROOT
BRANCH   1  12
ATOM     12  C   UNL     1      -0.831   2.243  10.146  1.00  0.00     0.029 A 
ATOM     13  C   UNL     1      -1.814   1.433  10.732  1.00  0.00     0.062 A 
ATOM     14  C   UNL     1      -2.783   0.793   9.950  1.00  0.00     0.162 A 
ATOM     15  C   UNL     1      -0.849   2.440   8.757  1.00  0.00     0.062 A 
ATOM     16  C   UNL     1      -2.780   0.979   8.547  1.00  0.00     0.200 A 
ATOM     17  C   UNL     1      -1.813   1.807   7.961  1.00  0.00     0.162 A 
BRANCH  14  18
ATOM     18  O   UNL     1      -3.722  -0.007  10.603  1.00  0.00    -0.504 OA
ATOM     19  H   UNL     1      -4.356  -0.636  10.132  1.00  0.00     0.293 HD
ENDBRANCH  14  18
BRANCH  16  20
ATOM     20  O   UNL     1      -3.714   0.367   7.707  1.00  0.00    -0.502 OA
ATOM     21  H   UNL     1      -4.619   0.758   7.486  1.00  0.00     0.293 HD
ENDBRANCH  16  20
BRANCH  17  22
ATOM     22  O   UNL     1      -1.818   2.003   6.581  1.00  0.00    -0.504 OA
ATOM     23  H   UNL     1      -1.134   1.560   5.979  1.00  0.00     0.293 HD
ENDBRANCH  17  22
ENDBRANCH   1  12
BRANCH   2  24
ATOM     24  O   UNL     1      -0.402   5.108  10.115  1.00  0.00    -0.502 OA
ATOM     25  H   UNL     1       0.019   5.851   9.569  1.00  0.00     0.293 HD
ENDBRANCH   2  24
BRANCH   6  26
ATOM     26  O   UNL     1       3.195   5.901  13.962  1.00  0.00    -0.507 OA
ATOM     27  H   UNL     1       4.029   6.419  13.729  1.00  0.00     0.293 HD
ENDBRANCH   6  26
BRANCH   8  28
ATOM     28  O   UNL     1       4.365   1.378  14.996  1.00  0.00    -0.508 OA
ATOM     29  H   UNL     1       3.952   0.615  15.520  1.00  0.00     0.293 HD
ENDBRANCH   8  28
TORSDOF 7
ENDMDL
MODEL 4
REMARK VINA RESULT:    -6.612      2.257      2.783
REMARK INTER + INTRA:          -8.461
REMARK INTER:                  -8.351
REMARK INTRA:                  -0.110
REMARK UNBOUND:                -0.302
REMARK SMILES O=c1c(O)c(-c2cc(O)c(O)c(O)c2)oc2cc(O)cc(O)c12
REMARK SMILES IDX 5 1 3 2 2 3 1 4 23 5 21 6 20 7 18 8 17 9 16 10 15 11 6 12
REMARK SMILES IDX 7 13 8 14 14 15 10 16 12 17 9 18 11 20 13 22 4 24 22 26
REMARK SMILES IDX 19 28
REMARK H PARENT 9 19 11 21 13 23 4 25 22 27 19 29
REMARK Flexibility Score: inf
ROOT
ATOM      1  C   UNL     1       1.461   3.058  11.371  1.00  0.00     0.180 A 
ATOM      2  C   UNL     1       1.702   3.585  10.090  1.00  0.00     0.208 A 
ATOM      3  C   UNL     1       0.804   3.290   9.052  1.00  0.00     0.238 A 
ATOM      4  O   UNL     1       0.995   3.808   7.921  1.00  0.00    -0.285 OA
ATOM      5  C   UNL     1      -0.315   2.460   9.304  1.00  0.00     0.111 A 
ATOM      6  C   UNL     1      -1.268   2.062   8.318  1.00  0.00     0.134 A 
ATOM      7  C   UNL     1      -2.407   1.346   8.706  1.00  0.00     0.093 A 
ATOM      8  C   UNL     1      -2.595   0.957  10.031  1.00  0.00     0.123 A 
ATOM      9  C   UNL     1      -1.640   1.288  10.993  1.00  0.00     0.094 A 
ATOM     10  C   UNL     1      -0.512   2.033  10.643  1.00  0.00     0.146 A 
ATOM     11  O   UNL     1       0.367   2.337  11.590  1.00  0.00    -0.452 OA
ENDROOT
BRANCH   1  12
ATOM     12  C   UNL     1       2.376   3.304  12.509  1.00  0.00     0.029 A 
ATOM     13  C   UNL     1       3.002   2.219  13.139  1.00  0.00     0.062 A 
ATOM     14  C   UNL     1       3.888   2.416  14.205  1.00  0.00     0.162 A 
ATOM     15  C   UNL     1       2.676   4.606  12.936  1.00  0.00     0.062 A 
ATOM     16  C   UNL     1       4.168   3.731  14.644  1.00  0.00     0.200 A 
ATOM     17  C   UNL     1       3.562   4.819  14.001  1.00  0.00     0.162 A 
BRANCH  14  18
ATOM     18  O   UNL     1       4.464   1.286  14.789  1.00  0.00    -0.504 OA
ATOM     19  H   UNL     1       5.350   0.892  14.507  1.00  0.00     0.293 HD
ENDBRANCH  14  18
BRANCH  16  20
ATOM     20  O   UNL     1       5.038   3.999  15.705  1.00  0.00    -0.502 OA
ATOM     21  H   UNL     1       5.755   4.710  15.683  1.00  0.00     0.293 HD
ENDBRANCH  16  20
BRANCH  17  22
ATOM     22  O   UNL     1       3.848   6.116  14.423  1.00  0.00    -0.504 OA
ATOM     23  H   UNL     1       4.344   6.771  13.830  1.00  0.00     0.293 HD
ENDBRANCH  17  22
ENDBRANCH   1  12
BRANCH   2  24
ATOM     24  O   UNL     1       2.800   4.419   9.869  1.00  0.00    -0.502 OA
ATOM     25  H   UNL     1       3.132   5.078  10.564  1.00  0.00     0.293 HD
ENDBRANCH   2  24
BRANCH   6  26
ATOM     26  O   UNL     1      -1.129   2.321   6.951  1.00  0.00    -0.507 OA
ATOM     27  H   UNL     1      -1.685   2.984   6.431  1.00  0.00     0.293 HD
ENDBRANCH   6  26
BRANCH   8  28
ATOM     28  O   UNL     1      -3.732   0.231  10.380  1.00  0.00    -0.508 OA
ATOM     29  H   UNL     1      -4.100   0.244  11.324  1.00  0.00     0.293 HD
ENDBRANCH   8  28
TORSDOF 7
ENDMDL
MODEL 5
REMARK VINA RESULT:    -6.591      2.012      2.910
REMARK INTER + INTRA:          -8.434
REMARK INTER:                  -8.388
REMARK INTRA:                  -0.046
REMARK UNBOUND:                -0.302
REMARK SMILES O=c1c(O)c(-c2cc(O)c(O)c(O)c2)oc2cc(O)cc(O)c12
REMARK SMILES IDX 5 1 3 2 2 3 1 4 23 5 21 6 20 7 18 8 17 9 16 10 15 11 6 12
REMARK SMILES IDX 7 13 8 14 14 15 10 16 12 17 9 18 11 20 13 22 4 24 22 26
REMARK SMILES IDX 19 28
REMARK H PARENT 9 19 11 21 13 23 4 25 22 27 19 29
REMARK Flexibility Score: inf
ROOT
ATOM      1  C   UNL     1       1.609   2.583  11.645  1.00  0.00     0.180 A 
ATOM      2  C   UNL     1       1.940   3.376  10.533  1.00  0.00     0.208 A 
ATOM      3  C   UNL     1       1.076   3.392   9.426  1.00  0.00     0.238 A 
ATOM      4  O   UNL     1       1.351   4.145   8.455  1.00  0.00    -0.285 OA
ATOM      5  C   UNL     1      -0.100   2.604   9.439  1.00  0.00     0.111 A 
ATOM      6  C   UNL     1      -1.026   2.512   8.357  1.00  0.00     0.134 A 
ATOM      7  C   UNL     1      -2.222   1.804   8.529  1.00  0.00     0.093 A 
ATOM      8  C   UNL     1      -2.495   1.130   9.718  1.00  0.00     0.123 A 
ATOM      9  C   UNL     1      -1.569   1.163  10.761  1.00  0.00     0.094 A 
ATOM     10  C   UNL     1      -0.384   1.891  10.633  1.00  0.00     0.146 A 
ATOM     11  O   UNL     1       0.466   1.906  11.653  1.00  0.00    -0.452 OA
ENDROOT
BRANCH   1  12
ATOM     12  C   UNL     1       2.481   2.494  12.838  1.00  0.00     0.029 A 
ATOM     13  C   UNL     1       1.919   2.620  14.116  1.00  0.00     0.062 A 
ATOM     14  C   UNL     1       2.711   2.521  15.266  1.00  0.00     0.162 A 
ATOM     15  C   UNL     1       3.854   2.230  12.721  1.00  0.00     0.062 A 
ATOM     16  C   UNL     1       4.098   2.277  15.139  1.00  0.00     0.200 A 
ATOM     17  C   UNL     1       4.659   2.127  13.862  1.00  0.00     0.162 A 
BRANCH  14  18
ATOM     18  O   UNL     1       2.081   2.669  16.504  1.00  0.00    -0.504 OA
ATOM     19  H   UNL     1       1.634   1.915  17.006  1.00  0.00     0.293 HD
ENDBRANCH  14  18
BRANCH  16  20
ATOM     20  O   UNL     1       4.947   2.173  16.243  1.00  0.00    -0.502 OA
ATOM     21  H   UNL     1       5.462   1.337  16.485  1.00  0.00     0.293 HD
ENDBRANCH  16  20
BRANCH  17  22
ATOM     22  O   UNL     1       6.023   1.871  13.736  1.00  0.00    -0.504 OA
ATOM     23  H   UNL     1       6.427   0.986  14.019  1.00  0.00     0.293 HD
ENDBRANCH  17  22
ENDBRANCH   1  12
BRANCH   2  24
ATOM     24  O   UNL     1       3.094   4.162  10.550  1.00  0.00    -0.502 OA
ATOM     25  H   UNL     1       4.003   3.802  10.283  1.00  0.00     0.293 HD
ENDBRANCH   2  24
BRANCH   6  26
ATOM     26  O   UNL     1      -0.808   3.071   7.094  1.00  0.00    -0.507 OA
ATOM     27  H   UNL     1      -1.501   3.576   6.561  1.00  0.00     0.293 HD
ENDBRANCH   6  26
BRANCH   8  28
ATOM     28  O   UNL     1      -3.687   0.422   9.849  1.00  0.00    -0.508 OA
ATOM     29  H   UNL     1      -4.251   0.179   9.042  1.00  0.00     0.293 HD
ENDBRANCH   8  28
TORSDOF 7
ENDMDL
MODEL 6
REMARK VINA RESULT:    -6.585      1.850      6.716
REMARK INTER + INTRA:          -8.427
REMARK INTER:                  -8.327
REMARK INTRA:                  -0.100
REMARK UNBOUND:                -0.302
REMARK SMILES O=c1c(O)c(-c2cc(O)c(O)c(O)c2)oc2cc(O)cc(O)c12
REMARK SMILES IDX 5 1 3 2 2 3 1 4 23 5 21 6 20 7 18 8 17 9 16 10 15 11 6 12
REMARK SMILES IDX 7 13 8 14 14 15 10 16 12 17 9 18 11 20 13 22 4 24 22 26
REMARK SMILES IDX 19 28
REMARK H PARENT 9 19 11 21 13 23 4 25 22 27 19 29
REMARK Flexibility Score: inf
ROOT
ATOM      1  C   UNL     1       0.142   3.023  10.903  1.00  0.00     0.180 A 
ATOM      2  C   UNL     1       0.295   4.419  10.961  1.00  0.00     0.208 A 
ATOM      3  C   UNL     1       1.262   4.963  11.822  1.00  0.00     0.238 A 
ATOM      4  O   UNL     1       1.432   6.210  11.830  1.00  0.00    -0.285 OA
ATOM      5  C   UNL     1       2.054   4.105  12.624  1.00  0.00     0.111 A 
ATOM      6  C   UNL     1       3.035   4.548  13.560  1.00  0.00     0.134 A 
ATOM      7  C   UNL     1       3.849   3.609  14.205  1.00  0.00     0.093 A 
ATOM      8  C   UNL     1       3.675   2.242  13.997  1.00  0.00     0.123 A 
ATOM      9  C   UNL     1       2.677   1.795  13.129  1.00  0.00     0.094 A 
ATOM     10  C   UNL     1       1.874   2.709  12.444  1.00  0.00     0.146 A 
ATOM     11  O   UNL     1       0.944   2.243  11.619  1.00  0.00    -0.452 OA
ENDROOT
BRANCH   1  12
ATOM     12  C   UNL     1      -0.873   2.377  10.039  1.00  0.00     0.029 A 
ATOM     13  C   UNL     1      -0.841   2.594   8.654  1.00  0.00     0.062 A 
ATOM     14  C   UNL     1      -1.772   1.983   7.806  1.00  0.00     0.162 A 
ATOM     15  C   UNL     1      -1.835   1.505  10.570  1.00  0.00     0.062 A 
ATOM     16  C   UNL     1      -2.752   1.122   8.352  1.00  0.00     0.200 A 
ATOM     17  C   UNL     1      -2.772   0.885   9.734  1.00  0.00     0.162 A 
BRANCH  14  18
ATOM     18  O   UNL     1      -1.683   2.257   6.440  1.00  0.00    -0.504 OA
ATOM     19  H   UNL     1      -0.867   2.066   5.876  1.00  0.00     0.293 HD
ENDBRANCH  14  18
BRANCH  16  20
ATOM     20  O   UNL     1      -3.714   0.485   7.565  1.00  0.00    -0.502 OA
ATOM     21  H   UNL     1      -4.558   0.066   7.930  1.00  0.00     0.293 HD
ENDBRANCH  16  20
BRANCH  17  22
ATOM     22  O   UNL     1      -3.728   0.025  10.271  1.00  0.00    -0.504 OA
ATOM     23  H   UNL     1      -3.623  -0.982  10.226  1.00  0.00     0.293 HD
ENDBRANCH  17  22
ENDBRANCH   1  12
BRANCH   2  24
ATOM     24  O   UNL     1      -0.481   5.246  10.146  1.00  0.00    -0.502 OA
ATOM     25  H   UNL     1      -0.465   6.256  10.221  1.00  0.00     0.293 HD
ENDBRANCH   2  24
BRANCH   6  26
ATOM     26  O   UNL     1       3.230   5.888  13.911  1.00  0.00    -0.507 OA
ATOM     27  H   UNL     1       3.773   6.549  13.375  1.00  0.00     0.293 HD
ENDBRANCH   6  26
BRANCH   8  28
ATOM     28  O   UNL     1       4.492   1.335  14.666  1.00  0.00    -0.508 OA
ATOM     29  H   UNL     1       4.105   0.613  15.264  1.00  0.00     0.293 HD
ENDBRANCH   8  28
TORSDOF 7
ENDMDL
MODEL 7
REMARK VINA RESULT:    -6.451      2.244      7.149
REMARK INTER + INTRA:          -8.262
REMARK INTER:                  -7.922
REMARK INTRA:                  -0.340
REMARK UNBOUND:                -0.302
REMARK SMILES O=c1c(O)c(-c2cc(O)c(O)c(O)c2)oc2cc(O)cc(O)c12
REMARK SMILES IDX 5 1 3 2 2 3 1 4 23 5 21 6 20 7 18 8 17 9 16 10 15 11 6 12
REMARK SMILES IDX 7 13 8 14 14 15 10 16 12 17 9 18 11 20 13 22 4 24 22 26
REMARK SMILES IDX 19 28
REMARK H PARENT 9 19 11 21 13 23 4 25 22 27 19 29
REMARK Flexibility Score: inf
ROOT
ATOM      1  C   UNL     1       1.166   3.485  11.046  1.00  0.00     0.180 A 
ATOM      2  C   UNL     1       0.959   4.700  11.722  1.00  0.00     0.208 A 
ATOM      3  C   UNL     1       1.970   5.193  12.562  1.00  0.00     0.238 A 
ATOM      4  O   UNL     1       1.800   6.308  13.123  1.00  0.00    -0.285 OA
ATOM      5  C   UNL     1       3.169   4.458  12.728  1.00  0.00     0.111 A 
ATOM      6  C   UNL     1       4.243   4.843  13.586  1.00  0.00     0.134 A 
ATOM      7  C   UNL     1       5.435   4.108  13.573  1.00  0.00     0.093 A 
ATOM      8  C   UNL     1       5.568   2.966  12.784  1.00  0.00     0.123 A 
ATOM      9  C   UNL     1       4.502   2.546  11.987  1.00  0.00     0.094 A 
ATOM     10  C   UNL     1       3.314   3.280  11.951  1.00  0.00     0.146 A 
ATOM     11  O   UNL     1       2.328   2.853  11.172  1.00  0.00    -0.452 OA
ENDROOT
BRANCH   1  12
ATOM     12  C   UNL     1       0.138   2.889  10.163  1.00  0.00     0.029 A 
ATOM     13  C   UNL     1      -0.746   1.930  10.680  1.00  0.00     0.062 A 
ATOM     14  C   UNL     1      -1.743   1.361   9.880  1.00  0.00     0.162 A 
ATOM     15  C   UNL     1      -0.010   3.303   8.831  1.00  0.00     0.062 A 
ATOM     16  C   UNL     1      -1.871   1.769   8.531  1.00  0.00     0.200 A 
ATOM     17  C   UNL     1      -1.004   2.744   8.018  1.00  0.00     0.162 A 
BRANCH  14  18
ATOM     18  O   UNL     1      -2.577   0.405  10.462  1.00  0.00    -0.504 OA
ATOM     19  H   UNL     1      -3.542   0.572  10.711  1.00  0.00     0.293 HD
ENDBRANCH  14  18
BRANCH  16  20
ATOM     20  O   UNL     1      -2.840   1.238   7.675  1.00  0.00    -0.502 OA
ATOM     21  H   UNL     1      -3.806   1.532   7.663  1.00  0.00     0.293 HD
ENDBRANCH  16  20
BRANCH  17  22
ATOM     22  O   UNL     1      -1.139   3.156   6.694  1.00  0.00    -0.504 OA
ATOM     23  H   UNL     1      -0.335   3.274   6.089  1.00  0.00     0.293 HD
ENDBRANCH  17  22
ENDBRANCH   1  12
BRANCH   2  24
ATOM     24  O   UNL     1      -0.223   5.419  11.527  1.00  0.00    -0.502 OA
ATOM     25  H   UNL     1      -0.494   5.785  10.622  1.00  0.00     0.293 HD
ENDBRANCH   2  24
BRANCH   6  26
ATOM     26  O   UNL     1       4.180   5.914  14.482  1.00  0.00    -0.507 OA
ATOM     27  H   UNL     1       4.513   6.847  14.287  1.00  0.00     0.293 HD
ENDBRANCH   6  26
BRANCH   8  28
ATOM     28  O   UNL     1       6.762   2.250  12.808  1.00  0.00    -0.508 OA
ATOM     29  H   UNL     1       7.649   2.690  12.592  1.00  0.00     0.293 HD
ENDBRANCH   8  28
TORSDOF 7
ENDMDL
MODEL 8
REMARK VINA RESULT:    -6.325      1.932      7.692
REMARK INTER + INTRA:          -8.106
REMARK INTER:                  -7.741
REMARK INTRA:                  -0.365
REMARK UNBOUND:                -0.302
REMARK SMILES O=c1c(O)c(-c2cc(O)c(O)c(O)c2)oc2cc(O)cc(O)c12
REMARK SMILES IDX 5 1 3 2 2 3 1 4 23 5 21 6 20 7 18 8 17 9 16 10 15 11 6 12
REMARK SMILES IDX 7 13 8 14 14 15 10 16 12 17 9 18 11 20 13 22 4 24 22 26
REMARK SMILES IDX 19 28
REMARK H PARENT 9 19 11 21 13 23 4 25 22 27 19 29
REMARK Flexibility Score: inf
ROOT
ATOM      1  C   UNL     1       1.893   2.836  12.888  1.00  0.00     0.180 A 
ATOM      2  C   UNL     1       1.679   2.708  14.272  1.00  0.00     0.208 A 
ATOM      3  C   UNL     1       2.787   2.577  15.123  1.00  0.00     0.238 A 
ATOM      4  O   UNL     1       2.592   2.517  16.366  1.00  0.00    -0.285 OA
ATOM      5  C   UNL     1       4.095   2.560  14.581  1.00  0.00     0.111 A 
ATOM      6  C   UNL     1       5.288   2.391  15.345  1.00  0.00     0.134 A 
ATOM      7  C   UNL     1       6.534   2.521  14.720  1.00  0.00     0.093 A 
ATOM      8  C   UNL     1       6.631   2.746  13.348  1.00  0.00     0.123 A 
ATOM      9  C   UNL     1       5.470   2.852  12.580  1.00  0.00     0.094 A 
ATOM     10  C   UNL     1       4.213   2.765  13.181  1.00  0.00     0.146 A 
ATOM     11  O   UNL     1       3.134   2.882  12.417  1.00  0.00    -0.452 OA
ENDROOT
BRANCH   1  12
ATOM     12  C   UNL     1       0.775   2.953  11.925  1.00  0.00     0.029 A 
ATOM     13  C   UNL     1       0.375   4.221  11.480  1.00  0.00     0.062 A 
ATOM     14  C   UNL     1      -0.664   4.368  10.555  1.00  0.00     0.162 A 
ATOM     15  C   UNL     1       0.140   1.817  11.401  1.00  0.00     0.062 A 
ATOM     16  C   UNL     1      -1.314   3.218  10.048  1.00  0.00     0.200 A 
ATOM     17  C   UNL     1      -0.901   1.947  10.473  1.00  0.00     0.162 A 
BRANCH  14  18
ATOM     18  O   UNL     1      -1.013   5.664  10.169  1.00  0.00    -0.504 OA
ATOM     19  H   UNL     1      -1.027   6.457  10.795  1.00  0.00     0.293 HD
ENDBRANCH  14  18
BRANCH  16  20
ATOM     20  O   UNL     1      -2.362   3.292   9.127  1.00  0.00    -0.502 OA
ATOM     21  H   UNL     1      -2.554   2.586   8.430  1.00  0.00     0.293 HD
ENDBRANCH  16  20
BRANCH  17  22
ATOM     22  O   UNL     1      -1.530   0.813   9.963  1.00  0.00    -0.504 OA
ATOM     23  H   UNL     1      -2.532   0.680  10.043  1.00  0.00     0.293 HD
ENDBRANCH  17  22
ENDBRANCH   1  12
BRANCH   2  24
ATOM     24  O   UNL     1       0.381   2.750  14.788  1.00  0.00    -0.502 OA
ATOM     25  H   UNL     1       0.161   2.452  15.731  1.00  0.00     0.293 HD
ENDBRANCH   2  24
BRANCH   6  26
ATOM     26  O   UNL     1       5.303   2.072  16.706  1.00  0.00    -0.507 OA
ATOM     27  H   UNL     1       5.379   1.136  17.077  1.00  0.00     0.293 HD
ENDBRANCH   6  26
BRANCH   8  28
ATOM     28  O   UNL     1       7.886   2.854  12.756  1.00  0.00    -0.508 OA
ATOM     29  H   UNL     1       8.738   2.739  13.293  1.00  0.00     0.293 HD
ENDBRANCH   8  28
TORSDOF 7
ENDMDL
MODEL 9
REMARK VINA RESULT:    -6.263      2.101      6.953
REMARK INTER + INTRA:          -8.029
REMARK INTER:                  -8.540
REMARK INTRA:                   0.510
REMARK UNBOUND:                -0.302
REMARK SMILES O=c1c(O)c(-c2cc(O)c(O)c(O)c2)oc2cc(O)cc(O)c12
REMARK SMILES IDX 5 1 3 2 2 3 1 4 23 5 21 6 20 7 18 8 17 9 16 10 15 11 6 12
REMARK SMILES IDX 7 13 8 14 14 15 10 16 12 17 9 18 11 20 13 22 4 24 22 26
REMARK SMILES IDX 19 28
REMARK H PARENT 9 19 11 21 13 23 4 25 22 27 19 29
REMARK Flexibility Score: inf
ROOT
ATOM      1  C   UNL     1       0.694   2.893  10.844  1.00  0.00     0.180 A 
ATOM      2  C   UNL     1       1.719   3.633  10.229  1.00  0.00     0.208 A 
ATOM      3  C   UNL     1       2.781   4.108  11.014  1.00  0.00     0.238 A 
ATOM      4  O   UNL     1       3.723   4.723  10.450  1.00  0.00    -0.285 OA
ATOM      5  C   UNL     1       2.799   3.849  12.406  1.00  0.00     0.111 A 
ATOM      6  C   UNL     1       3.804   4.316  13.305  1.00  0.00     0.134 A 
ATOM      7  C   UNL     1       3.790   3.891  14.639  1.00  0.00     0.093 A 
ATOM      8  C   UNL     1       2.772   3.071  15.123  1.00  0.00     0.123 A 
ATOM      9  C   UNL     1       1.750   2.658  14.267  1.00  0.00     0.094 A 
ATOM     10  C   UNL     1       1.757   3.035  12.923  1.00  0.00     0.146 A 
ATOM     11  O   UNL     1       0.772   2.612  12.140  1.00  0.00    -0.452 OA
ENDROOT
BRANCH   1  12
ATOM     12  C   UNL     1      -0.472   2.381  10.087  1.00  0.00     0.029 A 
ATOM     13  C   UNL     1      -0.607   2.699   8.728  1.00  0.00     0.062 A 
ATOM     14  C   UNL     1      -1.685   2.216   7.977  1.00  0.00     0.162 A 
ATOM     15  C   UNL     1      -1.417   1.535  10.686  1.00  0.00     0.062 A 
ATOM     16  C   UNL     1      -2.646   1.381   8.594  1.00  0.00     0.200 A 
ATOM     17  C   UNL     1      -2.500   1.043   9.947  1.00  0.00     0.162 A 
BRANCH  14  18
ATOM     18  O   UNL     1      -1.758   2.586   6.633  1.00  0.00    -0.504 OA
ATOM     19  H   UNL     1      -1.698   3.539   6.303  1.00  0.00     0.293 HD
ENDBRANCH  14  18
BRANCH  16  20
ATOM     20  O   UNL     1      -3.749   0.869   7.906  1.00  0.00    -0.502 OA
ATOM     21  H   UNL     1      -4.313   0.099   8.235  1.00  0.00     0.293 HD
ENDBRANCH  16  20
BRANCH  17  22
ATOM     22  O   UNL     1      -3.438   0.208  10.552  1.00  0.00    -0.504 OA
ATOM     23  H   UNL     1      -4.264  -0.110  10.058  1.00  0.00     0.293 HD
ENDBRANCH  17  22
ENDBRANCH   1  12
BRANCH   2  24
ATOM     24  O   UNL     1       1.693   3.857   8.851  1.00  0.00    -0.502 OA
ATOM     25  H   UNL     1       1.054   3.372   8.232  1.00  0.00     0.293 HD
ENDBRANCH   2  24
BRANCH   6  26
ATOM     26  O   UNL     1       4.816   5.212  12.946  1.00  0.00    -0.507 OA
ATOM     27  H   UNL     1       4.824   6.194  13.180  1.00  0.00     0.293 HD
ENDBRANCH   6  26
BRANCH   8  28
ATOM     28  O   UNL     1       2.780   2.681  16.460  1.00  0.00    -0.508 OA
ATOM     29  H   UNL     1       3.404   1.956  16.797  1.00  0.00     0.293 HD
ENDBRANCH   8  28
TORSDOF 7
ENDMDL
