MODEL 1
REMARK VINA RESULT:    -3.438      0.000      0.000
REMARK INTER + INTRA:          -4.142
REMARK INTER:                  -4.041
REMARK INTRA:                  -0.101
REMARK UNBOUND:                -0.101
REMARK SMILES O=C([O-])CCC(=O)[O-]
REMARK SMILES IDX 4 1 2 2 1 3 3 4 5 5 6 6 7 7 8 8
REMARK H PARENT
REMARK Flexibility Score: inf
ROOT
ATOM      1  C   UNL     1      21.727  15.155  21.031  1.00  0.00     0.059 C 
ENDROOT
BRANCH   1   2
ATOM      2  C   UNL     1      22.965  15.982  20.861  1.00  0.00     0.042 C 
ATOM      3  O   UNL     1      23.794  16.084  21.803  1.00  0.00    -0.550 OA
ATOM      4  O   UNL     1      23.181  16.674  19.676  1.00  0.00    -0.550 OA
ENDBRANCH   1   2
BRANCH   1   5
ATOM      5  C   UNL     1      20.938  15.044  19.722  1.00  0.00     0.059 C 
BRANCH   5   6
ATOM      6  C   UNL     1      19.698  15.884  19.754  1.00  0.00     0.042 C 
ATOM      7  O   UNL     1      19.480  16.656  20.725  1.00  0.00    -0.550 OA
ATOM      8  O   UNL     1      18.765  15.786  18.729  1.00  0.00    -0.550 OA
ENDBRANCH   5   6
ENDBRANCH   1   5
TORSDOF 3
ENDMDL
MODEL 2
REMARK VINA RESULT:    -3.406      0.193      3.869
REMARK INTER + INTRA:          -4.105
REMARK INTER:                  -4.006
REMARK INTRA:                  -0.099
REMARK UNBOUND:                -0.101
REMARK SMILES O=C([O-])CCC(=O)[O-]
REMARK SMILES IDX 4 1 2 2 1 3 3 4 5 5 6 6 7 7 8 8
REMARK H PARENT
REMARK Flexibility Score: inf
ROOT
ATOM      1  C   UNL     1      20.814  15.093  19.574  1.00  0.00     0.059 C 
ENDROOT
BRANCH   1   2
ATOM      2  C   UNL     1      19.547  15.894  19.572  1.00  0.00     0.042 C 
ATOM      3  O   UNL     1      18.741  15.800  18.609  1.00  0.00    -0.550 OA
ATOM      4  O   UNL     1      19.278  16.773  20.613  1.00  0.00    -0.550 OA
ENDBRANCH   1   2
BRANCH   1   5
ATOM      5  C   UNL     1      21.547  15.201  20.916  1.00  0.00     0.059 C 
BRANCH   5   6
ATOM      6  C   UNL     1      22.816  15.987  20.788  1.00  0.00     0.042 C 
ATOM      7  O   UNL     1      23.626  16.043  21.751  1.00  0.00    -0.550 OA
ATOM      8  O   UNL     1      23.085  16.689  19.620  1.00  0.00    -0.550 OA
ENDBRANCH   5   6
ENDBRANCH   1   5
TORSDOF 3
ENDMDL
MODEL 3
REMARK VINA RESULT:    -3.253     13.891     15.160
REMARK INTER + INTRA:          -3.924
REMARK INTER:                  -3.883
REMARK INTRA:                  -0.041
REMARK UNBOUND:                -0.101
REMARK SMILES O=C([O-])CCC(=O)[O-]
REMARK SMILES IDX 4 1 2 2 1 3 3 4 5 5 6 6 7 7 8 8
REMARK H PARENT
REMARK Flexibility Score: inf
ROOT
ATOM      1  C   UNL     1      11.440   9.092  11.522  1.00  0.00     0.059 C 
ENDROOT
BRANCH   1   2
ATOM      2  C   UNL     1      11.402   7.598  11.640  1.00  0.00     0.042 C 
ATOM      3  O   UNL     1      11.783   6.877  10.680  1.00  0.00    -0.550 OA
ATOM      4  O   UNL     1      10.909   7.004  12.794  1.00  0.00    -0.550 OA
ENDBRANCH   1   2
BRANCH   1   5
ATOM      5  C   UNL     1      12.103   9.538  10.215  1.00  0.00     0.059 C 
BRANCH   5   6
ATOM      6  C   UNL     1      12.490  10.985  10.260  1.00  0.00     0.042 C 
ATOM      7  O   UNL     1      12.565  11.587  11.363  1.00  0.00    -0.550 OA
ATOM      8  O   UNL     1      12.728  11.678   9.080  1.00  0.00    -0.550 OA
ENDBRANCH   5   6
ENDBRANCH   1   5
TORSDOF 3
ENDMDL
MODEL 4
REMARK VINA RESULT:    -3.248     13.807     15.042
REMARK INTER + INTRA:          -3.919
REMARK INTER:                  -3.886
REMARK INTRA:                  -0.033
REMARK UNBOUND:                -0.101
REMARK SMILES O=C([O-])CCC(=O)[O-]
REMARK SMILES IDX 4 1 2 2 1 3 3 4 5 5 6 6 7 7 8 8
REMARK H PARENT
REMARK Flexibility Score: inf
ROOT
ATOM      1  C   UNL     1      12.318   9.810  10.143  1.00  0.00     0.059 C 
ENDROOT
BRANCH   1   2
ATOM      2  C   UNL     1      12.443  11.303  10.167  1.00  0.00     0.042 C 
ATOM      3  O   UNL     1      12.425  11.957   9.091  1.00  0.00    -0.550 OA
ATOM      4  O   UNL     1      12.620  11.967  11.374  1.00  0.00    -0.550 OA
ENDBRANCH   1   2
BRANCH   1   5
ATOM      5  C   UNL     1      11.499   9.294  11.331  1.00  0.00     0.059 C 
BRANCH   5   6
ATOM      6  C   UNL     1      11.496   7.796  11.389  1.00  0.00     0.042 C 
ATOM      7  O   UNL     1      11.110   7.203  12.430  1.00  0.00    -0.550 OA
ATOM      8  O   UNL     1      11.958   7.058  10.307  1.00  0.00    -0.550 OA
ENDBRANCH   5   6
ENDBRANCH   1   5
TORSDOF 3
ENDMDL
MODEL 5
REMARK VINA RESULT:    -3.232     13.922     15.115
REMARK INTER + INTRA:          -3.900
REMARK INTER:                  -3.859
REMARK INTRA:                  -0.041
REMARK UNBOUND:                -0.101
REMARK SMILES O=C([O-])CCC(=O)[O-]
REMARK SMILES IDX 4 1 2 2 1 3 3 4 5 5 6 6 7 7 8 8
REMARK H PARENT
REMARK Flexibility Score: inf
ROOT
ATOM      1  C   UNL     1      12.045   9.445  10.288  1.00  0.00     0.059 C 
ENDROOT
BRANCH   1   2
ATOM      2  C   UNL     1      12.450  10.887  10.344  1.00  0.00     0.042 C 
ATOM      3  O   UNL     1      12.429  11.508  11.440  1.00  0.00    -0.550 OA
ATOM      4  O   UNL     1      12.812  11.554   9.181  1.00  0.00    -0.550 OA
ENDBRANCH   1   2
BRANCH   1   5
ATOM      5  C   UNL     1      11.428   8.980  11.611  1.00  0.00     0.059 C 
BRANCH   5   6
ATOM      6  C   UNL     1      11.304   7.488  11.666  1.00  0.00     0.042 C 
ATOM      7  O   UNL     1      11.759   6.778  10.730  1.00  0.00    -0.550 OA
ATOM      8  O   UNL     1      10.651   6.884  12.733  1.00  0.00    -0.550 OA
ENDBRANCH   5   6
ENDBRANCH   1   5
TORSDOF 3
ENDMDL
MODEL 6
REMARK VINA RESULT:    -3.214     14.230     14.872
REMARK INTER + INTRA:          -3.878
REMARK INTER:                  -3.835
REMARK INTRA:                  -0.043
REMARK UNBOUND:                -0.101
REMARK SMILES O=C([O-])CCC(=O)[O-]
REMARK SMILES IDX 4 1 2 2 1 3 3 4 5 5 6 6 7 7 8 8
REMARK H PARENT
REMARK Flexibility Score: inf
ROOT
ATOM      1  C   UNL     1      12.269  10.878  10.988  1.00  0.00     0.059 C 
ENDROOT
BRANCH   1   2
ATOM      2  C   UNL     1      11.695   9.504  11.159  1.00  0.00     0.042 C 
ATOM      3  O   UNL     1      10.928   9.255  12.126  1.00  0.00    -0.550 OA
ATOM      4  O   UNL     1      12.041   8.491  10.275  1.00  0.00    -0.550 OA
ENDBRANCH   1   2
BRANCH   1   5
ATOM      5  C   UNL     1      12.777  11.103   9.560  1.00  0.00     0.059 C 
BRANCH   5   6
ATOM      6  C   UNL     1      12.519  12.504   9.097  1.00  0.00     0.042 C 
ATOM      7  O   UNL     1      12.978  12.903   7.994  1.00  0.00    -0.550 OA
ATOM      8  O   UNL     1      11.804  13.382   9.903  1.00  0.00    -0.550 OA
ENDBRANCH   5   6
ENDBRANCH   1   5
TORSDOF 3
ENDMDL
MODEL 7
REMARK VINA RESULT:    -3.177     14.154     14.793
REMARK INTER + INTRA:          -3.835
REMARK INTER:                  -3.788
REMARK INTRA:                  -0.047
REMARK UNBOUND:                -0.101
REMARK SMILES O=C([O-])CCC(=O)[O-]
REMARK SMILES IDX 4 1 2 2 1 3 3 4 5 5 6 6 7 7 8 8
REMARK H PARENT
REMARK Flexibility Score: inf
ROOT
ATOM      1  C   UNL     1      12.727  11.250   9.491  1.00  0.00     0.059 C 
ENDROOT
BRANCH   1   2
ATOM      2  C   UNL     1      12.435  12.680   9.151  1.00  0.00     0.042 C 
ATOM      3  O   UNL     1      11.816  13.412   9.968  1.00  0.00    -0.550 OA
ATOM      4  O   UNL     1      12.810  13.191   7.915  1.00  0.00    -0.550 OA
ENDBRANCH   1   2
BRANCH   1   5
ATOM      5  C   UNL     1      12.407  10.943  10.958  1.00  0.00     0.059 C 
BRANCH   5   6
ATOM      6  C   UNL     1      11.746   9.607  11.110  1.00  0.00     0.042 C 
ATOM      7  O   UNL     1      10.925   9.408  12.044  1.00  0.00    -0.550 OA
ATOM      8  O   UNL     1      12.068   8.570  10.243  1.00  0.00    -0.550 OA
ENDBRANCH   5   6
ENDBRANCH   1   5
TORSDOF 3
ENDMDL
MODEL 8
REMARK VINA RESULT:    -2.952      1.285      2.164
REMARK INTER + INTRA:          -3.570
REMARK INTER:                  -3.498
REMARK INTRA:                  -0.072
REMARK UNBOUND:                -0.101
REMARK SMILES O=C([O-])CCC(=O)[O-]
REMARK SMILES IDX 4 1 2 2 1 3 3 4 5 5 6 6 7 7 8 8
REMARK H PARENT
REMARK Flexibility Score: inf
ROOT
ATOM      1  C   UNL     1      21.829  16.056  20.012  1.00  0.00     0.059 C 
ENDROOT
BRANCH   1   2
ATOM      2  C   UNL     1      22.701  16.586  18.915  1.00  0.00     0.042 C 
ATOM      3  O   UNL     1      22.210  16.843  17.784  1.00  0.00    -0.550 OA
ATOM      4  O   UNL     1      24.062  16.757  19.129  1.00  0.00    -0.550 OA
ENDBRANCH   1   2
BRANCH   1   5
ATOM      5  C   UNL     1      20.673  15.216  19.459  1.00  0.00     0.059 C 
BRANCH   5   6
ATOM      6  C   UNL     1      19.371  15.953  19.537  1.00  0.00     0.042 C 
ATOM      7  O   UNL     1      18.526  15.847  18.609  1.00  0.00    -0.550 OA
ATOM      8  O   UNL     1      19.108  16.787  20.616  1.00  0.00    -0.550 OA
ENDBRANCH   5   6
ENDBRANCH   1   5
TORSDOF 3
ENDMDL
MODEL 9
REMARK VINA RESULT:    -2.917      1.484      4.278
REMARK INTER + INTRA:          -3.530
REMARK INTER:                  -3.492
REMARK INTRA:                  -0.038
REMARK UNBOUND:                -0.101
REMARK SMILES O=C([O-])CCC(=O)[O-]
REMARK SMILES IDX 4 1 2 2 1 3 3 4 5 5 6 6 7 7 8 8
REMARK H PARENT
REMARK Flexibility Score: inf
ROOT
ATOM      1  C   UNL     1      19.815  15.928  18.890  1.00  0.00     0.059 C 
ENDROOT
BRANCH   1   2
ATOM      2  C   UNL     1      18.568  16.691  18.566  1.00  0.00     0.042 C 
ATOM      3  O   UNL     1      18.290  16.975  17.371  1.00  0.00    -0.550 OA
ATOM      4  O   UNL     1      17.733  17.125  19.588  1.00  0.00    -0.550 OA
ENDBRANCH   1   2
BRANCH   1   5
ATOM      5  C   UNL     1      20.161  16.016  20.380  1.00  0.00     0.059 C 
BRANCH   5   6
ATOM      6  C   UNL     1      21.625  15.808  20.619  1.00  0.00     0.042 C 
ATOM      7  O   UNL     1      22.016  15.123  21.601  1.00  0.00    -0.550 OA
ATOM      8  O   UNL     1      22.558  16.404  19.780  1.00  0.00    -0.550 OA
ENDBRANCH   5   6
ENDBRANCH   1   5
TORSDOF 3
ENDMDL
