MODEL 1
REMARK VINA RESULT:    -3.870      0.000      0.000
REMARK INTER + INTRA:          -9.859
REMARK INTER:                  -7.037
REMARK INTRA:                  -2.822
REMARK UNBOUND:                -2.822
REMARK SMILES CCCCCC=CCC=CCCCCCCCC(=O)[O-]
REMARK SMILES IDX 11 1 12 2 13 3 14 4 15 5 16 6 17 7 18 8 19 9 20 10 10 11
REMARK SMILES IDX 9 12 8 13 7 14 6 15 5 16 4 17 3 18 2 19 1 20
REMARK H PARENT
REMARK Flexibility Score: inf
ROOT
ATOM      1  C   UNL     1      11.960  28.616   8.480  1.00  0.00     0.027 C 
ENDROOT
BRANCH   1   2
ATOM      2  C   UNL     1      10.891  27.912   7.623  1.00  0.00     0.004 C 
BRANCH   2   3
ATOM      3  C   UNL     1      10.481  26.513   8.127  1.00  0.00     0.000 C 
BRANCH   3   4
ATOM      4  C   UNL     1       9.059  26.420   8.710  1.00  0.00     0.000 C 
BRANCH   4   5
ATOM      5  C   UNL     1       9.040  26.483  10.247  1.00  0.00     0.000 C 
BRANCH   5   6
ATOM      6  C   UNL     1      10.417  26.192  10.865  1.00  0.00     0.006 C 
BRANCH   6   7
ATOM      7  C   UNL     1      10.375  25.058  11.899  1.00  0.00     0.053 C 
BRANCH   7   8
ATOM      8  C   UNL     1      11.148  23.875  11.407  1.00  0.00     0.041 C 
ATOM      9  O   UNL     1      11.233  23.643  10.172  1.00  0.00    -0.550 OA
ATOM     10  O   UNL     1      11.736  23.005  12.314  1.00  0.00    -0.550 OA
ENDBRANCH   7   8
ENDBRANCH   6   7
ENDBRANCH   5   6
ENDBRANCH   4   5
ENDBRANCH   3   4
ENDBRANCH   2   3
ENDBRANCH   1   2
BRANCH   1  11
ATOM     11  C   UNL     1      11.365  29.542   9.505  1.00  0.00    -0.031 C 
ATOM     12  C   UNL     1      10.092  29.960   9.421  1.00  0.00    -0.027 C 
BRANCH  12  13
ATOM     13  C   UNL     1       9.515  30.935  10.410  1.00  0.00     0.054 C 
BRANCH  13  14
ATOM     14  C   UNL     1       8.341  30.342  11.149  1.00  0.00    -0.027 C 
ATOM     15  C   UNL     1       8.429  29.645  12.298  1.00  0.00    -0.031 C 
BRANCH  15  16
ATOM     16  C   UNL     1       9.709  29.405  13.061  1.00  0.00     0.027 C 
BRANCH  16  17
ATOM     17  C   UNL     1       9.925  30.454  14.162  1.00  0.00     0.004 C 
BRANCH  17  18
ATOM     18  C   UNL     1      11.341  31.051  14.120  1.00  0.00     0.000 C 
BRANCH  18  19
ATOM     19  C   UNL     1      12.224  30.301  13.117  1.00  0.00    -0.003 C 
ATOM     20  C   UNL     1      12.945  31.270  12.185  1.00  0.00     0.004 C 
ENDBRANCH  18  19
ENDBRANCH  17  18
ENDBRANCH  16  17
ENDBRANCH  15  16
ENDBRANCH  13  14
ENDBRANCH  12  13
ENDBRANCH   1  11
TORSDOF 14
ENDMDL
MODEL 2
REMARK VINA RESULT:    -3.825      1.309      2.864
REMARK INTER + INTRA:          -9.778
REMARK INTER:                  -7.006
REMARK INTRA:                  -2.771
REMARK UNBOUND:                -2.822
REMARK SMILES CCCCCC=CCC=CCCCCCCCC(=O)[O-]
REMARK SMILES IDX 11 1 12 2 13 3 14 4 15 5 16 6 17 7 18 8 19 9 20 10 10 11
REMARK SMILES IDX 9 12 8 13 7 14 6 15 5 16 4 17 3 18 2 19 1 20
REMARK H PARENT
REMARK Flexibility Score: inf
ROOT
ATOM      1  C   UNL     1      12.528  28.650   9.309  1.00  0.00     0.027 C 
ENDROOT
BRANCH   1   2
ATOM      2  C   UNL     1      11.839  29.508   8.231  1.00  0.00     0.004 C 
BRANCH   2   3
ATOM      3  C   UNL     1      10.830  28.743   7.348  1.00  0.00     0.000 C 
BRANCH   3   4
ATOM      4  C   UNL     1      10.618  27.266   7.728  1.00  0.00     0.000 C 
BRANCH   4   5
ATOM      5  C   UNL     1       9.163  26.955   8.120  1.00  0.00     0.000 C 
BRANCH   5   6
ATOM      6  C   UNL     1       9.046  26.376   9.539  1.00  0.00     0.006 C 
BRANCH   6   7
ATOM      7  C   UNL     1      10.317  25.642   9.986  1.00  0.00     0.053 C 
BRANCH   7   8
ATOM      8  C   UNL     1      10.325  25.470  11.473  1.00  0.00     0.041 C 
ATOM      9  O   UNL     1       9.863  26.375  12.218  1.00  0.00    -0.550 OA
ATOM     10  O   UNL     1      10.882  24.331  12.037  1.00  0.00    -0.550 OA
ENDBRANCH   7   8
ENDBRANCH   6   7
ENDBRANCH   5   6
ENDBRANCH   4   5
ENDBRANCH   3   4
ENDBRANCH   2   3
ENDBRANCH   1   2
BRANCH   1  11
ATOM     11  C   UNL     1      12.630  29.355  10.634  1.00  0.00    -0.031 C 
ATOM     12  C   UNL     1      12.587  30.694  10.724  1.00  0.00    -0.027 C 
BRANCH  12  13
ATOM     13  C   UNL     1      12.751  31.401  12.041  1.00  0.00     0.054 C 
BRANCH  13  14
ATOM     14  C   UNL     1      12.646  30.441  13.200  1.00  0.00    -0.027 C 
ATOM     15  C   UNL     1      11.713  30.504  14.168  1.00  0.00    -0.031 C 
BRANCH  15  16
ATOM     16  C   UNL     1      10.584  31.504  14.208  1.00  0.00     0.027 C 
BRANCH  16  17
ATOM     17  C   UNL     1       9.265  30.902  13.702  1.00  0.00     0.004 C 
BRANCH  17  18
ATOM     18  C   UNL     1       9.048  31.163  12.204  1.00  0.00     0.000 C 
BRANCH  18  19
ATOM     19  C   UNL     1       9.024  29.849  11.415  1.00  0.00    -0.003 C 
ATOM     20  C   UNL     1       8.549  30.073   9.983  1.00  0.00     0.004 C 
ENDBRANCH  18  19
ENDBRANCH  17  18
ENDBRANCH  16  17
ENDBRANCH  15  16
ENDBRANCH  13  14
ENDBRANCH  12  13
ENDBRANCH   1  11
TORSDOF 14
ENDMDL
MODEL 3
REMARK VINA RESULT:    -3.814      1.295      2.860
REMARK INTER + INTRA:          -9.758
REMARK INTER:                  -7.192
REMARK INTRA:                  -2.565
REMARK UNBOUND:                -2.822
REMARK SMILES CCCCCC=CCC=CCCCCCCCC(=O)[O-]
REMARK SMILES IDX 11 1 12 2 13 3 14 4 15 5 16 6 17 7 18 8 19 9 20 10 10 11
REMARK SMILES IDX 9 12 8 13 7 14 6 15 5 16 4 17 3 18 2 19 1 20
REMARK H PARENT
REMARK Flexibility Score: inf
ROOT
ATOM      1  C   UNL     1       6.702  27.666  10.585  1.00  0.00     0.027 C 
ENDROOT
BRANCH   1   2
ATOM      2  C   UNL     1       7.583  27.976   9.360  1.00  0.00     0.004 C 
BRANCH   2   3
ATOM      3  C   UNL     1       8.064  26.733   8.582  1.00  0.00     0.000 C 
BRANCH   3   4
ATOM      4  C   UNL     1       9.581  26.476   8.635  1.00  0.00     0.000 C 
BRANCH   4   5
ATOM      5  C   UNL     1      10.322  27.474   9.542  1.00  0.00     0.000 C 
BRANCH   5   6
ATOM      6  C   UNL     1      10.956  26.797  10.768  1.00  0.00     0.006 C 
BRANCH   6   7
ATOM      7  C   UNL     1      10.070  25.693  11.360  1.00  0.00     0.053 C 
BRANCH   7   8
ATOM      8  C   UNL     1      10.818  24.398  11.417  1.00  0.00     0.041 C 
ATOM      9  O   UNL     1      11.183  23.925  12.526  1.00  0.00    -0.550 OA
ATOM     10  O   UNL     1      11.151  23.736  10.243  1.00  0.00    -0.550 OA
ENDBRANCH   7   8
ENDBRANCH   6   7
ENDBRANCH   5   6
ENDBRANCH   4   5
ENDBRANCH   3   4
ENDBRANCH   2   3
ENDBRANCH   1   2
BRANCH   1  11
ATOM     11  C   UNL     1       7.269  28.223  11.863  1.00  0.00    -0.031 C 
ATOM     12  C   UNL     1       8.238  29.151  11.857  1.00  0.00    -0.027 C 
BRANCH  12  13
ATOM     13  C   UNL     1       8.847  29.662  13.133  1.00  0.00     0.054 C 
BRANCH  13  14
ATOM     14  C   UNL     1       9.374  31.067  12.970  1.00  0.00    -0.027 C 
ATOM     15  C   UNL     1      10.572  31.494  13.410  1.00  0.00    -0.031 C 
BRANCH  15  16
ATOM     16  C   UNL     1      11.605  30.618  14.076  1.00  0.00     0.027 C 
BRANCH  16  17
ATOM     17  C   UNL     1      12.664  30.121  13.081  1.00  0.00     0.004 C 
BRANCH  17  18
ATOM     18  C   UNL     1      12.841  31.084  11.896  1.00  0.00     0.000 C 
BRANCH  18  19
ATOM     19  C   UNL     1      12.626  30.359  10.563  1.00  0.00    -0.003 C 
ATOM     20  C   UNL     1      11.446  30.951   9.799  1.00  0.00     0.004 C 
ENDBRANCH  18  19
ENDBRANCH  17  18
ENDBRANCH  16  17
ENDBRANCH  15  16
ENDBRANCH  13  14
ENDBRANCH  12  13
ENDBRANCH   1  11
TORSDOF 14
ENDMDL
MODEL 4
REMARK VINA RESULT:    -3.748      2.860      4.184
REMARK INTER + INTRA:          -9.637
REMARK INTER:                  -6.806
REMARK INTRA:                  -2.830
REMARK UNBOUND:                -2.822
REMARK SMILES CCCCCC=CCC=CCCCCCCCC(=O)[O-]
REMARK SMILES IDX 11 1 12 2 13 3 14 4 15 5 16 6 17 7 18 8 19 9 20 10 10 11
REMARK SMILES IDX 9 12 8 13 7 14 6 15 5 16 4 17 3 18 2 19 1 20
REMARK H PARENT
REMARK Flexibility Score: inf
ROOT
ATOM      1  C   UNL     1      10.515  25.509  10.239  1.00  0.00     0.027 C 
ENDROOT
BRANCH   1   2
ATOM      2  C   UNL     1      11.091  25.992   8.895  1.00  0.00     0.004 C 
BRANCH   2   3
ATOM      3  C   UNL     1      11.654  27.428   8.915  1.00  0.00     0.000 C 
BRANCH   3   4
ATOM      4  C   UNL     1      10.926  28.428   7.998  1.00  0.00     0.000 C 
BRANCH   4   5
ATOM      5  C   UNL     1       9.500  27.977   7.639  1.00  0.00     0.000 C 
BRANCH   5   6
ATOM      6  C   UNL     1       8.434  28.615   8.545  1.00  0.00     0.006 C 
BRANCH   6   7
ATOM      7  C   UNL     1       7.302  27.644   8.904  1.00  0.00     0.053 C 
BRANCH   7   8
ATOM      8  C   UNL     1       6.213  28.361   9.638  1.00  0.00     0.041 C 
ATOM      9  O   UNL     1       5.807  27.929  10.749  1.00  0.00    -0.550 OA
ATOM     10  O   UNL     1       5.616  29.481   9.075  1.00  0.00    -0.550 OA
ENDBRANCH   7   8
ENDBRANCH   6   7
ENDBRANCH   5   6
ENDBRANCH   4   5
ENDBRANCH   3   4
ENDBRANCH   2   3
ENDBRANCH   1   2
BRANCH   1  11
ATOM     11  C   UNL     1      10.304  26.632  11.217  1.00  0.00    -0.031 C 
ATOM     12  C   UNL     1       9.128  26.814  11.838  1.00  0.00    -0.027 C 
BRANCH  12  13
ATOM     13  C   UNL     1       8.898  27.972  12.768  1.00  0.00     0.054 C 
BRANCH  13  14
ATOM     14  C   UNL     1       9.081  29.293  12.062  1.00  0.00    -0.027 C 
ATOM     15  C   UNL     1       9.958  30.246  12.431  1.00  0.00    -0.031 C 
BRANCH  15  16
ATOM     16  C   UNL     1      10.943  30.113  13.566  1.00  0.00     0.027 C 
BRANCH  16  17
ATOM     17  C   UNL     1      12.391  30.317  13.097  1.00  0.00     0.004 C 
BRANCH  17  18
ATOM     18  C   UNL     1      12.646  29.685  11.720  1.00  0.00     0.000 C 
BRANCH  18  19
ATOM     19  C   UNL     1      13.281  30.699  10.761  1.00  0.00    -0.003 C 
ATOM     20  C   UNL     1      14.143  30.002   9.713  1.00  0.00     0.004 C 
ENDBRANCH  18  19
ENDBRANCH  17  18
ENDBRANCH  16  17
ENDBRANCH  15  16
ENDBRANCH  13  14
ENDBRANCH  12  13
ENDBRANCH   1  11
TORSDOF 14
ENDMDL
MODEL 5
REMARK VINA RESULT:    -3.735      1.518      2.923
REMARK INTER + INTRA:          -9.614
REMARK INTER:                  -7.175
REMARK INTRA:                  -2.439
REMARK UNBOUND:                -2.822
REMARK SMILES CCCCCC=CCC=CCCCCCCCC(=O)[O-]
REMARK SMILES IDX 11 1 12 2 13 3 14 4 15 5 16 6 17 7 18 8 19 9 20 10 10 11
REMARK SMILES IDX 9 12 8 13 7 14 6 15 5 16 4 17 3 18 2 19 1 20
REMARK H PARENT
REMARK Flexibility Score: inf
ROOT
ATOM      1  C   UNL     1       8.048  29.720   7.461  1.00  0.00     0.027 C 
ENDROOT
BRANCH   1   2
ATOM      2  C   UNL     1       7.255  28.644   8.224  1.00  0.00     0.004 C 
BRANCH   2   3
ATOM      3  C   UNL     1       8.092  27.808   9.215  1.00  0.00     0.000 C 
BRANCH   3   4
ATOM      4  C   UNL     1       8.536  26.429   8.693  1.00  0.00     0.000 C 
BRANCH   4   5
ATOM      5  C   UNL     1       9.999  26.416   8.218  1.00  0.00     0.000 C 
BRANCH   5   6
ATOM      6  C   UNL     1      10.872  25.441   9.025  1.00  0.00     0.006 C 
BRANCH   6   7
ATOM      7  C   UNL     1      10.479  25.383  10.507  1.00  0.00     0.053 C 
BRANCH   7   8
ATOM      8  C   UNL     1      10.943  24.099  11.120  1.00  0.00     0.041 C 
ATOM      9  O   UNL     1      10.966  23.965  12.372  1.00  0.00    -0.550 OA
ATOM     10  O   UNL     1      11.392  23.065  10.308  1.00  0.00    -0.550 OA
ENDBRANCH   7   8
ENDBRANCH   6   7
ENDBRANCH   5   6
ENDBRANCH   4   5
ENDBRANCH   3   4
ENDBRANCH   2   3
ENDBRANCH   1   2
BRANCH   1  11
ATOM     11  C   UNL     1       9.371  30.033   8.107  1.00  0.00    -0.031 C 
ATOM     12  C   UNL     1      10.506  30.088   7.394  1.00  0.00    -0.027 C 
BRANCH  12  13
ATOM     13  C   UNL     1      11.837  30.340   8.049  1.00  0.00     0.054 C 
BRANCH  13  14
ATOM     14  C   UNL     1      12.494  29.051   8.477  1.00  0.00    -0.027 C 
ATOM     15  C   UNL     1      12.661  28.661   9.755  1.00  0.00    -0.031 C 
BRANCH  15  16
ATOM     16  C   UNL     1      12.156  29.421  10.957  1.00  0.00     0.027 C 
BRANCH  16  17
ATOM     17  C   UNL     1      10.919  28.756  11.578  1.00  0.00     0.004 C 
BRANCH  17  18
ATOM     18  C   UNL     1      10.225  29.668  12.602  1.00  0.00     0.000 C 
BRANCH  18  19
ATOM     19  C   UNL     1      11.160  30.795  13.055  1.00  0.00    -0.003 C 
ATOM     20  C   UNL     1      11.259  30.851  14.577  1.00  0.00     0.004 C 
ENDBRANCH  18  19
ENDBRANCH  17  18
ENDBRANCH  16  17
ENDBRANCH  15  16
ENDBRANCH  13  14
ENDBRANCH  12  13
ENDBRANCH   1  11
TORSDOF 14
ENDMDL
MODEL 6
REMARK VINA RESULT:    -3.615      1.840      4.144
REMARK INTER + INTRA:          -9.396
REMARK INTER:                  -6.777
REMARK INTRA:                  -2.619
REMARK UNBOUND:                -2.822
REMARK SMILES CCCCCC=CCC=CCCCCCCCC(=O)[O-]
REMARK SMILES IDX 11 1 12 2 13 3 14 4 15 5 16 6 17 7 18 8 19 9 20 10 10 11
REMARK SMILES IDX 9 12 8 13 7 14 6 15 5 16 4 17 3 18 2 19 1 20
REMARK H PARENT
REMARK Flexibility Score: inf
ROOT
ATOM      1  C   UNL     1      13.113  29.857  12.716  1.00  0.00     0.027 C 
ENDROOT
BRANCH   1   2
ATOM      2  C   UNL     1      13.173  29.896  11.178  1.00  0.00     0.004 C 
BRANCH   2   3
ATOM      3  C   UNL     1      12.299  28.837  10.473  1.00  0.00     0.000 C 
BRANCH   3   4
ATOM      4  C   UNL     1      10.919  29.336  10.006  1.00  0.00     0.000 C 
BRANCH   4   5
ATOM      5  C   UNL     1       9.798  29.009  11.007  1.00  0.00     0.000 C 
BRANCH   5   6
ATOM      6  C   UNL     1      10.193  27.897  11.993  1.00  0.00     0.006 C 
BRANCH   6   7
ATOM      7  C   UNL     1       9.409  26.598  11.766  1.00  0.00     0.053 C 
BRANCH   7   8
ATOM      8  C   UNL     1      10.295  25.552  11.166  1.00  0.00     0.041 C 
ATOM      9  O   UNL     1      10.718  24.598  11.871  1.00  0.00    -0.550 OA
ATOM     10  O   UNL     1      10.690  25.655   9.838  1.00  0.00    -0.550 OA
ENDBRANCH   7   8
ENDBRANCH   6   7
ENDBRANCH   5   6
ENDBRANCH   4   5
ENDBRANCH   3   4
ENDBRANCH   2   3
ENDBRANCH   1   2
BRANCH   1  11
ATOM     11  C   UNL     1      12.193  30.901  13.288  1.00  0.00    -0.031 C 
ATOM     12  C   UNL     1      11.419  30.649  14.355  1.00  0.00    -0.027 C 
BRANCH  12  13
ATOM     13  C   UNL     1      10.454  31.672  14.889  1.00  0.00     0.054 C 
BRANCH  13  14
ATOM     14  C   UNL     1       9.384  32.002  13.878  1.00  0.00    -0.027 C 
ATOM     15  C   UNL     1       8.223  31.334  13.742  1.00  0.00    -0.031 C 
BRANCH  15  16
ATOM     16  C   UNL     1       7.780  30.194  14.626  1.00  0.00     0.027 C 
BRANCH  16  17
ATOM     17  C   UNL     1       7.230  29.015  13.810  1.00  0.00     0.004 C 
BRANCH  17  18
ATOM     18  C   UNL     1       6.256  29.475  12.714  1.00  0.00     0.000 C 
BRANCH  18  19
ATOM     19  C   UNL     1       6.176  28.443  11.583  1.00  0.00    -0.003 C 
ATOM     20  C   UNL     1       5.364  28.976  10.407  1.00  0.00     0.004 C 
ENDBRANCH  18  19
ENDBRANCH  17  18
ENDBRANCH  16  17
ENDBRANCH  15  16
ENDBRANCH  13  14
ENDBRANCH  12  13
ENDBRANCH   1  11
TORSDOF 14
ENDMDL
MODEL 7
REMARK VINA RESULT:    -3.581      2.408      5.570
REMARK INTER + INTRA:          -9.334
REMARK INTER:                  -6.535
REMARK INTRA:                  -2.799
REMARK UNBOUND:                -2.822
REMARK SMILES CCCCCC=CCC=CCCCCCCCC(=O)[O-]
REMARK SMILES IDX 11 1 12 2 13 3 14 4 15 5 16 6 17 7 18 8 19 9 20 10 10 11
REMARK SMILES IDX 9 12 8 13 7 14 6 15 5 16 4 17 3 18 2 19 1 20
REMARK H PARENT
REMARK Flexibility Score: inf
ROOT
ATOM      1  C   UNL     1      12.689  30.112  12.787  1.00  0.00     0.027 C 
ENDROOT
BRANCH   1   2
ATOM      2  C   UNL     1      11.538  30.528  13.721  1.00  0.00     0.004 C 
BRANCH   2   3
ATOM      3  C   UNL     1      10.166  29.922  13.360  1.00  0.00     0.000 C 
BRANCH   3   4
ATOM      4  C   UNL     1       8.961  30.853  13.590  1.00  0.00     0.000 C 
BRANCH   4   5
ATOM      5  C   UNL     1       7.743  30.474  12.730  1.00  0.00     0.000 C 
BRANCH   5   6
ATOM      6  C   UNL     1       8.137  29.716  11.452  1.00  0.00     0.006 C 
BRANCH   6   7
ATOM      7  C   UNL     1       7.086  29.841  10.341  1.00  0.00     0.053 C 
BRANCH   7   8
ATOM      8  C   UNL     1       6.616  28.486   9.914  1.00  0.00     0.041 C 
ATOM      9  O   UNL     1       6.431  28.234   8.694  1.00  0.00    -0.550 OA
ATOM     10  O   UNL     1       6.341  27.514  10.867  1.00  0.00    -0.550 OA
ENDBRANCH   7   8
ENDBRANCH   6   7
ENDBRANCH   5   6
ENDBRANCH   4   5
ENDBRANCH   3   4
ENDBRANCH   2   3
ENDBRANCH   1   2
BRANCH   1  11
ATOM     11  C   UNL     1      12.234  29.883  11.371  1.00  0.00    -0.031 C 
ATOM     12  C   UNL     1      12.760  28.909  10.612  1.00  0.00    -0.027 C 
BRANCH  12  13
ATOM     13  C   UNL     1      12.349  28.719   9.178  1.00  0.00     0.054 C 
BRANCH  13  14
ATOM     14  C   UNL     1      11.002  29.340   8.902  1.00  0.00    -0.027 C 
ATOM     15  C   UNL     1       9.971  28.707   8.310  1.00  0.00    -0.031 C 
BRANCH  15  16
ATOM     16  C   UNL     1       9.979  27.257   7.892  1.00  0.00     0.027 C 
BRANCH  16  17
ATOM     17  C   UNL     1       9.472  26.334   9.010  1.00  0.00     0.004 C 
BRANCH  17  18
ATOM     18  C   UNL     1      10.582  25.422   9.555  1.00  0.00     0.000 C 
BRANCH  18  19
ATOM     19  C   UNL     1      10.530  25.348  11.085  1.00  0.00    -0.003 C 
ATOM     20  C   UNL     1       9.845  26.577  11.674  1.00  0.00     0.004 C 
ENDBRANCH  18  19
ENDBRANCH  17  18
ENDBRANCH  16  17
ENDBRANCH  15  16
ENDBRANCH  13  14
ENDBRANCH  12  13
ENDBRANCH   1  11
TORSDOF 14
ENDMDL
MODEL 8
REMARK VINA RESULT:    -3.576      1.631      4.884
REMARK INTER + INTRA:          -9.325
REMARK INTER:                  -6.743
REMARK INTRA:                  -2.583
REMARK UNBOUND:                -2.822
REMARK SMILES CCCCCC=CCC=CCCCCCCCC(=O)[O-]
REMARK SMILES IDX 11 1 12 2 13 3 14 4 15 5 16 6 17 7 18 8 19 9 20 10 10 11
REMARK SMILES IDX 9 12 8 13 7 14 6 15 5 16 4 17 3 18 2 19 1 20
REMARK H PARENT
REMARK Flexibility Score: inf
ROOT
ATOM      1  C   UNL     1      12.448  30.214  13.101  1.00  0.00     0.027 C 
ENDROOT
BRANCH   1   2
ATOM      2  C   UNL     1      11.160  30.511  13.891  1.00  0.00     0.004 C 
BRANCH   2   3
ATOM      3  C   UNL     1       9.859  30.386  13.070  1.00  0.00     0.000 C 
BRANCH   3   4
ATOM      4  C   UNL     1       9.180  29.006  13.129  1.00  0.00     0.000 C 
BRANCH   4   5
ATOM      5  C   UNL     1       9.259  28.246  11.793  1.00  0.00     0.000 C 
BRANCH   5   6
ATOM      6  C   UNL     1       9.767  26.805  11.965  1.00  0.00     0.006 C 
BRANCH   6   7
ATOM      7  C   UNL     1      10.475  26.274  10.711  1.00  0.00     0.053 C 
BRANCH   7   8
ATOM      8  C   UNL     1      10.756  24.811  10.852  1.00  0.00     0.041 C 
ATOM      9  O   UNL     1      10.643  24.248  11.973  1.00  0.00    -0.550 OA
ATOM     10  O   UNL     1      11.184  24.077   9.753  1.00  0.00    -0.550 OA
ENDBRANCH   7   8
ENDBRANCH   6   7
ENDBRANCH   5   6
ENDBRANCH   4   5
ENDBRANCH   3   4
ENDBRANCH   2   3
ENDBRANCH   1   2
BRANCH   1  11
ATOM     11  C   UNL     1      12.251  30.308  11.612  1.00  0.00    -0.031 C 
ATOM     12  C   UNL     1      12.688  29.347  10.783  1.00  0.00    -0.027 C 
BRANCH  12  13
ATOM     13  C   UNL     1      12.546  29.470   9.291  1.00  0.00     0.054 C 
BRANCH  13  14
ATOM     14  C   UNL     1      11.330  30.281   8.916  1.00  0.00    -0.027 C 
ATOM     15  C   UNL     1      10.272  29.806   8.231  1.00  0.00    -0.031 C 
BRANCH  15  16
ATOM     16  C   UNL     1      10.107  28.373   7.790  1.00  0.00     0.027 C 
BRANCH  16  17
ATOM     17  C   UNL     1       8.659  28.058   7.388  1.00  0.00     0.004 C 
BRANCH  17  18
ATOM     18  C   UNL     1       7.848  27.474   8.555  1.00  0.00     0.000 C 
BRANCH  18  19
ATOM     19  C   UNL     1       6.614  28.333   8.851  1.00  0.00    -0.003 C 
ATOM     20  C   UNL     1       6.476  29.467   7.839  1.00  0.00     0.004 C 
ENDBRANCH  18  19
ENDBRANCH  17  18
ENDBRANCH  16  17
ENDBRANCH  15  16
ENDBRANCH  13  14
ENDBRANCH  12  13
ENDBRANCH   1  11
TORSDOF 14
ENDMDL
MODEL 9
REMARK VINA RESULT:    -3.477      2.451      5.519
REMARK INTER + INTRA:          -9.145
REMARK INTER:                  -6.213
REMARK INTRA:                  -2.932
REMARK UNBOUND:                -2.822
REMARK SMILES CCCCCC=CCC=CCCCCCCCC(=O)[O-]
REMARK SMILES IDX 11 1 12 2 13 3 14 4 15 5 16 6 17 7 18 8 19 9 20 10 10 11
REMARK SMILES IDX 9 12 8 13 7 14 6 15 5 16 4 17 3 18 2 19 1 20
REMARK H PARENT
REMARK Flexibility Score: inf
ROOT
ATOM      1  C   UNL     1      12.809  29.438  10.644  1.00  0.00     0.027 C 
ENDROOT
BRANCH   1   2
ATOM      2  C   UNL     1      12.101  30.439  11.576  1.00  0.00     0.004 C 
BRANCH   2   3
ATOM      3  C   UNL     1      12.674  30.502  13.008  1.00  0.00     0.000 C 
BRANCH   3   4
ATOM      4  C   UNL     1      11.625  30.452  14.133  1.00  0.00     0.000 C 
BRANCH   4   5
ATOM      5  C   UNL     1      10.428  31.384  13.873  1.00  0.00     0.000 C 
BRANCH   5   6
ATOM      6  C   UNL     1       9.078  30.668  14.034  1.00  0.00     0.006 C 
BRANCH   6   7
ATOM      7  C   UNL     1       8.504  30.180  12.697  1.00  0.00     0.053 C 
BRANCH   7   8
ATOM      8  C   UNL     1       7.924  28.808  12.847  1.00  0.00     0.041 C 
ATOM      9  O   UNL     1       8.299  28.062  13.790  1.00  0.00    -0.550 OA
ATOM     10  O   UNL     1       7.003  28.339  11.921  1.00  0.00    -0.550 OA
ENDBRANCH   7   8
ENDBRANCH   6   7
ENDBRANCH   5   6
ENDBRANCH   4   5
ENDBRANCH   3   4
ENDBRANCH   2   3
ENDBRANCH   1   2
BRANCH   1  11
ATOM     11  C   UNL     1      11.957  28.239  10.326  1.00  0.00    -0.031 C 
ATOM     12  C   UNL     1      10.977  27.834  11.149  1.00  0.00    -0.027 C 
BRANCH  12  13
ATOM     13  C   UNL     1      10.167  26.600  10.862  1.00  0.00     0.054 C 
BRANCH  13  14
ATOM     14  C   UNL     1      10.320  26.160   9.427  1.00  0.00    -0.027 C 
ATOM     15  C   UNL     1       9.391  26.332   8.467  1.00  0.00    -0.031 C 
BRANCH  15  16
ATOM     16  C   UNL     1       8.080  27.054   8.661  1.00  0.00     0.027 C 
BRANCH  16  17
ATOM     17  C   UNL     1       8.093  28.451   8.022  1.00  0.00     0.004 C 
BRANCH  17  18
ATOM     18  C   UNL     1       8.598  29.527   8.995  1.00  0.00     0.000 C 
BRANCH  18  19
ATOM     19  C   UNL     1       9.636  30.432   8.322  1.00  0.00    -0.003 C 
ATOM     20  C   UNL     1      10.466  29.657   7.303  1.00  0.00     0.004 C 
ENDBRANCH  18  19
ENDBRANCH  17  18
ENDBRANCH  16  17
ENDBRANCH  15  16
ENDBRANCH  13  14
ENDBRANCH  12  13
ENDBRANCH   1  11
TORSDOF 14
ENDMDL
