MODEL 1
REMARK VINA RESULT:     5.818      0.000      0.000
REMARK INTER + INTRA:           6.183
REMARK INTER:                   7.349
REMARK INTRA:                  -1.166
REMARK UNBOUND:                -1.166
REMARK SMILES O=C(C=Cc1ccc(O)cc1)c1ccc(O)cc1O
REMARK SMILES IDX 4 1 3 2 5 3 6 4 7 5 8 6 11 7 10 8 9 9 2 11 1 12 12 13 18 14
REMARK SMILES IDX 13 15 17 16 14 17 15 18 19 19 16 21
REMARK H PARENT 9 10 19 20 16 22
REMARK Flexibility Score: inf
ROOT
ATOM      1  C   UNL     1      28.239  30.909   1.298  1.00  0.00     0.012 C 
ATOM      2  C   UNL     1      26.962  30.518   1.443  1.00  0.00     0.053 C 
ENDROOT
BRANCH   1   3
ATOM      3  C   UNL     1      29.342  30.598   2.231  1.00  0.00    -0.025 A 
ATOM      4  C   UNL     1      30.254  29.563   1.962  1.00  0.00     0.012 A 
ATOM      5  C   UNL     1      31.261  29.253   2.882  1.00  0.00     0.047 A 
ATOM      6  C   UNL     1      31.350  29.959   4.089  1.00  0.00     0.115 A 
ATOM      7  C   UNL     1      29.419  31.280   3.455  1.00  0.00     0.012 A 
ATOM      8  C   UNL     1      30.427  30.969   4.374  1.00  0.00     0.047 A 
BRANCH   6   9
ATOM      9  O   UNL     1      32.350  29.661   5.013  1.00  0.00    -0.508 OA
ATOM     10  H   UNL     1      32.222  29.830   6.004  1.00  0.00     0.293 HD
ENDBRANCH   6   9
ENDBRANCH   1   3
BRANCH   2  11
ATOM     11  C   UNL     1      26.472  29.554   2.460  1.00  0.00     0.189 C 
ATOM     12  O   UNL     1      25.899  29.973   3.501  1.00  0.00    -0.289 OA
BRANCH  11  13
ATOM     13  C   UNL     1      26.677  28.096   2.291  1.00  0.00     0.064 A 
ATOM     14  C   UNL     1      27.183  27.319   3.356  1.00  0.00     0.130 A 
ATOM     15  C   UNL     1      26.391  27.468   1.064  1.00  0.00     0.020 A 
ATOM     16  C   UNL     1      27.387  25.942   3.183  1.00  0.00     0.093 A 
ATOM     17  C   UNL     1      26.596  26.096   0.904  1.00  0.00     0.047 A 
ATOM     18  C   UNL     1      27.094  25.329   1.962  1.00  0.00     0.119 A 
BRANCH  14  19
ATOM     19  O   UNL     1      27.467  27.911   4.587  1.00  0.00    -0.507 OA
ATOM     20  H   UNL     1      26.734  28.146   5.246  1.00  0.00     0.293 HD
ENDBRANCH  14  19
BRANCH  18  21
ATOM     21  O   UNL     1      27.302  23.960   1.813  1.00  0.00    -0.508 OA
ATOM     22  H   UNL     1      28.049  23.598   1.231  1.00  0.00     0.293 HD
ENDBRANCH  18  21
ENDBRANCH  11  13
ENDBRANCH   2  11
TORSDOF 6
ENDMDL
MODEL 2
REMARK VINA RESULT:     6.621      1.358      5.182
REMARK INTER + INTRA:           7.198
REMARK INTER:                   8.493
REMARK INTRA:                  -1.295
REMARK UNBOUND:                -1.166
REMARK SMILES O=C(C=Cc1ccc(O)cc1)c1ccc(O)cc1O
REMARK SMILES IDX 4 1 3 2 5 3 6 4 7 5 8 6 11 7 10 8 9 9 2 11 1 12 12 13 18 14
REMARK SMILES IDX 13 15 17 16 14 17 15 18 19 19 16 21
REMARK H PARENT 9 10 19 20 16 22
REMARK Flexibility Score: inf
ROOT
ATOM      1  C   UNL     1      25.839  29.180   3.317  1.00  0.00     0.012 C 
ATOM      2  C   UNL     1      26.299  30.379   2.919  1.00  0.00     0.053 C 
ENDROOT
BRANCH   1   3
ATOM      3  C   UNL     1      26.313  27.873   2.818  1.00  0.00    -0.025 A 
ATOM      4  C   UNL     1      25.817  27.327   1.621  1.00  0.00     0.012 A 
ATOM      5  C   UNL     1      26.243  26.066   1.191  1.00  0.00     0.047 A 
ATOM      6  C   UNL     1      27.150  25.330   1.965  1.00  0.00     0.115 A 
ATOM      7  C   UNL     1      27.197  27.117   3.602  1.00  0.00     0.012 A 
ATOM      8  C   UNL     1      27.621  25.856   3.171  1.00  0.00     0.047 A 
BRANCH   6   9
ATOM      9  O   UNL     1      27.583  24.073   1.547  1.00  0.00    -0.508 OA
ATOM     10  H   UNL     1      26.928  23.359   1.250  1.00  0.00     0.293 HD
ENDBRANCH   6   9
ENDBRANCH   1   3
BRANCH   2  11
ATOM     11  C   UNL     1      27.484  30.597   2.053  1.00  0.00     0.189 C 
ATOM     12  O   UNL     1      27.336  31.045   0.883  1.00  0.00    -0.289 OA
BRANCH  11  13
ATOM     13  C   UNL     1      28.848  30.262   2.525  1.00  0.00     0.064 A 
ATOM     14  C   UNL     1      29.568  29.202   1.932  1.00  0.00     0.130 A 
ATOM     15  C   UNL     1      29.437  30.980   3.583  1.00  0.00     0.020 A 
ATOM     16  C   UNL     1      30.853  28.883   2.395  1.00  0.00     0.093 A 
ATOM     17  C   UNL     1      30.718  30.655   4.035  1.00  0.00     0.047 A 
ATOM     18  C   UNL     1      31.430  29.606   3.442  1.00  0.00     0.119 A 
BRANCH  14  19
ATOM     19  O   UNL     1      29.015  28.479   0.876  1.00  0.00    -0.507 OA
ATOM     20  H   UNL     1      29.351  28.584  -0.075  1.00  0.00     0.293 HD
ENDBRANCH  14  19
BRANCH  18  21
ATOM     21  O   UNL     1      32.708  29.274   3.885  1.00  0.00    -0.508 OA
ATOM     22  H   UNL     1      33.394  29.987   4.107  1.00  0.00     0.293 HD
ENDBRANCH  18  21
ENDBRANCH  11  13
ENDBRANCH   2  11
TORSDOF 6
ENDMDL
MODEL 3
REMARK VINA RESULT:     6.650      1.727      4.637
REMARK INTER + INTRA:           7.234
REMARK INTER:                   7.359
REMARK INTRA:                  -0.125
REMARK UNBOUND:                -1.166
REMARK SMILES O=C(C=Cc1ccc(O)cc1)c1ccc(O)cc1O
REMARK SMILES IDX 4 1 3 2 5 3 6 4 7 5 8 6 11 7 10 8 9 9 2 11 1 12 12 13 18 14
REMARK SMILES IDX 13 15 17 16 14 17 15 18 19 19 16 21
REMARK H PARENT 9 10 19 20 16 22
REMARK Flexibility Score: inf
ROOT
ATOM      1  C   UNL     1      26.628  29.969   3.105  1.00  0.00     0.012 C 
ATOM      2  C   UNL     1      27.364  30.999   2.656  1.00  0.00     0.053 C 
ENDROOT
BRANCH   1   3
ATOM      3  C   UNL     1      26.786  28.559   2.692  1.00  0.00    -0.025 A 
ATOM      4  C   UNL     1      26.609  28.167   1.354  1.00  0.00     0.012 A 
ATOM      5  C   UNL     1      26.716  26.820   0.993  1.00  0.00     0.047 A 
ATOM      6  C   UNL     1      26.977  25.850   1.970  1.00  0.00     0.115 A 
ATOM      7  C   UNL     1      27.018  27.579   3.669  1.00  0.00     0.012 A 
ATOM      8  C   UNL     1      27.124  26.232   3.307  1.00  0.00     0.047 A 
BRANCH   6   9
ATOM      9  O   UNL     1      27.087  24.505   1.623  1.00  0.00    -0.508 OA
ATOM     10  H   UNL     1      27.926  23.974   1.823  1.00  0.00     0.293 HD
ENDBRANCH   6   9
ENDBRANCH   1   3
BRANCH   2  11
ATOM     11  C   UNL     1      28.580  30.880   1.813  1.00  0.00     0.189 C 
ATOM     12  O   UNL     1      28.780  31.698   0.875  1.00  0.00    -0.289 OA
BRANCH  11  13
ATOM     13  C   UNL     1      29.556  29.786   2.030  1.00  0.00     0.064 A 
ATOM     14  C   UNL     1      30.422  29.813   3.144  1.00  0.00     0.130 A 
ATOM     15  C   UNL     1      29.647  28.716   1.119  1.00  0.00     0.020 A 
ATOM     16  C   UNL     1      31.353  28.781   3.333  1.00  0.00     0.093 A 
ATOM     17  C   UNL     1      30.576  27.692   1.319  1.00  0.00     0.047 A 
ATOM     18  C   UNL     1      31.431  27.721   2.426  1.00  0.00     0.119 A 
BRANCH  14  19
ATOM     19  O   UNL     1      30.348  30.855   4.068  1.00  0.00    -0.507 OA
ATOM     20  H   UNL     1      29.704  31.628   3.948  1.00  0.00     0.293 HD
ENDBRANCH  14  19
BRANCH  18  21
ATOM     21  O   UNL     1      32.361  26.705   2.634  1.00  0.00    -0.508 OA
ATOM     22  H   UNL     1      32.071  25.747   2.795  1.00  0.00     0.293 HD
ENDBRANCH  18  21
ENDBRANCH  11  13
ENDBRANCH   2  11
TORSDOF 6
ENDMDL
