MODEL 1
REMARK VINA RESULT:    -4.475      0.000      0.000
REMARK INTER + INTRA:          -6.894
REMARK INTER:                  -6.568
REMARK INTRA:                  -0.326
REMARK UNBOUND:                -0.326
REMARK SMILES O=C([O-])CCCCCCCC(=O)[O-]
REMARK SMILES IDX 7 1 6 2 5 3 4 4 2 5 1 6 3 7 8 8 9 9 10 10 11 11 12 12 13 13
REMARK H PARENT
REMARK Flexibility Score: inf
ROOT
ATOM      1  C   UNL     1       1.980  24.823  48.140  1.00  0.00     0.000 C 
ENDROOT
BRANCH   1   2
ATOM      2  C   UNL     1       0.920  24.492  47.073  1.00  0.00     0.000 C 
BRANCH   2   3
ATOM      3  C   UNL     1       1.481  24.117  45.688  1.00  0.00     0.006 C 
BRANCH   3   4
ATOM      4  C   UNL     1       2.396  22.886  45.726  1.00  0.00     0.053 C 
BRANCH   4   5
ATOM      5  C   UNL     1       2.715  22.430  44.338  1.00  0.00     0.041 C 
ATOM      6  O   UNL     1       3.791  22.784  43.785  1.00  0.00    -0.550 OA
ATOM      7  O   UNL     1       1.849  21.574  43.669  1.00  0.00    -0.550 OA
ENDBRANCH   4   5
ENDBRANCH   3   4
ENDBRANCH   2   3
ENDBRANCH   1   2
BRANCH   1   8
ATOM      8  C   UNL     1       1.684  24.170  49.500  1.00  0.00     0.000 C 
BRANCH   8   9
ATOM      9  C   UNL     1       2.804  23.214  49.957  1.00  0.00     0.006 C 
BRANCH   9  10
ATOM     10  C   UNL     1       2.306  21.973  50.716  1.00  0.00     0.053 C 
BRANCH  10  11
ATOM     11  C   UNL     1       3.168  21.651  51.897  1.00  0.00     0.041 C 
ATOM     12  O   UNL     1       3.712  22.577  52.555  1.00  0.00    -0.550 OA
ATOM     13  O   UNL     1       3.398  20.328  52.252  1.00  0.00    -0.550 OA
ENDBRANCH  10  11
ENDBRANCH   9  10
ENDBRANCH   8   9
ENDBRANCH   1   8
TORSDOF 8
ENDMDL
MODEL 2
REMARK VINA RESULT:    -4.450      0.816      6.509
REMARK INTER + INTRA:          -6.857
REMARK INTER:                  -6.603
REMARK INTRA:                  -0.253
REMARK UNBOUND:                -0.326
REMARK SMILES O=C([O-])CCCCCCCC(=O)[O-]
REMARK SMILES IDX 7 1 6 2 5 3 4 4 2 5 1 6 3 7 8 8 9 9 10 10 11 11 12 12 13 13
REMARK H PARENT
REMARK Flexibility Score: inf
ROOT
ATOM      1  C   UNL     1       1.955  24.088  48.317  1.00  0.00     0.000 C 
ENDROOT
BRANCH   1   2
ATOM      2  C   UNL     1       1.526  24.479  49.744  1.00  0.00     0.000 C 
BRANCH   2   3
ATOM      3  C   UNL     1       1.395  23.305  50.733  1.00  0.00     0.006 C 
BRANCH   3   4
ATOM      4  C   UNL     1       2.727  22.590  50.994  1.00  0.00     0.053 C 
BRANCH   4   5
ATOM      5  C   UNL     1       2.600  21.660  52.159  1.00  0.00     0.041 C 
ATOM      6  O   UNL     1       1.820  21.937  53.109  1.00  0.00    -0.550 OA
ATOM      7  O   UNL     1       3.306  20.463  52.174  1.00  0.00    -0.550 OA
ENDBRANCH   4   5
ENDBRANCH   3   4
ENDBRANCH   2   3
ENDBRANCH   1   2
BRANCH   1   8
ATOM      8  C   UNL     1       1.017  24.649  47.235  1.00  0.00     0.000 C 
BRANCH   8   9
ATOM      9  C   UNL     1       1.299  24.059  45.840  1.00  0.00     0.006 C 
BRANCH   9  10
ATOM     10  C   UNL     1       2.364  22.951  45.823  1.00  0.00     0.053 C 
BRANCH  10  11
ATOM     11  C   UNL     1       2.682  22.495  44.432  1.00  0.00     0.041 C 
ATOM     12  O   UNL     1       3.752  22.858  43.876  1.00  0.00    -0.550 OA
ATOM     13  O   UNL     1       1.782  21.697  43.739  1.00  0.00    -0.550 OA
ENDBRANCH  10  11
ENDBRANCH   9  10
ENDBRANCH   8   9
ENDBRANCH   1   8
TORSDOF 8
ENDMDL
MODEL 3
REMARK VINA RESULT:    -4.450      1.610      2.315
REMARK INTER + INTRA:          -6.856
REMARK INTER:                  -6.617
REMARK INTRA:                  -0.240
REMARK UNBOUND:                -0.326
REMARK SMILES O=C([O-])CCCCCCCC(=O)[O-]
REMARK SMILES IDX 7 1 6 2 5 3 4 4 2 5 1 6 3 7 8 8 9 9 10 10 11 11 12 12 13 13
REMARK H PARENT
REMARK Flexibility Score: inf
ROOT
ATOM      1  C   UNL     1       0.923  24.452  46.745  1.00  0.00     0.000 C 
ENDROOT
BRANCH   1   2
ATOM      2  C   UNL     1       2.029  24.306  45.683  1.00  0.00     0.000 C 
BRANCH   2   3
ATOM      3  C   UNL     1       2.414  22.856  45.334  1.00  0.00     0.006 C 
BRANCH   3   4
ATOM      4  C   UNL     1       3.142  22.738  43.988  1.00  0.00     0.053 C 
BRANCH   4   5
ATOM      5  C   UNL     1       2.338  21.918  43.030  1.00  0.00     0.041 C 
ATOM      6  O   UNL     1       1.374  21.221  43.446  1.00  0.00    -0.550 OA
ATOM      7  O   UNL     1       2.620  21.960  41.670  1.00  0.00    -0.550 OA
ENDBRANCH   4   5
ENDBRANCH   3   4
ENDBRANCH   2   3
ENDBRANCH   1   2
BRANCH   1   8
ATOM      8  C   UNL     1       1.426  25.089  48.051  1.00  0.00     0.000 C 
BRANCH   8   9
ATOM      9  C   UNL     1       1.853  24.042  49.098  1.00  0.00     0.006 C 
BRANCH   9  10
ATOM     10  C   UNL     1       1.258  24.267  50.498  1.00  0.00     0.053 C 
BRANCH  10  11
ATOM     11  C   UNL     1       1.035  22.979  51.228  1.00  0.00     0.041 C 
ATOM     12  O   UNL     1       1.990  22.178  51.407  1.00  0.00    -0.550 OA
ATOM     13  O   UNL     1      -0.235  22.647  51.682  1.00  0.00    -0.550 OA
ENDBRANCH  10  11
ENDBRANCH   9  10
ENDBRANCH   8   9
ENDBRANCH   1   8
TORSDOF 8
ENDMDL
MODEL 4
REMARK VINA RESULT:    -4.435      1.064      1.574
REMARK INTER + INTRA:          -6.835
REMARK INTER:                  -6.360
REMARK INTRA:                  -0.476
REMARK UNBOUND:                -0.326
REMARK SMILES O=C([O-])CCCCCCCC(=O)[O-]
REMARK SMILES IDX 7 1 6 2 5 3 4 4 2 5 1 6 3 7 8 8 9 9 10 10 11 11 12 12 13 13
REMARK H PARENT
REMARK Flexibility Score: inf
ROOT
ATOM      1  C   UNL     1       1.952  25.617  47.705  1.00  0.00     0.000 C 
ENDROOT
BRANCH   1   2
ATOM      2  C   UNL     1       0.910  24.638  47.134  1.00  0.00     0.000 C 
BRANCH   2   3
ATOM      3  C   UNL     1       1.257  24.043  45.756  1.00  0.00     0.006 C 
BRANCH   3   4
ATOM      4  C   UNL     1       2.363  22.982  45.823  1.00  0.00     0.053 C 
BRANCH   4   5
ATOM      5  C   UNL     1       2.668  22.460  44.455  1.00  0.00     0.041 C 
ATOM      6  O   UNL     1       1.838  21.725  43.856  1.00  0.00    -0.550 OA
ATOM      7  O   UNL     1       3.849  22.825  43.819  1.00  0.00    -0.550 OA
ENDBRANCH   4   5
ENDBRANCH   3   4
ENDBRANCH   2   3
ENDBRANCH   1   2
BRANCH   1   8
ATOM      8  C   UNL     1       2.322  25.313  49.167  1.00  0.00     0.000 C 
BRANCH   8   9
ATOM      9  C   UNL     1       1.601  24.067  49.716  1.00  0.00     0.006 C 
BRANCH   9  10
ATOM     10  C   UNL     1       2.538  22.912  50.107  1.00  0.00     0.053 C 
BRANCH  10  11
ATOM     11  C   UNL     1       2.048  22.172  51.313  1.00  0.00     0.041 C 
ATOM     12  O   UNL     1       2.842  21.466  51.989  1.00  0.00    -0.550 OA
ATOM     13  O   UNL     1       0.707  22.233  51.670  1.00  0.00    -0.550 OA
ENDBRANCH  10  11
ENDBRANCH   9  10
ENDBRANCH   8   9
ENDBRANCH   1   8
TORSDOF 8
ENDMDL
MODEL 5
REMARK VINA RESULT:    -4.336      1.749      6.770
REMARK INTER + INTRA:          -6.690
REMARK INTER:                  -6.389
REMARK INTRA:                  -0.301
REMARK UNBOUND:                -0.326
REMARK SMILES O=C([O-])CCCCCCCC(=O)[O-]
REMARK SMILES IDX 7 1 6 2 5 3 4 4 2 5 1 6 3 7 8 8 9 9 10 10 11 11 12 12 13 13
REMARK H PARENT
REMARK Flexibility Score: inf
ROOT
ATOM      1  C   UNL     1       1.156  24.188  46.523  1.00  0.00     0.000 C 
ENDROOT
BRANCH   1   2
ATOM      2  C   UNL     1       1.845  25.305  47.329  1.00  0.00     0.000 C 
BRANCH   2   3
ATOM      3  C   UNL     1       1.681  25.206  48.858  1.00  0.00     0.006 C 
BRANCH   3   4
ATOM      4  C   UNL     1       2.027  23.816  49.408  1.00  0.00     0.053 C 
BRANCH   4   5
ATOM      5  C   UNL     1       1.370  23.602  50.734  1.00  0.00     0.041 C 
ATOM      6  O   UNL     1       1.483  22.496  51.327  1.00  0.00    -0.550 OA
ATOM      7  O   UNL     1       0.672  24.639  51.341  1.00  0.00    -0.550 OA
ENDBRANCH   4   5
ENDBRANCH   3   4
ENDBRANCH   2   3
ENDBRANCH   1   2
BRANCH   1   8
ATOM      8  C   UNL     1       1.783  23.978  45.134  1.00  0.00     0.000 C 
BRANCH   8   9
ATOM      9  C   UNL     1       2.736  22.769  45.088  1.00  0.00     0.006 C 
BRANCH   9  10
ATOM     10  C   UNL     1       3.390  22.530  43.716  1.00  0.00     0.053 C 
BRANCH  10  11
ATOM     11  C   UNL     1       2.433  21.930  42.733  1.00  0.00     0.041 C 
ATOM     12  O   UNL     1       2.537  22.194  41.506  1.00  0.00    -0.550 OA
ATOM     13  O   UNL     1       1.406  21.107  43.175  1.00  0.00    -0.550 OA
ENDBRANCH  10  11
ENDBRANCH   9  10
ENDBRANCH   8   9
ENDBRANCH   1   8
TORSDOF 8
ENDMDL
MODEL 6
REMARK VINA RESULT:    -4.185      1.485      6.359
REMARK INTER + INTRA:          -6.468
REMARK INTER:                  -6.027
REMARK INTRA:                  -0.441
REMARK UNBOUND:                -0.326
REMARK SMILES O=C([O-])CCCCCCCC(=O)[O-]
REMARK SMILES IDX 7 1 6 2 5 3 4 4 2 5 1 6 3 7 8 8 9 9 10 10 11 11 12 12 13 13
REMARK H PARENT
REMARK Flexibility Score: inf
ROOT
ATOM      1  C   UNL     1       1.388  24.723  50.637  1.00  0.00     0.000 C 
ENDROOT
BRANCH   1   2
ATOM      2  C   UNL     1       0.544  23.773  51.507  1.00  0.00     0.000 C 
BRANCH   2   3
ATOM      3  C   UNL     1       1.042  22.316  51.559  1.00  0.00     0.006 C 
BRANCH   3   4
ATOM      4  C   UNL     1       2.012  22.056  52.719  1.00  0.00     0.053 C 
BRANCH   4   5
ATOM      5  C   UNL     1       3.283  21.453  52.210  1.00  0.00     0.041 C 
ATOM      6  O   UNL     1       3.501  20.220  52.353  1.00  0.00    -0.550 OA
ATOM      7  O   UNL     1       4.206  22.241  51.534  1.00  0.00    -0.550 OA
ENDBRANCH   4   5
ENDBRANCH   3   4
ENDBRANCH   2   3
ENDBRANCH   1   2
BRANCH   1   8
ATOM      8  C   UNL     1       1.875  24.067  49.333  1.00  0.00     0.000 C 
BRANCH   8   9
ATOM      9  C   UNL     1       1.774  25.010  48.119  1.00  0.00     0.006 C 
BRANCH   9  10
ATOM     10  C   UNL     1       0.900  24.474  46.972  1.00  0.00     0.053 C 
BRANCH  10  11
ATOM     11  C   UNL     1       1.722  23.977  45.823  1.00  0.00     0.041 C 
ATOM     12  O   UNL     1       2.319  22.871  45.903  1.00  0.00    -0.550 OA
ATOM     13  O   UNL     1       1.856  24.750  44.677  1.00  0.00    -0.550 OA
ENDBRANCH  10  11
ENDBRANCH   9  10
ENDBRANCH   8   9
ENDBRANCH   1   8
TORSDOF 8
ENDMDL
MODEL 7
REMARK VINA RESULT:    -4.027      1.306      6.157
REMARK INTER + INTRA:          -6.235
REMARK INTER:                  -5.820
REMARK INTRA:                  -0.415
REMARK UNBOUND:                -0.326
REMARK SMILES O=C([O-])CCCCCCCC(=O)[O-]
REMARK SMILES IDX 7 1 6 2 5 3 4 4 2 5 1 6 3 7 8 8 9 9 10 10 11 11 12 12 13 13
REMARK H PARENT
REMARK Flexibility Score: inf
ROOT
ATOM      1  C   UNL     1       1.989  25.659  47.592  1.00  0.00     0.000 C 
ENDROOT
BRANCH   1   2
ATOM      2  C   UNL     1       1.829  25.891  49.106  1.00  0.00     0.000 C 
BRANCH   2   3
ATOM      3  C   UNL     1       1.092  24.772  49.865  1.00  0.00     0.006 C 
BRANCH   3   4
ATOM      4  C   UNL     1       1.907  24.204  51.035  1.00  0.00     0.053 C 
BRANCH   4   5
ATOM      5  C   UNL     1       2.375  22.819  50.720  1.00  0.00     0.041 C 
ATOM      6  O   UNL     1       2.148  21.875  51.522  1.00  0.00    -0.550 OA
ATOM      7  O   UNL     1       3.021  22.559  49.517  1.00  0.00    -0.550 OA
ENDBRANCH   4   5
ENDBRANCH   3   4
ENDBRANCH   2   3
ENDBRANCH   1   2
BRANCH   1   8
ATOM      8  C   UNL     1       1.263  24.397  47.099  1.00  0.00     0.000 C 
BRANCH   8   9
ATOM      9  C   UNL     1       1.574  24.067  45.627  1.00  0.00     0.006 C 
BRANCH   9  10
ATOM     10  C   UNL     1       2.371  22.768  45.423  1.00  0.00     0.053 C 
BRANCH  10  11
ATOM     11  C   UNL     1       2.370  22.325  43.992  1.00  0.00     0.041 C 
ATOM     12  O   UNL     1       1.601  21.402  43.615  1.00  0.00    -0.550 OA
ATOM     13  O   UNL     1       3.242  22.908  43.082  1.00  0.00    -0.550 OA
ENDBRANCH  10  11
ENDBRANCH   9  10
ENDBRANCH   8   9
ENDBRANCH   1   8
TORSDOF 8
ENDMDL
MODEL 8
REMARK VINA RESULT:    -3.914      5.421      7.514
REMARK INTER + INTRA:          -6.070
REMARK INTER:                  -5.482
REMARK INTRA:                  -0.588
REMARK UNBOUND:                -0.326
REMARK SMILES O=C([O-])CCCCCCCC(=O)[O-]
REMARK SMILES IDX 7 1 6 2 5 3 4 4 2 5 1 6 3 7 8 8 9 9 10 10 11 11 12 12 13 13
REMARK H PARENT
REMARK Flexibility Score: inf
ROOT
ATOM      1  C   UNL     1      -1.198  25.706  55.080  1.00  0.00     0.000 C 
ENDROOT
BRANCH   1   2
ATOM      2  C   UNL     1      -0.259  25.671  53.859  1.00  0.00     0.000 C 
BRANCH   2   3
ATOM      3  C   UNL     1       0.600  24.399  53.731  1.00  0.00     0.006 C 
BRANCH   3   4
ATOM      4  C   UNL     1       0.356  23.641  52.420  1.00  0.00     0.053 C 
BRANCH   4   5
ATOM      5  C   UNL     1       1.382  22.568  52.239  1.00  0.00     0.041 C 
ATOM      6  O   UNL     1       1.838  21.951  53.238  1.00  0.00    -0.550 OA
ATOM      7  O   UNL     1       1.801  22.214  50.962  1.00  0.00    -0.550 OA
ENDBRANCH   4   5
ENDBRANCH   3   4
ENDBRANCH   2   3
ENDBRANCH   1   2
BRANCH   1   8
ATOM      8  C   UNL     1      -2.173  24.518  55.119  1.00  0.00     0.000 C 
BRANCH   8   9
ATOM      9  C   UNL     1      -2.127  23.754  56.457  1.00  0.00     0.006 C 
BRANCH   9  10
ATOM     10  C   UNL     1      -0.943  24.132  57.361  1.00  0.00     0.053 C 
BRANCH  10  11
ATOM     11  C   UNL     1      -0.034  22.969  57.617  1.00  0.00     0.041 C 
ATOM     12  O   UNL     1       0.188  22.586  58.796  1.00  0.00    -0.550 OA
ATOM     13  O   UNL     1       0.593  22.330  56.556  1.00  0.00    -0.550 OA
ENDBRANCH  10  11
ENDBRANCH   9  10
ENDBRANCH   8   9
ENDBRANCH   1   8
TORSDOF 8
ENDMDL
MODEL 9
REMARK VINA RESULT:    -3.902      2.619      4.001
REMARK INTER + INTRA:          -6.053
REMARK INTER:                  -5.288
REMARK INTRA:                  -0.765
REMARK UNBOUND:                -0.326
REMARK SMILES O=C([O-])CCCCCCCC(=O)[O-]
REMARK SMILES IDX 7 1 6 2 5 3 4 4 2 5 1 6 3 7 8 8 9 9 10 10 11 11 12 12 13 13
REMARK H PARENT
REMARK Flexibility Score: inf
ROOT
ATOM      1  C   UNL     1       1.381  22.274  51.432  1.00  0.00     0.000 C 
ENDROOT
BRANCH   1   2
ATOM      2  C   UNL     1       0.896  23.736  51.447  1.00  0.00     0.000 C 
BRANCH   2   3
ATOM      3  C   UNL     1       1.524  24.645  50.374  1.00  0.00     0.006 C 
BRANCH   3   4
ATOM      4  C   UNL     1       2.014  23.869  49.144  1.00  0.00     0.053 C 
BRANCH   4   5
ATOM      5  C   UNL     1       1.495  24.498  47.890  1.00  0.00     0.041 C 
ATOM      6  O   UNL     1       1.604  23.898  46.788  1.00  0.00    -0.550 OA
ATOM      7  O   UNL     1       0.846  25.725  47.944  1.00  0.00    -0.550 OA
ENDBRANCH   4   5
ENDBRANCH   3   4
ENDBRANCH   2   3
ENDBRANCH   1   2
BRANCH   1   8
ATOM      8  C   UNL     1       2.299  21.935  52.618  1.00  0.00     0.000 C 
BRANCH   8   9
ATOM      9  C   UNL     1       3.716  21.522  52.176  1.00  0.00     0.006 C 
BRANCH   9  10
ATOM     10  C   UNL     1       4.585  22.683  51.666  1.00  0.00     0.053 C 
BRANCH  10  11
ATOM     11  C   UNL     1       4.826  23.713  52.726  1.00  0.00     0.041 C 
ATOM     12  O   UNL     1       5.576  23.452  53.704  1.00  0.00    -0.550 OA
ATOM     13  O   UNL     1       4.198  24.949  52.652  1.00  0.00    -0.550 OA
ENDBRANCH  10  11
ENDBRANCH   9  10
ENDBRANCH   8   9
ENDBRANCH   1   8
TORSDOF 8
ENDMDL
