MODEL 1
REMARK VINA RESULT:    -6.949      0.000      0.000
REMARK INTER + INTRA:          -8.630
REMARK INTER:                  -8.168
REMARK INTRA:                  -0.463
REMARK UNBOUND:                -0.463
REMARK SMILES C=C(C)[C@H]1CC[C@]2(CO)CC[C@@]3(C)[C@H](CC[C@@H]4[C@@]5(C)CC[C@H](O)C(C)(C)[C@H]5CC[C@]43C)[C@@H]12
REMARK SMILES IDX 4 1 5 2 6 3 7 4 32 5 14 6 15 7 16 8 17 9 18 10 20 11 21 12
REMARK SMILES IDX 22 13 24 14 27 15 28 16 29 17 30 18 12 19 11 20 10 21 13 22
REMARK SMILES IDX 31 23 25 24 26 25 19 26 2 27 3 28 1 29 8 30 9 31 23 33
REMARK H PARENT 9 32 23 34
REMARK Flexibility Score: inf
ROOT
ATOM      1  C   UNL     1      18.116   0.153 -18.091  1.00  0.00     0.018 C 
ATOM      2  C   UNL     1      16.786   0.938 -18.145  1.00  0.00     0.009 C 
ATOM      3  C   UNL     1      16.359   1.186 -16.687  1.00  0.00     0.010 C 
ATOM      4  C   UNL     1      16.999   0.040 -15.872  1.00  0.00    -0.003 C 
ATOM      5  C   UNL     1      18.362  -0.062 -16.572  1.00  0.00     0.008 C 
ATOM      6  C   UNL     1      19.371  -1.090 -15.961  1.00  0.00    -0.000 C 
ATOM      7  C   UNL     1      20.696  -1.042 -16.755  1.00  0.00     0.005 C 
ATOM      8  C   UNL     1      21.525   0.187 -16.415  1.00  0.00     0.005 C 
ATOM      9  C   UNL     1      21.887   0.299 -14.902  1.00  0.00     0.002 C 
ATOM     10  C   UNL     1      23.451   0.500 -14.627  1.00  0.00    -0.026 C 
ATOM     11  C   UNL     1      23.816   1.972 -15.047  1.00  0.00     0.010 C 
ATOM     12  C   UNL     1      23.693   2.958 -13.886  1.00  0.00     0.033 C 
ATOM     13  C   UNL     1      24.732   2.688 -12.781  1.00  0.00     0.120 C 
ATOM     14  C   UNL     1      25.078   1.160 -12.598  1.00  0.00    -0.006 C 
ATOM     15  C   UNL     1      23.871   0.249 -13.098  1.00  0.00     0.003 C 
ATOM     16  C   UNL     1      22.698   0.265 -12.065  1.00  0.00     0.005 C 
ATOM     17  C   UNL     1      21.269  -0.073 -12.532  1.00  0.00     0.008 C 
ATOM     18  C   UNL     1      21.131  -0.709 -13.950  1.00  0.00    -0.024 C 
ATOM     19  C   UNL     1      19.558  -0.880 -14.370  1.00  0.00    -0.024 C 
ATOM     20  C   UNL     1      18.684   0.347 -13.874  1.00  0.00     0.008 C 
ATOM     21  C   UNL     1      17.206   0.393 -14.365  1.00  0.00     0.010 C 
ATOM     22  C   UNL     1      18.972  -2.122 -13.616  1.00  0.00     0.012 C 
ATOM     23  C   UNL     1      21.809  -2.125 -13.888  1.00  0.00     0.012 C 
ATOM     24  C   UNL     1      26.393   0.779 -13.340  1.00  0.00     0.014 C 
ATOM     25  C   UNL     1      25.387   0.895 -11.094  1.00  0.00     0.014 C 
ATOM     26  C   UNL     1      24.275  -0.474 -15.543  1.00  0.00     0.012 C 
ENDROOT
BRANCH   1  27
ATOM     27  C   UNL     1      18.128  -1.025 -19.069  1.00  0.00    -0.077 C 
ATOM     28  C   UNL     1      19.131  -0.996 -20.197  1.00  0.00     0.039 C 
ATOM     29  C   UNL     1      17.266  -2.051 -19.036  1.00  0.00     0.008 C 
ENDBRANCH   1  27
BRANCH   4  30
ATOM     30  C   UNL     1      16.047  -1.193 -16.025  1.00  0.00     0.163 C 
BRANCH  30  31
ATOM     31  O   UNL     1      14.820  -1.011 -15.384  1.00  0.00    -0.396 OA
ATOM     32  H   UNL     1      14.211  -0.602 -16.053  1.00  0.00     0.210 HD
ENDBRANCH  30  31
ENDBRANCH   4  30
BRANCH  13  33
ATOM     33  O   UNL     1      25.887   3.447 -13.045  1.00  0.00    -0.393 OA
ATOM     34  H   UNL     1      26.124   3.918 -12.204  1.00  0.00     0.210 HD
ENDBRANCH  13  33
TORSDOF 4
ENDMDL
MODEL 2
REMARK VINA RESULT:    -5.965      4.362      9.562
REMARK INTER + INTRA:          -7.474
REMARK INTER:                  -6.931
REMARK INTRA:                  -0.543
REMARK UNBOUND:                -0.463
REMARK SMILES C=C(C)[C@H]1CC[C@]2(CO)CC[C@@]3(C)[C@H](CC[C@@H]4[C@@]5(C)CC[C@H](O)C(C)(C)[C@H]5CC[C@]43C)[C@@H]12
REMARK SMILES IDX 4 1 5 2 6 3 7 4 32 5 14 6 15 7 16 8 17 9 18 10 20 11 21 12
REMARK SMILES IDX 22 13 24 14 27 15 28 16 29 17 30 18 12 19 11 20 10 21 13 22
REMARK SMILES IDX 31 23 25 24 26 25 19 26 2 27 3 28 1 29 8 30 9 31 23 33
REMARK H PARENT 9 32 23 34
REMARK Flexibility Score: inf
ROOT
ATOM      1  C   UNL     1      29.281   4.997 -17.172  1.00  0.00     0.018 C 
ATOM      2  C   UNL     1      30.786   4.962 -16.819  1.00  0.00     0.009 C 
ATOM      3  C   UNL     1      30.878   4.809 -15.290  1.00  0.00     0.010 C 
ATOM      4  C   UNL     1      29.569   5.416 -14.738  1.00  0.00    -0.003 C 
ATOM      5  C   UNL     1      28.572   4.916 -15.793  1.00  0.00     0.008 C 
ATOM      6  C   UNL     1      27.068   5.261 -15.532  1.00  0.00    -0.000 C 
ATOM      7  C   UNL     1      26.201   4.658 -16.660  1.00  0.00     0.005 C 
ATOM      8  C   UNL     1      26.026   3.155 -16.508  1.00  0.00     0.005 C 
ATOM      9  C   UNL     1      25.382   2.732 -15.151  1.00  0.00     0.002 C 
ATOM     10  C   UNL     1      24.110   1.774 -15.312  1.00  0.00    -0.026 C 
ATOM     11  C   UNL     1      24.641   0.359 -15.751  1.00  0.00     0.010 C 
ATOM     12  C   UNL     1      24.921  -0.554 -14.557  1.00  0.00     0.033 C 
ATOM     13  C   UNL     1      23.635  -0.930 -13.798  1.00  0.00     0.120 C 
ATOM     14  C   UNL     1      22.549   0.214 -13.787  1.00  0.00    -0.006 C 
ATOM     15  C   UNL     1      23.235   1.640 -13.974  1.00  0.00     0.003 C 
ATOM     16  C   UNL     1      23.945   2.090 -12.655  1.00  0.00     0.005 C 
ATOM     17  C   UNL     1      25.089   3.120 -12.723  1.00  0.00     0.008 C 
ATOM     18  C   UNL     1      25.264   3.881 -14.074  1.00  0.00    -0.024 C 
ATOM     19  C   UNL     1      26.597   4.831 -14.048  1.00  0.00    -0.024 C 
ATOM     20  C   UNL     1      27.795   4.137 -13.274  1.00  0.00     0.008 C 
ATOM     21  C   UNL     1      29.174   4.860 -13.332  1.00  0.00     0.010 C 
ATOM     22  C   UNL     1      26.275   6.121 -13.218  1.00  0.00     0.012 C 
ATOM     23  C   UNL     1      23.989   4.779 -14.267  1.00  0.00     0.012 C 
ATOM     24  C   UNL     1      21.465  -0.017 -14.881  1.00  0.00     0.014 C 
ATOM     25  C   UNL     1      21.766   0.146 -12.442  1.00  0.00     0.014 C 
ATOM     26  C   UNL     1      23.188   2.314 -16.464  1.00  0.00     0.012 C 
ENDROOT
BRANCH   1  27
ATOM     27  C   UNL     1      28.951   6.112 -18.168  1.00  0.00    -0.077 C 
ATOM     28  C   UNL     1      28.294   5.724 -19.469  1.00  0.00     0.039 C 
ATOM     29  C   UNL     1      29.263   7.405 -17.995  1.00  0.00     0.008 C 
ENDBRANCH   1  27
BRANCH   4  30
ATOM     30  C   UNL     1      29.794   6.964 -14.676  1.00  0.00     0.163 C 
BRANCH  30  31
ATOM     31  O   UNL     1      29.502   7.503 -13.421  1.00  0.00    -0.396 OA
ATOM     32  H   UNL     1      29.880   6.875 -12.751  1.00  0.00     0.210 HD
ENDBRANCH  30  31
ENDBRANCH   4  30
BRANCH  13  33
ATOM     33  O   UNL     1      23.119  -2.122 -14.338  1.00  0.00    -0.393 OA
ATOM     34  H   UNL     1      22.466  -1.865 -15.041  1.00  0.00     0.210 HD
ENDBRANCH  13  33
TORSDOF 4
ENDMDL
MODEL 3
REMARK VINA RESULT:    -5.907      4.159      7.893
REMARK INTER + INTRA:          -7.406
REMARK INTER:                  -6.986
REMARK INTRA:                  -0.420
REMARK UNBOUND:                -0.463
REMARK SMILES C=C(C)[C@H]1CC[C@]2(CO)CC[C@@]3(C)[C@H](CC[C@@H]4[C@@]5(C)CC[C@H](O)C(C)(C)[C@H]5CC[C@]43C)[C@@H]12
REMARK SMILES IDX 4 1 5 2 6 3 7 4 32 5 14 6 15 7 16 8 17 9 18 10 20 11 21 12
REMARK SMILES IDX 22 13 24 14 27 15 28 16 29 17 30 18 12 19 11 20 10 21 13 22
REMARK SMILES IDX 31 23 25 24 26 25 19 26 2 27 3 28 1 29 8 30 9 31 23 33
REMARK H PARENT 9 32 23 34
REMARK Flexibility Score: inf
ROOT
ATOM      1  C   UNL     1      24.949  -0.149 -12.329  1.00  0.00     0.018 C 
ATOM      2  C   UNL     1      24.029  -1.387 -12.433  1.00  0.00     0.009 C 
ATOM      3  C   UNL     1      23.225  -1.232 -13.737  1.00  0.00     0.010 C 
ATOM      4  C   UNL     1      23.160   0.288 -14.001  1.00  0.00    -0.003 C 
ATOM      5  C   UNL     1      24.579   0.698 -13.577  1.00  0.00     0.008 C 
ATOM      6  C   UNL     1      24.948   2.204 -13.785  1.00  0.00    -0.000 C 
ATOM      7  C   UNL     1      26.411   2.438 -13.346  1.00  0.00     0.005 C 
ATOM      8  C   UNL     1      27.408   1.909 -14.365  1.00  0.00     0.005 C 
ATOM      9  C   UNL     1      27.245   2.534 -15.785  1.00  0.00     0.002 C 
ATOM     10  C   UNL     1      28.599   3.142 -16.381  1.00  0.00    -0.026 C 
ATOM     11  C   UNL     1      29.521   1.931 -16.782  1.00  0.00     0.010 C 
ATOM     12  C   UNL     1      29.316   1.498 -18.234  1.00  0.00     0.033 C 
ATOM     13  C   UNL     1      29.776   2.577 -19.232  1.00  0.00     0.120 C 
ATOM     14  C   UNL     1      29.549   4.051 -18.720  1.00  0.00    -0.006 C 
ATOM     15  C   UNL     1      28.370   4.097 -17.650  1.00  0.00     0.003 C 
ATOM     16  C   UNL     1      26.979   3.964 -18.352  1.00  0.00     0.005 C 
ATOM     17  C   UNL     1      25.768   3.455 -17.547  1.00  0.00     0.008 C 
ATOM     18  C   UNL     1      25.936   3.393 -15.997  1.00  0.00    -0.024 C 
ATOM     19  C   UNL     1      24.632   2.702 -15.289  1.00  0.00    -0.024 C 
ATOM     20  C   UNL     1      24.064   1.501 -16.155  1.00  0.00     0.008 C 
ATOM     21  C   UNL     1      22.935   0.646 -15.505  1.00  0.00     0.010 C 
ATOM     22  C   UNL     1      23.471   3.753 -15.248  1.00  0.00     0.012 C 
ATOM     23  C   UNL     1      26.081   4.872 -15.490  1.00  0.00     0.012 C 
ATOM     24  C   UNL     1      30.854   4.654 -18.120  1.00  0.00     0.014 C 
ATOM     25  C   UNL     1      29.226   4.960 -19.943  1.00  0.00     0.014 C 
ATOM     26  C   UNL     1      29.346   3.958 -15.265  1.00  0.00     0.012 C 
ENDROOT
BRANCH   1  27
ATOM     27  C   UNL     1      24.933   0.462 -10.925  1.00  0.00    -0.077 C 
ATOM     28  C   UNL     1      26.247   0.910 -10.335  1.00  0.00     0.039 C 
ATOM     29  C   UNL     1      23.842   0.568 -10.153  1.00  0.00     0.008 C 
ENDBRANCH   1  27
BRANCH   4  30
ATOM     30  C   UNL     1      21.989   0.838 -13.121  1.00  0.00     0.163 C 
BRANCH  30  31
ATOM     31  O   UNL     1      20.836   0.054 -13.205  1.00  0.00    -0.396 OA
ATOM     32  H   UNL     1      20.312   0.407 -13.972  1.00  0.00     0.210 HD
ENDBRANCH  30  31
ENDBRANCH   4  30
BRANCH  13  33
ATOM     33  O   UNL     1      31.125   2.349 -19.561  1.00  0.00    -0.393 OA
ATOM     34  H   UNL     1      31.669   2.957 -18.994  1.00  0.00     0.210 HD
ENDBRANCH  13  33
TORSDOF 4
ENDMDL
MODEL 4
REMARK VINA RESULT:    -5.877      1.099      1.204
REMARK INTER + INTRA:          -7.371
REMARK INTER:                  -7.415
REMARK INTRA:                   0.044
REMARK UNBOUND:                -0.463
REMARK SMILES C=C(C)[C@H]1CC[C@]2(CO)CC[C@@]3(C)[C@H](CC[C@@H]4[C@@]5(C)CC[C@H](O)C(C)(C)[C@H]5CC[C@]43C)[C@@H]12
REMARK SMILES IDX 4 1 5 2 6 3 7 4 32 5 14 6 15 7 16 8 17 9 18 10 20 11 21 12
REMARK SMILES IDX 22 13 24 14 27 15 28 16 29 17 30 18 12 19 11 20 10 21 13 22
REMARK SMILES IDX 31 23 25 24 26 25 19 26 2 27 3 28 1 29 8 30 9 31 23 33
REMARK H PARENT 9 32 23 34
REMARK Flexibility Score: inf
ROOT
ATOM      1  C   UNL     1      18.661  -0.064 -17.354  1.00  0.00     0.018 C 
ATOM      2  C   UNL     1      17.222   0.489 -17.237  1.00  0.00     0.009 C 
ATOM      3  C   UNL     1      16.940   0.675 -15.735  1.00  0.00     0.010 C 
ATOM      4  C   UNL     1      17.857  -0.341 -15.018  1.00  0.00    -0.003 C 
ATOM      5  C   UNL     1      19.122  -0.222 -15.880  1.00  0.00     0.008 C 
ATOM      6  C   UNL     1      20.355  -1.062 -15.407  1.00  0.00    -0.000 C 
ATOM      7  C   UNL     1      21.546  -0.802 -16.356  1.00  0.00     0.005 C 
ATOM      8  C   UNL     1      22.195   0.551 -16.106  1.00  0.00     0.005 C 
ATOM      9  C   UNL     1      22.716   0.736 -14.647  1.00  0.00     0.002 C 
ATOM     10  C   UNL     1      24.246   1.197 -14.562  1.00  0.00    -0.026 C 
ATOM     11  C   UNL     1      24.308   2.705 -15.007  1.00  0.00     0.010 C 
ATOM     12  C   UNL     1      24.165   3.667 -13.828  1.00  0.00     0.033 C 
ATOM     13  C   UNL     1      25.361   3.583 -12.861  1.00  0.00     0.120 C 
ATOM     14  C   UNL     1      25.975   2.136 -12.739  1.00  0.00    -0.006 C 
ATOM     15  C   UNL     1      24.885   1.032 -13.099  1.00  0.00     0.003 C 
ATOM     16  C   UNL     1      23.861   0.862 -11.930  1.00  0.00     0.005 C 
ATOM     17  C   UNL     1      22.461   0.288 -12.224  1.00  0.00     0.008 C 
ATOM     18  C   UNL     1      22.258  -0.376 -13.622  1.00  0.00    -0.024 C 
ATOM     19  C   UNL     1      20.697  -0.809 -13.849  1.00  0.00    -0.024 C 
ATOM     20  C   UNL     1      19.698   0.260 -13.236  1.00  0.00     0.008 C 
ATOM     21  C   UNL     1      18.184   0.055 -13.543  1.00  0.00     0.010 C 
ATOM     22  C   UNL     1      20.421  -2.125 -13.043  1.00  0.00     0.012 C 
ATOM     23  C   UNL     1      23.165  -1.658 -13.659  1.00  0.00     0.012 C 
ATOM     24  C   UNL     1      27.236   1.972 -13.639  1.00  0.00     0.014 C 
ATOM     25  C   UNL     1      26.506   1.940 -11.287  1.00  0.00     0.014 C 
ATOM     26  C   UNL     1      25.102   0.364 -15.582  1.00  0.00     0.012 C 
ENDROOT
BRANCH   1  27
ATOM     27  C   UNL     1      18.749  -1.232 -18.341  1.00  0.00    -0.077 C 
ATOM     28  C   UNL     1      20.021  -1.390 -19.136  1.00  0.00     0.039 C 
ATOM     29  C   UNL     1      17.750  -2.089 -18.598  1.00  0.00     0.008 C 
ENDBRANCH   1  27
BRANCH   4  30
ATOM     30  C   UNL     1      17.111  -1.717 -15.068  1.00  0.00     0.163 C 
BRANCH  30  31
ATOM     31  O   UNL     1      15.893  -1.646 -15.746  1.00  0.00    -0.396 OA
ATOM     32  H   UNL     1      15.358  -2.427 -15.444  1.00  0.00     0.210 HD
ENDBRANCH  30  31
ENDBRANCH   4  30
BRANCH  13  33
ATOM     33  O   UNL     1      26.333   4.521 -13.255  1.00  0.00    -0.393 OA
ATOM     34  H   UNL     1      25.895   5.412 -13.253  1.00  0.00     0.210 HD
ENDBRANCH  13  33
TORSDOF 4
ENDMDL
MODEL 5
REMARK VINA RESULT:    -5.787      3.866      7.269
REMARK INTER + INTRA:          -7.264
REMARK INTER:                  -6.728
REMARK INTRA:                  -0.537
REMARK UNBOUND:                -0.463
REMARK SMILES C=C(C)[C@H]1CC[C@]2(CO)CC[C@@]3(C)[C@H](CC[C@@H]4[C@@]5(C)CC[C@H](O)C(C)(C)[C@H]5CC[C@]43C)[C@@H]12
REMARK SMILES IDX 4 1 5 2 6 3 7 4 32 5 14 6 15 7 16 8 17 9 18 10 20 11 21 12
REMARK SMILES IDX 22 13 24 14 27 15 28 16 29 17 30 18 12 19 11 20 10 21 13 22
REMARK SMILES IDX 31 23 25 24 26 25 19 26 2 27 3 28 1 29 8 30 9 31 23 33
REMARK H PARENT 9 32 23 34
REMARK Flexibility Score: inf
ROOT
ATOM      1  C   UNL     1      24.123  -0.435 -12.686  1.00  0.00     0.018 C 
ATOM      2  C   UNL     1      24.154  -1.927 -13.088  1.00  0.00     0.009 C 
ATOM      3  C   UNL     1      24.259  -1.969 -14.624  1.00  0.00     0.010 C 
ATOM      4  C   UNL     1      23.630  -0.646 -15.114  1.00  0.00    -0.003 C 
ATOM      5  C   UNL     1      24.159   0.320 -14.043  1.00  0.00     0.008 C 
ATOM      6  C   UNL     1      23.799   1.829 -14.244  1.00  0.00    -0.000 C 
ATOM      7  C   UNL     1      24.433   2.663 -13.108  1.00  0.00     0.005 C 
ATOM      8  C   UNL     1      25.930   2.850 -13.299  1.00  0.00     0.005 C 
ATOM      9  C   UNL     1      26.308   3.540 -14.647  1.00  0.00     0.002 C 
ATOM     10  C   UNL     1      27.265   4.811 -14.474  1.00  0.00    -0.026 C 
ATOM     11  C   UNL     1      28.695   4.274 -14.097  1.00  0.00     0.010 C 
ATOM     12  C   UNL     1      29.572   4.037 -15.326  1.00  0.00     0.033 C 
ATOM     13  C   UNL     1      29.919   5.349 -16.054  1.00  0.00     0.120 C 
ATOM     14  C   UNL     1      28.771   6.428 -15.995  1.00  0.00    -0.006 C 
ATOM     15  C   UNL     1      27.355   5.729 -15.787  1.00  0.00     0.003 C 
ATOM     16  C   UNL     1      26.867   5.060 -17.113  1.00  0.00     0.005 C 
ATOM     17  C   UNL     1      25.844   3.909 -17.052  1.00  0.00     0.008 C 
ATOM     18  C   UNL     1      25.126   3.686 -15.685  1.00  0.00    -0.024 C 
ATOM     19  C   UNL     1      24.181   2.350 -15.724  1.00  0.00    -0.024 C 
ATOM     20  C   UNL     1      24.856   1.181 -16.558  1.00  0.00     0.008 C 
ATOM     21  C   UNL     1      24.141  -0.203 -16.522  1.00  0.00     0.010 C 
ATOM     22  C   UNL     1      22.865   2.692 -16.504  1.00  0.00     0.012 C 
ATOM     23  C   UNL     1      24.229   4.949 -15.423  1.00  0.00     0.012 C 
ATOM     24  C   UNL     1      29.030   7.478 -14.874  1.00  0.00     0.014 C 
ATOM     25  C   UNL     1      28.794   7.255 -17.315  1.00  0.00     0.014 C 
ATOM     26  C   UNL     1      26.757   5.692 -13.277  1.00  0.00     0.012 C 
ENDROOT
BRANCH   1  27
ATOM     27  C   UNL     1      23.037  -0.142 -11.647  1.00  0.00    -0.077 C 
ATOM     28  C   UNL     1      23.456   0.512 -10.353  1.00  0.00     0.039 C 
ATOM     29  C   UNL     1      21.747  -0.485 -11.775  1.00  0.00     0.008 C 
ENDBRANCH   1  27
BRANCH   4  30
ATOM     30  C   UNL     1      22.083  -0.877 -15.136  1.00  0.00     0.163 C 
BRANCH  30  31
ATOM     31  O   UNL     1      21.498  -0.507 -16.349  1.00  0.00    -0.396 OA
ATOM     32  H   UNL     1      20.524  -0.420 -16.176  1.00  0.00     0.210 HD
ENDBRANCH  30  31
ENDBRANCH   4  30
BRANCH  13  33
ATOM     33  O   UNL     1      31.125   5.854 -15.535  1.00  0.00    -0.393 OA
ATOM     34  H   UNL     1      31.798   5.807 -16.264  1.00  0.00     0.210 HD
ENDBRANCH  13  33
TORSDOF 4
ENDMDL
MODEL 6
REMARK VINA RESULT:    -5.782      5.464      8.685
REMARK INTER + INTRA:          -7.258
REMARK INTER:                  -6.786
REMARK INTRA:                  -0.472
REMARK UNBOUND:                -0.463
REMARK SMILES C=C(C)[C@H]1CC[C@]2(CO)CC[C@@]3(C)[C@H](CC[C@@H]4[C@@]5(C)CC[C@H](O)C(C)(C)[C@H]5CC[C@]43C)[C@@H]12
REMARK SMILES IDX 4 1 5 2 6 3 7 4 32 5 14 6 15 7 16 8 17 9 18 10 20 11 21 12
REMARK SMILES IDX 22 13 24 14 27 15 28 16 29 17 30 18 12 19 11 20 10 21 13 22
REMARK SMILES IDX 31 23 25 24 26 25 19 26 2 27 3 28 1 29 8 30 9 31 23 33
REMARK H PARENT 9 32 23 34
REMARK Flexibility Score: inf
ROOT
ATOM      1  C   UNL     1      29.858   3.191 -17.489  1.00  0.00     0.018 C 
ATOM      2  C   UNL     1      30.372   4.634 -17.696  1.00  0.00     0.009 C 
ATOM      3  C   UNL     1      29.188   5.572 -17.400  1.00  0.00     0.010 C 
ATOM      4  C   UNL     1      27.920   4.737 -17.690  1.00  0.00    -0.003 C 
ATOM      5  C   UNL     1      28.358   3.376 -17.129  1.00  0.00     0.008 C 
ATOM      6  C   UNL     1      27.279   2.243 -17.160  1.00  0.00    -0.000 C 
ATOM      7  C   UNL     1      27.865   0.959 -16.531  1.00  0.00     0.005 C 
ATOM      8  C   UNL     1      27.936   1.043 -15.014  1.00  0.00     0.005 C 
ATOM      9  C   UNL     1      26.555   1.303 -14.336  1.00  0.00     0.002 C 
ATOM     10  C   UNL     1      26.197   0.254 -13.182  1.00  0.00    -0.026 C 
ATOM     11  C   UNL     1      27.112   0.585 -11.945  1.00  0.00     0.010 C 
ATOM     12  C   UNL     1      26.451   1.566 -10.977  1.00  0.00     0.033 C 
ATOM     13  C   UNL     1      25.214   0.959 -10.289  1.00  0.00     0.120 C 
ATOM     14  C   UNL     1      24.409  -0.043 -11.203  1.00  0.00    -0.006 C 
ATOM     15  C   UNL     1      24.654   0.285 -12.743  1.00  0.00     0.003 C 
ATOM     16  C   UNL     1      23.855   1.558 -13.173  1.00  0.00     0.005 C 
ATOM     17  C   UNL     1      24.320   2.368 -14.399  1.00  0.00     0.008 C 
ATOM     18  C   UNL     1      25.383   1.692 -15.320  1.00  0.00    -0.024 C 
ATOM     19  C   UNL     1      25.886   2.717 -16.492  1.00  0.00    -0.024 C 
ATOM     20  C   UNL     1      26.016   4.203 -15.953  1.00  0.00     0.008 C 
ATOM     21  C   UNL     1      26.658   5.242 -16.922  1.00  0.00     0.010 C 
ATOM     22  C   UNL     1      24.783   2.787 -17.603  1.00  0.00     0.012 C 
ATOM     23  C   UNL     1      24.693   0.445 -15.981  1.00  0.00     0.012 C 
ATOM     24  C   UNL     1      24.781  -1.523 -10.895  1.00  0.00     0.014 C 
ATOM     25  C   UNL     1      22.896   0.062 -10.847  1.00  0.00     0.014 C 
ATOM     26  C   UNL     1      26.555  -1.199 -13.662  1.00  0.00     0.012 C 
ENDROOT
BRANCH   1  27
ATOM     27  C   UNL     1      30.290   2.259 -18.625  1.00  0.00    -0.077 C 
ATOM     28  C   UNL     1      30.971   0.964 -18.255  1.00  0.00     0.039 C 
ATOM     29  C   UNL     1      30.167   2.540 -19.930  1.00  0.00     0.008 C 
ENDBRANCH   1  27
BRANCH   4  30
ATOM     30  C   UNL     1      27.692   4.809 -19.236  1.00  0.00     0.163 C 
BRANCH  30  31
ATOM     31  O   UNL     1      27.930   6.082 -19.759  1.00  0.00    -0.396 OA
ATOM     32  H   UNL     1      27.256   6.684 -19.348  1.00  0.00     0.210 HD
ENDBRANCH  30  31
ENDBRANCH   4  30
BRANCH  13  33
ATOM     33  O   UNL     1      25.614   0.347  -9.087  1.00  0.00    -0.393 OA
ATOM     34  H   UNL     1      26.556   0.056  -9.208  1.00  0.00     0.210 HD
ENDBRANCH  13  33
TORSDOF 4
ENDMDL
MODEL 7
REMARK VINA RESULT:    -5.723      4.839      9.527
REMARK INTER + INTRA:          -7.189
REMARK INTER:                  -6.721
REMARK INTRA:                  -0.468
REMARK UNBOUND:                -0.463
REMARK SMILES C=C(C)[C@H]1CC[C@]2(CO)CC[C@@]3(C)[C@H](CC[C@@H]4[C@@]5(C)CC[C@H](O)C(C)(C)[C@H]5CC[C@]43C)[C@@H]12
REMARK SMILES IDX 4 1 5 2 6 3 7 4 32 5 14 6 15 7 16 8 17 9 18 10 20 11 21 12
REMARK SMILES IDX 22 13 24 14 27 15 28 16 29 17 30 18 12 19 11 20 10 21 13 22
REMARK SMILES IDX 31 23 25 24 26 25 19 26 2 27 3 28 1 29 8 30 9 31 23 33
REMARK H PARENT 9 32 23 34
REMARK Flexibility Score: inf
ROOT
ATOM      1  C   UNL     1      28.500   6.379 -16.400  1.00  0.00     0.018 C 
ATOM      2  C   UNL     1      28.139   7.250 -17.625  1.00  0.00     0.009 C 
ATOM      3  C   UNL     1      27.534   6.303 -18.677  1.00  0.00     0.010 C 
ATOM      4  C   UNL     1      28.141   4.915 -18.377  1.00  0.00    -0.003 C 
ATOM      5  C   UNL     1      28.126   4.938 -16.842  1.00  0.00     0.008 C 
ATOM      6  C   UNL     1      28.602   3.627 -16.133  1.00  0.00    -0.000 C 
ATOM      7  C   UNL     1      28.491   3.804 -14.601  1.00  0.00     0.005 C 
ATOM      8  C   UNL     1      27.053   3.713 -14.115  1.00  0.00     0.005 C 
ATOM      9  C   UNL     1      26.354   2.366 -14.477  1.00  0.00     0.002 C 
ATOM     10  C   UNL     1      25.687   1.628 -13.223  1.00  0.00    -0.026 C 
ATOM     11  C   UNL     1      24.399   2.443 -12.830  1.00  0.00     0.010 C 
ATOM     12  C   UNL     1      23.146   1.930 -13.539  1.00  0.00     0.033 C 
ATOM     13  C   UNL     1      22.761   0.510 -13.085  1.00  0.00     0.120 C 
ATOM     14  C   UNL     1      24.000  -0.400 -12.734  1.00  0.00    -0.006 C 
ATOM     15  C   UNL     1      25.299   0.098 -13.511  1.00  0.00     0.003 C 
ATOM     16  C   UNL     1      25.232  -0.309 -15.019  1.00  0.00     0.005 C 
ATOM     17  C   UNL     1      26.054   0.481 -16.056  1.00  0.00     0.008 C 
ATOM     18  C   UNL     1      27.141   1.449 -15.494  1.00  0.00    -0.024 C 
ATOM     19  C   UNL     1      27.832   2.323 -16.693  1.00  0.00    -0.024 C 
ATOM     20  C   UNL     1      26.770   2.745 -17.794  1.00  0.00     0.008 C 
ATOM     21  C   UNL     1      27.264   3.731 -18.896  1.00  0.00     0.010 C 
ATOM     22  C   UNL     1      28.855   1.409 -17.451  1.00  0.00     0.012 C 
ATOM     23  C   UNL     1      28.236   0.560 -14.802  1.00  0.00     0.012 C 
ATOM     24  C   UNL     1      24.265  -0.439 -11.200  1.00  0.00     0.014 C 
ATOM     25  C   UNL     1      23.660  -1.873 -13.109  1.00  0.00     0.014 C 
ATOM     26  C   UNL     1      26.671   1.677 -12.000  1.00  0.00     0.012 C 
ENDROOT
BRANCH   1  27
ATOM     27  C   UNL     1      29.895   6.704 -15.856  1.00  0.00    -0.077 C 
ATOM     28  C   UNL     1      30.009   7.118 -14.410  1.00  0.00     0.039 C 
ATOM     29  C   UNL     1      31.016   6.711 -16.591  1.00  0.00     0.008 C 
ENDBRANCH   1  27
BRANCH   4  30
ATOM     30  C   UNL     1      29.551   4.897 -19.057  1.00  0.00     0.163 C 
BRANCH  30  31
ATOM     31  O   UNL     1      29.586   5.621 -20.250  1.00  0.00    -0.396 OA
ATOM     32  H   UNL     1      30.514   5.959 -20.347  1.00  0.00     0.210 HD
ENDBRANCH  30  31
ENDBRANCH   4  30
BRANCH  13  33
ATOM     33  O   UNL     1      21.870   0.603 -12.000  1.00  0.00    -0.393 OA
ATOM     34  H   UNL     1      20.951   0.552 -12.373  1.00  0.00     0.210 HD
ENDBRANCH  13  33
TORSDOF 4
ENDMDL
MODEL 8
REMARK VINA RESULT:    -5.622      6.153      9.420
REMARK INTER + INTRA:          -7.071
REMARK INTER:                  -6.588
REMARK INTRA:                  -0.482
REMARK UNBOUND:                -0.463
REMARK SMILES C=C(C)[C@H]1CC[C@]2(CO)CC[C@@]3(C)[C@H](CC[C@@H]4[C@@]5(C)CC[C@H](O)C(C)(C)[C@H]5CC[C@]43C)[C@@H]12
REMARK SMILES IDX 4 1 5 2 6 3 7 4 32 5 14 6 15 7 16 8 17 9 18 10 20 11 21 12
REMARK SMILES IDX 22 13 24 14 27 15 28 16 29 17 30 18 12 19 11 20 10 21 13 22
REMARK SMILES IDX 31 23 25 24 26 25 19 26 2 27 3 28 1 29 8 30 9 31 23 33
REMARK H PARENT 9 32 23 34
REMARK Flexibility Score: inf
ROOT
ATOM      1  C   UNL     1      29.292   4.155 -17.665  1.00  0.00     0.018 C 
ATOM      2  C   UNL     1      30.650   4.890 -17.714  1.00  0.00     0.009 C 
ATOM      3  C   UNL     1      30.811   5.613 -16.364  1.00  0.00     0.010 C 
ATOM      4  C   UNL     1      29.372   5.863 -15.859  1.00  0.00    -0.003 C 
ATOM      5  C   UNL     1      28.704   4.546 -16.281  1.00  0.00     0.008 C 
ATOM      6  C   UNL     1      27.209   4.369 -15.856  1.00  0.00    -0.000 C 
ATOM      7  C   UNL     1      26.703   2.986 -16.323  1.00  0.00     0.005 C 
ATOM      8  C   UNL     1      27.231   1.857 -15.451  1.00  0.00     0.005 C 
ATOM      9  C   UNL     1      26.857   2.002 -13.944  1.00  0.00     0.002 C 
ATOM     10  C   UNL     1      26.157   0.703 -13.325  1.00  0.00    -0.026 C 
ATOM     11  C   UNL     1      27.269  -0.400 -13.167  1.00  0.00     0.010 C 
ATOM     12  C   UNL     1      27.940  -0.358 -11.795  1.00  0.00     0.033 C 
ATOM     13  C   UNL     1      26.969  -0.738 -10.661  1.00  0.00     0.120 C 
ATOM     14  C   UNL     1      25.483  -0.280 -10.921  1.00  0.00    -0.006 C 
ATOM     15  C   UNL     1      25.446   0.968 -11.911  1.00  0.00     0.003 C 
ATOM     16  C   UNL     1      25.882   2.275 -11.172  1.00  0.00     0.005 C 
ATOM     17  C   UNL     1      26.434   3.461 -11.987  1.00  0.00     0.008 C 
ATOM     18  C   UNL     1      26.237   3.396 -13.534  1.00  0.00    -0.024 C 
ATOM     19  C   UNL     1      26.993   4.642 -14.278  1.00  0.00    -0.024 C 
ATOM     20  C   UNL     1      28.381   4.981 -13.587  1.00  0.00     0.008 C 
ATOM     21  C   UNL     1      29.281   6.028 -14.309  1.00  0.00     0.010 C 
ATOM     22  C   UNL     1      26.126   5.934 -14.094  1.00  0.00     0.012 C 
ATOM     23  C   UNL     1      24.692   3.488 -13.806  1.00  0.00     0.012 C 
ATOM     24  C   UNL     1      24.615  -1.445 -11.481  1.00  0.00     0.014 C 
ATOM     25  C   UNL     1      24.824   0.076  -9.555  1.00  0.00     0.014 C 
ATOM     26  C   UNL     1      25.083   0.154 -14.333  1.00  0.00     0.012 C 
ENDROOT
BRANCH   1  27
ATOM     27  C   UNL     1      28.485   4.352 -18.952  1.00  0.00    -0.077 C 
ATOM     28  C   UNL     1      28.103   3.124 -19.740  1.00  0.00     0.039 C 
ATOM     29  C   UNL     1      28.149   5.545 -19.465  1.00  0.00     0.008 C 
ENDBRANCH   1  27
BRANCH   4  30
ATOM     30  C   UNL     1      28.871   7.157 -16.583  1.00  0.00     0.163 C 
BRANCH  30  31
ATOM     31  O   UNL     1      29.757   8.228 -16.449  1.00  0.00    -0.396 OA
ATOM     32  H   UNL     1      29.202   9.051 -16.422  1.00  0.00     0.210 HD
ENDBRANCH  30  31
ENDBRANCH   4  30
BRANCH  13  33
ATOM     33  O   UNL     1      27.047  -2.125 -10.439  1.00  0.00    -0.393 OA
ATOM     34  H   UNL     1      27.748  -2.271  -9.751  1.00  0.00     0.210 HD
ENDBRANCH  13  33
TORSDOF 4
ENDMDL
MODEL 9
REMARK VINA RESULT:    -5.616      4.581      7.851
REMARK INTER + INTRA:          -7.064
REMARK INTER:                  -6.590
REMARK INTRA:                  -0.474
REMARK UNBOUND:                -0.463
REMARK SMILES C=C(C)[C@H]1CC[C@]2(CO)CC[C@@]3(C)[C@H](CC[C@@H]4[C@@]5(C)CC[C@H](O)C(C)(C)[C@H]5CC[C@]43C)[C@@H]12
REMARK SMILES IDX 4 1 5 2 6 3 7 4 32 5 14 6 15 7 16 8 17 9 18 10 20 11 21 12
REMARK SMILES IDX 22 13 24 14 27 15 28 16 29 17 30 18 12 19 11 20 10 21 13 22
REMARK SMILES IDX 31 23 25 24 26 25 19 26 2 27 3 28 1 29 8 30 9 31 23 33
REMARK H PARENT 9 32 23 34
REMARK Flexibility Score: inf
ROOT
ATOM      1  C   UNL     1      23.459   0.606 -11.660  1.00  0.00     0.018 C 
ATOM      2  C   UNL     1      23.602   0.598 -10.121  1.00  0.00     0.009 C 
ATOM      3  C   UNL     1      25.108   0.511  -9.816  1.00  0.00     0.010 C 
ATOM      4  C   UNL     1      25.735  -0.186 -11.045  1.00  0.00    -0.003 C 
ATOM      5  C   UNL     1      24.919   0.465 -12.171  1.00  0.00     0.008 C 
ATOM      6  C   UNL     1      25.327   0.070 -13.629  1.00  0.00    -0.000 C 
ATOM      7  C   UNL     1      24.438   0.834 -14.635  1.00  0.00     0.005 C 
ATOM      8  C   UNL     1      24.844   2.294 -14.767  1.00  0.00     0.005 C 
ATOM      9  C   UNL     1      26.326   2.495 -15.213  1.00  0.00     0.002 C 
ATOM     10  C   UNL     1      26.493   3.455 -16.482  1.00  0.00    -0.026 C 
ATOM     11  C   UNL     1      26.212   4.926 -15.998  1.00  0.00     0.010 C 
ATOM     12  C   UNL     1      27.482   5.643 -15.544  1.00  0.00     0.033 C 
ATOM     13  C   UNL     1      28.461   5.886 -16.708  1.00  0.00     0.120 C 
ATOM     14  C   UNL     1      28.444   4.745 -17.797  1.00  0.00    -0.006 C 
ATOM     15  C   UNL     1      27.945   3.372 -17.162  1.00  0.00     0.003 C 
ATOM     16  C   UNL     1      29.066   2.727 -16.284  1.00  0.00     0.005 C 
ATOM     17  C   UNL     1      28.682   1.730 -15.174  1.00  0.00     0.008 C 
ATOM     18  C   UNL     1      27.217   1.190 -15.196  1.00  0.00    -0.024 C 
ATOM     19  C   UNL     1      26.911   0.260 -13.886  1.00  0.00    -0.024 C 
ATOM     20  C   UNL     1      27.611   0.834 -12.583  1.00  0.00     0.008 C 
ATOM     21  C   UNL     1      27.250   0.141 -11.235  1.00  0.00     0.010 C 
ATOM     22  C   UNL     1      27.567  -1.146 -14.107  1.00  0.00     0.012 C 
ATOM     23  C   UNL     1      27.065   0.323 -16.497  1.00  0.00     0.012 C 
ATOM     24  C   UNL     1      27.559   5.134 -19.019  1.00  0.00     0.014 C 
ATOM     25  C   UNL     1      29.878   4.596 -18.386  1.00  0.00     0.014 C 
ATOM     26  C   UNL     1      25.410   3.093 -17.561  1.00  0.00     0.012 C 
ENDROOT
BRANCH   1  27
ATOM     27  C   UNL     1      22.357  -0.344 -12.139  1.00  0.00    -0.077 C 
ATOM     28  C   UNL     1      21.296   0.213 -13.056  1.00  0.00     0.039 C 
ATOM     29  C   UNL     1      22.229  -1.620 -11.750  1.00  0.00     0.008 C 
ENDBRANCH   1  27
BRANCH   4  30
ATOM     30  C   UNL     1      25.523  -1.722 -10.834  1.00  0.00     0.163 C 
BRANCH  30  31
ATOM     31  O   UNL     1      25.728  -2.119  -9.511  1.00  0.00    -0.396 OA
ATOM     32  H   UNL     1      26.289  -1.416  -9.090  1.00  0.00     0.210 HD
ENDBRANCH  30  31
ENDBRANCH   4  30
BRANCH  13  33
ATOM     33  O   UNL     1      28.190   7.143 -17.278  1.00  0.00    -0.393 OA
ATOM     34  H   UNL     1      28.583   7.827 -16.674  1.00  0.00     0.210 HD
ENDBRANCH  13  33
TORSDOF 4
ENDMDL
