MODEL 1
REMARK VINA RESULT:    -7.533      0.000      0.000
REMARK INTER + INTRA:          -9.148
REMARK INTER:                  -8.855
REMARK INTRA:                  -0.294
REMARK UNBOUND:                -0.294
REMARK SMILES O=c1cc(-c2ccc(O)c(O)c2)oc2cc(O)cc(O)c12
REMARK SMILES IDX 4 1 3 2 2 3 1 4 21 5 19 6 18 7 16 8 15 9 14 10 13 11 5 12
REMARK SMILES IDX 6 13 7 14 8 15 12 16 10 17 9 18 11 20 20 22 17 24
REMARK H PARENT 9 19 11 21 20 23 17 25
REMARK Flexibility Score: inf
ROOT
ATOM      1  C   UNL     1       5.902 -12.390  13.267  1.00  0.00     0.138 A 
ATOM      2  C   UNL     1       5.997 -11.085  12.763  1.00  0.00     0.100 A 
ATOM      3  C   UNL     1       6.997 -10.234  13.236  1.00  0.00     0.197 A 
ATOM      4  O   UNL     1       7.019  -9.050  12.810  1.00  0.00    -0.289 OA
ATOM      5  C   UNL     1       7.925 -10.704  14.196  1.00  0.00     0.107 A 
ATOM      6  C   UNL     1       9.010  -9.939  14.719  1.00  0.00     0.134 A 
ATOM      7  C   UNL     1       9.794 -10.471  15.751  1.00  0.00     0.093 A 
ATOM      8  C   UNL     1       9.571 -11.759  16.236  1.00  0.00     0.123 A 
ATOM      9  C   UNL     1       8.547 -12.535  15.694  1.00  0.00     0.094 A 
ATOM     10  C   UNL     1       7.725 -12.021  14.688  1.00  0.00     0.146 A 
ATOM     11  O   UNL     1       6.751 -12.788  14.208  1.00  0.00    -0.456 OA
ENDROOT
BRANCH   1  12
ATOM     12  C   UNL     1       4.858 -13.337  12.799  1.00  0.00     0.021 A 
ATOM     13  C   UNL     1       3.526 -12.930  12.606  1.00  0.00     0.016 A 
ATOM     14  C   UNL     1       2.567 -13.840  12.155  1.00  0.00     0.051 A 
ATOM     15  C   UNL     1       2.913 -15.167  11.879  1.00  0.00     0.157 A 
ATOM     16  C   UNL     1       5.208 -14.666  12.509  1.00  0.00     0.062 A 
ATOM     17  C   UNL     1       4.252 -15.585  12.057  1.00  0.00     0.158 A 
BRANCH  15  18
ATOM     18  O   UNL     1       1.906 -16.025  11.434  1.00  0.00    -0.504 OA
ATOM     19  H   UNL     1       2.030 -16.707  10.700  1.00  0.00     0.293 HD
ENDBRANCH  15  18
BRANCH  17  20
ATOM     20  O   UNL     1       4.674 -16.890  11.798  1.00  0.00    -0.504 OA
ATOM     21  H   UNL     1       5.635 -17.149  11.626  1.00  0.00     0.293 HD
ENDBRANCH  17  20
ENDBRANCH   1  12
BRANCH   6  22
ATOM     22  O   UNL     1       9.373  -8.674  14.248  1.00  0.00    -0.507 OA
ATOM     23  H   UNL     1       8.966  -7.805  14.555  1.00  0.00     0.293 HD
ENDBRANCH   6  22
BRANCH   8  24
ATOM     24  O   UNL     1      10.380 -12.259  17.253  1.00  0.00    -0.508 OA
ATOM     25  H   UNL     1      10.978 -11.652  17.802  1.00  0.00     0.293 HD
ENDBRANCH   8  24
TORSDOF 5
ENDMDL
MODEL 2
REMARK VINA RESULT:    -7.397      1.647      3.283
REMARK INTER + INTRA:          -8.988
REMARK INTER:                  -8.700
REMARK INTRA:                  -0.288
REMARK UNBOUND:                -0.294
REMARK SMILES O=c1cc(-c2ccc(O)c(O)c2)oc2cc(O)cc(O)c12
REMARK SMILES IDX 4 1 3 2 2 3 1 4 21 5 19 6 18 7 16 8 15 9 14 10 13 11 5 12
REMARK SMILES IDX 6 13 7 14 8 15 12 16 10 17 9 18 11 20 20 22 17 24
REMARK H PARENT 9 19 11 21 20 23 17 25
REMARK Flexibility Score: inf
ROOT
ATOM      1  C   UNL     1       6.324 -13.998  13.784  1.00  0.00     0.138 A 
ATOM      2  C   UNL     1       7.070 -15.004  14.415  1.00  0.00     0.100 A 
ATOM      3  C   UNL     1       8.109 -14.654  15.278  1.00  0.00     0.197 A 
ATOM      4  O   UNL     1       8.800 -15.577  15.782  1.00  0.00    -0.289 OA
ATOM      5  C   UNL     1       8.381 -13.288  15.534  1.00  0.00     0.107 A 
ATOM      6  C   UNL     1       9.389 -12.814  16.427  1.00  0.00     0.134 A 
ATOM      7  C   UNL     1       9.644 -11.440  16.511  1.00  0.00     0.093 A 
ATOM      8  C   UNL     1       8.890 -10.520  15.782  1.00  0.00     0.123 A 
ATOM      9  C   UNL     1       7.867 -10.970  14.948  1.00  0.00     0.094 A 
ATOM     10  C   UNL     1       7.611 -12.336  14.816  1.00  0.00     0.146 A 
ATOM     11  O   UNL     1       6.636 -12.724  13.999  1.00  0.00    -0.456 OA
ENDROOT
BRANCH   1  12
ATOM     12  C   UNL     1       5.208 -14.314  12.857  1.00  0.00     0.021 A 
ATOM     13  C   UNL     1       5.354 -15.253  11.820  1.00  0.00     0.016 A 
ATOM     14  C   UNL     1       4.283 -15.538  10.970  1.00  0.00     0.051 A 
ATOM     15  C   UNL     1       3.048 -14.905  11.137  1.00  0.00     0.157 A 
ATOM     16  C   UNL     1       3.962 -13.689  13.034  1.00  0.00     0.062 A 
ATOM     17  C   UNL     1       2.884 -13.970  12.184  1.00  0.00     0.158 A 
BRANCH  15  18
ATOM     18  O   UNL     1       2.021 -15.235  10.251  1.00  0.00    -0.504 OA
ATOM     19  H   UNL     1       1.181 -14.686  10.131  1.00  0.00     0.293 HD
ENDBRANCH  15  18
BRANCH  17  20
ATOM     20  O   UNL     1       1.681 -13.302  12.417  1.00  0.00    -0.504 OA
ATOM     21  H   UNL     1       1.206 -12.736  11.728  1.00  0.00     0.293 HD
ENDBRANCH  17  20
ENDBRANCH   1  12
BRANCH   6  22
ATOM     22  O   UNL     1      10.143 -13.641  17.264  1.00  0.00    -0.507 OA
ATOM     23  H   UNL     1      10.662 -14.450  16.960  1.00  0.00     0.293 HD
ENDBRANCH   6  22
BRANCH   8  24
ATOM     24  O   UNL     1       9.163  -9.159  15.903  1.00  0.00    -0.508 OA
ATOM     25  H   UNL     1       9.615  -8.642  15.158  1.00  0.00     0.293 HD
ENDBRANCH   8  24
TORSDOF 5
ENDMDL
MODEL 3
REMARK VINA RESULT:    -7.265      1.698      3.679
REMARK INTER + INTRA:          -8.833
REMARK INTER:                  -8.533
REMARK INTRA:                  -0.300
REMARK UNBOUND:                -0.294
REMARK SMILES O=c1cc(-c2ccc(O)c(O)c2)oc2cc(O)cc(O)c12
REMARK SMILES IDX 4 1 3 2 2 3 1 4 21 5 19 6 18 7 16 8 15 9 14 10 13 11 5 12
REMARK SMILES IDX 6 13 7 14 8 15 12 16 10 17 9 18 11 20 20 22 17 24
REMARK H PARENT 9 19 11 21 20 23 17 25
REMARK Flexibility Score: inf
ROOT
ATOM      1  C   UNL     1       4.563 -14.062  12.792  1.00  0.00     0.138 A 
ATOM      2  C   UNL     1       5.419 -14.822  13.603  1.00  0.00     0.100 A 
ATOM      3  C   UNL     1       6.514 -14.210  14.213  1.00  0.00     0.197 A 
ATOM      4  O   UNL     1       7.299 -14.929  14.885  1.00  0.00    -0.289 OA
ATOM      5  C   UNL     1       6.736 -12.823  14.033  1.00  0.00     0.107 A 
ATOM      6  C   UNL     1       7.797 -12.085  14.639  1.00  0.00     0.134 A 
ATOM      7  C   UNL     1       7.984 -10.741  14.296  1.00  0.00     0.093 A 
ATOM      8  C   UNL     1       7.116 -10.093  13.418  1.00  0.00     0.123 A 
ATOM      9  C   UNL     1       6.044 -10.791  12.862  1.00  0.00     0.094 A 
ATOM     10  C   UNL     1       5.850 -12.142  13.157  1.00  0.00     0.146 A 
ATOM     11  O   UNL     1       4.825 -12.775  12.596  1.00  0.00    -0.456 OA
ENDROOT
BRANCH   1  12
ATOM     12  C   UNL     1       3.383 -14.663  12.119  1.00  0.00     0.021 A 
ATOM     13  C   UNL     1       3.409 -15.974  11.613  1.00  0.00     0.016 A 
ATOM     14  C   UNL     1       2.280 -16.517  10.995  1.00  0.00     0.051 A 
ATOM     15  C   UNL     1       1.103 -15.772  10.875  1.00  0.00     0.157 A 
ATOM     16  C   UNL     1       2.195 -13.920  12.011  1.00  0.00     0.062 A 
ATOM     17  C   UNL     1       1.059 -14.456  11.391  1.00  0.00     0.158 A 
BRANCH  15  18
ATOM     18  O   UNL     1       0.013 -16.373  10.243  1.00  0.00    -0.504 OA
ATOM     19  H   UNL     1      -0.201 -16.265   9.262  1.00  0.00     0.293 HD
ENDBRANCH  15  18
BRANCH  17  20
ATOM     20  O   UNL     1      -0.080 -13.654  11.313  1.00  0.00    -0.504 OA
ATOM     21  H   UNL     1      -1.025 -14.006  11.373  1.00  0.00     0.293 HD
ENDBRANCH  17  20
ENDBRANCH   1  12
BRANCH   6  22
ATOM     22  O   UNL     1       8.670 -12.614  15.594  1.00  0.00    -0.507 OA
ATOM     23  H   UNL     1       8.867 -13.595  15.716  1.00  0.00     0.293 HD
ENDBRANCH   6  22
BRANCH   8  24
ATOM     24  O   UNL     1       7.326  -8.750  13.112  1.00  0.00    -0.508 OA
ATOM     25  H   UNL     1       6.672  -8.032  13.402  1.00  0.00     0.293 HD
ENDBRANCH   8  24
TORSDOF 5
ENDMDL
MODEL 4
REMARK VINA RESULT:    -7.122      1.772      2.645
REMARK INTER + INTRA:          -8.664
REMARK INTER:                  -8.391
REMARK INTRA:                  -0.274
REMARK UNBOUND:                -0.294
REMARK SMILES O=c1cc(-c2ccc(O)c(O)c2)oc2cc(O)cc(O)c12
REMARK SMILES IDX 4 1 3 2 2 3 1 4 21 5 19 6 18 7 16 8 15 9 14 10 13 11 5 12
REMARK SMILES IDX 6 13 7 14 8 15 12 16 10 17 9 18 11 20 20 22 17 24
REMARK H PARENT 9 19 11 21 20 23 17 25
REMARK Flexibility Score: inf
ROOT
ATOM      1  C   UNL     1       6.009 -13.748  13.532  1.00  0.00     0.138 A 
ATOM      2  C   UNL     1       6.249 -12.382  13.736  1.00  0.00     0.100 A 
ATOM      3  C   UNL     1       7.295 -11.982  14.567  1.00  0.00     0.197 A 
ATOM      4  O   UNL     1       7.448 -10.751  14.780  1.00  0.00    -0.289 OA
ATOM      5  C   UNL     1       8.124 -12.957  15.173  1.00  0.00     0.107 A 
ATOM      6  C   UNL     1       9.245 -12.665  16.007  1.00  0.00     0.134 A 
ATOM      7  C   UNL     1       9.921 -13.713  16.645  1.00  0.00     0.093 A 
ATOM      8  C   UNL     1       9.556 -15.041  16.433  1.00  0.00     0.123 A 
ATOM      9  C   UNL     1       8.496 -15.340  15.577  1.00  0.00     0.094 A 
ATOM     10  C   UNL     1       7.780 -14.316  14.953  1.00  0.00     0.146 A 
ATOM     11  O   UNL     1       6.767 -14.643  14.156  1.00  0.00    -0.456 OA
ENDROOT
BRANCH   1  12
ATOM     12  C   UNL     1       4.909 -14.229  12.657  1.00  0.00     0.021 A 
ATOM     13  C   UNL     1       5.112 -15.247  11.708  1.00  0.00     0.016 A 
ATOM     14  C   UNL     1       4.057 -15.687  10.906  1.00  0.00     0.051 A 
ATOM     15  C   UNL     1       2.780 -15.132  11.035  1.00  0.00     0.157 A 
ATOM     16  C   UNL     1       3.623 -13.681  12.796  1.00  0.00     0.062 A 
ATOM     17  C   UNL     1       2.559 -14.117  11.995  1.00  0.00     0.158 A 
BRANCH  15  18
ATOM     18  O   UNL     1       1.771 -15.615  10.201  1.00  0.00    -0.504 OA
ATOM     19  H   UNL     1       0.825 -15.258  10.193  1.00  0.00     0.293 HD
ENDBRANCH  15  18
BRANCH  17  20
ATOM     20  O   UNL     1       1.313 -13.518  12.186  1.00  0.00    -0.504 OA
ATOM     21  H   UNL     1       1.026 -12.656  11.744  1.00  0.00     0.293 HD
ENDBRANCH  17  20
ENDBRANCH   1  12
BRANCH   6  22
ATOM     22  O   UNL     1       9.746 -11.377  16.219  1.00  0.00    -0.507 OA
ATOM     23  H   UNL     1      10.427 -11.132  16.922  1.00  0.00     0.293 HD
ENDBRANCH   6  22
BRANCH   8  24
ATOM     24  O   UNL     1      10.261 -16.058  17.074  1.00  0.00    -0.508 OA
ATOM     25  H   UNL     1       9.945 -17.020  17.046  1.00  0.00     0.293 HD
ENDBRANCH   8  24
TORSDOF 5
ENDMDL
MODEL 5
REMARK VINA RESULT:    -6.838      5.668      6.877
REMARK INTER + INTRA:          -8.331
REMARK INTER:                  -8.061
REMARK INTRA:                  -0.270
REMARK UNBOUND:                -0.294
REMARK SMILES O=c1cc(-c2ccc(O)c(O)c2)oc2cc(O)cc(O)c12
REMARK SMILES IDX 4 1 3 2 2 3 1 4 21 5 19 6 18 7 16 8 15 9 14 10 13 11 5 12
REMARK SMILES IDX 6 13 7 14 8 15 12 16 10 17 9 18 11 20 20 22 17 24
REMARK H PARENT 9 19 11 21 20 23 17 25
REMARK Flexibility Score: inf
ROOT
ATOM      1  C   UNL     1      10.074 -10.295  16.050  1.00  0.00     0.138 A 
ATOM      2  C   UNL     1       9.665  -9.845  14.787  1.00  0.00     0.100 A 
ATOM      3  C   UNL     1      10.484 -10.061  13.679  1.00  0.00     0.197 A 
ATOM      4  O   UNL     1      10.120  -9.592  12.569  1.00  0.00    -0.289 OA
ATOM      5  C   UNL     1      11.707 -10.759  13.834  1.00  0.00     0.107 A 
ATOM      6  C   UNL     1      12.604 -11.072  12.768  1.00  0.00     0.134 A 
ATOM      7  C   UNL     1      13.839 -11.664  13.059  1.00  0.00     0.093 A 
ATOM      8  C   UNL     1      14.184 -12.008  14.365  1.00  0.00     0.123 A 
ATOM      9  C   UNL     1      13.292 -11.756  15.407  1.00  0.00     0.094 A 
ATOM     10  C   UNL     1      12.067 -11.135  15.154  1.00  0.00     0.146 A 
ATOM     11  O   UNL     1      11.251 -10.898  16.177  1.00  0.00    -0.456 OA
ENDROOT
BRANCH   1  12
ATOM     12  C   UNL     1       9.240 -10.092  17.263  1.00  0.00     0.021 A 
ATOM     13  C   UNL     1       9.000  -8.810  17.787  1.00  0.00     0.016 A 
ATOM     14  C   UNL     1       8.203  -8.649  18.922  1.00  0.00     0.051 A 
ATOM     15  C   UNL     1       7.623  -9.754  19.553  1.00  0.00     0.157 A 
ATOM     16  C   UNL     1       8.646 -11.202  17.888  1.00  0.00     0.062 A 
ATOM     17  C   UNL     1       7.846 -11.048  19.028  1.00  0.00     0.158 A 
BRANCH  15  18
ATOM     18  O   UNL     1       6.840  -9.523  20.686  1.00  0.00    -0.504 OA
ATOM     19  H   UNL     1       5.830  -9.544  20.687  1.00  0.00     0.293 HD
ENDBRANCH  15  18
BRANCH  17  20
ATOM     20  O   UNL     1       7.299 -12.198  19.599  1.00  0.00    -0.504 OA
ATOM     21  H   UNL     1       6.470 -12.660  19.254  1.00  0.00     0.293 HD
ENDBRANCH  17  20
ENDBRANCH   1  12
BRANCH   6  22
ATOM     22  O   UNL     1      12.321 -10.848  11.418  1.00  0.00    -0.507 OA
ATOM     23  H   UNL     1      12.623 -10.043  10.891  1.00  0.00     0.293 HD
ENDBRANCH   6  22
BRANCH   8  24
ATOM     24  O   UNL     1      15.416 -12.610  14.613  1.00  0.00    -0.508 OA
ATOM     25  H   UNL     1      16.060 -12.234  15.300  1.00  0.00     0.293 HD
ENDBRANCH   8  24
TORSDOF 5
ENDMDL
MODEL 6
REMARK VINA RESULT:    -6.679      5.658      8.112
REMARK INTER + INTRA:          -8.144
REMARK INTER:                  -7.841
REMARK INTRA:                  -0.303
REMARK UNBOUND:                -0.294
REMARK SMILES O=c1cc(-c2ccc(O)c(O)c2)oc2cc(O)cc(O)c12
REMARK SMILES IDX 4 1 3 2 2 3 1 4 21 5 19 6 18 7 16 8 15 9 14 10 13 11 5 12
REMARK SMILES IDX 6 13 7 14 8 15 12 16 10 17 9 18 11 20 20 22 17 24
REMARK H PARENT 9 19 11 21 20 23 17 25
REMARK Flexibility Score: inf
ROOT
ATOM      1  C   UNL     1      11.799 -13.055  15.219  1.00  0.00     0.138 A 
ATOM      2  C   UNL     1      12.347 -14.094  15.983  1.00  0.00     0.100 A 
ATOM      3  C   UNL     1      13.309 -14.932  15.419  1.00  0.00     0.197 A 
ATOM      4  O   UNL     1      13.738 -15.894  16.109  1.00  0.00    -0.289 OA
ATOM      5  C   UNL     1      13.747 -14.708  14.091  1.00  0.00     0.107 A 
ATOM      6  C   UNL     1      14.751 -15.473  13.426  1.00  0.00     0.134 A 
ATOM      7  C   UNL     1      15.019 -15.232  12.073  1.00  0.00     0.093 A 
ATOM      8  C   UNL     1      14.363 -14.217  11.378  1.00  0.00     0.123 A 
ATOM      9  C   UNL     1      13.418 -13.427  12.034  1.00  0.00     0.094 A 
ATOM     10  C   UNL     1      13.104 -13.665  13.374  1.00  0.00     0.146 A 
ATOM     11  O   UNL     1      12.187 -12.900  13.958  1.00  0.00    -0.456 OA
ENDROOT
BRANCH   1  12
ATOM     12  C   UNL     1      10.773 -12.133  15.770  1.00  0.00     0.021 A 
ATOM     13  C   UNL     1       9.836 -12.560  16.728  1.00  0.00     0.016 A 
ATOM     14  C   UNL     1       8.889 -11.668  17.236  1.00  0.00     0.051 A 
ATOM     15  C   UNL     1       8.859 -10.336  16.811  1.00  0.00     0.157 A 
ATOM     16  C   UNL     1      10.752 -10.791  15.353  1.00  0.00     0.062 A 
ATOM     17  C   UNL     1       9.804  -9.891  15.858  1.00  0.00     0.158 A 
BRANCH  15  18
ATOM     18  O   UNL     1       7.885  -9.499  17.357  1.00  0.00    -0.504 OA
ATOM     19  H   UNL     1       7.248  -8.940  16.807  1.00  0.00     0.293 HD
ENDBRANCH  15  18
BRANCH  17  20
ATOM     20  O   UNL     1       9.840  -8.577  15.389  1.00  0.00    -0.504 OA
ATOM     21  H   UNL     1       9.931  -7.767  15.985  1.00  0.00     0.293 HD
ENDBRANCH  17  20
ENDBRANCH   1  12
BRANCH   6  22
ATOM     22  O   UNL     1      15.526 -16.455  14.051  1.00  0.00    -0.507 OA
ATOM     23  H   UNL     1      15.533 -17.431  13.799  1.00  0.00     0.293 HD
ENDBRANCH   6  22
BRANCH   8  24
ATOM     24  O   UNL     1      14.666 -13.997  10.036  1.00  0.00    -0.508 OA
ATOM     25  H   UNL     1      14.726 -13.060   9.654  1.00  0.00     0.293 HD
ENDBRANCH   8  24
TORSDOF 5
ENDMDL
MODEL 7
REMARK VINA RESULT:    -6.568      5.599      8.195
REMARK INTER + INTRA:          -8.013
REMARK INTER:                  -7.716
REMARK INTRA:                  -0.297
REMARK UNBOUND:                -0.294
REMARK SMILES O=c1cc(-c2ccc(O)c(O)c2)oc2cc(O)cc(O)c12
REMARK SMILES IDX 4 1 3 2 2 3 1 4 21 5 19 6 18 7 16 8 15 9 14 10 13 11 5 12
REMARK SMILES IDX 6 13 7 14 8 15 12 16 10 17 9 18 11 20 20 22 17 24
REMARK H PARENT 9 19 11 21 20 23 17 25
REMARK Flexibility Score: inf
ROOT
ATOM      1  C   UNL     1      12.681 -13.744  14.477  1.00  0.00     0.138 A 
ATOM      2  C   UNL     1      12.152 -14.559  15.487  1.00  0.00     0.100 A 
ATOM      3  C   UNL     1      11.162 -14.057  16.331  1.00  0.00     0.197 A 
ATOM      4  O   UNL     1      10.750 -14.791  17.267  1.00  0.00    -0.289 OA
ATOM      5  C   UNL     1      10.678 -12.739  16.143  1.00  0.00     0.107 A 
ATOM      6  C   UNL     1       9.643 -12.135  16.918  1.00  0.00     0.134 A 
ATOM      7  C   UNL     1       9.328 -10.786  16.715  1.00  0.00     0.093 A 
ATOM      8  C   UNL     1       9.968 -10.037  15.729  1.00  0.00     0.123 A 
ATOM      9  C   UNL     1      10.943 -10.632  14.929  1.00  0.00     0.094 A 
ATOM     10  C   UNL     1      11.304 -11.967  15.130  1.00  0.00     0.146 A 
ATOM     11  O   UNL     1      12.249 -12.493  14.356  1.00  0.00    -0.456 OA
ENDROOT
BRANCH   1  12
ATOM     12  C   UNL     1      13.735 -14.228  13.549  1.00  0.00     0.021 A 
ATOM     13  C   UNL     1      14.791 -15.043  13.994  1.00  0.00     0.016 A 
ATOM     14  C   UNL     1      15.763 -15.493  13.097  1.00  0.00     0.051 A 
ATOM     15  C   UNL     1      15.701 -15.150  11.743  1.00  0.00     0.157 A 
ATOM     16  C   UNL     1      13.665 -13.895  12.186  1.00  0.00     0.062 A 
ATOM     17  C   UNL     1      14.637 -14.342  11.281  1.00  0.00     0.158 A 
BRANCH  15  18
ATOM     18  O   UNL     1      16.705 -15.631  10.902  1.00  0.00    -0.504 OA
ATOM     19  H   UNL     1      17.057 -15.129  10.098  1.00  0.00     0.293 HD
ENDBRANCH  15  18
BRANCH  17  20
ATOM     20  O   UNL     1      14.504 -13.962   9.944  1.00  0.00    -0.504 OA
ATOM     21  H   UNL     1      14.446 -14.614   9.175  1.00  0.00     0.293 HD
ENDBRANCH  17  20
ENDBRANCH   1  12
BRANCH   6  22
ATOM     22  O   UNL     1       8.882 -12.818  17.872  1.00  0.00    -0.507 OA
ATOM     23  H   UNL     1       9.042 -12.786  18.867  1.00  0.00     0.293 HD
ENDBRANCH   6  22
BRANCH   8  24
ATOM     24  O   UNL     1       9.617  -8.700  15.546  1.00  0.00    -0.508 OA
ATOM     25  H   UNL     1       8.845  -8.282  16.051  1.00  0.00     0.293 HD
ENDBRANCH   8  24
TORSDOF 5
ENDMDL
MODEL 8
REMARK VINA RESULT:    -6.316      4.899      7.409
REMARK INTER + INTRA:          -7.718
REMARK INTER:                  -7.422
REMARK INTRA:                  -0.296
REMARK UNBOUND:                -0.294
REMARK SMILES O=c1cc(-c2ccc(O)c(O)c2)oc2cc(O)cc(O)c12
REMARK SMILES IDX 4 1 3 2 2 3 1 4 21 5 19 6 18 7 16 8 15 9 14 10 13 11 5 12
REMARK SMILES IDX 6 13 7 14 8 15 12 16 10 17 9 18 11 20 20 22 17 24
REMARK H PARENT 9 19 11 21 20 23 17 25
REMARK Flexibility Score: inf
ROOT
ATOM      1  C   UNL     1      11.760 -14.278  16.182  1.00  0.00     0.138 A 
ATOM      2  C   UNL     1      12.691 -13.701  15.307  1.00  0.00     0.100 A 
ATOM      3  C   UNL     1      12.400 -12.482  14.696  1.00  0.00     0.197 A 
ATOM      4  O   UNL     1      13.228 -12.018  13.869  1.00  0.00    -0.289 OA
ATOM      5  C   UNL     1      11.181 -11.822  14.986  1.00  0.00     0.107 A 
ATOM      6  C   UNL     1      10.795 -10.556  14.453  1.00  0.00     0.134 A 
ATOM      7  C   UNL     1       9.515 -10.056  14.721  1.00  0.00     0.093 A 
ATOM      8  C   UNL     1       8.630 -10.746  15.549  1.00  0.00     0.123 A 
ATOM      9  C   UNL     1       9.018 -11.959  16.119  1.00  0.00     0.094 A 
ATOM     10  C   UNL     1      10.275 -12.501  15.843  1.00  0.00     0.146 A 
ATOM     11  O   UNL     1      10.600 -13.666  16.395  1.00  0.00    -0.456 OA
ENDROOT
BRANCH   1  12
ATOM     12  C   UNL     1      12.019 -15.574  16.860  1.00  0.00     0.021 A 
ATOM     13  C   UNL     1      13.267 -15.868  17.437  1.00  0.00     0.016 A 
ATOM     14  C   UNL     1      13.479 -17.091  18.078  1.00  0.00     0.051 A 
ATOM     15  C   UNL     1      12.456 -18.040  18.165  1.00  0.00     0.157 A 
ATOM     16  C   UNL     1      10.987 -16.522  16.960  1.00  0.00     0.062 A 
ATOM     17  C   UNL     1      11.193 -17.751  17.600  1.00  0.00     0.158 A 
BRANCH  15  18
ATOM     18  O   UNL     1      12.736 -19.243  18.817  1.00  0.00    -0.504 OA
ATOM     19  H   UNL     1      13.648 -19.494  19.171  1.00  0.00     0.293 HD
ENDBRANCH  15  18
BRANCH  17  20
ATOM     20  O   UNL     1      10.122 -18.646  17.652  1.00  0.00    -0.504 OA
ATOM     21  H   UNL     1       9.746 -19.028  18.507  1.00  0.00     0.293 HD
ENDBRANCH  17  20
ENDBRANCH   1  12
BRANCH   6  22
ATOM     22  O   UNL     1      11.634  -9.744  13.683  1.00  0.00    -0.507 OA
ATOM     23  H   UNL     1      12.636  -9.697  13.778  1.00  0.00     0.293 HD
ENDBRANCH   6  22
BRANCH   8  24
ATOM     24  O   UNL     1       7.370 -10.211  15.805  1.00  0.00    -0.508 OA
ATOM     25  H   UNL     1       6.976  -9.482  15.221  1.00  0.00     0.293 HD
ENDBRANCH   8  24
TORSDOF 5
ENDMDL
MODEL 9
REMARK VINA RESULT:    -6.254      5.243      7.949
REMARK INTER + INTRA:          -7.645
REMARK INTER:                  -7.380
REMARK INTRA:                  -0.265
REMARK UNBOUND:                -0.294
REMARK SMILES O=c1cc(-c2ccc(O)c(O)c2)oc2cc(O)cc(O)c12
REMARK SMILES IDX 4 1 3 2 2 3 1 4 21 5 19 6 18 7 16 8 15 9 14 10 13 11 5 12
REMARK SMILES IDX 6 13 7 14 8 15 12 16 10 17 9 18 11 20 20 22 17 24
REMARK H PARENT 9 19 11 21 20 23 17 25
REMARK Flexibility Score: inf
ROOT
ATOM      1  C   UNL     1      12.499 -11.921  14.836  1.00  0.00     0.138 A 
ATOM      2  C   UNL     1      13.646 -11.774  15.627  1.00  0.00     0.100 A 
ATOM      3  C   UNL     1      14.879 -12.212  15.143  1.00  0.00     0.197 A 
ATOM      4  O   UNL     1      15.881 -12.124  15.900  1.00  0.00    -0.289 OA
ATOM      5  C   UNL     1      14.966 -12.774  13.847  1.00  0.00     0.107 A 
ATOM      6  C   UNL     1      16.176 -13.218  13.233  1.00  0.00     0.134 A 
ATOM      7  C   UNL     1      16.123 -13.863  11.992  1.00  0.00     0.093 A 
ATOM      8  C   UNL     1      14.915 -14.027  11.315  1.00  0.00     0.123 A 
ATOM      9  C   UNL     1      13.734 -13.548  11.881  1.00  0.00     0.094 A 
ATOM     10  C   UNL     1      13.749 -12.931  13.134  1.00  0.00     0.146 A 
ATOM     11  O   UNL     1      12.599 -12.501  13.645  1.00  0.00    -0.456 OA
ENDROOT
BRANCH   1  12
ATOM     12  C   UNL     1      11.162 -11.471  15.301  1.00  0.00     0.021 A 
ATOM     13  C   UNL     1      10.460 -10.444  14.646  1.00  0.00     0.016 A 
ATOM     14  C   UNL     1       9.199 -10.049  15.100  1.00  0.00     0.051 A 
ATOM     15  C   UNL     1       8.609 -10.670  16.205  1.00  0.00     0.157 A 
ATOM     16  C   UNL     1      10.563 -12.104  16.403  1.00  0.00     0.062 A 
ATOM     17  C   UNL     1       9.299 -11.713  16.865  1.00  0.00     0.158 A 
BRANCH  15  18
ATOM     18  O   UNL     1       7.349 -10.224  16.608  1.00  0.00    -0.504 OA
ATOM     19  H   UNL     1       6.859  -9.452  16.178  1.00  0.00     0.293 HD
ENDBRANCH  15  18
BRANCH  17  20
ATOM     20  O   UNL     1       8.774 -12.383  17.971  1.00  0.00    -0.504 OA
ATOM     21  H   UNL     1       9.330 -12.723  18.742  1.00  0.00     0.293 HD
ENDBRANCH  17  20
ENDBRANCH   1  12
BRANCH   6  22
ATOM     22  O   UNL     1      17.447 -13.029  13.785  1.00  0.00    -0.507 OA
ATOM     23  H   UNL     1      17.678 -13.156  14.758  1.00  0.00     0.293 HD
ENDBRANCH   6  22
BRANCH   8  24
ATOM     24  O   UNL     1      14.904 -14.661  10.074  1.00  0.00    -0.508 OA
ATOM     25  H   UNL     1      14.678 -15.644   9.984  1.00  0.00     0.293 HD
ENDBRANCH   8  24
TORSDOF 5
ENDMDL
