MODEL 1
REMARK VINA RESULT:    -3.285      0.000      0.000
REMARK INTER + INTRA:          -5.886
REMARK INTER:                  -5.206
REMARK INTRA:                  -0.681
REMARK UNBOUND:                -0.681
REMARK SMILES CCCCCCCCCCCC(=O)[O-]
REMARK SMILES IDX 7 1 8 2 9 3 10 4 11 5 12 6 13 7 14 8 6 9 5 10 4 11 3 12 2 13
REMARK SMILES IDX 1 14
REMARK H PARENT
REMARK Flexibility Score: inf
ROOT
ATOM      1  C   UNL     1     -20.996  -1.491   8.439  1.00  0.00     0.000 C 
ENDROOT
BRANCH   1   2
ATOM      2  C   UNL     1     -20.247  -2.629   9.145  1.00  0.00     0.000 C 
BRANCH   2   3
ATOM      3  C   UNL     1     -19.862  -2.231  10.575  1.00  0.00     0.000 C 
BRANCH   3   4
ATOM      4  C   UNL     1     -20.963  -1.387  11.228  1.00  0.00     0.006 C 
BRANCH   4   5
ATOM      5  C   UNL     1     -21.163  -1.784  12.693  1.00  0.00     0.053 C 
BRANCH   5   6
ATOM      6  C   UNL     1     -21.572  -0.597  13.507  1.00  0.00     0.041 C 
ATOM      7  O   UNL     1     -21.765  -0.716  14.746  1.00  0.00    -0.550 OA
ATOM      8  O   UNL     1     -21.790   0.627  12.891  1.00  0.00    -0.550 OA
ENDBRANCH   5   6
ENDBRANCH   4   5
ENDBRANCH   3   4
ENDBRANCH   2   3
ENDBRANCH   1   2
BRANCH   1   9
ATOM      9  C   UNL     1     -20.989  -1.625   6.905  1.00  0.00     0.000 C 
BRANCH   9  10
ATOM     10  C   UNL     1     -20.604  -0.348   6.135  1.00  0.00    -0.000 C 
BRANCH  10  11
ATOM     11  C   UNL     1     -21.593   0.808   6.358  1.00  0.00    -0.000 C 
BRANCH  11  12
ATOM     12  C   UNL     1     -21.025   1.915   7.266  1.00  0.00    -0.000 C 
BRANCH  12  13
ATOM     13  C   UNL     1     -22.010   2.472   8.310  1.00  0.00    -0.003 C 
ATOM     14  C   UNL     1     -22.045   1.654   9.600  1.00  0.00     0.004 C 
ENDBRANCH  12  13
ENDBRANCH  11  12
ENDBRANCH  10  11
ENDBRANCH   9  10
ENDBRANCH   1   9
TORSDOF 10
ENDMDL
MODEL 2
REMARK VINA RESULT:    -3.275      1.171      3.331
REMARK INTER + INTRA:          -5.870
REMARK INTER:                  -5.155
REMARK INTRA:                  -0.715
REMARK UNBOUND:                -0.681
REMARK SMILES CCCCCCCCCCCC(=O)[O-]
REMARK SMILES IDX 7 1 8 2 9 3 10 4 11 5 12 6 13 7 14 8 6 9 5 10 4 11 3 12 2 13
REMARK SMILES IDX 1 14
REMARK H PARENT
REMARK Flexibility Score: inf
ROOT
ATOM      1  C   UNL     1     -21.402   1.207   8.631  1.00  0.00     0.000 C 
ENDROOT
BRANCH   1   2
ATOM      2  C   UNL     1     -22.296   2.270   9.283  1.00  0.00     0.000 C 
BRANCH   2   3
ATOM      3  C   UNL     1     -22.828   1.787  10.637  1.00  0.00     0.000 C 
BRANCH   3   4
ATOM      4  C   UNL     1     -21.808   0.884  11.340  1.00  0.00     0.006 C 
BRANCH   4   5
ATOM      5  C   UNL     1     -21.850   1.084  12.857  1.00  0.00     0.053 C 
BRANCH   5   6
ATOM      6  C   UNL     1     -21.479  -0.182  13.564  1.00  0.00     0.041 C 
ATOM      7  O   UNL     1     -21.238  -0.169  14.800  1.00  0.00    -0.550 OA
ATOM      8  O   UNL     1     -21.350  -1.365  12.849  1.00  0.00    -0.550 OA
ENDBRANCH   5   6
ENDBRANCH   4   5
ENDBRANCH   3   4
ENDBRANCH   2   3
ENDBRANCH   1   2
BRANCH   1   9
ATOM      9  C   UNL     1     -21.079   1.513   7.157  1.00  0.00     0.000 C 
BRANCH   9  10
ATOM     10  C   UNL     1     -21.341   0.358   6.173  1.00  0.00    -0.000 C 
BRANCH  10  11
ATOM     11  C   UNL     1     -21.726  -0.954   6.877  1.00  0.00    -0.000 C 
BRANCH  11  12
ATOM     12  C   UNL     1     -20.565  -1.964   6.938  1.00  0.00    -0.000 C 
BRANCH  12  13
ATOM     13  C   UNL     1     -20.495  -2.803   8.227  1.00  0.00    -0.003 C 
ATOM     14  C   UNL     1     -20.548  -1.956   9.498  1.00  0.00     0.004 C 
ENDBRANCH  12  13
ENDBRANCH  11  12
ENDBRANCH  10  11
ENDBRANCH   9  10
ENDBRANCH   1   9
TORSDOF 10
ENDMDL
MODEL 3
REMARK VINA RESULT:    -3.169      1.767      4.701
REMARK INTER + INTRA:          -5.702
REMARK INTER:                  -5.265
REMARK INTRA:                  -0.437
REMARK UNBOUND:                -0.681
REMARK SMILES CCCCCCCCCCCC(=O)[O-]
REMARK SMILES IDX 7 1 8 2 9 3 10 4 11 5 12 6 13 7 14 8 6 9 5 10 4 11 3 12 2 13
REMARK SMILES IDX 1 14
REMARK H PARENT
REMARK Flexibility Score: inf
ROOT
ATOM      1  C   UNL     1     -20.617  -2.346   7.107  1.00  0.00     0.000 C 
ENDROOT
BRANCH   1   2
ATOM      2  C   UNL     1     -21.561  -1.138   7.025  1.00  0.00     0.000 C 
BRANCH   2   3
ATOM      3  C   UNL     1     -20.842   0.083   6.440  1.00  0.00     0.000 C 
BRANCH   3   4
ATOM      4  C   UNL     1     -21.230   1.363   7.189  1.00  0.00     0.006 C 
BRANCH   4   5
ATOM      5  C   UNL     1     -21.368   1.101   8.691  1.00  0.00     0.053 C 
BRANCH   5   6
ATOM      6  C   UNL     1     -22.287   2.102   9.317  1.00  0.00     0.041 C 
ATOM      7  O   UNL     1     -22.900   1.821  10.380  1.00  0.00    -0.550 OA
ATOM      8  O   UNL     1     -22.506   3.326   8.699  1.00  0.00    -0.550 OA
ENDBRANCH   5   6
ENDBRANCH   4   5
ENDBRANCH   3   4
ENDBRANCH   2   3
ENDBRANCH   1   2
BRANCH   1   9
ATOM      9  C   UNL     1     -20.212  -2.698   8.550  1.00  0.00     0.000 C 
BRANCH   9  10
ATOM     10  C   UNL     1     -20.881  -1.849   9.647  1.00  0.00    -0.000 C 
BRANCH  10  11
ATOM     11  C   UNL     1     -20.156  -1.937  11.000  1.00  0.00    -0.000 C 
BRANCH  11  12
ATOM     12  C   UNL     1     -21.123  -1.936  12.199  1.00  0.00    -0.000 C 
BRANCH  12  13
ATOM     13  C   UNL     1     -21.228  -0.599  12.953  1.00  0.00    -0.003 C 
ATOM     14  C   UNL     1     -21.895  -0.731  14.321  1.00  0.00     0.004 C 
ENDBRANCH  12  13
ENDBRANCH  11  12
ENDBRANCH  10  11
ENDBRANCH   9  10
ENDBRANCH   1   9
TORSDOF 10
ENDMDL
MODEL 4
REMARK VINA RESULT:    -3.112      2.029      4.954
REMARK INTER + INTRA:          -5.611
REMARK INTER:                  -5.061
REMARK INTRA:                  -0.551
REMARK UNBOUND:                -0.681
REMARK SMILES CCCCCCCCCCCC(=O)[O-]
REMARK SMILES IDX 7 1 8 2 9 3 10 4 11 5 12 6 13 7 14 8 6 9 5 10 4 11 3 12 2 13
REMARK SMILES IDX 1 14
REMARK H PARENT
REMARK Flexibility Score: inf
ROOT
ATOM      1  C   UNL     1     -20.570  -0.652   6.169  1.00  0.00     0.000 C 
ENDROOT
BRANCH   1   2
ATOM      2  C   UNL     1     -21.585   0.481   6.376  1.00  0.00     0.000 C 
BRANCH   2   3
ATOM      3  C   UNL     1     -20.937   1.677   7.084  1.00  0.00     0.000 C 
BRANCH   3   4
ATOM      4  C   UNL     1     -21.749   2.096   8.315  1.00  0.00     0.006 C 
BRANCH   4   5
ATOM      5  C   UNL     1     -21.601   1.075   9.446  1.00  0.00     0.053 C 
BRANCH   5   6
ATOM      6  C   UNL     1     -22.438   1.468  10.621  1.00  0.00     0.041 C 
ATOM      7  O   UNL     1     -23.605   1.908  10.448  1.00  0.00    -0.550 OA
ATOM      8  O   UNL     1     -21.913   1.397  11.904  1.00  0.00    -0.550 OA
ENDBRANCH   5   6
ENDBRANCH   4   5
ENDBRANCH   3   4
ENDBRANCH   2   3
ENDBRANCH   1   2
BRANCH   1   9
ATOM      9  C   UNL     1     -20.949  -1.945   6.914  1.00  0.00     0.000 C 
BRANCH   9  10
ATOM     10  C   UNL     1     -20.713  -1.920   8.436  1.00  0.00    -0.000 C 
BRANCH  10  11
ATOM     11  C   UNL     1     -20.174  -3.252   8.981  1.00  0.00    -0.000 C 
BRANCH  11  12
ATOM     12  C   UNL     1     -19.887  -4.281   7.872  1.00  0.00    -0.000 C 
BRANCH  12  13
ATOM     13  C   UNL     1     -20.112  -5.751   8.270  1.00  0.00    -0.003 C 
ATOM     14  C   UNL     1     -21.583  -6.094   8.497  1.00  0.00     0.004 C 
ENDBRANCH  12  13
ENDBRANCH  11  12
ENDBRANCH  10  11
ENDBRANCH   9  10
ENDBRANCH   1   9
TORSDOF 10
ENDMDL
MODEL 5
REMARK VINA RESULT:    -3.107      2.212      4.804
REMARK INTER + INTRA:          -5.603
REMARK INTER:                  -5.225
REMARK INTRA:                  -0.378
REMARK UNBOUND:                -0.681
REMARK SMILES CCCCCCCCCCCC(=O)[O-]
REMARK SMILES IDX 7 1 8 2 9 3 10 4 11 5 12 6 13 7 14 8 6 9 5 10 4 11 3 12 2 13
REMARK SMILES IDX 1 14
REMARK H PARENT
REMARK Flexibility Score: inf
ROOT
ATOM      1  C   UNL     1     -21.566   2.252   7.406  1.00  0.00     0.000 C 
ENDROOT
BRANCH   1   2
ATOM      2  C   UNL     1     -20.617   1.048   7.329  1.00  0.00     0.000 C 
BRANCH   2   3
ATOM      3  C   UNL     1     -21.216  -0.070   6.467  1.00  0.00     0.000 C 
BRANCH   3   4
ATOM      4  C   UNL     1     -21.012  -1.441   7.122  1.00  0.00     0.006 C 
BRANCH   4   5
ATOM      5  C   UNL     1     -21.129  -1.345   8.645  1.00  0.00     0.053 C 
BRANCH   5   6
ATOM      6  C   UNL     1     -20.293  -2.398   9.303  1.00  0.00     0.041 C 
ATOM      7  O   UNL     1     -19.872  -2.230  10.477  1.00  0.00    -0.550 OA
ATOM      8  O   UNL     1     -19.937  -3.541   8.601  1.00  0.00    -0.550 OA
ENDBRANCH   5   6
ENDBRANCH   4   5
ENDBRANCH   3   4
ENDBRANCH   2   3
ENDBRANCH   1   2
BRANCH   1   9
ATOM      9  C   UNL     1     -22.154   2.468   8.812  1.00  0.00     0.000 C 
BRANCH   9  10
ATOM     10  C   UNL     1     -21.757   1.411   9.860  1.00  0.00    -0.000 C 
BRANCH  10  11
ATOM     11  C   UNL     1     -22.579   1.513  11.156  1.00  0.00    -0.000 C 
BRANCH  11  12
ATOM     12  C   UNL     1     -21.733   1.279  12.421  1.00  0.00    -0.000 C 
BRANCH  12  13
ATOM     13  C   UNL     1     -21.782  -0.153  12.984  1.00  0.00    -0.003 C 
ATOM     14  C   UNL     1     -21.156  -0.274  14.373  1.00  0.00     0.004 C 
ENDBRANCH  12  13
ENDBRANCH  11  12
ENDBRANCH  10  11
ENDBRANCH   9  10
ENDBRANCH   1   9
TORSDOF 10
ENDMDL
MODEL 6
REMARK VINA RESULT:    -2.972      1.438      2.226
REMARK INTER + INTRA:          -5.391
REMARK INTER:                  -4.794
REMARK INTRA:                  -0.597
REMARK UNBOUND:                -0.681
REMARK SMILES CCCCCCCCCCCC(=O)[O-]
REMARK SMILES IDX 7 1 8 2 9 3 10 4 11 5 12 6 13 7 14 8 6 9 5 10 4 11 3 12 2 13
REMARK SMILES IDX 1 14
REMARK H PARENT
REMARK Flexibility Score: inf
ROOT
ATOM      1  C   UNL     1     -21.598  -0.913   7.129  1.00  0.00     0.000 C 
ENDROOT
BRANCH   1   2
ATOM      2  C   UNL     1     -20.567  -2.043   7.257  1.00  0.00     0.000 C 
BRANCH   2   3
ATOM      3  C   UNL     1     -20.540  -2.603   8.685  1.00  0.00     0.000 C 
BRANCH   3   4
ATOM      4  C   UNL     1     -20.744  -1.490   9.718  1.00  0.00     0.006 C 
BRANCH   4   5
ATOM      5  C   UNL     1     -20.078  -1.847  11.050  1.00  0.00     0.053 C 
BRANCH   5   6
ATOM      6  C   UNL     1     -21.076  -1.802  12.164  1.00  0.00     0.041 C 
ATOM      7  O   UNL     1     -21.756  -2.824  12.445  1.00  0.00    -0.550 OA
ATOM      8  O   UNL     1     -21.291  -0.620  12.858  1.00  0.00    -0.550 OA
ENDBRANCH   5   6
ENDBRANCH   4   5
ENDBRANCH   3   4
ENDBRANCH   2   3
ENDBRANCH   1   2
BRANCH   1   9
ATOM      9  C   UNL     1     -21.033   0.343   6.439  1.00  0.00     0.000 C 
BRANCH   9  10
ATOM     10  C   UNL     1     -21.134   1.644   7.257  1.00  0.00    -0.000 C 
BRANCH  10  11
ATOM     11  C   UNL     1     -21.790   1.438   8.632  1.00  0.00    -0.000 C 
BRANCH  11  12
ATOM     12  C   UNL     1     -22.201   2.762   9.303  1.00  0.00    -0.000 C 
BRANCH  12  13
ATOM     13  C   UNL     1     -22.508   3.918   8.334  1.00  0.00    -0.003 C 
ATOM     14  C   UNL     1     -22.046   5.278   8.855  1.00  0.00     0.004 C 
ENDBRANCH  12  13
ENDBRANCH  11  12
ENDBRANCH  10  11
ENDBRANCH   9  10
ENDBRANCH   1   9
TORSDOF 10
ENDMDL
MODEL 7
REMARK VINA RESULT:    -2.932      2.413      5.271
REMARK INTER + INTRA:          -5.326
REMARK INTER:                  -4.689
REMARK INTRA:                  -0.637
REMARK UNBOUND:                -0.681
REMARK SMILES CCCCCCCCCCCC(=O)[O-]
REMARK SMILES IDX 7 1 8 2 9 3 10 4 11 5 12 6 13 7 14 8 6 9 5 10 4 11 3 12 2 13
REMARK SMILES IDX 1 14
REMARK H PARENT
REMARK Flexibility Score: inf
ROOT
ATOM      1  C   UNL     1     -21.391   1.193   8.521  1.00  0.00     0.000 C 
ENDROOT
BRANCH   1   2
ATOM      2  C   UNL     1     -21.153   1.514   7.039  1.00  0.00     0.000 C 
BRANCH   2   3
ATOM      3  C   UNL     1     -21.061   0.230   6.206  1.00  0.00     0.000 C 
BRANCH   3   4
ATOM      4  C   UNL     1     -21.604  -0.973   6.985  1.00  0.00     0.006 C 
BRANCH   4   5
ATOM      5  C   UNL     1     -20.651  -2.168   6.886  1.00  0.00     0.053 C 
BRANCH   5   6
ATOM      6  C   UNL     1     -20.380  -2.736   8.243  1.00  0.00     0.041 C 
ATOM      7  O   UNL     1     -20.535  -2.025   9.270  1.00  0.00    -0.550 OA
ATOM      8  O   UNL     1     -19.907  -4.035   8.370  1.00  0.00    -0.550 OA
ENDBRANCH   5   6
ENDBRANCH   4   5
ENDBRANCH   3   4
ENDBRANCH   2   3
ENDBRANCH   1   2
BRANCH   1   9
ATOM      9  C   UNL     1     -22.247   2.253   9.238  1.00  0.00     0.000 C 
BRANCH   9  10
ATOM     10  C   UNL     1     -22.775   1.844  10.626  1.00  0.00    -0.000 C 
BRANCH  10  11
ATOM     11  C   UNL     1     -21.840   0.867  11.359  1.00  0.00    -0.000 C 
BRANCH  11  12
ATOM     12  C   UNL     1     -21.882   1.033  12.889  1.00  0.00    -0.000 C 
BRANCH  12  13
ATOM     13  C   UNL     1     -21.420  -0.196  13.693  1.00  0.00    -0.003 C 
ATOM     14  C   UNL     1     -21.345  -1.469  12.852  1.00  0.00     0.004 C 
ENDBRANCH  12  13
ENDBRANCH  11  12
ENDBRANCH  10  11
ENDBRANCH   9  10
ENDBRANCH   1   9
TORSDOF 10
ENDMDL
MODEL 8
REMARK VINA RESULT:    -2.548      2.995      5.354
REMARK INTER + INTRA:          -4.718
REMARK INTER:                  -3.870
REMARK INTRA:                  -0.848
REMARK UNBOUND:                -0.681
REMARK SMILES CCCCCCCCCCCC(=O)[O-]
REMARK SMILES IDX 7 1 8 2 9 3 10 4 11 5 12 6 13 7 14 8 6 9 5 10 4 11 3 12 2 13
REMARK SMILES IDX 1 14
REMARK H PARENT
REMARK Flexibility Score: inf
ROOT
ATOM      1  C   UNL     1     -20.324  -1.964  11.534  1.00  0.00     0.000 C 
ENDROOT
BRANCH   1   2
ATOM      2  C   UNL     1     -20.872  -1.632  10.139  1.00  0.00     0.000 C 
BRANCH   2   3
ATOM      3  C   UNL     1     -20.243  -2.536   9.071  1.00  0.00     0.000 C 
BRANCH   3   4
ATOM      4  C   UNL     1     -20.620  -2.068   7.661  1.00  0.00     0.006 C 
BRANCH   4   5
ATOM      5  C   UNL     1     -21.361  -0.729   7.706  1.00  0.00     0.053 C 
BRANCH   5   6
ATOM      6  C   UNL     1     -20.938   0.143   6.566  1.00  0.00     0.041 C 
ATOM      7  O   UNL     1     -20.191  -0.315   5.662  1.00  0.00    -0.550 OA
ATOM      8  O   UNL     1     -21.326   1.475   6.529  1.00  0.00    -0.550 OA
ENDBRANCH   5   6
ENDBRANCH   4   5
ENDBRANCH   3   4
ENDBRANCH   2   3
ENDBRANCH   1   2
BRANCH   1   9
ATOM      9  C   UNL     1     -21.368  -1.781  12.650  1.00  0.00     0.000 C 
BRANCH   9  10
ATOM     10  C   UNL     1     -21.123  -0.585  13.590  1.00  0.00    -0.000 C 
BRANCH  10  11
ATOM     11  C   UNL     1     -22.095   0.581  13.342  1.00  0.00    -0.000 C 
BRANCH  11  12
ATOM     12  C   UNL     1     -21.683   1.460  12.146  1.00  0.00    -0.000 C 
BRANCH  12  13
ATOM     13  C   UNL     1     -22.609   1.370  10.920  1.00  0.00    -0.003 C 
ATOM     14  C   UNL     1     -22.056   2.097   9.695  1.00  0.00     0.004 C 
ENDBRANCH  12  13
ENDBRANCH  11  12
ENDBRANCH  10  11
ENDBRANCH   9  10
ENDBRANCH   1   9
TORSDOF 10
ENDMDL
MODEL 9
REMARK VINA RESULT:    -2.525      2.872      6.063
REMARK INTER + INTRA:          -4.682
REMARK INTER:                  -3.914
REMARK INTRA:                  -0.768
REMARK UNBOUND:                -0.681
REMARK SMILES CCCCCCCCCCCC(=O)[O-]
REMARK SMILES IDX 7 1 8 2 9 3 10 4 11 5 12 6 13 7 14 8 6 9 5 10 4 11 3 12 2 13
REMARK SMILES IDX 1 14
REMARK H PARENT
REMARK Flexibility Score: inf
ROOT
ATOM      1  C   UNL     1     -21.702   1.502  11.941  1.00  0.00     0.000 C 
ENDROOT
BRANCH   1   2
ATOM      2  C   UNL     1     -22.742   1.512  10.812  1.00  0.00     0.000 C 
BRANCH   2   3
ATOM      3  C   UNL     1     -22.106   1.927   9.480  1.00  0.00     0.000 C 
BRANCH   3   4
ATOM      4  C   UNL     1     -21.419   0.736   8.803  1.00  0.00     0.006 C 
BRANCH   4   5
ATOM      5  C   UNL     1     -21.018   1.079   7.365  1.00  0.00     0.053 C 
BRANCH   5   6
ATOM      6  C   UNL     1     -21.005  -0.154   6.516  1.00  0.00     0.041 C 
ATOM      7  O   UNL     1     -21.792  -1.104   6.768  1.00  0.00    -0.550 OA
ATOM      8  O   UNL     1     -20.090  -0.275   5.480  1.00  0.00    -0.550 OA
ENDBRANCH   5   6
ENDBRANCH   4   5
ENDBRANCH   3   4
ENDBRANCH   2   3
ENDBRANCH   1   2
BRANCH   1   9
ATOM      9  C   UNL     1     -22.100   0.597  13.121  1.00  0.00     0.000 C 
BRANCH   9  10
ATOM     10  C   UNL     1     -21.148  -0.582  13.396  1.00  0.00    -0.000 C 
BRANCH  10  11
ATOM     11  C   UNL     1     -21.381  -1.773  12.451  1.00  0.00    -0.000 C 
BRANCH  11  12
ATOM     12  C   UNL     1     -20.336  -1.855  11.322  1.00  0.00    -0.000 C 
BRANCH  12  13
ATOM     13  C   UNL     1     -20.904  -2.180   9.929  1.00  0.00    -0.003 C 
ATOM     14  C   UNL     1     -19.915  -2.932   9.038  1.00  0.00     0.004 C 
ENDBRANCH  12  13
ENDBRANCH  11  12
ENDBRANCH  10  11
ENDBRANCH   9  10
ENDBRANCH   1   9
TORSDOF 10
ENDMDL
