MODEL 1
REMARK VINA RESULT:    -6.002      0.000      0.000
REMARK INTER + INTRA:          -8.956
REMARK INTER:                  -7.405
REMARK INTRA:                  -1.552
REMARK UNBOUND:                -1.552
REMARK SMILES CC(C)=CCC[C@H](C)[C@H]1C=CC(C)=CC1
REMARK SMILES IDX 6 1 7 2 8 3 9 4 13 5 12 6 14 7 11 8 15 9 10 10 5 11 4 12
REMARK SMILES IDX 2 13 1 14 3 15
REMARK H PARENT
REMARK Flexibility Score: inf
ROOT
ATOM      1  C   UNL     1     112.235 112.787 110.624  1.00  0.00     0.008 C 
ENDROOT
BRANCH   1   2
ATOM      2  C   UNL     1     113.130 111.523 110.760  1.00  0.00    -0.007 C 
ATOM      3  C   UNL     1     112.544 110.363 109.924  1.00  0.00     0.008 C 
BRANCH   2   4
ATOM      4  C   UNL     1     113.311 111.071 112.248  1.00  0.00     0.018 C 
ATOM      5  C   UNL     1     112.538 110.238 116.450  1.00  0.00     0.044 C 
ATOM      6  C   UNL     1     112.621 110.515 114.979  1.00  0.00    -0.055 C 
ATOM      7  C   UNL     1     112.590 109.506 114.095  1.00  0.00    -0.023 C 
ATOM      8  C   UNL     1     112.648 111.910 114.493  1.00  0.00    -0.001 C 
ATOM      9  C   UNL     1     112.532 109.781 112.614  1.00  0.00     0.035 C 
ATOM     10  C   UNL     1     112.908 112.179 113.209  1.00  0.00    -0.023 C 
ENDBRANCH   2   4
ENDBRANCH   1   2
BRANCH   1  11
ATOM     11  C   UNL     1     110.744 112.468 110.424  1.00  0.00     0.027 C 
BRANCH  11  12
ATOM     12  C   UNL     1     110.007 112.493 111.741  1.00  0.00    -0.028 C 
ATOM     13  C   UNL     1     109.326 111.448 112.259  1.00  0.00    -0.080 C 
ATOM     14  C   UNL     1     108.671 111.615 113.606  1.00  0.00     0.039 C 
ATOM     15  C   UNL     1     109.191 110.135 111.524  1.00  0.00     0.039 C 
ENDBRANCH  11  12
ENDBRANCH   1  11
TORSDOF 4
ENDMDL
MODEL 2
REMARK VINA RESULT:    -6.001      1.348      4.922
REMARK INTER + INTRA:          -8.955
REMARK INTER:                  -7.534
REMARK INTRA:                  -1.422
REMARK UNBOUND:                -1.552
REMARK SMILES CC(C)=CCC[C@H](C)[C@H]1C=CC(C)=CC1
REMARK SMILES IDX 6 1 7 2 8 3 9 4 13 5 12 6 14 7 11 8 15 9 10 10 5 11 4 12
REMARK SMILES IDX 2 13 1 14 3 15
REMARK H PARENT
REMARK Flexibility Score: inf
ROOT
ATOM      1  C   UNL     1     110.693 112.418 115.230  1.00  0.00     0.008 C 
ENDROOT
BRANCH   1   2
ATOM      2  C   UNL     1     109.444 111.519 115.008  1.00  0.00    -0.007 C 
ATOM      3  C   UNL     1     109.711 110.095 115.544  1.00  0.00     0.008 C 
BRANCH   2   4
ATOM      4  C   UNL     1     109.009 111.453 113.505  1.00  0.00     0.018 C 
ATOM      5  C   UNL     1     109.126 111.445 109.154  1.00  0.00     0.044 C 
ATOM      6  C   UNL     1     109.265 111.398 110.646  1.00  0.00    -0.055 C 
ATOM      7  C   UNL     1     109.171 110.231 111.301  1.00  0.00    -0.023 C 
ATOM      8  C   UNL     1     109.593 112.630 111.394  1.00  0.00    -0.001 C 
ATOM      9  C   UNL     1     109.447 110.153 112.780  1.00  0.00     0.035 C 
ATOM     10  C   UNL     1     109.537 112.649 112.730  1.00  0.00    -0.023 C 
ENDBRANCH   2   4
ENDBRANCH   1   2
BRANCH   1  11
ATOM     11  C   UNL     1     112.024 111.703 114.944  1.00  0.00     0.027 C 
BRANCH  11  12
ATOM     12  C   UNL     1     112.551 112.073 113.578  1.00  0.00    -0.028 C 
ATOM     13  C   UNL     1     112.946 111.182 112.643  1.00  0.00    -0.080 C 
ATOM     14  C   UNL     1     113.415 111.704 111.309  1.00  0.00     0.039 C 
ATOM     15  C   UNL     1     112.948 109.694 112.902  1.00  0.00     0.039 C 
ENDBRANCH  11  12
ENDBRANCH   1  11
TORSDOF 4
ENDMDL
MODEL 3
REMARK VINA RESULT:    -6.000      1.129      4.050
REMARK INTER + INTRA:          -8.955
REMARK INTER:                  -7.502
REMARK INTRA:                  -1.453
REMARK UNBOUND:                -1.552
REMARK SMILES CC(C)=CCC[C@H](C)[C@H]1C=CC(C)=CC1
REMARK SMILES IDX 6 1 7 2 8 3 9 4 13 5 12 6 14 7 11 8 15 9 10 10 5 11 4 12
REMARK SMILES IDX 2 13 1 14 3 15
REMARK H PARENT
REMARK Flexibility Score: inf
ROOT
ATOM      1  C   UNL     1     111.680 109.986 115.013  1.00  0.00     0.008 C 
ENDROOT
BRANCH   1   2
ATOM      2  C   UNL     1     112.890 110.896 114.661  1.00  0.00    -0.007 C 
ATOM      3  C   UNL     1     112.595 112.357 115.067  1.00  0.00     0.008 C 
BRANCH   2   4
ATOM      4  C   UNL     1     113.273 110.828 113.144  1.00  0.00     0.018 C 
ATOM      5  C   UNL     1     113.003 110.471 108.814  1.00  0.00     0.044 C 
ATOM      6  C   UNL     1     112.917 110.645 110.300  1.00  0.00    -0.055 C 
ATOM      7  C   UNL     1     113.049 111.862 110.850  1.00  0.00    -0.023 C 
ATOM      8  C   UNL     1     112.600 109.487 111.161  1.00  0.00    -0.001 C 
ATOM      9  C   UNL     1     112.827 112.069 112.326  1.00  0.00     0.035 C 
ATOM     10  C   UNL     1     112.702 109.579 112.491  1.00  0.00    -0.023 C 
ENDBRANCH   2   4
ENDBRANCH   1   2
BRANCH   1  11
ATOM     11  C   UNL     1     110.316 110.658 114.778  1.00  0.00     0.027 C 
BRANCH  11  12
ATOM     12  C   UNL     1     109.738 110.249 113.445  1.00  0.00    -0.028 C 
ATOM     13  C   UNL     1     109.337 111.113 112.486  1.00  0.00    -0.080 C 
ATOM     14  C   UNL     1     108.813 110.552 111.189  1.00  0.00     0.039 C 
ATOM     15  C   UNL     1     109.383 112.610 112.685  1.00  0.00     0.039 C 
ENDBRANCH  11  12
ENDBRANCH   1  11
TORSDOF 4
ENDMDL
MODEL 4
REMARK VINA RESULT:    -5.978      3.313      6.334
REMARK INTER + INTRA:          -8.928
REMARK INTER:                  -7.482
REMARK INTRA:                  -1.446
REMARK UNBOUND:                -1.552
REMARK SMILES CC(C)=CCC[C@H](C)[C@H]1C=CC(C)=CC1
REMARK SMILES IDX 6 1 7 2 8 3 9 4 13 5 12 6 14 7 11 8 15 9 10 10 5 11 4 12
REMARK SMILES IDX 2 13 1 14 3 15
REMARK H PARENT
REMARK Flexibility Score: inf
ROOT
ATOM      1  C   UNL     1     111.694 110.007 110.169  1.00  0.00     0.008 C 
ENDROOT
BRANCH   1   2
ATOM      2  C   UNL     1     112.885 110.954 109.850  1.00  0.00    -0.007 C 
ATOM      3  C   UNL     1     112.543 112.401 110.272  1.00  0.00     0.008 C 
BRANCH   2   4
ATOM      4  C   UNL     1     113.293 110.920 108.339  1.00  0.00     0.018 C 
ATOM      5  C   UNL     1     113.102 110.624 104.000  1.00  0.00     0.044 C 
ATOM      6  C   UNL     1     112.989 110.773 105.488  1.00  0.00    -0.055 C 
ATOM      7  C   UNL     1     113.082 111.984 106.058  1.00  0.00    -0.023 C 
ATOM      8  C   UNL     1     112.685 109.594 106.325  1.00  0.00    -0.001 C 
ATOM      9  C   UNL     1     112.830 112.162 107.533  1.00  0.00     0.035 C 
ATOM     10  C   UNL     1     112.764 109.668 107.658  1.00  0.00    -0.023 C 
ENDBRANCH   2   4
ENDBRANCH   1   2
BRANCH   1  11
ATOM     11  C   UNL     1     110.317 110.642 109.913  1.00  0.00     0.027 C 
BRANCH  11  12
ATOM     12  C   UNL     1     109.770 110.217 108.571  1.00  0.00    -0.028 C 
ATOM     13  C   UNL     1     109.354 111.069 107.609  1.00  0.00    -0.080 C 
ATOM     14  C   UNL     1     108.866 110.494 106.304  1.00  0.00     0.039 C 
ATOM     15  C   UNL     1     109.349 112.566 107.810  1.00  0.00     0.039 C 
ENDBRANCH  11  12
ENDBRANCH   1  11
TORSDOF 4
ENDMDL
MODEL 5
REMARK VINA RESULT:    -5.975      3.406      6.781
REMARK INTER + INTRA:          -8.924
REMARK INTER:                  -7.465
REMARK INTRA:                  -1.459
REMARK UNBOUND:                -1.552
REMARK SMILES CC(C)=CCC[C@H](C)[C@H]1C=CC(C)=CC1
REMARK SMILES IDX 6 1 7 2 8 3 9 4 13 5 12 6 14 7 11 8 15 9 10 10 5 11 4 12
REMARK SMILES IDX 2 13 1 14 3 15
REMARK H PARENT
REMARK Flexibility Score: inf
ROOT
ATOM      1  C   UNL     1     110.559 112.318 110.349  1.00  0.00     0.008 C 
ENDROOT
BRANCH   1   2
ATOM      2  C   UNL     1     109.408 111.315 110.056  1.00  0.00    -0.007 C 
ATOM      3  C   UNL     1     109.820 109.890 110.487  1.00  0.00     0.008 C 
BRANCH   2   4
ATOM      4  C   UNL     1     108.979 111.315 108.550  1.00  0.00     0.018 C 
ATOM      5  C   UNL     1     109.103 111.557 104.205  1.00  0.00     0.044 C 
ATOM      6  C   UNL     1     109.241 111.432 105.693  1.00  0.00    -0.055 C 
ATOM      7  C   UNL     1     109.195 110.227 106.281  1.00  0.00    -0.023 C 
ATOM      8  C   UNL     1     109.517 112.632 106.510  1.00  0.00    -0.001 C 
ATOM      9  C   UNL     1     109.471 110.077 107.755  1.00  0.00     0.035 C 
ATOM     10  C   UNL     1     109.458 112.575 107.845  1.00  0.00    -0.023 C 
ENDBRANCH   2   4
ENDBRANCH   1   2
BRANCH   1  11
ATOM     11  C   UNL     1     111.961 111.734 110.110  1.00  0.00     0.027 C 
BRANCH  11  12
ATOM     12  C   UNL     1     112.479 112.120 108.746  1.00  0.00    -0.028 C 
ATOM     13  C   UNL     1     112.893 111.242 107.806  1.00  0.00    -0.080 C 
ATOM     14  C   UNL     1     113.350 111.779 106.475  1.00  0.00     0.039 C 
ATOM     15  C   UNL     1     112.925 109.753 108.059  1.00  0.00     0.039 C 
ENDBRANCH  11  12
ENDBRANCH   1  11
TORSDOF 4
ENDMDL
MODEL 6
REMARK VINA RESULT:    -5.961      1.493      3.854
REMARK INTER + INTRA:          -8.906
REMARK INTER:                  -7.390
REMARK INTRA:                  -1.516
REMARK UNBOUND:                -1.552
REMARK SMILES CC(C)=CCC[C@H](C)[C@H]1C=CC(C)=CC1
REMARK SMILES IDX 6 1 7 2 8 3 9 4 13 5 12 6 14 7 11 8 15 9 10 10 5 11 4 12
REMARK SMILES IDX 2 13 1 14 3 15
REMARK H PARENT
REMARK Flexibility Score: inf
ROOT
ATOM      1  C   UNL     1     110.062 109.492 110.512  1.00  0.00     0.008 C 
ENDROOT
BRANCH   1   2
ATOM      2  C   UNL     1     109.144 110.734 110.686  1.00  0.00    -0.007 C 
ATOM      3  C   UNL     1     109.704 111.929 109.883  1.00  0.00     0.008 C 
BRANCH   2   4
ATOM      4  C   UNL     1     108.957 111.139 112.188  1.00  0.00     0.018 C 
ATOM      5  C   UNL     1     109.743 111.925 116.396  1.00  0.00     0.044 C 
ATOM      6  C   UNL     1     109.655 111.677 114.920  1.00  0.00    -0.055 C 
ATOM      7  C   UNL     1     109.604 112.705 114.060  1.00  0.00    -0.023 C 
ATOM      8  C   UNL     1     109.712 110.294 114.401  1.00  0.00    -0.001 C 
ATOM      9  C   UNL     1     109.656 112.469 112.573  1.00  0.00     0.035 C 
ATOM     10  C   UNL     1     109.449 110.039 113.115  1.00  0.00    -0.023 C 
ENDBRANCH   2   4
ENDBRANCH   1   2
BRANCH   1  11
ATOM     11  C   UNL     1     111.545 109.846 110.314  1.00  0.00     0.027 C 
BRANCH  11  12
ATOM     12  C   UNL     1     112.296 109.768 111.621  1.00  0.00    -0.028 C 
ATOM     13  C   UNL     1     112.938 110.806 112.200  1.00  0.00    -0.080 C 
ATOM     14  C   UNL     1     113.614 110.581 113.528  1.00  0.00     0.039 C 
ATOM     15  C   UNL     1     113.011 112.168 111.549  1.00  0.00     0.039 C 
ENDBRANCH  11  12
ENDBRANCH   1  11
TORSDOF 4
ENDMDL
MODEL 7
REMARK VINA RESULT:    -5.949      3.465      5.036
REMARK INTER + INTRA:          -8.892
REMARK INTER:                  -7.343
REMARK INTRA:                  -1.548
REMARK UNBOUND:                -1.552
REMARK SMILES CC(C)=CCC[C@H](C)[C@H]1C=CC(C)=CC1
REMARK SMILES IDX 6 1 7 2 8 3 9 4 13 5 12 6 14 7 11 8 15 9 10 10 5 11 4 12
REMARK SMILES IDX 2 13 1 14 3 15
REMARK H PARENT
REMARK Flexibility Score: inf
ROOT
ATOM      1  C   UNL     1     112.138 112.871 105.610  1.00  0.00     0.008 C 
ENDROOT
BRANCH   1   2
ATOM      2  C   UNL     1     113.094 111.648 105.698  1.00  0.00    -0.007 C 
ATOM      3  C   UNL     1     112.551 110.484 104.838  1.00  0.00     0.008 C 
BRANCH   2   4
ATOM      4  C   UNL     1     113.319 111.165 107.171  1.00  0.00     0.018 C 
ATOM      5  C   UNL     1     112.654 110.195 111.362  1.00  0.00     0.044 C 
ATOM      6  C   UNL     1     112.699 110.513 109.897  1.00  0.00    -0.055 C 
ATOM      7  C   UNL     1     112.691 109.527 108.987  1.00  0.00    -0.023 C 
ATOM      8  C   UNL     1     112.665 111.920 109.448  1.00  0.00    -0.001 C 
ATOM      9  C   UNL     1     112.596 109.837 107.516  1.00  0.00     0.035 C 
ATOM     10  C   UNL     1     112.891 112.231 108.167  1.00  0.00    -0.023 C 
ENDBRANCH   2   4
ENDBRANCH   1   2
BRANCH   1  11
ATOM     11  C   UNL     1     110.659 112.486 105.442  1.00  0.00     0.027 C 
BRANCH  11  12
ATOM     12  C   UNL     1     109.952 112.473 106.775  1.00  0.00    -0.028 C 
ATOM     13  C   UNL     1     109.326 111.397 107.300  1.00  0.00    -0.080 C 
ATOM     14  C   UNL     1     108.694 111.528 108.662  1.00  0.00     0.039 C 
ATOM     15  C   UNL     1     109.228 110.084 106.558  1.00  0.00     0.039 C 
ENDBRANCH  11  12
ENDBRANCH   1  11
TORSDOF 4
ENDMDL
MODEL 8
REMARK VINA RESULT:    -5.903      2.780      5.085
REMARK INTER + INTRA:          -8.835
REMARK INTER:                  -7.722
REMARK INTRA:                  -1.113
REMARK UNBOUND:                -1.552
REMARK SMILES CC(C)=CCC[C@H](C)[C@H]1C=CC(C)=CC1
REMARK SMILES IDX 6 1 7 2 8 3 9 4 13 5 12 6 14 7 11 8 15 9 10 10 5 11 4 12
REMARK SMILES IDX 2 13 1 14 3 15
REMARK H PARENT
REMARK Flexibility Score: inf
ROOT
ATOM      1  C   UNL     1     109.243 110.465 107.154  1.00  0.00     0.008 C 
ENDROOT
BRANCH   1   2
ATOM      2  C   UNL     1     108.840 111.444 108.293  1.00  0.00    -0.007 C 
ATOM      3  C   UNL     1     109.067 112.905 107.845  1.00  0.00     0.008 C 
BRANCH   2   4
ATOM      4  C   UNL     1     109.613 111.166 109.626  1.00  0.00     0.018 C 
ATOM      5  C   UNL     1     110.724 111.095 113.835  1.00  0.00     0.044 C 
ATOM      6  C   UNL     1     110.167 111.148 112.443  1.00  0.00    -0.055 C 
ATOM      7  C   UNL     1     109.598 110.062 111.898  1.00  0.00    -0.023 C 
ATOM      8  C   UNL     1     110.165 112.425 111.699  1.00  0.00    -0.001 C 
ATOM      9  C   UNL     1     108.913 110.142 110.558  1.00  0.00     0.035 C 
ATOM     10  C   UNL     1     109.848 112.454 110.400  1.00  0.00    -0.023 C 
ENDBRANCH   2   4
ENDBRANCH   1   2
BRANCH   1  11
ATOM     11  C   UNL     1     110.732 110.082 107.170  1.00  0.00     0.027 C 
BRANCH  11  12
ATOM     12  C   UNL     1     111.528 110.976 106.250  1.00  0.00    -0.028 C 
ATOM     13  C   UNL     1     112.493 111.829 106.656  1.00  0.00    -0.080 C 
ATOM     14  C   UNL     1     113.227 112.631 105.612  1.00  0.00     0.039 C 
ATOM     15  C   UNL     1     112.841 112.011 108.114  1.00  0.00     0.039 C 
ENDBRANCH  11  12
ENDBRANCH   1  11
TORSDOF 4
ENDMDL
MODEL 9
REMARK VINA RESULT:    -5.883      1.956      4.023
REMARK INTER + INTRA:          -8.810
REMARK INTER:                  -7.695
REMARK INTRA:                  -1.115
REMARK UNBOUND:                -1.552
REMARK SMILES CC(C)=CCC[C@H](C)[C@H]1C=CC(C)=CC1
REMARK SMILES IDX 6 1 7 2 8 3 9 4 13 5 12 6 14 7 11 8 15 9 10 10 5 11 4 12
REMARK SMILES IDX 2 13 1 14 3 15
REMARK H PARENT
REMARK Flexibility Score: inf
ROOT
ATOM      1  C   UNL     1     109.224 110.497 112.020  1.00  0.00     0.008 C 
ENDROOT
BRANCH   1   2
ATOM      2  C   UNL     1     108.852 111.475 113.170  1.00  0.00    -0.007 C 
ATOM      3  C   UNL     1     109.123 112.934 112.737  1.00  0.00     0.008 C 
BRANCH   2   4
ATOM      4  C   UNL     1     109.617 111.161 114.499  1.00  0.00     0.018 C 
ATOM      5  C   UNL     1     110.738 111.027 118.703  1.00  0.00     0.044 C 
ATOM      6  C   UNL     1     110.180 111.109 117.314  1.00  0.00    -0.055 C 
ATOM      7  C   UNL     1     109.564 110.050 116.767  1.00  0.00    -0.023 C 
ATOM      8  C   UNL     1     110.228 112.387 116.574  1.00  0.00    -0.001 C 
ATOM      9  C   UNL     1     108.878 110.163 115.430  1.00  0.00     0.035 C 
ATOM     10  C   UNL     1     109.908 112.435 115.277  1.00  0.00    -0.023 C 
ENDBRANCH   2   4
ENDBRANCH   1   2
BRANCH   1  11
ATOM     11  C   UNL     1     110.704 110.080 112.022  1.00  0.00     0.027 C 
BRANCH  11  12
ATOM     12  C   UNL     1     111.506 110.942 111.077  1.00  0.00    -0.028 C 
ATOM     13  C   UNL     1     112.493 111.783 111.457  1.00  0.00    -0.080 C 
ATOM     14  C   UNL     1     113.230 112.552 110.391  1.00  0.00     0.039 C 
ATOM     15  C   UNL     1     112.860 111.985 112.908  1.00  0.00     0.039 C 
ENDBRANCH  11  12
ENDBRANCH   1  11
TORSDOF 4
ENDMDL
