MODEL 1
REMARK VINA RESULT:     1.570      0.000      0.000
REMARK INTER + INTRA:           3.719
REMARK INTER:                   2.396
REMARK INTRA:                   1.323
REMARK UNBOUND:                 1.323
REMARK SMILES CC(=O)CCC=C(C)CCC=C(C)CCC=C(C)C
REMARK SMILES IDX 10 1 11 2 12 3 13 4 14 5 15 6 16 7 18 8 17 9 19 10 9 11 7 12
REMARK SMILES IDX 6 13 8 14 5 15 4 16 2 17 3 18 1 19
REMARK H PARENT
REMARK Flexibility Score: inf
ROOT
ATOM      1  C   UNL     1      -4.487   5.604   8.947  1.00  0.00     0.032 C 
ENDROOT
BRANCH   1   2
ATOM      2  C   UNL     1      -3.535   6.492   9.708  1.00  0.00    -0.028 C 
ATOM      3  C   UNL     1      -2.342   6.916   9.235  1.00  0.00    -0.077 C 
ATOM      4  C   UNL     1      -1.865   6.568   7.843  1.00  0.00     0.039 C 
BRANCH   3   5
ATOM      5  C   UNL     1      -1.467   7.787  10.114  1.00  0.00     0.034 C 
BRANCH   5   6
ATOM      6  C   UNL     1       0.018   7.418   9.988  1.00  0.00     0.032 C 
BRANCH   6   7
ATOM      7  C   UNL     1       0.909   8.636  10.064  1.00  0.00    -0.028 C 
ATOM      8  C   UNL     1       3.010   9.906  10.112  1.00  0.00     0.039 C 
ATOM      9  C   UNL     1       2.259   8.600  10.091  1.00  0.00    -0.080 C 
ATOM     10  C   UNL     1       3.026   7.300  10.123  1.00  0.00     0.039 C 
ENDBRANCH   6   7
ENDBRANCH   5   6
ENDBRANCH   3   5
ENDBRANCH   1   2
BRANCH   1  11
ATOM     11  C   UNL     1      -5.541   5.006   9.885  1.00  0.00     0.034 C 
BRANCH  11  12
ATOM     12  C   UNL     1      -6.155   3.763   9.273  1.00  0.00    -0.077 C 
ATOM     13  C   UNL     1      -5.482   2.955   8.425  1.00  0.00    -0.028 C 
ATOM     14  C   UNL     1      -7.556   3.377   9.674  1.00  0.00     0.039 C 
BRANCH  13  15
ATOM     15  C   UNL     1      -4.069   3.221   7.958  1.00  0.00     0.035 C 
BRANCH  15  16
ATOM     16  C   UNL     1      -3.843   2.769   6.508  1.00  0.00     0.079 C 
BRANCH  16  17
ATOM     17  C   UNL     1      -3.229   3.860   5.670  1.00  0.00     0.130 C 
ATOM     18  O   UNL     1      -2.622   3.571   4.650  1.00  0.00    -0.300 OA
ATOM     19  C   UNL     1      -3.374   5.303   6.054  1.00  0.00     0.087 C 
ENDBRANCH  16  17
ENDBRANCH  15  16
ENDBRANCH  13  15
ENDBRANCH  11  12
ENDBRANCH   1  11
TORSDOF 9
ENDMDL
MODEL 2
REMARK VINA RESULT:     1.723      1.670      2.084
REMARK INTER + INTRA:           3.952
REMARK INTER:                   3.437
REMARK INTRA:                   0.515
REMARK UNBOUND:                 1.323
REMARK SMILES CC(=O)CCC=C(C)CCC=C(C)CCC=C(C)C
REMARK SMILES IDX 10 1 11 2 12 3 13 4 14 5 15 6 16 7 18 8 17 9 19 10 9 11 7 12
REMARK SMILES IDX 6 13 8 14 5 15 4 16 2 17 3 18 1 19
REMARK H PARENT
REMARK Flexibility Score: inf
ROOT
ATOM      1  C   UNL     1      -4.497   5.599   8.946  1.00  0.00     0.032 C 
ENDROOT
BRANCH   1   2
ATOM      2  C   UNL     1      -3.507   6.441   9.710  1.00  0.00    -0.028 C 
ATOM      3  C   UNL     1      -2.309   6.840   9.227  1.00  0.00    -0.077 C 
ATOM      4  C   UNL     1      -1.864   6.508   7.821  1.00  0.00     0.039 C 
BRANCH   3   5
ATOM      5  C   UNL     1      -1.394   7.664  10.111  1.00  0.00     0.034 C 
BRANCH   5   6
ATOM      6  C   UNL     1       0.076   7.252   9.955  1.00  0.00     0.032 C 
BRANCH   6   7
ATOM      7  C   UNL     1       1.005   8.441  10.033  1.00  0.00    -0.028 C 
ATOM      8  C   UNL     1       3.146   9.642  10.098  1.00  0.00     0.039 C 
ATOM      9  C   UNL     1       2.353   8.361  10.076  1.00  0.00    -0.080 C 
ATOM     10  C   UNL     1       3.077   7.037  10.125  1.00  0.00     0.039 C 
ENDBRANCH   6   7
ENDBRANCH   5   6
ENDBRANCH   3   5
ENDBRANCH   1   2
BRANCH   1  11
ATOM     11  C   UNL     1      -5.588   5.061   9.878  1.00  0.00     0.034 C 
BRANCH  11  12
ATOM     12  C   UNL     1      -6.215   3.809   9.298  1.00  0.00    -0.077 C 
ATOM     13  C   UNL     1      -5.565   2.998   8.435  1.00  0.00    -0.028 C 
ATOM     14  C   UNL     1      -7.599   3.418   9.750  1.00  0.00     0.039 C 
BRANCH  13  15
ATOM     15  C   UNL     1      -4.171   3.268   7.918  1.00  0.00     0.035 C 
BRANCH  15  16
ATOM     16  C   UNL     1      -3.467   1.986   7.451  1.00  0.00     0.079 C 
BRANCH  16  17
ATOM     17  C   UNL     1      -2.857   1.230   8.602  1.00  0.00     0.130 C 
ATOM     18  O   UNL     1      -3.234   1.456   9.743  1.00  0.00    -0.300 OA
ATOM     19  C   UNL     1      -1.809   0.182   8.370  1.00  0.00     0.087 C 
ENDBRANCH  16  17
ENDBRANCH  15  16
ENDBRANCH  13  15
ENDBRANCH  11  12
ENDBRANCH   1  11
TORSDOF 9
ENDMDL
MODEL 3
REMARK VINA RESULT:     2.537      2.200      7.747
REMARK INTER + INTRA:           5.195
REMARK INTER:                   3.578
REMARK INTRA:                   1.617
REMARK UNBOUND:                 1.323
REMARK SMILES CC(=O)CCC=C(C)CCC=C(C)CCC=C(C)C
REMARK SMILES IDX 10 1 11 2 12 3 13 4 14 5 15 6 16 7 18 8 17 9 19 10 9 11 7 12
REMARK SMILES IDX 6 13 8 14 5 15 4 16 2 17 3 18 1 19
REMARK H PARENT
REMARK Flexibility Score: inf
ROOT
ATOM      1  C   UNL     1      -1.305   6.884   8.851  1.00  0.00     0.032 C 
ENDROOT
BRANCH   1   2
ATOM      2  C   UNL     1      -2.381   5.906   9.246  1.00  0.00    -0.028 C 
ATOM      3  C   UNL     1      -3.367   5.480   8.425  1.00  0.00    -0.077 C 
ATOM      4  C   UNL     1      -3.451   5.923   6.982  1.00  0.00     0.039 C 
BRANCH   3   5
ATOM      5  C   UNL     1      -4.404   4.511   8.956  1.00  0.00     0.034 C 
BRANCH   5   6
ATOM      6  C   UNL     1      -5.206   5.112  10.119  1.00  0.00     0.032 C 
BRANCH   6   7
ATOM      7  C   UNL     1      -6.656   4.689  10.080  1.00  0.00    -0.028 C 
ATOM      8  C   UNL     1      -8.584   3.251   9.581  1.00  0.00     0.039 C 
ATOM      9  C   UNL     1      -7.113   3.564   9.489  1.00  0.00    -0.080 C 
ATOM     10  C   UNL     1      -6.201   2.631   8.728  1.00  0.00     0.039 C 
ENDBRANCH   6   7
ENDBRANCH   5   6
ENDBRANCH   3   5
ENDBRANCH   1   2
BRANCH   1  11
ATOM     11  C   UNL     1      -0.826   7.686  10.066  1.00  0.00     0.034 C 
BRANCH  11  12
ATOM     12  C   UNL     1      -0.911   9.174   9.791  1.00  0.00    -0.077 C 
ATOM     13  C   UNL     1       0.178   9.972   9.737  1.00  0.00    -0.028 C 
ATOM     14  C   UNL     1      -2.261   9.780   9.504  1.00  0.00     0.039 C 
BRANCH  13  15
ATOM     15  C   UNL     1       1.587   9.486   9.989  1.00  0.00     0.035 C 
BRANCH  15  16
ATOM     16  C   UNL     1       1.658   7.958  10.125  1.00  0.00     0.079 C 
BRANCH  16  17
ATOM     17  C   UNL     1       2.985   7.416   9.662  1.00  0.00     0.130 C 
ATOM     18  O   UNL     1       3.034   6.333   9.097  1.00  0.00    -0.300 OA
ATOM     19  C   UNL     1       4.250   8.198   9.858  1.00  0.00     0.087 C 
ENDBRANCH  16  17
ENDBRANCH  15  16
ENDBRANCH  13  15
ENDBRANCH  11  12
ENDBRANCH   1  11
TORSDOF 9
ENDMDL
