MODEL 1
REMARK VINA RESULT:     1.531      0.000      0.000
REMARK INTER + INTRA:           0.893
REMARK INTER:                   2.113
REMARK INTRA:                  -1.220
REMARK UNBOUND:                -1.220
REMARK SMILES CC[C@@H](CC[C@H](C)[C@H]1CC[C@@H]2[C@@H]3CC=C4C[C@H](O)CC[C@]4(C)[C@@H]3CC[C@]21C)C(C)C
REMARK SMILES IDX 5 1 4 2 3 3 2 4 1 5 28 6 29 7 30 8 6 9 7 10 8 11 9 12 26 13
REMARK SMILES IDX 10 14 11 15 25 16 27 17 12 18 24 19 23 20 13 21 21 22 14 23
REMARK SMILES IDX 15 24 20 25 22 26 16 27 19 28 17 29 18 30
REMARK H PARENT 18 31
REMARK Flexibility Score: inf
ROOT
ATOM      1  C   UNL     1      29.011  32.625  24.690  1.00  0.00     0.004 C 
ENDROOT
BRANCH   1   2
ATOM      2  C   UNL     1      28.600  31.504  23.710  1.00  0.00     0.004 C 
BRANCH   2   3
ATOM      3  C   UNL     1      27.931  30.291  24.419  1.00  0.00    -0.009 C 
BRANCH   3   4
ATOM      4  C   UNL     1      28.614  30.015  25.798  1.00  0.00     0.000 C 
ATOM      5  C   UNL     1      28.875  28.527  26.029  1.00  0.00     0.004 C 
ENDBRANCH   3   4
BRANCH   3   6
ATOM      6  C   UNL     1      27.935  28.993  23.536  1.00  0.00    -0.014 C 
ATOM      7  C   UNL     1      26.525  28.701  22.987  1.00  0.00     0.007 C 
ATOM      8  C   UNL     1      28.912  29.056  22.346  1.00  0.00     0.007 C 
ENDBRANCH   3   6
ENDBRANCH   2   3
ENDBRANCH   1   2
BRANCH   1   9
ATOM      9  C   UNL     1      28.948  34.049  24.068  1.00  0.00    -0.011 C 
ATOM     10  C   UNL     1      29.125  35.122  25.168  1.00  0.00     0.008 C 
BRANCH   9  11
ATOM     11  C   UNL     1      27.646  34.188  23.192  1.00  0.00    -0.002 C 
ATOM     12  C   UNL     1      26.368  34.578  23.991  1.00  0.00     0.005 C 
ATOM     13  C   UNL     1      27.669  35.165  21.965  1.00  0.00    -0.026 C 
ATOM     14  C   UNL     1      25.811  35.871  23.375  1.00  0.00     0.005 C 
ATOM     15  C   UNL     1      26.954  36.401  22.525  1.00  0.00    -0.001 C 
ATOM     16  C   UNL     1      29.044  35.622  21.432  1.00  0.00     0.007 C 
ATOM     17  C   UNL     1      26.898  34.462  20.804  1.00  0.00     0.012 C 
ATOM     18  C   UNL     1      26.701  37.551  21.522  1.00  0.00     0.000 C 
ATOM     19  C   UNL     1      28.910  36.747  20.377  1.00  0.00     0.005 C 
ATOM     20  C   UNL     1      28.044  37.976  20.830  1.00  0.00     0.003 C 
ATOM     21  C   UNL     1      25.498  37.348  20.558  1.00  0.00     0.031 C 
ATOM     22  C   UNL     1      27.778  39.031  19.682  1.00  0.00    -0.008 C 
ATOM     23  C   UNL     1      25.763  37.669  19.109  1.00  0.00    -0.027 C 
ATOM     24  C   UNL     1      26.772  38.457  18.684  1.00  0.00    -0.065 C 
ATOM     25  C   UNL     1      29.113  39.429  18.966  1.00  0.00     0.014 C 
ATOM     26  C   UNL     1      27.166  40.321  20.294  1.00  0.00     0.016 C 
ATOM     27  C   UNL     1      26.684  39.013  17.273  1.00  0.00     0.063 C 
ATOM     28  C   UNL     1      28.912  40.175  17.641  1.00  0.00     0.033 C 
ATOM     29  C   UNL     1      28.054  39.357  16.667  1.00  0.00     0.118 C 
BRANCH  29  30
ATOM     30  O   UNL     1      28.737  38.208  16.224  1.00  0.00    -0.393 OA
ATOM     31  H   UNL     1      29.296  37.865  16.969  1.00  0.00     0.210 HD
ENDBRANCH  29  30
ENDBRANCH   9  11
ENDBRANCH   1   9
TORSDOF 7
ENDMDL
MODEL 2
REMARK VINA RESULT:     1.659      1.794      3.063
REMARK INTER + INTRA:           1.069
REMARK INTER:                   0.729
REMARK INTRA:                   0.340
REMARK UNBOUND:                -1.220
REMARK SMILES CC[C@@H](CC[C@H](C)[C@H]1CC[C@@H]2[C@@H]3CC=C4C[C@H](O)CC[C@]4(C)[C@@H]3CC[C@]21C)C(C)C
REMARK SMILES IDX 5 1 4 2 3 3 2 4 1 5 28 6 29 7 30 8 6 9 7 10 8 11 9 12 26 13
REMARK SMILES IDX 10 14 11 15 25 16 27 17 12 18 24 19 23 20 13 21 21 22 14 23
REMARK SMILES IDX 15 24 20 25 22 26 16 27 19 28 17 29 18 30
REMARK H PARENT 18 31
REMARK Flexibility Score: inf
ROOT
ATOM      1  C   UNL     1      28.987  32.561  21.966  1.00  0.00     0.004 C 
ENDROOT
BRANCH   1   2
ATOM      2  C   UNL     1      28.252  31.933  23.170  1.00  0.00     0.004 C 
BRANCH   2   3
ATOM      3  C   UNL     1      28.810  30.534  23.563  1.00  0.00    -0.009 C 
BRANCH   3   4
ATOM      4  C   UNL     1      28.452  29.475  22.470  1.00  0.00     0.000 C 
ATOM      5  C   UNL     1      27.143  28.747  22.773  1.00  0.00     0.004 C 
ENDBRANCH   3   4
BRANCH   3   6
ATOM      6  C   UNL     1      28.314  30.055  24.973  1.00  0.00    -0.014 C 
ATOM      7  C   UNL     1      28.569  28.546  25.159  1.00  0.00     0.007 C 
ATOM      8  C   UNL     1      28.972  30.803  26.148  1.00  0.00     0.007 C 
ENDBRANCH   3   6
ENDBRANCH   2   3
ENDBRANCH   1   2
BRANCH   1   9
ATOM      9  C   UNL     1      29.013  34.116  21.996  1.00  0.00    -0.011 C 
ATOM     10  C   UNL     1      28.139  34.643  23.158  1.00  0.00     0.008 C 
BRANCH   9  11
ATOM     11  C   UNL     1      28.654  34.681  20.571  1.00  0.00    -0.002 C 
ATOM     12  C   UNL     1      27.395  34.040  19.919  1.00  0.00     0.005 C 
ATOM     13  C   UNL     1      28.451  36.228  20.407  1.00  0.00    -0.026 C 
ATOM     14  C   UNL     1      26.406  35.173  19.603  1.00  0.00     0.005 C 
ATOM     15  C   UNL     1      26.923  36.353  20.411  1.00  0.00    -0.001 C 
ATOM     16  C   UNL     1      28.998  37.150  21.518  1.00  0.00     0.007 C 
ATOM     17  C   UNL     1      29.114  36.638  19.055  1.00  0.00     0.012 C 
ATOM     18  C   UNL     1      26.356  37.770  20.155  1.00  0.00     0.000 C 
ATOM     19  C   UNL     1      28.531  38.615  21.336  1.00  0.00     0.005 C 
ATOM     20  C   UNL     1      26.981  38.796  21.166  1.00  0.00     0.003 C 
ATOM     21  C   UNL     1      26.344  38.230  18.670  1.00  0.00     0.031 C 
ATOM     22  C   UNL     1      26.544  40.274  20.811  1.00  0.00    -0.008 C 
ATOM     23  C   UNL     1      26.853  39.626  18.418  1.00  0.00    -0.027 C 
ATOM     24  C   UNL     1      26.924  40.585  19.363  1.00  0.00    -0.065 C 
ATOM     25  C   UNL     1      27.195  41.303  21.795  1.00  0.00     0.014 C 
ATOM     26  C   UNL     1      25.001  40.404  20.941  1.00  0.00     0.016 C 
ATOM     27  C   UNL     1      27.067  42.023  18.896  1.00  0.00     0.063 C 
ATOM     28  C   UNL     1      27.101  42.760  21.326  1.00  0.00     0.033 C 
ATOM     29  C   UNL     1      27.729  42.940  19.938  1.00  0.00     0.118 C 
BRANCH  29  30
ATOM     30  O   UNL     1      29.125  42.764  19.981  1.00  0.00    -0.393 OA
ATOM     31  H   UNL     1      29.321  41.791  19.982  1.00  0.00     0.210 HD
ENDBRANCH  29  30
ENDBRANCH   9  11
ENDBRANCH   1   9
TORSDOF 7
ENDMDL
MODEL 3
REMARK VINA RESULT:     2.114      2.126      3.735
REMARK INTER + INTRA:           1.698
REMARK INTER:                  -1.019
REMARK INTRA:                   2.717
REMARK UNBOUND:                -1.220
REMARK SMILES CC[C@@H](CC[C@H](C)[C@H]1CC[C@@H]2[C@@H]3CC=C4C[C@H](O)CC[C@]4(C)[C@@H]3CC[C@]21C)C(C)C
REMARK SMILES IDX 5 1 4 2 3 3 2 4 1 5 28 6 29 7 30 8 6 9 7 10 8 11 9 12 26 13
REMARK SMILES IDX 10 14 11 15 25 16 27 17 12 18 24 19 23 20 13 21 21 22 14 23
REMARK SMILES IDX 15 24 20 25 22 26 16 27 19 28 17 29 18 30
REMARK H PARENT 18 31
REMARK Flexibility Score: inf
ROOT
ATOM      1  C   UNL     1      29.125  34.879  21.436  1.00  0.00     0.004 C 
ENDROOT
BRANCH   1   2
ATOM      2  C   UNL     1      28.429  34.147  22.605  1.00  0.00     0.004 C 
BRANCH   2   3
ATOM      3  C   UNL     1      29.085  32.776  22.943  1.00  0.00    -0.009 C 
BRANCH   3   4
ATOM      4  C   UNL     1      28.837  31.751  21.789  1.00  0.00     0.000 C 
ATOM      5  C   UNL     1      29.124  30.313  22.219  1.00  0.00     0.004 C 
ENDBRANCH   3   4
BRANCH   3   6
ATOM      6  C   UNL     1      28.594  32.188  24.313  1.00  0.00    -0.014 C 
ATOM      7  C   UNL     1      29.050  30.725  24.474  1.00  0.00     0.007 C 
ATOM      8  C   UNL     1      29.082  32.983  25.539  1.00  0.00     0.007 C 
ENDBRANCH   3   6
ENDBRANCH   2   3
ENDBRANCH   1   2
BRANCH   1   9
ATOM      9  C   UNL     1      28.259  34.953  20.147  1.00  0.00    -0.011 C 
ATOM     10  C   UNL     1      29.118  35.435  18.953  1.00  0.00     0.008 C 
BRANCH   9  11
ATOM     11  C   UNL     1      26.959  35.797  20.427  1.00  0.00    -0.002 C 
ATOM     12  C   UNL     1      26.371  35.621  21.857  1.00  0.00     0.005 C 
ATOM     13  C   UNL     1      27.007  37.348  20.197  1.00  0.00    -0.026 C 
ATOM     14  C   UNL     1      26.300  37.013  22.505  1.00  0.00     0.005 C 
ATOM     15  C   UNL     1      27.187  37.878  21.624  1.00  0.00    -0.001 C 
ATOM     16  C   UNL     1      28.157  37.915  19.338  1.00  0.00     0.007 C 
ATOM     17  C   UNL     1      25.652  37.756  19.538  1.00  0.00     0.012 C 
ATOM     18  C   UNL     1      27.166  39.417  21.784  1.00  0.00     0.000 C 
ATOM     19  C   UNL     1      28.205  39.462  19.385  1.00  0.00     0.005 C 
ATOM     20  C   UNL     1      28.222  40.078  20.828  1.00  0.00     0.003 C 
ATOM     21  C   UNL     1      25.757  40.075  21.766  1.00  0.00     0.031 C 
ATOM     22  C   UNL     1      28.097  41.655  20.854  1.00  0.00    -0.008 C 
ATOM     23  C   UNL     1      25.623  41.303  20.903  1.00  0.00    -0.027 C 
ATOM     24  C   UNL     1      26.666  42.059  20.500  1.00  0.00    -0.065 C 
ATOM     25  C   UNL     1      29.125  42.314  19.874  1.00  0.00     0.014 C 
ATOM     26  C   UNL     1      28.404  42.176  22.286  1.00  0.00     0.016 C 
ATOM     27  C   UNL     1      26.364  43.457  19.990  1.00  0.00     0.063 C 
ATOM     28  C   UNL     1      28.848  43.795  19.585  1.00  0.00     0.033 C 
ATOM     29  C   UNL     1      27.434  43.999  19.028  1.00  0.00     0.118 C 
BRANCH  29  30
ATOM     30  O   UNL     1      27.308  43.448  17.738  1.00  0.00    -0.393 OA
ATOM     31  H   UNL     1      28.074  42.839  17.578  1.00  0.00     0.210 HD
ENDBRANCH  29  30
ENDBRANCH   9  11
ENDBRANCH   1   9
TORSDOF 7
ENDMDL
