MODEL 1
REMARK VINA RESULT:    -4.839      0.000      0.000
REMARK INTER + INTRA:          -9.849
REMARK INTER:                  -8.800
REMARK INTRA:                  -1.050
REMARK UNBOUND:                -1.050
REMARK SMILES CCCCCCCCCCCCCCCC(=O)[O-]
REMARK SMILES IDX 9 1 10 2 11 3 12 4 13 5 14 6 15 7 16 8 17 9 18 10 8 11 7 12
REMARK SMILES IDX 6 13 5 14 4 15 3 16 2 17 1 18
REMARK H PARENT
REMARK Flexibility Score: inf
ROOT
ATOM      1  C   UNL     1      41.717   4.204  18.872  1.00  0.00     0.000 C 
ENDROOT
BRANCH   1   2
ATOM      2  C   UNL     1      42.695   5.108  19.641  1.00  0.00     0.000 C 
BRANCH   2   3
ATOM      3  C   UNL     1      43.442   4.355  20.755  1.00  0.00     0.000 C 
BRANCH   3   4
ATOM      4  C   UNL     1      44.955   4.665  20.754  1.00  0.00     0.000 C 
BRANCH   4   5
ATOM      5  C   UNL     1      45.845   3.414  20.609  1.00  0.00     0.000 C 
BRANCH   5   6
ATOM      6  C   UNL     1      45.081   2.080  20.569  1.00  0.00     0.006 C 
BRANCH   6   7
ATOM      7  C   UNL     1      45.274   1.247  21.841  1.00  0.00     0.053 C 
BRANCH   7   8
ATOM      8  C   UNL     1      44.052   0.433  22.121  1.00  0.00     0.041 C 
ATOM      9  O   UNL     1      44.145  -0.811  22.296  1.00  0.00    -0.550 OA
ATOM     10  O   UNL     1      42.801   1.038  22.139  1.00  0.00    -0.550 OA
ENDBRANCH   7   8
ENDBRANCH   6   7
ENDBRANCH   5   6
ENDBRANCH   4   5
ENDBRANCH   3   4
ENDBRANCH   2   3
ENDBRANCH   1   2
BRANCH   1  11
ATOM     11  C   UNL     1      41.884   2.717  19.231  1.00  0.00     0.000 C 
BRANCH  11  12
ATOM     12  C   UNL     1      41.958   1.813  17.990  1.00  0.00    -0.000 C 
BRANCH  12  13
ATOM     13  C   UNL     1      41.241   2.425  16.773  1.00  0.00    -0.000 C 
BRANCH  13  14
ATOM     14  C   UNL     1      41.063   1.415  15.627  1.00  0.00    -0.000 C 
BRANCH  14  15
ATOM     15  C   UNL     1      41.064   2.087  14.243  1.00  0.00    -0.000 C 
BRANCH  15  16
ATOM     16  C   UNL     1      39.828   2.974  14.009  1.00  0.00    -0.000 C 
BRANCH  16  17
ATOM     17  C   UNL     1      39.873   3.823  12.725  1.00  0.00    -0.003 C 
ATOM     18  C   UNL     1      38.639   3.640  11.843  1.00  0.00     0.004 C 
ENDBRANCH  16  17
ENDBRANCH  15  16
ENDBRANCH  14  15
ENDBRANCH  13  14
ENDBRANCH  12  13
ENDBRANCH  11  12
ENDBRANCH   1  11
TORSDOF 14
ENDMDL
MODEL 2
REMARK VINA RESULT:    -4.552      7.820     10.372
REMARK INTER + INTRA:          -9.328
REMARK INTER:                  -8.267
REMARK INTRA:                  -1.061
REMARK UNBOUND:                -1.050
REMARK SMILES CCCCCCCCCCCCCCCC(=O)[O-]
REMARK SMILES IDX 9 1 10 2 11 3 12 4 13 5 14 6 15 7 16 8 17 9 18 10 8 11 7 12
REMARK SMILES IDX 6 13 5 14 4 15 3 16 2 17 1 18
REMARK H PARENT
REMARK Flexibility Score: inf
ROOT
ATOM      1  C   UNL     1      38.179  -5.701  12.039  1.00  0.00     0.000 C 
ENDROOT
BRANCH   1   2
ATOM      2  C   UNL     1      38.938  -4.886  13.098  1.00  0.00     0.000 C 
BRANCH   2   3
ATOM      3  C   UNL     1      39.718  -3.707  12.489  1.00  0.00     0.000 C 
BRANCH   3   4
ATOM      4  C   UNL     1      41.198  -3.698  12.928  1.00  0.00     0.000 C 
BRANCH   4   5
ATOM      5  C   UNL     1      41.579  -2.485  13.800  1.00  0.00     0.000 C 
BRANCH   5   6
ATOM      6  C   UNL     1      41.668  -2.776  15.308  1.00  0.00     0.006 C 
BRANCH   6   7
ATOM      7  C   UNL     1      41.611  -1.503  16.161  1.00  0.00     0.053 C 
BRANCH   7   8
ATOM      8  C   UNL     1      41.572  -1.853  17.615  1.00  0.00     0.041 C 
ATOM      9  O   UNL     1      40.734  -2.690  18.042  1.00  0.00    -0.550 OA
ATOM     10  O   UNL     1      42.427  -1.217  18.507  1.00  0.00    -0.550 OA
ENDBRANCH   7   8
ENDBRANCH   6   7
ENDBRANCH   5   6
ENDBRANCH   4   5
ENDBRANCH   3   4
ENDBRANCH   2   3
ENDBRANCH   1   2
BRANCH   1  11
ATOM     11  C   UNL     1      36.933  -4.966  11.513  1.00  0.00     0.000 C 
BRANCH  11  12
ATOM     12  C   UNL     1      35.634  -5.750  11.761  1.00  0.00    -0.000 C 
BRANCH  12  13
ATOM     13  C   UNL     1      34.595  -4.933  12.548  1.00  0.00    -0.000 C 
BRANCH  13  14
ATOM     14  C   UNL     1      33.255  -5.674  12.698  1.00  0.00    -0.000 C 
BRANCH  14  15
ATOM     15  C   UNL     1      33.316  -6.796  13.749  1.00  0.00    -0.000 C 
BRANCH  15  16
ATOM     16  C   UNL     1      33.984  -6.350  15.062  1.00  0.00    -0.000 C 
BRANCH  16  17
ATOM     17  C   UNL     1      35.366  -6.972  15.331  1.00  0.00    -0.003 C 
ATOM     18  C   UNL     1      36.446  -5.931  15.623  1.00  0.00     0.004 C 
ENDBRANCH  16  17
ENDBRANCH  15  16
ENDBRANCH  14  15
ENDBRANCH  13  14
ENDBRANCH  12  13
ENDBRANCH  11  12
ENDBRANCH   1  11
TORSDOF 14
ENDMDL
MODEL 3
REMARK VINA RESULT:    -4.545      2.998      3.930
REMARK INTER + INTRA:          -9.315
REMARK INTER:                  -8.044
REMARK INTRA:                  -1.271
REMARK UNBOUND:                -1.050
REMARK SMILES CCCCCCCCCCCCCCCC(=O)[O-]
REMARK SMILES IDX 9 1 10 2 11 3 12 4 13 5 14 6 15 7 16 8 17 9 18 10 8 11 7 12
REMARK SMILES IDX 6 13 5 14 4 15 3 16 2 17 1 18
REMARK H PARENT
REMARK Flexibility Score: inf
ROOT
ATOM      1  C   UNL     1      43.223   2.139  19.170  1.00  0.00     0.000 C 
ENDROOT
BRANCH   1   2
ATOM      2  C   UNL     1      43.175   1.316  20.468  1.00  0.00     0.000 C 
BRANCH   2   3
ATOM      3  C   UNL     1      42.909   2.186  21.709  1.00  0.00     0.000 C 
BRANCH   3   4
ATOM      4  C   UNL     1      44.108   3.096  22.052  1.00  0.00     0.000 C 
BRANCH   4   5
ATOM      5  C   UNL     1      43.702   4.503  22.532  1.00  0.00     0.000 C 
BRANCH   5   6
ATOM      6  C   UNL     1      43.206   5.446  21.423  1.00  0.00     0.006 C 
BRANCH   6   7
ATOM      7  C   UNL     1      44.206   5.579  20.267  1.00  0.00     0.053 C 
BRANCH   7   8
ATOM      8  C   UNL     1      43.962   6.846  19.511  1.00  0.00     0.041 C 
ATOM      9  O   UNL     1      44.633   7.879  19.773  1.00  0.00    -0.550 OA
ATOM     10  O   UNL     1      42.959   6.902  18.551  1.00  0.00    -0.550 OA
ENDBRANCH   7   8
ENDBRANCH   6   7
ENDBRANCH   5   6
ENDBRANCH   4   5
ENDBRANCH   3   4
ENDBRANCH   2   3
ENDBRANCH   1   2
BRANCH   1  11
ATOM     11  C   UNL     1      42.019   3.087  19.030  1.00  0.00     0.000 C 
BRANCH  11  12
ATOM     12  C   UNL     1      41.043   2.646  17.927  1.00  0.00    -0.000 C 
BRANCH  12  13
ATOM     13  C   UNL     1      41.651   1.583  16.995  1.00  0.00    -0.000 C 
BRANCH  13  14
ATOM     14  C   UNL     1      41.069   1.647  15.572  1.00  0.00    -0.000 C 
BRANCH  14  15
ATOM     15  C   UNL     1      40.130   2.849  15.373  1.00  0.00    -0.000 C 
BRANCH  15  16
ATOM     16  C   UNL     1      40.232   3.462  13.965  1.00  0.00    -0.000 C 
BRANCH  16  17
ATOM     17  C   UNL     1      40.806   2.522  12.889  1.00  0.00    -0.003 C 
ATOM     18  C   UNL     1      42.050   3.085  12.204  1.00  0.00     0.004 C 
ENDBRANCH  16  17
ENDBRANCH  15  16
ENDBRANCH  14  15
ENDBRANCH  13  14
ENDBRANCH  12  13
ENDBRANCH  11  12
ENDBRANCH   1  11
TORSDOF 14
ENDMDL
MODEL 4
REMARK VINA RESULT:    -4.527      3.391      6.882
REMARK INTER + INTRA:          -9.282
REMARK INTER:                  -7.677
REMARK INTRA:                  -1.605
REMARK UNBOUND:                -1.050
REMARK SMILES CCCCCCCCCCCCCCCC(=O)[O-]
REMARK SMILES IDX 9 1 10 2 11 3 12 4 13 5 14 6 15 7 16 8 17 9 18 10 8 11 7 12
REMARK SMILES IDX 6 13 5 14 4 15 3 16 2 17 1 18
REMARK H PARENT
REMARK Flexibility Score: inf
ROOT
ATOM      1  C   UNL     1      43.491   3.790  21.464  1.00  0.00     0.000 C 
ENDROOT
BRANCH   1   2
ATOM      2  C   UNL     1      42.696   2.611  20.880  1.00  0.00     0.000 C 
BRANCH   2   3
ATOM      3  C   UNL     1      43.603   1.556  20.221  1.00  0.00     0.000 C 
BRANCH   3   4
ATOM      4  C   UNL     1      43.433   1.520  18.686  1.00  0.00     0.000 C 
BRANCH   4   5
ATOM      5  C   UNL     1      41.982   1.275  18.228  1.00  0.00     0.000 C 
BRANCH   5   6
ATOM      6  C   UNL     1      41.508   2.174  17.074  1.00  0.00     0.006 C 
BRANCH   6   7
ATOM      7  C   UNL     1      41.178   1.382  15.803  1.00  0.00     0.053 C 
BRANCH   7   8
ATOM      8  C   UNL     1      40.676   2.299  14.733  1.00  0.00     0.041 C 
ATOM      9  O   UNL     1      39.666   3.022  14.942  1.00  0.00    -0.550 OA
ATOM     10  O   UNL     1      41.294   2.321  13.488  1.00  0.00    -0.550 OA
ENDBRANCH   7   8
ENDBRANCH   6   7
ENDBRANCH   5   6
ENDBRANCH   4   5
ENDBRANCH   3   4
ENDBRANCH   2   3
ENDBRANCH   1   2
BRANCH   1  11
ATOM     11  C   UNL     1      42.758   5.133  21.297  1.00  0.00     0.000 C 
BRANCH  11  12
ATOM     12  C   UNL     1      41.895   5.184  20.027  1.00  0.00    -0.000 C 
BRANCH  12  13
ATOM     13  C   UNL     1      42.615   5.869  18.853  1.00  0.00    -0.000 C 
BRANCH  13  14
ATOM     14  C   UNL     1      42.757   7.387  19.056  1.00  0.00    -0.000 C 
BRANCH  14  15
ATOM     15  C   UNL     1      44.152   7.906  18.666  1.00  0.00    -0.000 C 
BRANCH  15  16
ATOM     16  C   UNL     1      45.220   7.613  19.735  1.00  0.00    -0.000 C 
BRANCH  16  17
ATOM     17  C   UNL     1      46.359   6.684  19.277  1.00  0.00    -0.003 C 
ATOM     18  C   UNL     1      46.540   5.466  20.182  1.00  0.00     0.004 C 
ENDBRANCH  16  17
ENDBRANCH  15  16
ENDBRANCH  14  15
ENDBRANCH  13  14
ENDBRANCH  12  13
ENDBRANCH  11  12
ENDBRANCH   1  11
TORSDOF 14
ENDMDL
MODEL 5
REMARK VINA RESULT:    -4.517      3.550      7.901
REMARK INTER + INTRA:          -9.264
REMARK INTER:                  -7.989
REMARK INTRA:                  -1.275
REMARK UNBOUND:                -1.050
REMARK SMILES CCCCCCCCCCCCCCCC(=O)[O-]
REMARK SMILES IDX 9 1 10 2 11 3 12 4 13 5 14 6 15 7 16 8 17 9 18 10 8 11 7 12
REMARK SMILES IDX 6 13 5 14 4 15 3 16 2 17 1 18
REMARK H PARENT
REMARK Flexibility Score: inf
ROOT
ATOM      1  C   UNL     1      41.993   5.081  20.164  1.00  0.00     0.000 C 
ENDROOT
BRANCH   1   2
ATOM      2  C   UNL     1      41.905   4.274  18.859  1.00  0.00     0.000 C 
BRANCH   2   3
ATOM      3  C   UNL     1      41.886   2.755  19.104  1.00  0.00     0.000 C 
BRANCH   3   4
ATOM      4  C   UNL     1      41.528   1.963  17.827  1.00  0.00     0.000 C 
BRANCH   4   5
ATOM      5  C   UNL     1      41.163   2.857  16.625  1.00  0.00     0.000 C 
BRANCH   5   6
ATOM      6  C   UNL     1      40.750   2.094  15.355  1.00  0.00     0.006 C 
BRANCH   6   7
ATOM      7  C   UNL     1      39.700   2.845  14.527  1.00  0.00     0.053 C 
BRANCH   7   8
ATOM      8  C   UNL     1      40.292   3.314  13.237  1.00  0.00     0.041 C 
ATOM      9  O   UNL     1      41.000   2.536  12.545  1.00  0.00    -0.550 OA
ATOM     10  O   UNL     1      40.105   4.627  12.822  1.00  0.00    -0.550 OA
ENDBRANCH   7   8
ENDBRANCH   6   7
ENDBRANCH   5   6
ENDBRANCH   4   5
ENDBRANCH   3   4
ENDBRANCH   2   3
ENDBRANCH   1   2
BRANCH   1  11
ATOM     11  C   UNL     1      42.972   4.458  21.176  1.00  0.00     0.000 C 
BRANCH  11  12
ATOM     12  C   UNL     1      44.311   5.208  21.243  1.00  0.00    -0.000 C 
BRANCH  12  13
ATOM     13  C   UNL     1      45.496   4.338  20.787  1.00  0.00    -0.000 C 
BRANCH  13  14
ATOM     14  C   UNL     1      45.168   2.836  20.815  1.00  0.00    -0.000 C 
BRANCH  14  15
ATOM     15  C   UNL     1      45.734   2.133  22.061  1.00  0.00    -0.000 C 
BRANCH  15  16
ATOM     16  C   UNL     1      44.683   1.941  23.169  1.00  0.00    -0.000 C 
BRANCH  16  17
ATOM     17  C   UNL     1      43.495   1.038  22.787  1.00  0.00    -0.003 C 
ATOM     18  C   UNL     1      43.921  -0.376  22.393  1.00  0.00     0.004 C 
ENDBRANCH  16  17
ENDBRANCH  15  16
ENDBRANCH  14  15
ENDBRANCH  13  14
ENDBRANCH  12  13
ENDBRANCH  11  12
ENDBRANCH   1  11
TORSDOF 14
ENDMDL
MODEL 6
REMARK VINA RESULT:    -4.416      3.405      6.770
REMARK INTER + INTRA:          -9.080
REMARK INTER:                  -8.003
REMARK INTRA:                  -1.077
REMARK UNBOUND:                -1.050
REMARK SMILES CCCCCCCCCCCCCCCC(=O)[O-]
REMARK SMILES IDX 9 1 10 2 11 3 12 4 13 5 14 6 15 7 16 8 17 9 18 10 8 11 7 12
REMARK SMILES IDX 6 13 5 14 4 15 3 16 2 17 1 18
REMARK H PARENT
REMARK Flexibility Score: inf
ROOT
ATOM      1  C   UNL     1      44.127   6.854  19.318  1.00  0.00     0.000 C 
ENDROOT
BRANCH   1   2
ATOM      2  C   UNL     1      42.711   6.473  18.857  1.00  0.00     0.000 C 
BRANCH   2   3
ATOM      3  C   UNL     1      42.147   5.262  19.619  1.00  0.00     0.000 C 
BRANCH   3   4
ATOM      4  C   UNL     1      41.489   4.233  18.674  1.00  0.00     0.000 C 
BRANCH   4   5
ATOM      5  C   UNL     1      41.772   2.767  19.059  1.00  0.00     0.000 C 
BRANCH   5   6
ATOM      6  C   UNL     1      42.557   2.584  20.369  1.00  0.00     0.006 C 
BRANCH   6   7
ATOM      7  C   UNL     1      43.117   1.165  20.531  1.00  0.00     0.053 C 
BRANCH   7   8
ATOM      8  C   UNL     1      43.291   0.837  21.979  1.00  0.00     0.041 C 
ATOM      9  O   UNL     1      42.900   1.644  22.863  1.00  0.00    -0.550 OA
ATOM     10  O   UNL     1      43.931  -0.338  22.355  1.00  0.00    -0.550 OA
ENDBRANCH   7   8
ENDBRANCH   6   7
ENDBRANCH   5   6
ENDBRANCH   4   5
ENDBRANCH   3   4
ENDBRANCH   2   3
ENDBRANCH   1   2
BRANCH   1  11
ATOM     11  C   UNL     1      44.180   8.250  19.965  1.00  0.00     0.000 C 
BRANCH  11  12
ATOM     12  C   UNL     1      44.152   9.384  18.929  1.00  0.00    -0.000 C 
BRANCH  12  13
ATOM     13  C   UNL     1      45.061   9.100  17.720  1.00  0.00    -0.000 C 
BRANCH  13  14
ATOM     14  C   UNL     1      46.491   9.631  17.922  1.00  0.00    -0.000 C 
BRANCH  14  15
ATOM     15  C   UNL     1      47.530   8.851  17.098  1.00  0.00    -0.000 C 
BRANCH  15  16
ATOM     16  C   UNL     1      48.429   7.953  17.966  1.00  0.00    -0.000 C 
BRANCH  16  17
ATOM     17  C   UNL     1      47.706   6.778  18.651  1.00  0.00    -0.003 C 
ATOM     18  C   UNL     1      48.338   6.381  19.984  1.00  0.00     0.004 C 
ENDBRANCH  16  17
ENDBRANCH  15  16
ENDBRANCH  14  15
ENDBRANCH  13  14
ENDBRANCH  12  13
ENDBRANCH  11  12
ENDBRANCH   1  11
TORSDOF 14
ENDMDL
MODEL 7
REMARK VINA RESULT:    -4.384      8.516     11.696
REMARK INTER + INTRA:          -9.022
REMARK INTER:                  -7.652
REMARK INTRA:                  -1.370
REMARK UNBOUND:                -1.050
REMARK SMILES CCCCCCCCCCCCCCCC(=O)[O-]
REMARK SMILES IDX 9 1 10 2 11 3 12 4 13 5 14 6 15 7 16 8 17 9 18 10 8 11 7 12
REMARK SMILES IDX 6 13 5 14 4 15 3 16 2 17 1 18
REMARK H PARENT
REMARK Flexibility Score: inf
ROOT
ATOM      1  C   UNL     1      35.787  -6.202  11.296  1.00  0.00     0.000 C 
ENDROOT
BRANCH   1   2
ATOM      2  C   UNL     1      34.311  -6.123  11.718  1.00  0.00     0.000 C 
BRANCH   2   3
ATOM      3  C   UNL     1      34.093  -5.203  12.932  1.00  0.00     0.000 C 
BRANCH   3   4
ATOM      4  C   UNL     1      33.447  -5.949  14.121  1.00  0.00     0.000 C 
BRANCH   4   5
ATOM      5  C   UNL     1      34.441  -6.302  15.245  1.00  0.00     0.000 C 
BRANCH   5   6
ATOM      6  C   UNL     1      35.835  -5.669  15.097  1.00  0.00     0.006 C 
BRANCH   6   7
ATOM      7  C   UNL     1      36.959  -6.592  15.582  1.00  0.00     0.053 C 
BRANCH   7   8
ATOM      8  C   UNL     1      37.266  -6.326  17.022  1.00  0.00     0.041 C 
ATOM      9  O   UNL     1      38.123  -5.458  17.337  1.00  0.00    -0.550 OA
ATOM     10  O   UNL     1      36.642  -7.071  18.015  1.00  0.00    -0.550 OA
ENDBRANCH   7   8
ENDBRANCH   6   7
ENDBRANCH   5   6
ENDBRANCH   4   5
ENDBRANCH   3   4
ENDBRANCH   2   3
ENDBRANCH   1   2
BRANCH   1  11
ATOM     11  C   UNL     1      36.582  -4.946  11.695  1.00  0.00     0.000 C 
BRANCH  11  12
ATOM     12  C   UNL     1      38.080  -5.066  11.374  1.00  0.00    -0.000 C 
BRANCH  12  13
ATOM     13  C   UNL     1      38.961  -4.304  12.380  1.00  0.00    -0.000 C 
BRANCH  13  14
ATOM     14  C   UNL     1      39.563  -5.227  13.452  1.00  0.00    -0.000 C 
BRANCH  14  15
ATOM     15  C   UNL     1      41.021  -4.868  13.788  1.00  0.00    -0.000 C 
BRANCH  15  16
ATOM     16  C   UNL     1      41.315  -3.365  13.643  1.00  0.00    -0.000 C 
BRANCH  16  17
ATOM     17  C   UNL     1      41.524  -2.613  14.971  1.00  0.00    -0.003 C 
ATOM     18  C   UNL     1      41.981  -1.168  14.775  1.00  0.00     0.004 C 
ENDBRANCH  16  17
ENDBRANCH  15  16
ENDBRANCH  14  15
ENDBRANCH  13  14
ENDBRANCH  12  13
ENDBRANCH  11  12
ENDBRANCH   1  11
TORSDOF 14
ENDMDL
MODEL 8
REMARK VINA RESULT:    -4.380      8.307     10.633
REMARK INTER + INTRA:          -9.015
REMARK INTER:                  -7.845
REMARK INTRA:                  -1.170
REMARK UNBOUND:                -1.050
REMARK SMILES CCCCCCCCCCCCCCCC(=O)[O-]
REMARK SMILES IDX 9 1 10 2 11 3 12 4 13 5 14 6 15 7 16 8 17 9 18 10 8 11 7 12
REMARK SMILES IDX 6 13 5 14 4 15 3 16 2 17 1 18
REMARK H PARENT
REMARK Flexibility Score: inf
ROOT
ATOM      1  C   UNL     1      37.873  -5.067  11.419  1.00  0.00     0.000 C 
ENDROOT
BRANCH   1   2
ATOM      2  C   UNL     1      38.791  -4.638  12.574  1.00  0.00     0.000 C 
BRANCH   2   3
ATOM      3  C   UNL     1      40.156  -4.124  12.085  1.00  0.00     0.000 C 
BRANCH   3   4
ATOM      4  C   UNL     1      40.924  -3.367  13.190  1.00  0.00     0.000 C 
BRANCH   4   5
ATOM      5  C   UNL     1      40.908  -4.079  14.556  1.00  0.00     0.000 C 
BRANCH   5   6
ATOM      6  C   UNL     1      41.525  -3.274  15.712  1.00  0.00     0.006 C 
BRANCH   6   7
ATOM      7  C   UNL     1      41.944  -1.860  15.292  1.00  0.00     0.053 C 
BRANCH   7   8
ATOM      8  C   UNL     1      41.741  -0.900  16.421  1.00  0.00     0.041 C 
ATOM      9  O   UNL     1      41.668   0.337  16.195  1.00  0.00    -0.550 OA
ATOM     10  O   UNL     1      41.681  -1.365  17.728  1.00  0.00    -0.550 OA
ENDBRANCH   7   8
ENDBRANCH   6   7
ENDBRANCH   5   6
ENDBRANCH   4   5
ENDBRANCH   3   4
ENDBRANCH   2   3
ENDBRANCH   1   2
BRANCH   1  11
ATOM     11  C   UNL     1      36.443  -5.387  11.890  1.00  0.00     0.000 C 
BRANCH  11  12
ATOM     12  C   UNL     1      36.415  -6.127  13.237  1.00  0.00    -0.000 C 
BRANCH  12  13
ATOM     13  C   UNL     1      35.344  -5.570  14.192  1.00  0.00    -0.000 C 
BRANCH  13  14
ATOM     14  C   UNL     1      34.083  -5.097  13.450  1.00  0.00    -0.000 C 
BRANCH  14  15
ATOM     15  C   UNL     1      32.856  -5.973  13.754  1.00  0.00    -0.000 C 
BRANCH  15  16
ATOM     16  C   UNL     1      32.618  -7.060  12.691  1.00  0.00    -0.000 C 
BRANCH  16  17
ATOM     17  C   UNL     1      33.006  -6.660  11.256  1.00  0.00    -0.003 C 
ATOM     18  C   UNL     1      33.862  -7.712  10.552  1.00  0.00     0.004 C 
ENDBRANCH  16  17
ENDBRANCH  15  16
ENDBRANCH  14  15
ENDBRANCH  13  14
ENDBRANCH  12  13
ENDBRANCH  11  12
ENDBRANCH   1  11
TORSDOF 14
ENDMDL
MODEL 9
REMARK VINA RESULT:    -4.368      3.913      7.002
REMARK INTER + INTRA:          -8.993
REMARK INTER:                  -7.458
REMARK INTRA:                  -1.535
REMARK UNBOUND:                -1.050
REMARK SMILES CCCCCCCCCCCCCCCC(=O)[O-]
REMARK SMILES IDX 9 1 10 2 11 3 12 4 13 5 14 6 15 7 16 8 17 9 18 10 8 11 7 12
REMARK SMILES IDX 6 13 5 14 4 15 3 16 2 17 1 18
REMARK H PARENT
REMARK Flexibility Score: inf
ROOT
ATOM      1  C   UNL     1      43.704   8.560  18.658  1.00  0.00     0.000 C 
ENDROOT
BRANCH   1   2
ATOM      2  C   UNL     1      43.754   7.063  19.003  1.00  0.00     0.000 C 
BRANCH   2   3
ATOM      3  C   UNL     1      42.418   6.349  18.730  1.00  0.00     0.000 C 
BRANCH   3   4
ATOM      4  C   UNL     1      42.343   4.969  19.419  1.00  0.00     0.000 C 
BRANCH   4   5
ATOM      5  C   UNL     1      43.272   4.835  20.642  1.00  0.00     0.000 C 
BRANCH   5   6
ATOM      6  C   UNL     1      43.949   3.463  20.792  1.00  0.00     0.006 C 
BRANCH   6   7
ATOM      7  C   UNL     1      43.054   2.433  21.493  1.00  0.00     0.053 C 
BRANCH   7   8
ATOM      8  C   UNL     1      43.247   1.079  20.889  1.00  0.00     0.041 C 
ATOM      9  O   UNL     1      43.520   0.091  21.621  1.00  0.00    -0.550 OA
ATOM     10  O   UNL     1      43.174   0.915  19.511  1.00  0.00    -0.550 OA
ENDBRANCH   7   8
ENDBRANCH   6   7
ENDBRANCH   5   6
ENDBRANCH   4   5
ENDBRANCH   3   4
ENDBRANCH   2   3
ENDBRANCH   1   2
BRANCH   1  11
ATOM     11  C   UNL     1      44.904   9.007  17.804  1.00  0.00     0.000 C 
BRANCH  11  12
ATOM     12  C   UNL     1      45.761  10.076  18.501  1.00  0.00    -0.000 C 
BRANCH  12  13
ATOM     13  C   UNL     1      47.206  10.109  17.974  1.00  0.00    -0.000 C 
BRANCH  13  14
ATOM     14  C   UNL     1      47.567   8.847  17.171  1.00  0.00    -0.000 C 
BRANCH  14  15
ATOM     15  C   UNL     1      48.467   7.882  17.963  1.00  0.00    -0.000 C 
BRANCH  15  16
ATOM     16  C   UNL     1      47.672   6.779  18.683  1.00  0.00    -0.000 C 
BRANCH  16  17
ATOM     17  C   UNL     1      47.444   7.019  20.187  1.00  0.00    -0.003 C 
ATOM     18  C   UNL     1      46.827   5.816  20.899  1.00  0.00     0.004 C 
ENDBRANCH  16  17
ENDBRANCH  15  16
ENDBRANCH  14  15
ENDBRANCH  13  14
ENDBRANCH  12  13
ENDBRANCH  11  12
ENDBRANCH   1  11
TORSDOF 14
ENDMDL
