MODEL 1
REMARK VINA RESULT:    -4.115      0.000      0.000
REMARK INTER + INTRA:          -4.869
REMARK INTER:                  -4.837
REMARK INTRA:                  -0.032
REMARK UNBOUND:                -0.032
REMARK SMILES O=C([O-])CCC(=O)[O-]
REMARK SMILES IDX 4 1 2 2 1 3 3 4 5 5 6 6 7 7 8 8
REMARK H PARENT
REMARK Flexibility Score: inf
ROOT
ATOM      1  C   UNL     1     -17.338  37.038  81.130  1.00  0.00     0.059 C 
ENDROOT
BRANCH   1   2
ATOM      2  C   UNL     1     -16.755  36.167  82.197  1.00  0.00     0.042 C 
ATOM      3  O   UNL     1     -15.967  36.651  83.051  1.00  0.00    -0.550 OA
ATOM      4  O   UNL     1     -17.122  34.829  82.280  1.00  0.00    -0.550 OA
ENDBRANCH   1   2
BRANCH   1   5
ATOM      5  C   UNL     1     -18.185  36.207  80.164  1.00  0.00     0.059 C 
BRANCH   5   6
ATOM      6  C   UNL     1     -18.951  37.099  79.239  1.00  0.00     0.042 C 
ATOM      7  O   UNL     1     -18.465  37.422  78.123  1.00  0.00    -0.550 OA
ATOM      8  O   UNL     1     -20.223  37.534  79.587  1.00  0.00    -0.550 OA
ENDBRANCH   5   6
ENDBRANCH   1   5
TORSDOF 3
ENDMDL
MODEL 2
REMARK VINA RESULT:    -4.100      0.120      4.268
REMARK INTER + INTRA:          -4.851
REMARK INTER:                  -4.817
REMARK INTRA:                  -0.035
REMARK UNBOUND:                -0.032
REMARK SMILES O=C([O-])CCC(=O)[O-]
REMARK SMILES IDX 4 1 2 2 1 3 3 4 5 5 6 6 7 7 8 8
REMARK H PARENT
REMARK Flexibility Score: inf
ROOT
ATOM      1  C   UNL     1     -18.077  36.222  80.085  1.00  0.00     0.059 C 
ENDROOT
BRANCH   1   2
ATOM      2  C   UNL     1     -18.889  37.113  79.199  1.00  0.00     0.042 C 
ATOM      3  O   UNL     1     -18.444  37.468  78.076  1.00  0.00    -0.550 OA
ATOM      4  O   UNL     1     -20.161  37.511  79.592  1.00  0.00    -0.550 OA
ENDBRANCH   1   2
BRANCH   1   5
ATOM      5  C   UNL     1     -17.323  37.048  81.129  1.00  0.00     0.059 C 
BRANCH   5   6
ATOM      6  C   UNL     1     -16.715  36.155  82.163  1.00  0.00     0.042 C 
ATOM      7  O   UNL     1     -16.936  34.915  82.138  1.00  0.00    -0.550 OA
ATOM      8  O   UNL     1     -15.864  36.684  83.125  1.00  0.00    -0.550 OA
ENDBRANCH   5   6
ENDBRANCH   1   5
TORSDOF 3
ENDMDL
MODEL 3
REMARK VINA RESULT:    -3.984      1.926      3.939
REMARK INTER + INTRA:          -4.714
REMARK INTER:                  -4.560
REMARK INTRA:                  -0.155
REMARK UNBOUND:                -0.032
REMARK SMILES O=C([O-])CCC(=O)[O-]
REMARK SMILES IDX 4 1 2 2 1 3 3 4 5 5 6 6 7 7 8 8
REMARK H PARENT
REMARK Flexibility Score: inf
ROOT
ATOM      1  C   UNL     1     -16.861  36.136  81.398  1.00  0.00     0.059 C 
ENDROOT
BRANCH   1   2
ATOM      2  C   UNL     1     -18.019  35.707  80.553  1.00  0.00     0.042 C 
ATOM      3  O   UNL     1     -18.371  34.499  80.525  1.00  0.00    -0.550 OA
ATOM      4  O   UNL     1     -18.742  36.651  79.834  1.00  0.00    -0.550 OA
ENDBRANCH   1   2
BRANCH   1   5
ATOM      5  C   UNL     1     -17.256  37.317  82.287  1.00  0.00     0.059 C 
BRANCH   5   6
ATOM      6  C   UNL     1     -18.025  36.841  83.478  1.00  0.00     0.042 C 
ATOM      7  O   UNL     1     -19.178  37.293  83.710  1.00  0.00    -0.550 OA
ATOM      8  O   UNL     1     -17.491  35.862  84.306  1.00  0.00    -0.550 OA
ENDBRANCH   5   6
ENDBRANCH   1   5
TORSDOF 3
ENDMDL
MODEL 4
REMARK VINA RESULT:    -3.977      1.950      2.520
REMARK INTER + INTRA:          -4.706
REMARK INTER:                  -4.542
REMARK INTRA:                  -0.163
REMARK UNBOUND:                -0.032
REMARK SMILES O=C([O-])CCC(=O)[O-]
REMARK SMILES IDX 4 1 2 2 1 3 3 4 5 5 6 6 7 7 8 8
REMARK H PARENT
REMARK Flexibility Score: inf
ROOT
ATOM      1  C   UNL     1     -17.265  37.390  82.386  1.00  0.00     0.059 C 
ENDROOT
BRANCH   1   2
ATOM      2  C   UNL     1     -18.057  36.904  83.559  1.00  0.00     0.042 C 
ATOM      3  O   UNL     1     -19.214  37.353  83.772  1.00  0.00    -0.550 OA
ATOM      4  O   UNL     1     -17.538  35.917  84.388  1.00  0.00    -0.550 OA
ENDBRANCH   1   2
BRANCH   1   5
ATOM      5  C   UNL     1     -16.820  36.213  81.516  1.00  0.00     0.059 C 
BRANCH   5   6
ATOM      6  C   UNL     1     -17.963  35.713  80.690  1.00  0.00     0.042 C 
ATOM      7  O   UNL     1     -18.325  34.509  80.773  1.00  0.00    -0.550 OA
ATOM      8  O   UNL     1     -18.661  36.586  79.866  1.00  0.00    -0.550 OA
ENDBRANCH   5   6
ENDBRANCH   1   5
TORSDOF 3
ENDMDL
MODEL 5
REMARK VINA RESULT:    -3.905      1.536      4.017
REMARK INTER + INTRA:          -4.621
REMARK INTER:                  -4.528
REMARK INTRA:                  -0.094
REMARK UNBOUND:                -0.032
REMARK SMILES O=C([O-])CCC(=O)[O-]
REMARK SMILES IDX 4 1 2 2 1 3 3 4 5 5 6 6 7 7 8 8
REMARK H PARENT
REMARK Flexibility Score: inf
ROOT
ATOM      1  C   UNL     1     -17.253  36.942  81.081  1.00  0.00     0.059 C 
ENDROOT
BRANCH   1   2
ATOM      2  C   UNL     1     -18.194  36.263  80.137  1.00  0.00     0.042 C 
ATOM      3  O   UNL     1     -18.849  36.937  79.299  1.00  0.00    -0.550 OA
ATOM      4  O   UNL     1     -18.311  34.879  80.149  1.00  0.00    -0.550 OA
ENDBRANCH   1   2
BRANCH   1   5
ATOM      5  C   UNL     1     -16.554  35.914  81.973  1.00  0.00     0.059 C 
BRANCH   5   6
ATOM      6  C   UNL     1     -17.152  35.919  83.344  1.00  0.00     0.042 C 
ATOM      7  O   UNL     1     -16.689  35.164  84.239  1.00  0.00    -0.550 OA
ATOM      8  O   UNL     1     -18.187  36.792  83.649  1.00  0.00    -0.550 OA
ENDBRANCH   5   6
ENDBRANCH   1   5
TORSDOF 3
ENDMDL
MODEL 6
REMARK VINA RESULT:    -3.670     15.174     15.864
REMARK INTER + INTRA:          -4.346
REMARK INTER:                  -4.266
REMARK INTRA:                  -0.081
REMARK UNBOUND:                -0.032
REMARK SMILES O=C([O-])CCC(=O)[O-]
REMARK SMILES IDX 4 1 2 2 1 3 3 4 5 5 6 6 7 7 8 8
REMARK H PARENT
REMARK Flexibility Score: inf
ROOT
ATOM      1  C   UNL     1     -27.024  43.656  91.359  1.00  0.00     0.059 C 
ENDROOT
BRANCH   1   2
ATOM      2  C   UNL     1     -28.147  42.925  90.694  1.00  0.00     0.042 C 
ATOM      3  O   UNL     1     -29.176  42.612  91.349  1.00  0.00    -0.550 OA
ATOM      4  O   UNL     1     -28.079  42.633  89.337  1.00  0.00    -0.550 OA
ENDBRANCH   1   2
BRANCH   1   5
ATOM      5  C   UNL     1     -26.134  44.334  90.315  1.00  0.00     0.059 C 
BRANCH   5   6
ATOM      6  C   UNL     1     -26.343  45.815  90.332  1.00  0.00     0.042 C 
ATOM      7  O   UNL     1     -25.422  46.589  89.958  1.00  0.00    -0.550 OA
ATOM      8  O   UNL     1     -27.572  46.340  90.712  1.00  0.00    -0.550 OA
ENDBRANCH   5   6
ENDBRANCH   1   5
TORSDOF 3
ENDMDL
MODEL 7
REMARK VINA RESULT:    -3.652     15.142     15.889
REMARK INTER + INTRA:          -4.325
REMARK INTER:                  -4.242
REMARK INTRA:                  -0.083
REMARK UNBOUND:                -0.032
REMARK SMILES O=C([O-])CCC(=O)[O-]
REMARK SMILES IDX 4 1 2 2 1 3 3 4 5 5 6 6 7 7 8 8
REMARK H PARENT
REMARK Flexibility Score: inf
ROOT
ATOM      1  C   UNL     1     -26.111  44.371  90.293  1.00  0.00     0.059 C 
ENDROOT
BRANCH   1   2
ATOM      2  C   UNL     1     -26.317  45.853  90.263  1.00  0.00     0.042 C 
ATOM      3  O   UNL     1     -27.407  46.350  90.650  1.00  0.00    -0.550 OA
ATOM      4  O   UNL     1     -25.286  46.689  89.854  1.00  0.00    -0.550 OA
ENDBRANCH   1   2
BRANCH   1   5
ATOM      5  C   UNL     1     -27.005  43.728  91.356  1.00  0.00     0.059 C 
BRANCH   5   6
ATOM      6  C   UNL     1     -28.100  42.940  90.711  1.00  0.00     0.042 C 
ATOM      7  O   UNL     1     -29.117  42.607  91.377  1.00  0.00    -0.550 OA
ATOM      8  O   UNL     1     -28.024  42.616  89.363  1.00  0.00    -0.550 OA
ENDBRANCH   5   6
ENDBRANCH   1   5
TORSDOF 3
ENDMDL
MODEL 8
REMARK VINA RESULT:    -3.323      8.086      9.551
REMARK INTER + INTRA:          -3.937
REMARK INTER:                  -3.761
REMARK INTRA:                  -0.176
REMARK UNBOUND:                -0.032
REMARK SMILES O=C([O-])CCC(=O)[O-]
REMARK SMILES IDX 4 1 2 2 1 3 3 4 5 5 6 6 7 7 8 8
REMARK H PARENT
REMARK Flexibility Score: inf
ROOT
ATOM      1  C   UNL     1     -20.536  39.297  89.512  1.00  0.00     0.059 C 
ENDROOT
BRANCH   1   2
ATOM      2  C   UNL     1     -20.394  38.984  88.056  1.00  0.00     0.042 C 
ATOM      3  O   UNL     1     -20.985  37.989  87.561  1.00  0.00    -0.550 OA
ATOM      4  O   UNL     1     -19.649  39.822  87.235  1.00  0.00    -0.550 OA
ENDBRANCH   1   2
BRANCH   1   5
ATOM      5  C   UNL     1     -20.019  38.135  90.362  1.00  0.00     0.059 C 
BRANCH   5   6
ATOM      6  C   UNL     1     -18.568  37.891  90.088  1.00  0.00     0.042 C 
ATOM      7  O   UNL     1     -18.181  36.764  89.681  1.00  0.00    -0.550 OA
ATOM      8  O   UNL     1     -17.650  38.923  90.234  1.00  0.00    -0.550 OA
ENDBRANCH   5   6
ENDBRANCH   1   5
TORSDOF 3
ENDMDL
MODEL 9
REMARK VINA RESULT:    -3.280      9.370     10.156
REMARK INTER + INTRA:          -3.887
REMARK INTER:                  -3.762
REMARK INTRA:                  -0.126
REMARK UNBOUND:                -0.032
REMARK SMILES O=C([O-])CCC(=O)[O-]
REMARK SMILES IDX 4 1 2 2 1 3 3 4 5 5 6 6 7 7 8 8
REMARK H PARENT
REMARK Flexibility Score: inf
ROOT
ATOM      1  C   UNL     1     -17.794  44.869  85.475  1.00  0.00     0.059 C 
ENDROOT
BRANCH   1   2
ATOM      2  C   UNL     1     -17.886  45.853  84.351  1.00  0.00     0.042 C 
ATOM      3  O   UNL     1     -17.291  46.960  84.426  1.00  0.00    -0.550 OA
ATOM      4  O   UNL     1     -18.588  45.526  83.197  1.00  0.00    -0.550 OA
ENDBRANCH   1   2
BRANCH   1   5
ATOM      5  C   UNL     1     -18.965  43.886  85.422  1.00  0.00     0.059 C 
BRANCH   5   6
ATOM      6  C   UNL     1     -20.157  44.453  86.124  1.00  0.00     0.042 C 
ATOM      7  O   UNL     1     -21.149  44.859  85.462  1.00  0.00    -0.550 OA
ATOM      8  O   UNL     1     -20.196  44.488  87.512  1.00  0.00    -0.550 OA
ENDBRANCH   5   6
ENDBRANCH   1   5
TORSDOF 3
ENDMDL
