MODEL 1
REMARK VINA RESULT:    -4.934      0.000      0.000
REMARK INTER + INTRA:          -5.312
REMARK INTER:                  -5.222
REMARK INTRA:                  -0.090
REMARK UNBOUND:                -0.090
REMARK SMILES C=C(C)[C@@H]1CC=C(C)C(=O)C1
REMARK SMILES IDX 8 1 7 2 6 3 5 4 4 5 11 6 9 7 10 8 2 9 1 10 3 11
REMARK H PARENT
REMARK Flexibility Score: inf
ROOT
ATOM      1  C   UNL     1       6.156  -1.192  63.256  1.00  0.00     0.048 C 
ATOM      2  C   UNL     1       6.134   0.309  63.164  1.00  0.00    -0.012 C 
ATOM      3  C   UNL     1       6.410   0.918  61.997  1.00  0.00    -0.019 C 
ATOM      4  C   UNL     1       6.324   2.413  61.834  1.00  0.00     0.036 C 
ATOM      5  C   UNL     1       6.647   3.136  63.157  1.00  0.00     0.025 C 
ATOM      6  C   UNL     1       5.737   2.617  64.286  1.00  0.00     0.089 C 
ATOM      7  C   UNL     1       5.785   1.116  64.359  1.00  0.00     0.158 C 
ATOM      8  O   UNL     1       5.479   0.544  65.440  1.00  0.00    -0.295 OA
ENDROOT
BRANCH   5   9
ATOM      9  C   UNL     1       6.551   4.649  63.008  1.00  0.00    -0.077 C 
ATOM     10  C   UNL     1       7.570   5.368  62.506  1.00  0.00     0.008 C 
ATOM     11  C   UNL     1       5.298   5.372  63.429  1.00  0.00     0.039 C 
ENDBRANCH   5   9
TORSDOF 1
ENDMDL
MODEL 2
REMARK VINA RESULT:    -4.865     16.613     18.893
REMARK INTER + INTRA:          -5.239
REMARK INTER:                  -5.147
REMARK INTRA:                  -0.092
REMARK UNBOUND:                -0.090
REMARK SMILES C=C(C)[C@@H]1CC=C(C)C(=O)C1
REMARK SMILES IDX 8 1 7 2 6 3 5 4 4 5 11 6 9 7 10 8 2 9 1 10 3 11
REMARK H PARENT
REMARK Flexibility Score: inf
ROOT
ATOM      1  C   UNL     1      20.737 -12.632  69.512  1.00  0.00     0.048 C 
ATOM      2  C   UNL     1      19.645 -12.178  68.583  1.00  0.00    -0.012 C 
ATOM      3  C   UNL     1      19.161 -13.017  67.650  1.00  0.00    -0.019 C 
ATOM      4  C   UNL     1      18.015 -12.637  66.751  1.00  0.00     0.036 C 
ATOM      5  C   UNL     1      17.998 -11.119  66.482  1.00  0.00     0.025 C 
ATOM      6  C   UNL     1      17.981 -10.341  67.811  1.00  0.00     0.089 C 
ATOM      7  C   UNL     1      19.087 -10.810  68.714  1.00  0.00     0.158 C 
ATOM      8  O   UNL     1      19.508 -10.040  69.621  1.00  0.00    -0.295 OA
ENDROOT
BRANCH   5   9
ATOM      9  C   UNL     1      16.836 -10.720  65.582  1.00  0.00    -0.077 C 
ATOM     10  C   UNL     1      16.916  -9.654  64.767  1.00  0.00     0.008 C 
ATOM     11  C   UNL     1      15.561 -11.524  65.592  1.00  0.00     0.039 C 
ENDBRANCH   5   9
TORSDOF 1
ENDMDL
MODEL 3
REMARK VINA RESULT:    -4.817     15.982     17.885
REMARK INTER + INTRA:          -5.188
REMARK INTER:                  -5.093
REMARK INTRA:                  -0.095
REMARK UNBOUND:                -0.090
REMARK SMILES C=C(C)[C@@H]1CC=C(C)C(=O)C1
REMARK SMILES IDX 8 1 7 2 6 3 5 4 4 5 11 6 9 7 10 8 2 9 1 10 3 11
REMARK H PARENT
REMARK Flexibility Score: inf
ROOT
ATOM      1  C   UNL     1      19.546 -11.447  69.222  1.00  0.00     0.048 C 
ATOM      2  C   UNL     1      18.733 -11.209  67.979  1.00  0.00    -0.012 C 
ATOM      3  C   UNL     1      19.089 -10.242  67.115  1.00  0.00    -0.019 C 
ATOM      4  C   UNL     1      18.355 -10.018  65.819  1.00  0.00     0.036 C 
ATOM      5  C   UNL     1      16.868 -10.405  65.948  1.00  0.00     0.025 C 
ATOM      6  C   UNL     1      16.735 -11.854  66.451  1.00  0.00     0.089 C 
ATOM      7  C   UNL     1      17.551 -12.060  67.698  1.00  0.00     0.158 C 
ATOM      8  O   UNL     1      17.246 -12.998  68.483  1.00  0.00    -0.295 OA
ENDROOT
BRANCH   5   9
ATOM      9  C   UNL     1      16.117 -10.193  64.640  1.00  0.00    -0.077 C 
ATOM     10  C   UNL     1      16.494  -9.247  63.762  1.00  0.00     0.008 C 
ATOM     11  C   UNL     1      14.925 -11.052  64.305  1.00  0.00     0.039 C 
ENDBRANCH   5   9
TORSDOF 1
ENDMDL
MODEL 4
REMARK VINA RESULT:    -4.795     16.594     17.658
REMARK INTER + INTRA:          -5.165
REMARK INTER:                  -5.076
REMARK INTRA:                  -0.089
REMARK UNBOUND:                -0.090
REMARK SMILES C=C(C)[C@@H]1CC=C(C)C(=O)C1
REMARK SMILES IDX 8 1 7 2 6 3 5 4 4 5 11 6 9 7 10 8 2 9 1 10 3 11
REMARK H PARENT
REMARK Flexibility Score: inf
ROOT
ATOM      1  C   UNL     1      14.526 -12.249  61.452  1.00  0.00     0.048 C 
ATOM      2  C   UNL     1      15.150 -12.074  62.809  1.00  0.00    -0.012 C 
ATOM      3  C   UNL     1      14.428 -11.565  63.823  1.00  0.00    -0.019 C 
ATOM      4  C   UNL     1      14.983 -11.445  65.218  1.00  0.00     0.036 C 
ATOM      5  C   UNL     1      16.508 -11.224  65.193  1.00  0.00     0.025 C 
ATOM      6  C   UNL     1      17.197 -12.340  64.384  1.00  0.00     0.089 C 
ATOM      7  C   UNL     1      16.558 -12.486  63.031  1.00  0.00     0.158 C 
ATOM      8  O   UNL     1      17.219 -13.008  62.093  1.00  0.00    -0.295 OA
ENDROOT
BRANCH   5   9
ATOM      9  C   UNL     1      17.084 -11.112  66.599  1.00  0.00    -0.077 C 
ATOM     10  C   UNL     1      17.278  -9.916  67.182  1.00  0.00     0.008 C 
ATOM     11  C   UNL     1      17.449 -12.356  67.367  1.00  0.00     0.039 C 
ENDBRANCH   5   9
TORSDOF 1
ENDMDL
MODEL 5
REMARK VINA RESULT:    -4.713     15.681     17.596
REMARK INTER + INTRA:          -5.079
REMARK INTER:                  -4.987
REMARK INTRA:                  -0.091
REMARK UNBOUND:                -0.090
REMARK SMILES C=C(C)[C@@H]1CC=C(C)C(=O)C1
REMARK SMILES IDX 8 1 7 2 6 3 5 4 4 5 11 6 9 7 10 8 2 9 1 10 3 11
REMARK H PARENT
REMARK Flexibility Score: inf
ROOT
ATOM      1  C   UNL     1      20.738 -10.067  65.950  1.00  0.00     0.048 C 
ATOM      2  C   UNL     1      19.295 -10.195  65.550  1.00  0.00    -0.012 C 
ATOM      3  C   UNL     1      18.332 -10.206  66.489  1.00  0.00    -0.019 C 
ATOM      4  C   UNL     1      16.869 -10.252  66.133  1.00  0.00     0.036 C 
ATOM      5  C   UNL     1      16.641 -11.010  64.811  1.00  0.00     0.025 C 
ATOM      6  C   UNL     1      17.496 -10.393  63.687  1.00  0.00     0.089 C 
ATOM      7  C   UNL     1      18.934 -10.286  64.114  1.00  0.00     0.158 C 
ATOM      8  O   UNL     1      19.833 -10.227  63.232  1.00  0.00    -0.295 OA
ENDROOT
BRANCH   5   9
ATOM      9  C   UNL     1      15.166 -11.053  64.435  1.00  0.00    -0.077 C 
ATOM     10  C   UNL     1      14.288 -11.798  65.129  1.00  0.00     0.008 C 
ATOM     11  C   UNL     1      14.660 -10.250  63.263  1.00  0.00     0.039 C 
ENDBRANCH   5   9
TORSDOF 1
ENDMDL
MODEL 6
REMARK VINA RESULT:    -4.712      1.457      2.347
REMARK INTER + INTRA:          -5.077
REMARK INTER:                  -4.982
REMARK INTRA:                  -0.095
REMARK UNBOUND:                -0.090
REMARK SMILES C=C(C)[C@@H]1CC=C(C)C(=O)C1
REMARK SMILES IDX 8 1 7 2 6 3 5 4 4 5 11 6 9 7 10 8 2 9 1 10 3 11
REMARK H PARENT
REMARK Flexibility Score: inf
ROOT
ATOM      1  C   UNL     1       4.890   0.057  66.574  1.00  0.00     0.048 C 
ATOM      2  C   UNL     1       5.270   0.877  65.371  1.00  0.00    -0.012 C 
ATOM      3  C   UNL     1       5.612   0.269  64.222  1.00  0.00    -0.019 C 
ATOM      4  C   UNL     1       5.923   1.045  62.969  1.00  0.00     0.036 C 
ATOM      5  C   UNL     1       6.528   2.423  63.304  1.00  0.00     0.025 C 
ATOM      6  C   UNL     1       5.598   3.198  64.256  1.00  0.00     0.089 C 
ATOM      7  C   UNL     1       5.243   2.358  65.451  1.00  0.00     0.158 C 
ATOM      8  O   UNL     1       4.875   2.927  66.514  1.00  0.00    -0.295 OA
ENDROOT
BRANCH   5   9
ATOM      9  C   UNL     1       6.836   3.223  62.044  1.00  0.00    -0.077 C 
ATOM     10  C   UNL     1       7.482   4.401  62.104  1.00  0.00     0.008 C 
ATOM     11  C   UNL     1       6.416   2.700  60.695  1.00  0.00     0.039 C 
ENDBRANCH   5   9
TORSDOF 1
ENDMDL
MODEL 7
REMARK VINA RESULT:    -4.709     17.362     19.440
REMARK INTER + INTRA:          -5.074
REMARK INTER:                  -4.978
REMARK INTRA:                  -0.096
REMARK UNBOUND:                -0.090
REMARK SMILES C=C(C)[C@@H]1CC=C(C)C(=O)C1
REMARK SMILES IDX 8 1 7 2 6 3 5 4 4 5 11 6 9 7 10 8 2 9 1 10 3 11
REMARK H PARENT
REMARK Flexibility Score: inf
ROOT
ATOM      1  C   UNL     1      23.570 -11.120  63.963  1.00  0.00     0.048 C 
ATOM      2  C   UNL     1      22.250 -10.748  64.581  1.00  0.00    -0.012 C 
ATOM      3  C   UNL     1      22.052 -10.914  65.901  1.00  0.00    -0.019 C 
ATOM      4  C   UNL     1      20.779 -10.482  66.579  1.00  0.00     0.036 C 
ATOM      5  C   UNL     1      19.577 -10.578  65.619  1.00  0.00     0.025 C 
ATOM      6  C   UNL     1      19.855  -9.776  64.334  1.00  0.00     0.089 C 
ATOM      7  C   UNL     1      21.175 -10.176  63.735  1.00  0.00     0.158 C 
ATOM      8  O   UNL     1      21.378  -9.975  62.506  1.00  0.00    -0.295 OA
ENDROOT
BRANCH   5   9
ATOM      9  C   UNL     1      18.284 -10.133  66.290  1.00  0.00    -0.077 C 
ATOM     10  C   UNL     1      17.109 -10.166  65.637  1.00  0.00     0.008 C 
ATOM     11  C   UNL     1      18.302  -9.642  67.715  1.00  0.00     0.039 C 
ENDBRANCH   5   9
TORSDOF 1
ENDMDL
MODEL 8
REMARK VINA RESULT:    -4.667     16.489     18.196
REMARK INTER + INTRA:          -5.030
REMARK INTER:                  -4.937
REMARK INTRA:                  -0.093
REMARK UNBOUND:                -0.090
REMARK SMILES C=C(C)[C@@H]1CC=C(C)C(=O)C1
REMARK SMILES IDX 8 1 7 2 6 3 5 4 4 5 11 6 9 7 10 8 2 9 1 10 3 11
REMARK H PARENT
REMARK Flexibility Score: inf
ROOT
ATOM      1  C   UNL     1      16.311 -10.238  62.860  1.00  0.00     0.048 C 
ATOM      2  C   UNL     1      16.947 -10.552  64.186  1.00  0.00    -0.012 C 
ATOM      3  C   UNL     1      16.178 -10.814  65.258  1.00  0.00    -0.019 C 
ATOM      4  C   UNL     1      16.766 -11.211  66.586  1.00  0.00     0.036 C 
ATOM      5  C   UNL     1      18.156 -10.576  66.791  1.00  0.00     0.025 C 
ATOM      6  C   UNL     1      19.084 -10.927  65.613  1.00  0.00     0.089 C 
ATOM      7  C   UNL     1      18.425 -10.595  64.303  1.00  0.00     0.158 C 
ATOM      8  O   UNL     1      19.145 -10.398  63.287  1.00  0.00    -0.295 OA
ENDROOT
BRANCH   5   9
ATOM      9  C   UNL     1      18.767 -10.980  68.127  1.00  0.00    -0.077 C 
ATOM     10  C   UNL     1      18.916 -12.272  68.466  1.00  0.00     0.008 C 
ATOM     11  C   UNL     1      19.220  -9.923  69.102  1.00  0.00     0.039 C 
ENDBRANCH   5   9
TORSDOF 1
ENDMDL
MODEL 9
REMARK VINA RESULT:    -4.654      2.549      4.118
REMARK INTER + INTRA:          -5.016
REMARK INTER:                  -4.922
REMARK INTRA:                  -0.094
REMARK UNBOUND:                -0.090
REMARK SMILES C=C(C)[C@@H]1CC=C(C)C(=O)C1
REMARK SMILES IDX 8 1 7 2 6 3 5 4 4 5 11 6 9 7 10 8 2 9 1 10 3 11
REMARK H PARENT
REMARK Flexibility Score: inf
ROOT
ATOM      1  C   UNL     1       9.768   3.100  60.879  1.00  0.00     0.048 C 
ATOM      2  C   UNL     1       8.742   2.467  61.778  1.00  0.00    -0.012 C 
ATOM      3  C   UNL     1       7.431   2.644  61.535  1.00  0.00    -0.019 C 
ATOM      4  C   UNL     1       6.367   1.965  62.357  1.00  0.00     0.036 C 
ATOM      5  C   UNL     1       6.842   1.742  63.807  1.00  0.00     0.025 C 
ATOM      6  C   UNL     1       8.173   0.966  63.819  1.00  0.00     0.089 C 
ATOM      7  C   UNL     1       9.180   1.627  62.920  1.00  0.00     0.158 C 
ATOM      8  O   UNL     1      10.408   1.422  63.118  1.00  0.00    -0.295 OA
ENDROOT
BRANCH   5   9
ATOM      9  C   UNL     1       5.779   1.046  64.646  1.00  0.00    -0.077 C 
ATOM     10  C   UNL     1       5.068   0.013  64.159  1.00  0.00     0.008 C 
ATOM     11  C   UNL     1       5.502   1.510  66.053  1.00  0.00     0.039 C 
ENDBRANCH   5   9
TORSDOF 1
ENDMDL
