MODEL 1
REMARK VINA RESULT:    -5.152      0.000      0.000
REMARK INTER + INTRA:          -8.719
REMARK INTER:                  -7.411
REMARK INTRA:                  -1.309
REMARK UNBOUND:                -1.309
REMARK SMILES COC(=O)C1=CO[C@@H](O[C@H]2O[C@@H](CO)[C@@H](O)[C@H](O)[C@H]2O)[C@H]2C(CO)=CC[C@H]12
REMARK SMILES IDX 9 1 8 2 5 3 6 4 27 5 7 6 21 7 26 8 22 9 25 10 3 11 4 12 2 13
REMARK SMILES IDX 1 14 23 15 24 16 10 18 19 19 11 20 17 21 12 22 15 23 20 24
REMARK SMILES IDX 18 26 13 28 14 29 16 31
REMARK H PARENT 24 17 20 25 18 27 14 30 16 32
REMARK Flexibility Score: inf
ROOT
ATOM      1  O   UNL     1      17.870   9.533  30.086  1.00  0.00    -0.310 OA
ENDROOT
BRANCH   1   2
ATOM      2  C   UNL     1      19.118  10.202  29.919  1.00  0.00     0.316 C 
ATOM      3  C   UNL     1      21.264   8.221  29.648  1.00  0.00     0.076 C 
ATOM      4  C   UNL     1      20.843   8.919  28.574  1.00  0.00     0.202 C 
ATOM      5  C   UNL     1      20.464   8.378  30.909  1.00  0.00     0.047 C 
ATOM      6  O   UNL     1      19.803   9.873  28.683  1.00  0.00    -0.471 OA
ATOM      7  C   UNL     1      20.060   9.838  31.075  1.00  0.00     0.094 C 
ATOM      8  C   UNL     1      21.081   8.040  32.267  1.00  0.00     0.037 C 
ATOM      9  C   UNL     1      19.612   9.864  32.497  1.00  0.00    -0.039 C 
ATOM     10  C   UNL     1      20.245   8.898  33.178  1.00  0.00    -0.024 C 
BRANCH   3  11
ATOM     11  C   UNL     1      22.367   7.241  29.568  1.00  0.00     0.337 C 
ATOM     12  O   UNL     1      23.482   7.422  29.003  1.00  0.00    -0.246 OA
BRANCH  11  13
ATOM     13  O   UNL     1      23.723   7.738  29.657  1.00  0.00    -0.466 OA
ATOM     14  C   UNL     1      24.845   7.073  28.857  1.00  0.00     0.282 C 
ENDBRANCH  11  13
ENDBRANCH   3  11
BRANCH   9  15
ATOM     15  C   UNL     1      18.699  10.888  33.117  1.00  0.00     0.187 C 
BRANCH  15  16
ATOM     16  O   UNL     1      17.685  10.257  33.853  1.00  0.00    -0.392 OA
ATOM     17  H   UNL     1      18.128   9.815  34.627  1.00  0.00     0.211 HD
ENDBRANCH  15  16
ENDBRANCH   9  15
ENDBRANCH   1   2
BRANCH   1  18
ATOM     18  C   UNL     1      16.734  10.303  29.725  1.00  0.00     0.286 C 
ATOM     19  C   UNL     1      15.502   9.792  30.531  1.00  0.00     0.202 C 
ATOM     20  O   UNL     1      16.606  10.233  28.303  1.00  0.00    -0.341 OA
ATOM     21  C   UNL     1      14.879   8.570  29.836  1.00  0.00     0.179 C 
ATOM     22  C   UNL     1      15.259  10.203  27.879  1.00  0.00     0.178 C 
ATOM     23  C   UNL     1      14.581   8.879  28.336  1.00  0.00     0.177 C 
BRANCH  19  24
ATOM     24  O   UNL     1      15.880   9.488  31.856  1.00  0.00    -0.385 OA
ATOM     25  H   UNL     1      16.434   8.667  31.825  1.00  0.00     0.211 HD
ENDBRANCH  19  24
BRANCH  21  26
ATOM     26  O   UNL     1      13.695   8.209  30.499  1.00  0.00    -0.387 OA
ATOM     27  H   UNL     1      13.424   7.324  30.138  1.00  0.00     0.211 HD
ENDBRANCH  21  26
BRANCH  22  28
ATOM     28  C   UNL     1      15.185  10.427  26.361  1.00  0.00     0.191 C 
BRANCH  28  29
ATOM     29  O   UNL     1      16.338   9.958  25.714  1.00  0.00    -0.394 OA
ATOM     30  H   UNL     1      16.558  10.614  25.003  1.00  0.00     0.210 HD
ENDBRANCH  28  29
ENDBRANCH  22  28
BRANCH  23  31
ATOM     31  O   UNL     1      14.964   7.790  27.536  1.00  0.00    -0.387 OA
ATOM     32  H   UNL     1      14.330   7.053  27.713  1.00  0.00     0.211 HD
ENDBRANCH  23  31
ENDBRANCH   1  18
TORSDOF 11
ENDMDL
MODEL 2
REMARK VINA RESULT:    -4.998      3.419      5.289
REMARK INTER + INTRA:          -8.498
REMARK INTER:                  -7.330
REMARK INTRA:                  -1.168
REMARK UNBOUND:                -1.309
REMARK SMILES COC(=O)C1=CO[C@@H](O[C@H]2O[C@@H](CO)[C@@H](O)[C@H](O)[C@H]2O)[C@H]2C(CO)=CC[C@H]12
REMARK SMILES IDX 9 1 8 2 5 3 6 4 27 5 7 6 21 7 26 8 22 9 25 10 3 11 4 12 2 13
REMARK SMILES IDX 1 14 23 15 24 16 10 18 19 19 11 20 17 21 12 22 15 23 20 24
REMARK SMILES IDX 18 26 13 28 14 29 16 31
REMARK H PARENT 24 17 20 25 18 27 14 30 16 32
REMARK Flexibility Score: inf
ROOT
ATOM      1  O   UNL     1      14.239   8.909  31.900  1.00  0.00    -0.310 OA
ENDROOT
BRANCH   1   2
ATOM      2  C   UNL     1      14.495   9.312  33.243  1.00  0.00     0.316 C 
ATOM      3  C   UNL     1      16.884   7.935  34.242  1.00  0.00     0.076 C 
ATOM      4  C   UNL     1      16.935   9.246  33.930  1.00  0.00     0.202 C 
ATOM      5  C   UNL     1      15.623   7.205  33.879  1.00  0.00     0.047 C 
ATOM      6  O   UNL     1      15.794   9.926  33.439  1.00  0.00    -0.471 OA
ATOM      7  C   UNL     1      14.421   8.092  34.172  1.00  0.00     0.094 C 
ATOM      8  C   UNL     1      15.258   5.894  34.576  1.00  0.00     0.037 C 
ATOM      9  C   UNL     1      13.300   7.110  34.100  1.00  0.00    -0.039 C 
ATOM     10  C   UNL     1      13.763   5.888  34.400  1.00  0.00    -0.024 C 
BRANCH   3  11
ATOM     11  C   UNL     1      18.051   7.209  34.785  1.00  0.00     0.337 C 
ATOM     12  O   UNL     1      19.264   7.471  34.550  1.00  0.00    -0.246 OA
BRANCH  11  13
ATOM     13  O   UNL     1      19.230   7.976  35.125  1.00  0.00    -0.466 OA
ATOM     14  C   UNL     1      20.556   7.717  34.408  1.00  0.00     0.282 C 
ENDBRANCH  11  13
ENDBRANCH   3  11
BRANCH   9  15
ATOM     15  C   UNL     1      11.851   7.440  33.861  1.00  0.00     0.187 C 
BRANCH  15  16
ATOM     16  O   UNL     1      11.559   7.398  32.489  1.00  0.00    -0.392 OA
ATOM     17  H   UNL     1      12.362   7.748  32.016  1.00  0.00     0.211 HD
ENDBRANCH  15  16
ENDBRANCH   9  15
ENDBRANCH   1   2
BRANCH   1  18
ATOM     18  C   UNL     1      14.454   9.922  30.928  1.00  0.00     0.286 C 
ATOM     19  C   UNL     1      13.145  10.114  30.104  1.00  0.00     0.202 C 
ATOM     20  O   UNL     1      15.605   9.547  30.169  1.00  0.00    -0.341 OA
ATOM     21  C   UNL     1      13.065   9.069  28.979  1.00  0.00     0.179 C 
ATOM     22  C   UNL     1      15.497   9.902  28.807  1.00  0.00     0.178 C 
ATOM     23  C   UNL     1      14.370   9.077  28.123  1.00  0.00     0.177 C 
BRANCH  19  24
ATOM     24  O   UNL     1      12.020  10.039  30.953  1.00  0.00    -0.385 OA
ATOM     25  H   UNL     1      11.270   9.670  30.418  1.00  0.00     0.211 HD
ENDBRANCH  19  24
BRANCH  21  26
ATOM     26  O   UNL     1      11.953   9.343  28.167  1.00  0.00    -0.387 OA
ATOM     27  H   UNL     1      11.909   8.618  27.488  1.00  0.00     0.211 HD
ENDBRANCH  21  26
BRANCH  22  28
ATOM     28  C   UNL     1      16.861   9.748  28.117  1.00  0.00     0.191 C 
BRANCH  28  29
ATOM     29  O   UNL     1      16.726   9.647  26.725  1.00  0.00    -0.394 OA
ATOM     30  H   UNL     1      16.497  10.552  26.390  1.00  0.00     0.210 HD
ENDBRANCH  28  29
ENDBRANCH  22  28
BRANCH  23  31
ATOM     31  O   UNL     1      14.774   7.759  27.853  1.00  0.00    -0.387 OA
ATOM     32  H   UNL     1      15.397   7.790  27.086  1.00  0.00     0.211 HD
ENDBRANCH  23  31
ENDBRANCH   1  18
TORSDOF 11
ENDMDL
MODEL 3
REMARK VINA RESULT:    -4.974      2.240      6.963
REMARK INTER + INTRA:          -8.463
REMARK INTER:                  -6.936
REMARK INTRA:                  -1.528
REMARK UNBOUND:                -1.309
REMARK SMILES COC(=O)C1=CO[C@@H](O[C@H]2O[C@@H](CO)[C@@H](O)[C@H](O)[C@H]2O)[C@H]2C(CO)=CC[C@H]12
REMARK SMILES IDX 9 1 8 2 5 3 6 4 27 5 7 6 21 7 26 8 22 9 25 10 3 11 4 12 2 13
REMARK SMILES IDX 1 14 23 15 24 16 10 18 19 19 11 20 17 21 12 22 15 23 20 24
REMARK SMILES IDX 18 26 13 28 14 29 16 31
REMARK H PARENT 24 17 20 25 18 27 14 30 16 32
REMARK Flexibility Score: inf
ROOT
ATOM      1  O   UNL     1      19.595   9.477  30.371  1.00  0.00    -0.310 OA
ENDROOT
BRANCH   1   2
ATOM      2  C   UNL     1      18.740  10.386  31.060  1.00  0.00     0.316 C 
ATOM      3  C   UNL     1      16.844   8.885  32.718  1.00  0.00     0.076 C 
ATOM      4  C   UNL     1      17.868   9.550  33.289  1.00  0.00     0.202 C 
ATOM      5  C   UNL     1      16.844   8.806  31.218  1.00  0.00     0.047 C 
ATOM      6  O   UNL     1      18.799  10.274  32.505  1.00  0.00    -0.471 OA
ATOM      7  C   UNL     1      17.283  10.145  30.641  1.00  0.00     0.094 C 
ATOM      8  C   UNL     1      15.551   8.515  30.456  1.00  0.00     0.037 C 
ATOM      9  C   UNL     1      16.886   9.998  29.210  1.00  0.00    -0.039 C 
ATOM     10  C   UNL     1      15.863   9.136  29.122  1.00  0.00    -0.024 C 
BRANCH   3  11
ATOM     11  C   UNL     1      15.842   8.148  33.515  1.00  0.00     0.337 C 
ATOM     12  O   UNL     1      15.715   6.892  33.572  1.00  0.00    -0.246 OA
BRANCH  11  13
ATOM     13  O   UNL     1      16.245   6.898  34.125  1.00  0.00    -0.466 OA
ATOM     14  C   UNL     1      15.233   5.767  34.312  1.00  0.00     0.282 C 
ENDBRANCH  11  13
ENDBRANCH   3  11
BRANCH   9  15
ATOM     15  C   UNL     1      17.444  10.784  28.054  1.00  0.00     0.187 C 
BRANCH  15  16
ATOM     16  O   UNL     1      18.535  10.110  27.486  1.00  0.00    -0.392 OA
ATOM     17  H   UNL     1      19.355  10.502  27.892  1.00  0.00     0.211 HD
ENDBRANCH  15  16
ENDBRANCH   9  15
ENDBRANCH   1   2
BRANCH   1  18
ATOM     18  C   UNL     1      20.965   9.563  30.734  1.00  0.00     0.286 C 
ATOM     19  C   UNL     1      21.832   9.537  29.440  1.00  0.00     0.202 C 
ATOM     20  O   UNL     1      21.225   8.511  31.666  1.00  0.00    -0.341 OA
ATOM     21  C   UNL     1      22.058   8.087  28.979  1.00  0.00     0.179 C 
ATOM     22  C   UNL     1      22.513   7.955  31.511  1.00  0.00     0.178 C 
ATOM     23  C   UNL     1      22.620   7.217  30.146  1.00  0.00     0.177 C 
BRANCH  19  24
ATOM     24  O   UNL     1      21.218  10.305  28.428  1.00  0.00    -0.385 OA
ATOM     25  H   UNL     1      21.102   9.716  27.638  1.00  0.00     0.211 HD
ENDBRANCH  19  24
BRANCH  21  26
ATOM     26  O   UNL     1      22.951   8.077  27.895  1.00  0.00    -0.387 OA
ATOM     27  H   UNL     1      23.454   7.221  27.947  1.00  0.00     0.211 HD
ENDBRANCH  21  26
BRANCH  22  28
ATOM     28  C   UNL     1      22.840   7.052  32.711  1.00  0.00     0.191 C 
BRANCH  28  29
ATOM     29  O   UNL     1      23.820   6.101  32.389  1.00  0.00    -0.394 OA
ATOM     30  H   UNL     1      24.205   5.781  33.245  1.00  0.00     0.210 HD
ENDBRANCH  28  29
ENDBRANCH  22  28
BRANCH  23  31
ATOM     31  O   UNL     1      21.973   5.971  30.170  1.00  0.00    -0.387 OA
ATOM     32  H   UNL     1      21.048   6.109  29.849  1.00  0.00     0.211 HD
ENDBRANCH  23  31
ENDBRANCH   1  18
TORSDOF 11
ENDMDL
MODEL 4
REMARK VINA RESULT:    -4.739      4.123      6.492
REMARK INTER + INTRA:          -8.125
REMARK INTER:                  -6.677
REMARK INTRA:                  -1.449
REMARK UNBOUND:                -1.309
REMARK SMILES COC(=O)C1=CO[C@@H](O[C@H]2O[C@@H](CO)[C@@H](O)[C@H](O)[C@H]2O)[C@H]2C(CO)=CC[C@H]12
REMARK SMILES IDX 9 1 8 2 5 3 6 4 27 5 7 6 21 7 26 8 22 9 25 10 3 11 4 12 2 13
REMARK SMILES IDX 1 14 23 15 24 16 10 18 19 19 11 20 17 21 12 22 15 23 20 24
REMARK SMILES IDX 18 26 13 28 14 29 16 31
REMARK H PARENT 24 17 20 25 18 27 14 30 16 32
REMARK Flexibility Score: inf
ROOT
ATOM      1  O   UNL     1      13.269   9.745  30.950  1.00  0.00    -0.310 OA
ENDROOT
BRANCH   1   2
ATOM      2  C   UNL     1      13.389  10.345  32.237  1.00  0.00     0.316 C 
ATOM      3  C   UNL     1      14.915   8.573  34.007  1.00  0.00     0.076 C 
ATOM      4  C   UNL     1      15.476   9.700  33.524  1.00  0.00     0.202 C 
ATOM      5  C   UNL     1      13.572   8.196  33.449  1.00  0.00     0.047 C 
ATOM      6  O   UNL     1      14.758  10.564  32.662  1.00  0.00    -0.471 OA
ATOM      7  C   UNL     1      12.721   9.449  33.290  1.00  0.00     0.094 C 
ATOM      8  C   UNL     1      12.649   7.253  34.220  1.00  0.00     0.037 C 
ATOM      9  C   UNL     1      11.364   8.864  33.083  1.00  0.00    -0.039 C 
ATOM     10  C   UNL     1      11.308   7.661  33.672  1.00  0.00    -0.024 C 
BRANCH   3  11
ATOM     11  C   UNL     1      15.631   7.670  34.932  1.00  0.00     0.337 C 
ATOM     12  O   UNL     1      15.810   6.430  34.770  1.00  0.00    -0.246 OA
BRANCH  11  13
ATOM     13  O   UNL     1      16.432   6.609  34.361  1.00  0.00    -0.466 OA
ATOM     14  C   UNL     1      16.393   5.202  34.959  1.00  0.00     0.282 C 
ENDBRANCH  11  13
ENDBRANCH   3  11
BRANCH   9  15
ATOM     15  C   UNL     1      10.193   9.554  32.436  1.00  0.00     0.187 C 
BRANCH  15  16
ATOM     16  O   UNL     1      10.116   9.216  31.077  1.00  0.00    -0.392 OA
ATOM     17  H   UNL     1      10.434  10.010  30.567  1.00  0.00     0.211 HD
ENDBRANCH  15  16
ENDBRANCH   9  15
ENDBRANCH   1   2
BRANCH   1  18
ATOM     18  C   UNL     1      13.801  10.519  29.885  1.00  0.00     0.286 C 
ATOM     19  C   UNL     1      12.777  10.531  28.710  1.00  0.00     0.202 C 
ATOM     20  O   UNL     1      15.088   9.982  29.569  1.00  0.00    -0.341 OA
ATOM     21  C   UNL     1      12.936   9.264  27.852  1.00  0.00     0.179 C 
ATOM     22  C   UNL     1      15.373  10.031  28.188  1.00  0.00     0.178 C 
ATOM     23  C   UNL     1      14.421   9.079  27.408  1.00  0.00     0.177 C 
BRANCH  19  24
ATOM     24  O   UNL     1      11.463  10.647  29.211  1.00  0.00    -0.385 OA
ATOM     25  H   UNL     1      10.951  11.205  28.571  1.00  0.00     0.211 HD
ENDBRANCH  19  24
BRANCH  21  26
ATOM     26  O   UNL     1      12.103   9.357  26.725  1.00  0.00    -0.387 OA
ATOM     27  H   UNL     1      12.351  10.197  26.255  1.00  0.00     0.211 HD
ENDBRANCH  21  26
BRANCH  22  28
ATOM     28  C   UNL     1      16.860   9.724  27.950  1.00  0.00     0.191 C 
BRANCH  28  29
ATOM     29  O   UNL     1      17.138   9.551  26.586  1.00  0.00    -0.394 OA
ATOM     30  H   UNL     1      16.268   9.421  26.127  1.00  0.00     0.210 HD
ENDBRANCH  28  29
ENDBRANCH  22  28
BRANCH  23  31
ATOM     31  O   UNL     1      14.798   7.733  27.543  1.00  0.00    -0.387 OA
ATOM     32  H   UNL     1      15.479   7.684  28.257  1.00  0.00     0.211 HD
ENDBRANCH  23  31
ENDBRANCH   1  18
TORSDOF 11
ENDMDL
MODEL 5
REMARK VINA RESULT:    -4.739     18.628     20.584
REMARK INTER + INTRA:          -8.125
REMARK INTER:                  -7.177
REMARK INTRA:                  -0.948
REMARK UNBOUND:                -1.309
REMARK SMILES COC(=O)C1=CO[C@@H](O[C@H]2O[C@@H](CO)[C@@H](O)[C@H](O)[C@H]2O)[C@H]2C(CO)=CC[C@H]12
REMARK SMILES IDX 9 1 8 2 5 3 6 4 27 5 7 6 21 7 26 8 22 9 25 10 3 11 4 12 2 13
REMARK SMILES IDX 1 14 23 15 24 16 10 18 19 19 11 20 17 21 12 22 15 23 20 24
REMARK SMILES IDX 18 26 13 28 14 29 16 31
REMARK H PARENT 24 17 20 25 18 27 14 30 16 32
REMARK Flexibility Score: inf
ROOT
ATOM      1  O   UNL     1      17.440  -8.320  18.974  1.00  0.00    -0.310 OA
ENDROOT
BRANCH   1   2
ATOM      2  C   UNL     1      18.652  -9.058  18.844  1.00  0.00     0.316 C 
ATOM      3  C   UNL     1      20.935  -7.297  19.380  1.00  0.00     0.076 C 
ATOM      4  C   UNL     1      20.566  -8.226  20.285  1.00  0.00     0.202 C 
ATOM      5  C   UNL     1      20.020  -7.098  18.206  1.00  0.00     0.047 C 
ATOM      6  O   UNL     1      19.461  -9.080  20.048  1.00  0.00    -0.471 OA
ATOM      7  C   UNL     1      19.511  -8.451  17.726  1.00  0.00     0.094 C 
ATOM      8  C   UNL     1      20.536  -6.453  16.920  1.00  0.00     0.037 C 
ATOM      9  C   UNL     1      18.940  -8.099  16.394  1.00  0.00    -0.039 C 
ATOM     10  C   UNL     1      19.572  -7.019  15.913  1.00  0.00    -0.024 C 
BRANCH   3  11
ATOM     11  C   UNL     1      22.101  -6.414  19.589  1.00  0.00     0.337 C 
ATOM     12  O   UNL     1      23.135  -6.695  20.258  1.00  0.00    -0.246 OA
BRANCH  11  13
ATOM     13  O   UNL     1      23.414  -7.021  19.624  1.00  0.00    -0.466 OA
ATOM     14  C   UNL     1      24.466  -6.535  20.623  1.00  0.00     0.282 C 
ENDBRANCH  11  13
ENDBRANCH   3  11
BRANCH   9  15
ATOM     15  C   UNL     1      17.913  -8.897  15.634  1.00  0.00     0.187 C 
BRANCH  15  16
ATOM     16  O   UNL     1      17.055  -8.041  14.927  1.00  0.00    -0.392 OA
ATOM     17  H   UNL     1      16.996  -8.399  14.000  1.00  0.00     0.211 HD
ENDBRANCH  15  16
ENDBRANCH   9  15
ENDBRANCH   1   2
BRANCH   1  18
ATOM     18  C   UNL     1      16.358  -9.052  19.529  1.00  0.00     0.286 C 
ATOM     19  C   UNL     1      15.076  -8.774  18.687  1.00  0.00     0.202 C 
ATOM     20  O   UNL     1      16.270  -8.700  20.912  1.00  0.00    -0.341 OA
ATOM     21  C   UNL     1      14.409  -7.466  19.147  1.00  0.00     0.179 C 
ATOM     22  C   UNL     1      14.937  -8.647  21.375  1.00  0.00     0.178 C 
ATOM     23  C   UNL     1      14.175  -7.477  20.690  1.00  0.00     0.177 C 
BRANCH  19  24
ATOM     24  O   UNL     1      15.396  -8.729  17.314  1.00  0.00    -0.385 OA
ATOM     25  H   UNL     1      14.918  -9.478  16.874  1.00  0.00     0.211 HD
ENDBRANCH  19  24
BRANCH  21  26
ATOM     26  O   UNL     1      13.188  -7.303  18.473  1.00  0.00    -0.387 OA
ATOM     27  H   UNL     1      12.522  -7.019  19.154  1.00  0.00     0.211 HD
ENDBRANCH  21  26
BRANCH  22  28
ATOM     28  C   UNL     1      14.922  -8.560  22.909  1.00  0.00     0.191 C 
BRANCH  28  29
ATOM     29  O   UNL     1      13.776  -7.898  23.376  1.00  0.00    -0.394 OA
ATOM     30  H   UNL     1      13.923  -6.928  23.230  1.00  0.00     0.210 HD
ENDBRANCH  28  29
ENDBRANCH  22  28
BRANCH  23  31
ATOM     31  O   UNL     1      14.523  -6.231  21.237  1.00  0.00    -0.387 OA
ATOM     32  H   UNL     1      13.690  -5.709  21.343  1.00  0.00     0.211 HD
ENDBRANCH  23  31
ENDBRANCH   1  18
TORSDOF 11
ENDMDL
MODEL 6
REMARK VINA RESULT:    -4.656      5.775      8.317
REMARK INTER + INTRA:          -8.006
REMARK INTER:                  -7.014
REMARK INTRA:                  -0.992
REMARK UNBOUND:                -1.309
REMARK SMILES COC(=O)C1=CO[C@@H](O[C@H]2O[C@@H](CO)[C@@H](O)[C@H](O)[C@H]2O)[C@H]2C(CO)=CC[C@H]12
REMARK SMILES IDX 9 1 8 2 5 3 6 4 27 5 7 6 21 7 26 8 22 9 25 10 3 11 4 12 2 13
REMARK SMILES IDX 1 14 23 15 24 16 10 18 19 19 11 20 17 21 12 22 15 23 20 24
REMARK SMILES IDX 18 26 13 28 14 29 16 31
REMARK H PARENT 24 17 20 25 18 27 14 30 16 32
REMARK Flexibility Score: inf
ROOT
ATOM      1  O   UNL     1      10.840  10.000  29.707  1.00  0.00    -0.310 OA
ENDROOT
BRANCH   1   2
ATOM      2  C   UNL     1      11.540  10.839  28.792  1.00  0.00     0.316 C 
ATOM      3  C   UNL     1      12.483   9.240  26.521  1.00  0.00     0.076 C 
ATOM      4  C   UNL     1      11.446  10.089  26.371  1.00  0.00     0.202 C 
ATOM      5  C   UNL     1      12.986   9.030  27.921  1.00  0.00     0.047 C 
ATOM      6  O   UNL     1      10.971  10.863  27.458  1.00  0.00    -0.471 OA
ATOM      7  C   UNL     1      12.993  10.362  28.661  1.00  0.00     0.094 C 
ATOM      8  C   UNL     1      14.397   8.496  28.166  1.00  0.00     0.037 C 
ATOM      9  C   UNL     1      13.828  10.035  29.853  1.00  0.00    -0.039 C 
ATOM     10  C   UNL     1      14.667   9.035  29.545  1.00  0.00    -0.024 C 
BRANCH   3  11
ATOM     11  C   UNL     1      13.017   8.444  25.397  1.00  0.00     0.337 C 
ATOM     12  O   UNL     1      13.025   8.787  24.182  1.00  0.00    -0.246 OA
BRANCH  11  13
ATOM     13  O   UNL     1      13.686   9.148  24.324  1.00  0.00    -0.466 OA
ATOM     14  C   UNL     1      13.009   9.305  22.961  1.00  0.00     0.282 C 
ENDBRANCH  11  13
ENDBRANCH   3  11
BRANCH   9  15
ATOM     15  C   UNL     1      13.837  10.786  31.158  1.00  0.00     0.187 C 
BRANCH  15  16
ATOM     16  O   UNL     1      13.584   9.912  32.226  1.00  0.00    -0.392 OA
ATOM     17  H   UNL     1      13.470   9.005  31.832  1.00  0.00     0.211 HD
ENDBRANCH  15  16
ENDBRANCH   9  15
ENDBRANCH   1   2
BRANCH   1  18
ATOM     18  C   UNL     1       9.677  10.585  30.274  1.00  0.00     0.286 C 
ATOM     19  C   UNL     1       9.547  10.115  31.754  1.00  0.00     0.202 C 
ATOM     20  O   UNL     1       8.575  10.251  29.428  1.00  0.00    -0.341 OA
ATOM     21  C   UNL     1       8.868   8.736  31.818  1.00  0.00     0.179 C 
ATOM     22  C   UNL     1       7.384  10.022  30.150  1.00  0.00     0.178 C 
ATOM     23  C   UNL     1       7.524   8.744  31.026  1.00  0.00     0.177 C 
BRANCH  19  24
ATOM     24  O   UNL     1      10.817  10.088  32.370  1.00  0.00    -0.385 OA
ATOM     25  H   UNL     1      11.488   9.924  31.658  1.00  0.00     0.211 HD
ENDBRANCH  19  24
BRANCH  21  26
ATOM     26  O   UNL     1       8.637   8.392  33.160  1.00  0.00    -0.387 OA
ATOM     27  H   UNL     1       9.521   8.405  33.614  1.00  0.00     0.211 HD
ENDBRANCH  21  26
BRANCH  22  28
ATOM     28  C   UNL     1       6.191   9.964  29.184  1.00  0.00     0.191 C 
BRANCH  28  29
ATOM     29  O   UNL     1       6.611   9.966  27.846  1.00  0.00    -0.394 OA
ATOM     30  H   UNL     1       6.313   9.107  27.448  1.00  0.00     0.210 HD
ENDBRANCH  28  29
ENDBRANCH  22  28
BRANCH  23  31
ATOM     31  O   UNL     1       7.408   7.570  30.265  1.00  0.00    -0.387 OA
ATOM     32  H   UNL     1       7.845   6.842  30.771  1.00  0.00     0.211 HD
ENDBRANCH  23  31
ENDBRANCH   1  18
TORSDOF 11
ENDMDL
MODEL 7
REMARK VINA RESULT:    -4.634      4.972      8.182
REMARK INTER + INTRA:          -7.975
REMARK INTER:                  -6.495
REMARK INTRA:                  -1.480
REMARK UNBOUND:                -1.309
REMARK SMILES COC(=O)C1=CO[C@@H](O[C@H]2O[C@@H](CO)[C@@H](O)[C@H](O)[C@H]2O)[C@H]2C(CO)=CC[C@H]12
REMARK SMILES IDX 9 1 8 2 5 3 6 4 27 5 7 6 21 7 26 8 22 9 25 10 3 11 4 12 2 13
REMARK SMILES IDX 1 14 23 15 24 16 10 18 19 19 11 20 17 21 12 22 15 23 20 24
REMARK SMILES IDX 18 26 13 28 14 29 16 31
REMARK H PARENT 24 17 20 25 18 27 14 30 16 32
REMARK Flexibility Score: inf
ROOT
ATOM      1  O   UNL     1      12.264   9.711  29.917  1.00  0.00    -0.310 OA
ENDROOT
BRANCH   1   2
ATOM      2  C   UNL     1      12.219  10.795  28.992  1.00  0.00     0.316 C 
ATOM      3  C   UNL     1      12.106   9.745  26.256  1.00  0.00     0.076 C 
ATOM      4  C   UNL     1      11.011  10.294  26.819  1.00  0.00     0.202 C 
ATOM      5  C   UNL     1      13.294   9.539  27.152  1.00  0.00     0.047 C 
ATOM      6  O   UNL     1      11.044  10.798  28.143  1.00  0.00    -0.471 OA
ATOM      7  C   UNL     1      13.448  10.742  28.074  1.00  0.00     0.094 C 
ATOM      8  C   UNL     1      14.695   9.382  26.560  1.00  0.00     0.037 C 
ATOM      9  C   UNL     1      14.825  10.534  28.607  1.00  0.00    -0.039 C 
ATOM     10  C   UNL     1      15.543   9.833  27.718  1.00  0.00    -0.024 C 
BRANCH   3  11
ATOM     11  C   UNL     1      12.108   9.239  24.868  1.00  0.00     0.337 C 
ATOM     12  O   UNL     1      11.881   9.920  23.828  1.00  0.00    -0.246 OA
BRANCH  11  13
ATOM     13  O   UNL     1      12.624  10.105  23.830  1.00  0.00    -0.466 OA
ATOM     14  C   UNL     1      11.985  10.114  22.440  1.00  0.00     0.282 C 
ENDBRANCH  11  13
ENDBRANCH   3  11
BRANCH   9  15
ATOM     15  C   UNL     1      15.379  11.125  29.876  1.00  0.00     0.187 C 
BRANCH  15  16
ATOM     16  O   UNL     1      15.753  10.107  30.767  1.00  0.00    -0.392 OA
ATOM     17  H   UNL     1      15.839   9.274  30.228  1.00  0.00     0.211 HD
ENDBRANCH  15  16
ENDBRANCH   9  15
ENDBRANCH   1   2
BRANCH   1  18
ATOM     18  C   UNL     1      12.162  10.093  31.281  1.00  0.00     0.286 C 
ATOM     19  C   UNL     1      12.636   8.906  32.172  1.00  0.00     0.202 C 
ATOM     20  O   UNL     1      10.819  10.527  31.503  1.00  0.00    -0.341 OA
ATOM     21  C   UNL     1      11.488   7.904  32.381  1.00  0.00     0.179 C 
ATOM     22  C   UNL     1      10.339  10.176  32.784  1.00  0.00     0.178 C 
ATOM     23  C   UNL     1      10.209   8.630  32.904  1.00  0.00     0.177 C 
BRANCH  19  24
ATOM     24  O   UNL     1      13.760   8.280  31.593  1.00  0.00    -0.385 OA
ATOM     25  H   UNL     1      14.055   8.846  30.833  1.00  0.00     0.211 HD
ENDBRANCH  19  24
BRANCH  21  26
ATOM     26  O   UNL     1      11.890   6.917  33.295  1.00  0.00    -0.387 OA
ATOM     27  H   UNL     1      12.278   6.174  32.760  1.00  0.00     0.211 HD
ENDBRANCH  21  26
BRANCH  22  28
ATOM     28  C   UNL     1       9.024  10.916  33.070  1.00  0.00     0.191 C 
BRANCH  28  29
ATOM     29  O   UNL     1       8.186  10.931  31.945  1.00  0.00    -0.394 OA
ATOM     30  H   UNL     1       7.388  10.387  32.170  1.00  0.00     0.210 HD
ENDBRANCH  28  29
ENDBRANCH  22  28
BRANCH  23  31
ATOM     31  O   UNL     1       9.074   8.145  32.233  1.00  0.00    -0.387 OA
ATOM     32  H   UNL     1       8.507   8.922  32.007  1.00  0.00     0.211 HD
ENDBRANCH  23  31
ENDBRANCH   1  18
TORSDOF 11
ENDMDL
MODEL 8
REMARK VINA RESULT:    -4.589      2.149      3.005
REMARK INTER + INTRA:          -7.909
REMARK INTER:                  -6.566
REMARK INTRA:                  -1.343
REMARK UNBOUND:                -1.309
REMARK SMILES COC(=O)C1=CO[C@@H](O[C@H]2O[C@@H](CO)[C@@H](O)[C@H](O)[C@H]2O)[C@H]2C(CO)=CC[C@H]12
REMARK SMILES IDX 9 1 8 2 5 3 6 4 27 5 7 6 21 7 26 8 22 9 25 10 3 11 4 12 2 13
REMARK SMILES IDX 1 14 23 15 24 16 10 18 19 19 11 20 17 21 12 22 15 23 20 24
REMARK SMILES IDX 18 26 13 28 14 29 16 31
REMARK H PARENT 24 17 20 25 18 27 14 30 16 32
REMARK Flexibility Score: inf
ROOT
ATOM      1  O   UNL     1      15.501  10.231  28.793  1.00  0.00    -0.310 OA
ENDROOT
BRANCH   1   2
ATOM      2  C   UNL     1      16.612  11.074  29.088  1.00  0.00     0.316 C 
ATOM      3  C   UNL     1      19.080   9.491  29.064  1.00  0.00     0.076 C 
ATOM      4  C   UNL     1      18.810  10.344  28.056  1.00  0.00     0.202 C 
ATOM      5  C   UNL     1      17.987   9.268  30.070  1.00  0.00     0.047 C 
ATOM      6  O   UNL     1      17.619  11.111  28.045  1.00  0.00    -0.471 OA
ATOM      7  C   UNL     1      17.300  10.594  30.373  1.00  0.00     0.094 C 
ATOM      8  C   UNL     1      18.313   8.727  31.463  1.00  0.00     0.037 C 
ATOM      9  C   UNL     1      16.528  10.255  31.604  1.00  0.00    -0.039 C 
ATOM     10  C   UNL     1      17.144   9.254  32.250  1.00  0.00    -0.024 C 
BRANCH   3  11
ATOM     11  C   UNL     1      20.328   8.702  29.115  1.00  0.00     0.337 C 
ATOM     12  O   UNL     1      21.501   9.160  29.023  1.00  0.00    -0.246 OA
BRANCH  11  13
ATOM     13  O   UNL     1      21.474   9.286  29.778  1.00  0.00    -0.466 OA
ATOM     14  C   UNL     1      22.118   8.584  30.974  1.00  0.00     0.282 C 
ENDBRANCH  11  13
ENDBRANCH   3  11
BRANCH   9  15
ATOM     15  C   UNL     1      15.325  10.995  32.123  1.00  0.00     0.187 C 
BRANCH  15  16
ATOM     16  O   UNL     1      14.225  10.129  32.227  1.00  0.00    -0.392 OA
ATOM     17  H   UNL     1      13.427  10.700  32.393  1.00  0.00     0.211 HD
ENDBRANCH  15  16
ENDBRANCH   9  15
ENDBRANCH   1   2
BRANCH   1  18
ATOM     18  C   UNL     1      14.635  10.725  27.783  1.00  0.00     0.286 C 
ATOM     19  C   UNL     1      13.166  10.649  28.297  1.00  0.00     0.202 C 
ATOM     20  O   UNL     1      14.905   9.984  26.590  1.00  0.00    -0.341 OA
ATOM     21  C   UNL     1      12.596   9.237  28.077  1.00  0.00     0.179 C 
ATOM     22  C   UNL     1      13.743   9.744  25.825  1.00  0.00     0.178 C 
ATOM     23  C   UNL     1      12.782   8.792  26.592  1.00  0.00     0.177 C 
BRANCH  19  24
ATOM     24  O   UNL     1      13.107  11.017  29.658  1.00  0.00    -0.385 OA
ATOM     25  H   UNL     1      12.152  11.006  29.927  1.00  0.00     0.211 HD
ENDBRANCH  19  24
BRANCH  21  26
ATOM     26  O   UNL     1      11.235   9.226  28.419  1.00  0.00    -0.387 OA
ATOM     27  H   UNL     1      10.998   8.281  28.616  1.00  0.00     0.211 HD
ENDBRANCH  21  26
BRANCH  22  28
ATOM     28  C   UNL     1      14.133   9.216  24.436  1.00  0.00     0.191 C 
BRANCH  28  29
ATOM     29  O   UNL     1      13.098   8.463  23.862  1.00  0.00    -0.394 OA
ATOM     30  H   UNL     1      13.455   7.550  23.708  1.00  0.00     0.210 HD
ENDBRANCH  28  29
ENDBRANCH  22  28
BRANCH  23  31
ATOM     31  O   UNL     1      13.214   7.457  26.543  1.00  0.00    -0.387 OA
ATOM     32  H   UNL     1      13.751   7.287  27.355  1.00  0.00     0.211 HD
ENDBRANCH  23  31
ENDBRANCH   1  18
TORSDOF 11
ENDMDL
MODEL 9
REMARK VINA RESULT:    -4.539      2.756      4.729
REMARK INTER + INTRA:          -7.838
REMARK INTER:                  -6.309
REMARK INTRA:                  -1.529
REMARK UNBOUND:                -1.309
REMARK SMILES COC(=O)C1=CO[C@@H](O[C@H]2O[C@@H](CO)[C@@H](O)[C@H](O)[C@H]2O)[C@H]2C(CO)=CC[C@H]12
REMARK SMILES IDX 9 1 8 2 5 3 6 4 27 5 7 6 21 7 26 8 22 9 25 10 3 11 4 12 2 13
REMARK SMILES IDX 1 14 23 15 24 16 10 18 19 19 11 20 17 21 12 22 15 23 20 24
REMARK SMILES IDX 18 26 13 28 14 29 16 31
REMARK H PARENT 24 17 20 25 18 27 14 30 16 32
REMARK Flexibility Score: inf
ROOT
ATOM      1  O   UNL     1      13.593   9.857  29.558  1.00  0.00    -0.310 OA
ENDROOT
BRANCH   1   2
ATOM      2  C   UNL     1      14.387  10.618  30.465  1.00  0.00     0.316 C 
ATOM      3  C   UNL     1      17.021   9.363  30.756  1.00  0.00     0.076 C 
ATOM      4  C   UNL     1      16.886  10.505  30.051  1.00  0.00     0.202 C 
ATOM      5  C   UNL     1      15.754   8.695  31.207  1.00  0.00     0.047 C 
ATOM      6  O   UNL     1      15.621  11.121  29.892  1.00  0.00    -0.471 OA
ATOM      7  C   UNL     1      14.763   9.753  31.676  1.00  0.00     0.094 C 
ATOM      8  C   UNL     1      15.771   7.705  32.372  1.00  0.00     0.037 C 
ATOM      9  C   UNL     1      13.756   8.920  32.396  1.00  0.00    -0.039 C 
ATOM     10  C   UNL     1      14.347   7.805  32.848  1.00  0.00    -0.024 C 
BRANCH   3  11
ATOM     11  C   UNL     1      18.333   8.716  30.962  1.00  0.00     0.337 C 
ATOM     12  O   UNL     1      19.340   9.238  31.517  1.00  0.00    -0.246 OA
BRANCH  11  13
ATOM     13  O   UNL     1      19.048   9.005  32.186  1.00  0.00    -0.466 OA
ATOM     14  C   UNL     1      20.512   9.447  32.142  1.00  0.00     0.282 C 
ENDBRANCH  11  13
ENDBRANCH   3  11
BRANCH   9  15
ATOM     15  C   UNL     1      12.334   9.315  32.693  1.00  0.00     0.187 C 
BRANCH  15  16
ATOM     16  O   UNL     1      11.471   8.814  31.706  1.00  0.00    -0.392 OA
ATOM     17  H   UNL     1      11.604   7.828  31.685  1.00  0.00     0.211 HD
ENDBRANCH  15  16
ENDBRANCH   9  15
ENDBRANCH   1   2
BRANCH   1  18
ATOM     18  C   UNL     1      13.217  10.549  28.377  1.00  0.00     0.286 C 
ATOM     19  C   UNL     1      11.708  10.281  28.095  1.00  0.00     0.202 C 
ATOM     20  O   UNL     1      14.115  10.144  27.341  1.00  0.00    -0.341 OA
ATOM     21  C   UNL     1      11.534   8.945  27.352  1.00  0.00     0.179 C 
ATOM     22  C   UNL     1      13.485  10.051  26.081  1.00  0.00     0.178 C 
ATOM     23  C   UNL     1      12.444   8.894  26.085  1.00  0.00     0.177 C 
BRANCH  19  24
ATOM     24  O   UNL     1      10.978  10.294  29.302  1.00  0.00    -0.385 OA
ATOM     25  H   UNL     1      10.033  10.091  29.078  1.00  0.00     0.211 HD
ENDBRANCH  19  24
BRANCH  21  26
ATOM     26  O   UNL     1      10.187   8.788  26.987  1.00  0.00    -0.387 OA
ATOM     27  H   UNL     1      10.026   9.399  26.220  1.00  0.00     0.211 HD
ENDBRANCH  21  26
BRANCH  22  28
ATOM     28  C   UNL     1      14.543   9.906  24.977  1.00  0.00     0.191 C 
BRANCH  28  29
ATOM     29  O   UNL     1      14.001   9.335  23.816  1.00  0.00    -0.394 OA
ATOM     30  H   UNL     1      14.377   8.420  23.740  1.00  0.00     0.210 HD
ENDBRANCH  28  29
ENDBRANCH  22  28
BRANCH  23  31
ATOM     31  O   UNL     1      13.057   7.635  25.985  1.00  0.00    -0.387 OA
ATOM     32  H   UNL     1      12.507   6.994  26.498  1.00  0.00     0.211 HD
ENDBRANCH  23  31
ENDBRANCH   1  18
TORSDOF 11
ENDMDL
