MODEL 1
REMARK VINA RESULT:    -5.796      0.000      0.000
REMARK INTER + INTRA:          -7.518
REMARK INTER:                  -7.152
REMARK INTRA:                  -0.366
REMARK UNBOUND:                -0.366
REMARK SMILES O=c1c(O)c(-c2cc(O)c(O)c(O)c2)oc2cc(O)cc(O)c12
REMARK SMILES IDX 5 1 3 2 2 3 1 4 23 5 21 6 20 7 18 8 17 9 16 10 15 11 6 12
REMARK SMILES IDX 7 13 8 14 14 15 10 16 12 17 9 18 11 20 13 22 4 24 22 26
REMARK SMILES IDX 19 28
REMARK H PARENT 9 19 11 21 13 23 4 25 22 27 19 29
REMARK Flexibility Score: inf
ROOT
ATOM      1  C   UNL     1     -24.139  12.376 -27.164  1.00  0.00     0.180 A 
ATOM      2  C   UNL     1     -23.570  11.668 -26.088  1.00  0.00     0.208 A 
ATOM      3  C   UNL     1     -22.176  11.517 -26.036  1.00  0.00     0.238 A 
ATOM      4  O   UNL     1     -21.656  10.875 -25.083  1.00  0.00    -0.285 OA
ATOM      5  C   UNL     1     -21.375  12.092 -27.045  1.00  0.00     0.111 A 
ATOM      6  C   UNL     1     -19.963  11.989 -27.063  1.00  0.00     0.134 A 
ATOM      7  C   UNL     1     -19.235  12.597 -28.098  1.00  0.00     0.093 A 
ATOM      8  C   UNL     1     -19.890  13.304 -29.110  1.00  0.00     0.123 A 
ATOM      9  C   UNL     1     -21.284  13.407 -29.096  1.00  0.00     0.094 A 
ATOM     10  C   UNL     1     -22.028  12.807 -28.075  1.00  0.00     0.146 A 
ATOM     11  O   UNL     1     -23.351  12.916 -28.089  1.00  0.00    -0.452 OA
ENDROOT
BRANCH   1  12
ATOM     12  C   UNL     1     -25.602  12.561 -27.299  1.00  0.00     0.029 A 
ATOM     13  C   UNL     1     -26.207  13.701 -26.750  1.00  0.00     0.062 A 
ATOM     14  C   UNL     1     -27.584  13.919 -26.877  1.00  0.00     0.162 A 
ATOM     15  C   UNL     1     -26.391  11.648 -28.015  1.00  0.00     0.062 A 
ATOM     16  C   UNL     1     -28.376  12.981 -27.580  1.00  0.00     0.200 A 
ATOM     17  C   UNL     1     -27.770  11.853 -28.150  1.00  0.00     0.162 A 
BRANCH  14  18
ATOM     18  O   UNL     1     -28.117  15.071 -26.294  1.00  0.00    -0.504 OA
ATOM     19  H   UNL     1     -29.099  15.212 -26.117  1.00  0.00     0.293 HD
ENDBRANCH  14  18
BRANCH  16  20
ATOM     20  O   UNL     1     -29.757  13.134 -27.739  1.00  0.00    -0.502 OA
ATOM     21  H   UNL     1     -30.184  13.734 -28.430  1.00  0.00     0.293 HD
ENDBRANCH  16  20
BRANCH  17  22
ATOM     22  O   UNL     1     -28.548  10.936 -28.856  1.00  0.00    -0.504 OA
ATOM     23  H   UNL     1     -28.302  10.643 -29.794  1.00  0.00     0.293 HD
ENDBRANCH  17  22
ENDBRANCH   1  12
BRANCH   2  24
ATOM     24  O   UNL     1     -24.382  11.151 -25.075  1.00  0.00    -0.502 OA
ATOM     25  H   UNL     1     -24.533  11.636 -24.199  1.00  0.00     0.293 HD
ENDBRANCH   2  24
BRANCH   6  26
ATOM     26  O   UNL     1     -19.279  11.292 -26.067  1.00  0.00    -0.507 OA
ATOM     27  H   UNL     1     -19.766  10.718 -25.389  1.00  0.00     0.293 HD
ENDBRANCH   6  26
BRANCH   8  28
ATOM     28  O   UNL     1     -19.144  13.899 -30.125  1.00  0.00    -0.508 OA
ATOM     29  H   UNL     1     -19.376  14.817 -30.484  1.00  0.00     0.293 HD
ENDBRANCH   8  28
TORSDOF 7
ENDMDL
MODEL 2
REMARK VINA RESULT:    -5.215      1.664      2.709
REMARK INTER + INTRA:          -6.801
REMARK INTER:                  -6.548
REMARK INTRA:                  -0.253
REMARK UNBOUND:                -0.366
REMARK SMILES O=c1c(O)c(-c2cc(O)c(O)c(O)c2)oc2cc(O)cc(O)c12
REMARK SMILES IDX 5 1 3 2 2 3 1 4 23 5 21 6 20 7 18 8 17 9 16 10 15 11 6 12
REMARK SMILES IDX 7 13 8 14 14 15 10 16 12 17 9 18 11 20 13 22 4 24 22 26
REMARK SMILES IDX 19 28
REMARK H PARENT 9 19 11 21 13 23 4 25 22 27 19 29
REMARK Flexibility Score: inf
ROOT
ATOM      1  C   UNL     1     -25.533  13.087 -27.233  1.00  0.00     0.180 A 
ATOM      2  C   UNL     1     -25.075  12.986 -25.905  1.00  0.00     0.208 A 
ATOM      3  C   UNL     1     -23.801  12.448 -25.667  1.00  0.00     0.238 A 
ATOM      4  O   UNL     1     -23.384  12.343 -24.481  1.00  0.00    -0.285 OA
ATOM      5  C   UNL     1     -23.001  12.042 -26.755  1.00  0.00     0.111 A 
ATOM      6  C   UNL     1     -21.704  11.494 -26.600  1.00  0.00     0.134 A 
ATOM      7  C   UNL     1     -20.967  11.122 -27.734  1.00  0.00     0.093 A 
ATOM      8  C   UNL     1     -21.499  11.287 -29.015  1.00  0.00     0.123 A 
ATOM      9  C   UNL     1     -22.779  11.826 -29.174  1.00  0.00     0.094 A 
ATOM     10  C   UNL     1     -23.531  12.201 -28.056  1.00  0.00     0.146 A 
ATOM     11  O   UNL     1     -24.746  12.707 -28.234  1.00  0.00    -0.452 OA
ENDROOT
BRANCH   1  12
ATOM     12  C   UNL     1     -26.873  13.625 -27.564  1.00  0.00     0.029 A 
ATOM     13  C   UNL     1     -27.880  12.751 -27.999  1.00  0.00     0.062 A 
ATOM     14  C   UNL     1     -29.163  13.221 -28.300  1.00  0.00     0.162 A 
ATOM     15  C   UNL     1     -27.176  14.985 -27.397  1.00  0.00     0.062 A 
ATOM     16  C   UNL     1     -29.454  14.598 -28.151  1.00  0.00     0.200 A 
ATOM     17  C   UNL     1     -28.456  15.470 -27.694  1.00  0.00     0.162 A 
BRANCH  14  18
ATOM     18  O   UNL     1     -30.110  12.293 -28.739  1.00  0.00    -0.504 OA
ATOM     19  H   UNL     1     -30.124  11.895 -29.665  1.00  0.00     0.293 HD
ENDBRANCH  14  18
BRANCH  16  20
ATOM     20  O   UNL     1     -30.711  15.136 -28.440  1.00  0.00    -0.502 OA
ATOM     21  H   UNL     1     -30.950  15.578 -29.316  1.00  0.00     0.293 HD
ENDBRANCH  16  20
BRANCH  17  22
ATOM     22  O   UNL     1     -28.746  16.824 -27.533  1.00  0.00    -0.504 OA
ATOM     23  H   UNL     1     -28.152  17.545 -27.926  1.00  0.00     0.293 HD
ENDBRANCH  17  22
ENDBRANCH   1  12
BRANCH   2  24
ATOM     24  O   UNL     1     -25.867  13.441 -24.849  1.00  0.00    -0.502 OA
ATOM     25  H   UNL     1     -26.272  14.370 -24.834  1.00  0.00     0.293 HD
ENDBRANCH   2  24
BRANCH   6  26
ATOM     26  O   UNL     1     -21.144  11.319 -25.334  1.00  0.00    -0.507 OA
ATOM     27  H   UNL     1     -20.425  11.938 -24.979  1.00  0.00     0.293 HD
ENDBRANCH   6  26
BRANCH   8  28
ATOM     28  O   UNL     1     -20.745  10.909 -30.125  1.00  0.00    -0.508 OA
ATOM     29  H   UNL     1     -20.247  11.591 -30.684  1.00  0.00     0.293 HD
ENDBRANCH   8  28
TORSDOF 7
ENDMDL
MODEL 3
REMARK VINA RESULT:    -5.077      1.958      3.967
REMARK INTER + INTRA:          -6.630
REMARK INTER:                  -6.268
REMARK INTRA:                  -0.362
REMARK UNBOUND:                -0.366
REMARK SMILES O=c1c(O)c(-c2cc(O)c(O)c(O)c2)oc2cc(O)cc(O)c12
REMARK SMILES IDX 5 1 3 2 2 3 1 4 23 5 21 6 20 7 18 8 17 9 16 10 15 11 6 12
REMARK SMILES IDX 7 13 8 14 14 15 10 16 12 17 9 18 11 20 13 22 4 24 22 26
REMARK SMILES IDX 19 28
REMARK H PARENT 9 19 11 21 13 23 4 25 22 27 19 29
REMARK Flexibility Score: inf
ROOT
ATOM      1  C   UNL     1     -25.798  13.269 -27.783  1.00  0.00     0.180 A 
ATOM      2  C   UNL     1     -24.878  13.255 -28.849  1.00  0.00     0.208 A 
ATOM      3  C   UNL     1     -23.581  12.771 -28.617  1.00  0.00     0.238 A 
ATOM      4  O   UNL     1     -22.744  12.763 -29.561  1.00  0.00    -0.285 OA
ATOM      5  C   UNL     1     -23.233  12.292 -27.337  1.00  0.00     0.111 A 
ATOM      6  C   UNL     1     -21.950  11.784 -27.023  1.00  0.00     0.134 A 
ATOM      7  C   UNL     1     -21.685  11.317 -25.727  1.00  0.00     0.093 A 
ATOM      8  C   UNL     1     -22.676  11.347 -24.742  1.00  0.00     0.123 A 
ATOM      9  C   UNL     1     -23.945  11.849 -25.047  1.00  0.00     0.094 A 
ATOM     10  C   UNL     1     -24.228  12.320 -26.332  1.00  0.00     0.146 A 
ATOM     11  O   UNL     1     -25.440  12.796 -26.594  1.00  0.00    -0.452 OA
ENDROOT
BRANCH   1  12
ATOM     12  C   UNL     1     -27.179  13.782 -27.944  1.00  0.00     0.029 A 
ATOM     13  C   UNL     1     -28.200  12.906 -28.337  1.00  0.00     0.062 A 
ATOM     14  C   UNL     1     -29.519  13.351 -28.478  1.00  0.00     0.162 A 
ATOM     15  C   UNL     1     -27.500  15.117 -27.654  1.00  0.00     0.062 A 
ATOM     16  C   UNL     1     -29.831  14.704 -28.207  1.00  0.00     0.200 A 
ATOM     17  C   UNL     1     -28.816  15.577 -27.790  1.00  0.00     0.162 A 
BRANCH  14  18
ATOM     18  O   UNL     1     -30.479  12.422 -28.885  1.00  0.00    -0.504 OA
ATOM     19  H   UNL     1     -30.792  11.648 -28.319  1.00  0.00     0.293 HD
ENDBRANCH  14  18
BRANCH  16  20
ATOM     20  O   UNL     1     -31.125  15.217 -28.333  1.00  0.00    -0.502 OA
ATOM     21  H   UNL     1     -31.334  16.156 -28.639  1.00  0.00     0.293 HD
ENDBRANCH  16  20
BRANCH  17  22
ATOM     22  O   UNL     1     -29.125  16.907 -27.508  1.00  0.00    -0.504 OA
ATOM     23  H   UNL     1     -29.596  17.498 -28.182  1.00  0.00     0.293 HD
ENDBRANCH  17  22
ENDBRANCH   1  12
BRANCH   2  24
ATOM     24  O   UNL     1     -25.262  13.689 -30.120  1.00  0.00    -0.502 OA
ATOM     25  H   UNL     1     -26.212  13.600 -30.460  1.00  0.00     0.293 HD
ENDBRANCH   2  24
BRANCH   6  26
ATOM     26  O   UNL     1     -20.939  11.738 -27.984  1.00  0.00    -0.507 OA
ATOM     27  H   UNL     1     -21.049  11.219 -28.848  1.00  0.00     0.293 HD
ENDBRANCH   6  26
BRANCH   8  28
ATOM     28  O   UNL     1     -22.387  10.877 -23.463  1.00  0.00    -0.508 OA
ATOM     29  H   UNL     1     -21.433  10.786 -23.135  1.00  0.00     0.293 HD
ENDBRANCH   8  28
TORSDOF 7
ENDMDL
MODEL 4
REMARK VINA RESULT:    -4.934      1.813      7.234
REMARK INTER + INTRA:          -6.454
REMARK INTER:                  -6.230
REMARK INTRA:                  -0.224
REMARK UNBOUND:                -0.366
REMARK SMILES O=c1c(O)c(-c2cc(O)c(O)c(O)c2)oc2cc(O)cc(O)c12
REMARK SMILES IDX 5 1 3 2 2 3 1 4 23 5 21 6 20 7 18 8 17 9 16 10 15 11 6 12
REMARK SMILES IDX 7 13 8 14 14 15 10 16 12 17 9 18 11 20 13 22 4 24 22 26
REMARK SMILES IDX 19 28
REMARK H PARENT 9 19 11 21 13 23 4 25 22 27 19 29
REMARK Flexibility Score: inf
ROOT
ATOM      1  C   UNL     1     -25.688  12.797 -27.794  1.00  0.00     0.180 A 
ATOM      2  C   UNL     1     -26.349  12.028 -28.772  1.00  0.00     0.208 A 
ATOM      3  C   UNL     1     -27.601  12.457 -29.238  1.00  0.00     0.238 A 
ATOM      4  O   UNL     1     -28.209  11.772 -30.106  1.00  0.00    -0.285 OA
ATOM      5  C   UNL     1     -28.160  13.652 -28.738  1.00  0.00     0.111 A 
ATOM      6  C   UNL     1     -29.415  14.155 -29.159  1.00  0.00     0.134 A 
ATOM      7  C   UNL     1     -29.898  15.356 -28.620  1.00  0.00     0.093 A 
ATOM      8  C   UNL     1     -29.153  16.063 -27.672  1.00  0.00     0.123 A 
ATOM      9  C   UNL     1     -27.914  15.570 -27.252  1.00  0.00     0.094 A 
ATOM     10  C   UNL     1     -27.416  14.373 -27.776  1.00  0.00     0.146 A 
ATOM     11  O   UNL     1     -26.238  13.925 -27.357  1.00  0.00    -0.452 OA
ENDROOT
BRANCH   1  12
ATOM     12  C   UNL     1     -24.373  12.400 -27.239  1.00  0.00     0.029 A 
ATOM     13  C   UNL     1     -24.288  11.969 -25.907  1.00  0.00     0.062 A 
ATOM     14  C   UNL     1     -23.066  11.567 -25.356  1.00  0.00     0.162 A 
ATOM     15  C   UNL     1     -23.217  12.390 -28.034  1.00  0.00     0.062 A 
ATOM     16  C   UNL     1     -21.900  11.582 -26.158  1.00  0.00     0.200 A 
ATOM     17  C   UNL     1     -21.987  11.990 -27.496  1.00  0.00     0.162 A 
BRANCH  14  18
ATOM     18  O   UNL     1     -23.058  11.161 -24.019  1.00  0.00    -0.504 OA
ATOM     19  H   UNL     1     -22.712  10.269 -23.701  1.00  0.00     0.293 HD
ENDBRANCH  14  18
BRANCH  16  20
ATOM     20  O   UNL     1     -20.648  11.199 -25.669  1.00  0.00    -0.502 OA
ATOM     21  H   UNL     1     -20.338  10.240 -25.598  1.00  0.00     0.293 HD
ENDBRANCH  16  20
BRANCH  17  22
ATOM     22  O   UNL     1     -20.842  11.990 -28.291  1.00  0.00    -0.504 OA
ATOM     23  H   UNL     1     -20.110  12.680 -28.168  1.00  0.00     0.293 HD
ENDBRANCH  17  22
ENDBRANCH   1  12
BRANCH   2  24
ATOM     24  O   UNL     1     -25.752  10.875 -29.287  1.00  0.00    -0.502 OA
ATOM     25  H   UNL     1     -24.759  10.692 -29.200  1.00  0.00     0.293 HD
ENDBRANCH   2  24
BRANCH   6  26
ATOM     26  O   UNL     1     -30.182  13.474 -30.105  1.00  0.00    -0.507 OA
ATOM     27  H   UNL     1     -30.755  13.966 -30.780  1.00  0.00     0.293 HD
ENDBRANCH   6  26
BRANCH   8  28
ATOM     28  O   UNL     1     -29.656  17.254 -27.153  1.00  0.00    -0.508 OA
ATOM     29  H   UNL     1     -30.648  17.460 -27.164  1.00  0.00     0.293 HD
ENDBRANCH   8  28
TORSDOF 7
ENDMDL
MODEL 5
REMARK VINA RESULT:    -4.919      1.823      7.315
REMARK INTER + INTRA:          -6.436
REMARK INTER:                  -6.235
REMARK INTRA:                  -0.201
REMARK UNBOUND:                -0.366
REMARK SMILES O=c1c(O)c(-c2cc(O)c(O)c(O)c2)oc2cc(O)cc(O)c12
REMARK SMILES IDX 5 1 3 2 2 3 1 4 23 5 21 6 20 7 18 8 17 9 16 10 15 11 6 12
REMARK SMILES IDX 7 13 8 14 14 15 10 16 12 17 9 18 11 20 13 22 4 24 22 26
REMARK SMILES IDX 19 28
REMARK H PARENT 9 19 11 21 13 23 4 25 22 27 19 29
REMARK Flexibility Score: inf
ROOT
ATOM      1  C   UNL     1     -25.806  12.785 -27.697  1.00  0.00     0.180 A 
ATOM      2  C   UNL     1     -26.447  12.032 -28.699  1.00  0.00     0.208 A 
ATOM      3  C   UNL     1     -27.681  12.476 -29.196  1.00  0.00     0.238 A 
ATOM      4  O   UNL     1     -28.271  11.804 -30.086  1.00  0.00    -0.285 OA
ATOM      5  C   UNL     1     -28.243  13.672 -28.701  1.00  0.00     0.111 A 
ATOM      6  C   UNL     1     -29.481  14.190 -29.152  1.00  0.00     0.134 A 
ATOM      7  C   UNL     1     -29.968  15.391 -28.616  1.00  0.00     0.093 A 
ATOM      8  C   UNL     1     -29.244  16.083 -27.641  1.00  0.00     0.123 A 
ATOM      9  C   UNL     1     -28.021  15.575 -27.192  1.00  0.00     0.094 A 
ATOM     10  C   UNL     1     -27.519  14.378 -27.712  1.00  0.00     0.146 A 
ATOM     11  O   UNL     1     -26.358  13.915 -27.265  1.00  0.00    -0.452 OA
ENDROOT
BRANCH   1  12
ATOM     12  C   UNL     1     -24.511  12.372 -27.108  1.00  0.00     0.029 A 
ATOM     13  C   UNL     1     -23.357  12.377 -27.906  1.00  0.00     0.062 A 
ATOM     14  C   UNL     1     -22.114  12.012 -27.378  1.00  0.00     0.162 A 
ATOM     15  C   UNL     1     -24.400  12.029 -25.752  1.00  0.00     0.062 A 
ATOM     16  C   UNL     1     -22.015  11.645 -26.015  1.00  0.00     0.200 A 
ATOM     17  C   UNL     1     -23.162  11.662 -25.210  1.00  0.00     0.162 A 
BRANCH  14  18
ATOM     18  O   UNL     1     -21.012  12.030 -28.237  1.00  0.00    -0.504 OA
ATOM     19  H   UNL     1     -20.119  12.436 -28.002  1.00  0.00     0.293 HD
ENDBRANCH  14  18
BRANCH  16  20
ATOM     20  O   UNL     1     -20.806  11.265 -25.425  1.00  0.00    -0.502 OA
ATOM     21  H   UNL     1     -20.518  11.542 -24.497  1.00  0.00     0.293 HD
ENDBRANCH  16  20
BRANCH  17  22
ATOM     22  O   UNL     1     -23.063  11.316 -23.863  1.00  0.00    -0.504 OA
ATOM     23  H   UNL     1     -23.757  10.732 -23.412  1.00  0.00     0.293 HD
ENDBRANCH  17  22
ENDBRANCH   1  12
BRANCH   2  24
ATOM     24  O   UNL     1     -25.846  10.878 -29.207  1.00  0.00    -0.502 OA
ATOM     25  H   UNL     1     -25.319  10.875 -30.073  1.00  0.00     0.293 HD
ENDBRANCH   2  24
BRANCH   6  26
ATOM     26  O   UNL     1     -30.228  13.524 -30.125  1.00  0.00    -0.507 OA
ATOM     27  H   UNL     1     -30.122  12.530 -30.290  1.00  0.00     0.293 HD
ENDBRANCH   6  26
BRANCH   8  28
ATOM     28  O   UNL     1     -29.750  17.274 -27.126  1.00  0.00    -0.508 OA
ATOM     29  H   UNL     1     -30.713  17.550 -27.278  1.00  0.00     0.293 HD
ENDBRANCH   8  28
TORSDOF 7
ENDMDL
MODEL 6
REMARK VINA RESULT:    -4.489      1.515      7.224
REMARK INTER + INTRA:          -5.905
REMARK INTER:                  -5.538
REMARK INTRA:                  -0.366
REMARK UNBOUND:                -0.366
REMARK SMILES O=c1c(O)c(-c2cc(O)c(O)c(O)c2)oc2cc(O)cc(O)c12
REMARK SMILES IDX 5 1 3 2 2 3 1 4 23 5 21 6 20 7 18 8 17 9 16 10 15 11 6 12
REMARK SMILES IDX 7 13 8 14 14 15 10 16 12 17 9 18 11 20 13 22 4 24 22 26
REMARK SMILES IDX 19 28
REMARK H PARENT 9 19 11 21 13 23 4 25 22 27 19 29
REMARK Flexibility Score: inf
ROOT
ATOM      1  C   UNL     1     -22.800  12.447 -28.076  1.00  0.00     0.180 A 
ATOM      2  C   UNL     1     -23.359  11.638 -29.084  1.00  0.00     0.208 A 
ATOM      3  C   UNL     1     -24.754  11.604 -29.231  1.00  0.00     0.238 A 
ATOM      4  O   UNL     1     -25.267  10.875 -30.123  1.00  0.00    -0.285 OA
ATOM      5  C   UNL     1     -25.563  12.393 -28.386  1.00  0.00     0.111 A 
ATOM      6  C   UNL     1     -26.976  12.419 -28.471  1.00  0.00     0.134 A 
ATOM      7  C   UNL     1     -27.710  13.237 -27.600  1.00  0.00     0.093 A 
ATOM      8  C   UNL     1     -27.061  14.027 -26.648  1.00  0.00     0.123 A 
ATOM      9  C   UNL     1     -25.666  14.004 -26.558  1.00  0.00     0.094 A 
ATOM     10  C   UNL     1     -24.916  13.194 -27.417  1.00  0.00     0.146 A 
ATOM     11  O   UNL     1     -23.592  13.187 -27.308  1.00  0.00    -0.452 OA
ENDROOT
BRANCH   1  12
ATOM     12  C   UNL     1     -21.338  12.520 -27.847  1.00  0.00     0.029 A 
ATOM     13  C   UNL     1     -20.588  13.517 -28.487  1.00  0.00     0.062 A 
ATOM     14  C   UNL     1     -19.209  13.629 -28.278  1.00  0.00     0.162 A 
ATOM     15  C   UNL     1     -20.694  11.649 -26.955  1.00  0.00     0.062 A 
ATOM     16  C   UNL     1     -18.563  12.731 -27.395  1.00  0.00     0.200 A 
ATOM     17  C   UNL     1     -19.314  11.749 -26.735  1.00  0.00     0.162 A 
BRANCH  14  18
ATOM     18  O   UNL     1     -18.527  14.639 -28.960  1.00  0.00    -0.504 OA
ATOM     19  H   UNL     1     -18.663  15.625 -28.794  1.00  0.00     0.293 HD
ENDBRANCH  14  18
BRANCH  16  20
ATOM     20  O   UNL     1     -17.189  12.784 -27.144  1.00  0.00    -0.502 OA
ATOM     21  H   UNL     1     -16.785  12.903 -26.226  1.00  0.00     0.293 HD
ENDBRANCH  16  20
BRANCH  17  22
ATOM     22  O   UNL     1     -18.681  10.875 -25.853  1.00  0.00    -0.504 OA
ATOM     23  H   UNL     1     -18.674  11.041 -24.854  1.00  0.00     0.293 HD
ENDBRANCH  17  22
ENDBRANCH   1  12
BRANCH   2  24
ATOM     24  O   UNL     1     -22.533  10.905 -29.940  1.00  0.00    -0.502 OA
ATOM     25  H   UNL     1     -21.705  10.420 -29.614  1.00  0.00     0.293 HD
ENDBRANCH   2  24
BRANCH   6  26
ATOM     26  O   UNL     1     -27.654  11.643 -29.412  1.00  0.00    -0.507 OA
ATOM     27  H   UNL     1     -28.561  11.237 -29.214  1.00  0.00     0.293 HD
ENDBRANCH   6  26
BRANCH   8  28
ATOM     28  O   UNL     1     -27.813  14.831 -25.794  1.00  0.00    -0.508 OA
ATOM     29  H   UNL     1     -28.181  15.725 -26.096  1.00  0.00     0.293 HD
ENDBRANCH   8  28
TORSDOF 7
ENDMDL
MODEL 7
REMARK VINA RESULT:    -4.029      1.148      2.143
REMARK INTER + INTRA:          -5.337
REMARK INTER:                  -5.016
REMARK INTRA:                  -0.321
REMARK UNBOUND:                -0.366
REMARK SMILES O=c1c(O)c(-c2cc(O)c(O)c(O)c2)oc2cc(O)cc(O)c12
REMARK SMILES IDX 5 1 3 2 2 3 1 4 23 5 21 6 20 7 18 8 17 9 16 10 15 11 6 12
REMARK SMILES IDX 7 13 8 14 14 15 10 16 12 17 9 18 11 20 13 22 4 24 22 26
REMARK SMILES IDX 19 28
REMARK H PARENT 9 19 11 21 13 23 4 25 22 27 19 29
REMARK Flexibility Score: inf
ROOT
ATOM      1  C   UNL     1     -23.865  12.819 -28.070  1.00  0.00     0.180 A 
ATOM      2  C   UNL     1     -23.191  11.830 -27.328  1.00  0.00     0.208 A 
ATOM      3  C   UNL     1     -21.788  11.836 -27.306  1.00  0.00     0.238 A 
ATOM      4  O   UNL     1     -21.173  10.949 -26.654  1.00  0.00    -0.285 OA
ATOM      5  C   UNL     1     -21.085  12.840 -28.005  1.00  0.00     0.111 A 
ATOM      6  C   UNL     1     -19.671  12.919 -28.030  1.00  0.00     0.134 A 
ATOM      7  C   UNL     1     -19.046  13.954 -28.741  1.00  0.00     0.093 A 
ATOM      8  C   UNL     1     -19.804  14.908 -29.426  1.00  0.00     0.123 A 
ATOM      9  C   UNL     1     -21.199  14.833 -29.406  1.00  0.00     0.094 A 
ATOM     10  C   UNL     1     -21.842  13.808 -28.704  1.00  0.00     0.146 A 
ATOM     11  O   UNL     1     -23.169  13.757 -28.704  1.00  0.00    -0.452 OA
ENDROOT
BRANCH   1  12
ATOM     12  C   UNL     1     -25.343  12.867 -28.157  1.00  0.00     0.029 A 
ATOM     13  C   UNL     1     -26.013  11.981 -29.013  1.00  0.00     0.062 A 
ATOM     14  C   UNL     1     -27.409  11.983 -29.105  1.00  0.00     0.162 A 
ATOM     15  C   UNL     1     -26.094  13.742 -27.358  1.00  0.00     0.062 A 
ATOM     16  C   UNL     1     -28.158  12.885 -28.313  1.00  0.00     0.200 A 
ATOM     17  C   UNL     1     -27.492  13.756 -27.440  1.00  0.00     0.162 A 
BRANCH  14  18
ATOM     18  O   UNL     1     -28.004  11.079 -29.988  1.00  0.00    -0.504 OA
ATOM     19  H   UNL     1     -27.490  10.448 -30.583  1.00  0.00     0.293 HD
ENDBRANCH  14  18
BRANCH  16  20
ATOM     20  O   UNL     1     -29.554  12.945 -28.360  1.00  0.00    -0.502 OA
ATOM     21  H   UNL     1     -30.076  13.757 -28.657  1.00  0.00     0.293 HD
ENDBRANCH  16  20
BRANCH  17  22
ATOM     22  O   UNL     1     -28.231  14.634 -26.648  1.00  0.00    -0.504 OA
ATOM     23  H   UNL     1     -28.695  15.444 -27.043  1.00  0.00     0.293 HD
ENDBRANCH  17  22
ENDBRANCH   1  12
BRANCH   2  24
ATOM     24  O   UNL     1     -23.912  10.877 -26.604  1.00  0.00    -0.502 OA
ATOM     25  H   UNL     1     -23.479  10.048 -26.215  1.00  0.00     0.293 HD
ENDBRANCH   2  24
BRANCH   6  26
ATOM     26  O   UNL     1     -18.886  11.984 -27.355  1.00  0.00    -0.507 OA
ATOM     27  H   UNL     1     -18.312  11.313 -27.851  1.00  0.00     0.293 HD
ENDBRANCH   6  26
BRANCH   8  28
ATOM     28  O   UNL     1     -19.157  15.925 -30.125  1.00  0.00    -0.508 OA
ATOM     29  H   UNL     1     -18.492  16.539 -29.671  1.00  0.00     0.293 HD
ENDBRANCH   8  28
TORSDOF 7
ENDMDL
MODEL 8
REMARK VINA RESULT:    -3.871      1.765      7.173
REMARK INTER + INTRA:          -5.142
REMARK INTER:                  -5.126
REMARK INTRA:                  -0.016
REMARK UNBOUND:                -0.366
REMARK SMILES O=c1c(O)c(-c2cc(O)c(O)c(O)c2)oc2cc(O)cc(O)c12
REMARK SMILES IDX 5 1 3 2 2 3 1 4 23 5 21 6 20 7 18 8 17 9 16 10 15 11 6 12
REMARK SMILES IDX 7 13 8 14 14 15 10 16 12 17 9 18 11 20 13 22 4 24 22 26
REMARK SMILES IDX 19 28
REMARK H PARENT 9 19 11 21 13 23 4 25 22 27 19 29
REMARK Flexibility Score: inf
ROOT
ATOM      1  C   UNL     1     -25.176  12.764 -26.537  1.00  0.00     0.180 A 
ATOM      2  C   UNL     1     -25.716  13.716 -25.651  1.00  0.00     0.208 A 
ATOM      3  C   UNL     1     -27.032  14.159 -25.851  1.00  0.00     0.238 A 
ATOM      4  O   UNL     1     -27.523  15.020 -25.071  1.00  0.00    -0.285 OA
ATOM      5  C   UNL     1     -27.792  13.630 -26.916  1.00  0.00     0.111 A 
ATOM      6  C   UNL     1     -29.126  14.021 -27.183  1.00  0.00     0.134 A 
ATOM      7  C   UNL     1     -29.818  13.440 -28.257  1.00  0.00     0.093 A 
ATOM      8  C   UNL     1     -29.204  12.480 -29.065  1.00  0.00     0.123 A 
ATOM      9  C   UNL     1     -27.886  12.092 -28.806  1.00  0.00     0.094 A 
ATOM     10  C   UNL     1     -27.179  12.660 -27.742  1.00  0.00     0.146 A 
ATOM     11  O   UNL     1     -25.927  12.277 -27.520  1.00  0.00    -0.452 OA
ENDROOT
BRANCH   1  12
ATOM     12  C   UNL     1     -23.789  12.262 -26.403  1.00  0.00     0.029 A 
ATOM     13  C   UNL     1     -22.929  12.307 -27.509  1.00  0.00     0.062 A 
ATOM     14  C   UNL     1     -21.606  11.861 -27.413  1.00  0.00     0.162 A 
ATOM     15  C   UNL     1     -23.297  11.794 -25.175  1.00  0.00     0.062 A 
ATOM     16  C   UNL     1     -21.124  11.369 -26.177  1.00  0.00     0.200 A 
ATOM     17  C   UNL     1     -21.975  11.345 -25.063  1.00  0.00     0.162 A 
BRANCH  14  18
ATOM     18  O   UNL     1     -20.812  11.926 -28.561  1.00  0.00    -0.504 OA
ATOM     19  H   UNL     1     -19.983  12.494 -28.643  1.00  0.00     0.293 HD
ENDBRANCH  14  18
BRANCH  16  20
ATOM     20  O   UNL     1     -19.816  10.903 -26.013  1.00  0.00    -0.502 OA
ATOM     21  H   UNL     1     -19.295  10.972 -25.150  1.00  0.00     0.293 HD
ENDBRANCH  16  20
BRANCH  17  22
ATOM     22  O   UNL     1     -21.496  10.875 -23.842  1.00  0.00    -0.504 OA
ATOM     23  H   UNL     1     -21.229   9.906 -23.713  1.00  0.00     0.293 HD
ENDBRANCH  17  22
ENDBRANCH   1  12
BRANCH   2  24
ATOM     24  O   UNL     1     -24.960  14.188 -24.575  1.00  0.00    -0.502 OA
ATOM     25  H   UNL     1     -24.876  15.174 -24.361  1.00  0.00     0.293 HD
ENDBRANCH   2  24
BRANCH   6  26
ATOM     26  O   UNL     1     -29.768  14.975 -26.393  1.00  0.00    -0.507 OA
ATOM     27  H   UNL     1     -30.746  15.204 -26.524  1.00  0.00     0.293 HD
ENDBRANCH   6  26
BRANCH   8  28
ATOM     28  O   UNL     1     -29.914  11.920 -30.125  1.00  0.00    -0.508 OA
ATOM     29  H   UNL     1     -29.620  11.053 -30.560  1.00  0.00     0.293 HD
ENDBRANCH   8  28
TORSDOF 7
ENDMDL
