MODEL 1
REMARK VINA RESULT:    -2.063      0.000      0.000
REMARK INTER + INTRA:          -2.063
REMARK INTER:                  -2.063
REMARK INTRA:                   0.000
REMARK UNBOUND:                 0.000
REMARK SMILES CC(=O)[O-]
REMARK SMILES IDX 1 1 2 2 3 3 4 4
REMARK H PARENT
REMARK Flexibility Score: inf
ROOT
ATOM      1  C   UNL     1      29.125  -8.621   5.279  1.00  0.00     0.063 C 
ATOM      2  C   UNL     1      28.308  -8.817   4.047  1.00  0.00     0.038 C 
ATOM      3  O   UNL     1      28.872  -9.000   2.936  1.00  0.00    -0.550 OA
ATOM      4  O   UNL     1      26.922  -8.745   4.113  1.00  0.00    -0.550 OA
ENDROOT
TORSDOF 0
ENDMDL
MODEL 2
REMARK VINA RESULT:    -1.820     16.603     16.972
REMARK INTER + INTRA:          -1.820
REMARK INTER:                  -1.820
REMARK INTRA:                   0.000
REMARK UNBOUND:                 0.000
REMARK SMILES CC(=O)[O-]
REMARK SMILES IDX 1 1 2 2 3 3 4 4
REMARK H PARENT
REMARK Flexibility Score: inf
ROOT
ATOM      1  C   UNL     1      25.033   5.252  13.128  1.00  0.00     0.063 C 
ATOM      2  C   UNL     1      23.663   5.123  12.553  1.00  0.00     0.038 C 
ATOM      3  O   UNL     1      23.097   6.123  12.040  1.00  0.00    -0.550 OA
ATOM      4  O   UNL     1      22.987   3.912  12.632  1.00  0.00    -0.550 OA
ENDROOT
TORSDOF 0
ENDMDL
MODEL 3
REMARK VINA RESULT:    -1.795     17.966     18.488
REMARK INTER + INTRA:          -1.795
REMARK INTER:                  -1.795
REMARK INTRA:                   0.000
REMARK UNBOUND:                 0.000
REMARK SMILES CC(=O)[O-]
REMARK SMILES IDX 1 1 2 2 3 3 4 4
REMARK H PARENT
REMARK Flexibility Score: inf
ROOT
ATOM      1  C   UNL     1      11.925   0.944   7.836  1.00  0.00     0.063 C 
ATOM      2  C   UNL     1      13.046   0.317   8.592  1.00  0.00     0.038 C 
ATOM      3  O   UNL     1      13.290  -0.911   8.459  1.00  0.00    -0.550 OA
ATOM      4  O   UNL     1      13.791   1.074   9.488  1.00  0.00    -0.550 OA
ENDROOT
TORSDOF 0
ENDMDL
MODEL 4
REMARK VINA RESULT:    -1.774     15.423     15.699
REMARK INTER + INTRA:          -1.774
REMARK INTER:                  -1.774
REMARK INTRA:                   0.000
REMARK UNBOUND:                 0.000
REMARK SMILES CC(=O)[O-]
REMARK SMILES IDX 1 1 2 2 3 3 4 4
REMARK H PARENT
REMARK Flexibility Score: inf
ROOT
ATOM      1  C   UNL     1      25.026   2.245  15.764  1.00  0.00     0.063 C 
ATOM      2  C   UNL     1      23.966   1.450  15.081  1.00  0.00     0.038 C 
ATOM      3  O   UNL     1      23.818   0.229  15.350  1.00  0.00    -0.550 OA
ATOM      4  O   UNL     1      23.173   2.041  14.104  1.00  0.00    -0.550 OA
ENDROOT
TORSDOF 0
ENDMDL
MODEL 5
REMARK VINA RESULT:    -1.764     14.089     14.464
REMARK INTER + INTRA:          -1.764
REMARK INTER:                  -1.764
REMARK INTRA:                   0.000
REMARK UNBOUND:                 0.000
REMARK SMILES CC(=O)[O-]
REMARK SMILES IDX 1 1 2 2 3 3 4 4
REMARK H PARENT
REMARK Flexibility Score: inf
ROOT
ATOM      1  C   UNL     1      21.260  -1.006  11.862  1.00  0.00     0.063 C 
ATOM      2  C   UNL     1      21.260  -0.077  13.028  1.00  0.00     0.038 C 
ATOM      3  O   UNL     1      20.833  -0.467  14.147  1.00  0.00    -0.550 OA
ATOM      4  O   UNL     1      21.680   1.238  12.871  1.00  0.00    -0.550 OA
ENDROOT
TORSDOF 0
ENDMDL
MODEL 6
REMARK VINA RESULT:    -1.758     15.377     15.729
REMARK INTER + INTRA:          -1.758
REMARK INTER:                  -1.758
REMARK INTRA:                   0.000
REMARK UNBOUND:                 0.000
REMARK SMILES CC(=O)[O-]
REMARK SMILES IDX 1 1 2 2 3 3 4 4
REMARK H PARENT
REMARK Flexibility Score: inf
ROOT
ATOM      1  C   UNL     1      22.318   3.735  12.634  1.00  0.00     0.063 C 
ATOM      2  C   UNL     1      22.471   2.414  13.309  1.00  0.00     0.038 C 
ATOM      3  O   UNL     1      23.395   2.234  14.145  1.00  0.00    -0.550 OA
ATOM      4  O   UNL     1      21.628   1.361  12.976  1.00  0.00    -0.550 OA
ENDROOT
TORSDOF 0
ENDMDL
MODEL 7
REMARK VINA RESULT:    -1.730     13.347     13.877
REMARK INTER + INTRA:          -1.730
REMARK INTER:                  -1.730
REMARK INTRA:                   0.000
REMARK UNBOUND:                 0.000
REMARK SMILES CC(=O)[O-]
REMARK SMILES IDX 1 1 2 2 3 3 4 4
REMARK H PARENT
REMARK Flexibility Score: inf
ROOT
ATOM      1  C   UNL     1      21.599   0.556  13.056  1.00  0.00     0.063 C 
ATOM      2  C   UNL     1      20.946  -0.647  12.465  1.00  0.00     0.038 C 
ATOM      3  O   UNL     1      21.334  -1.095  11.354  1.00  0.00    -0.550 OA
ATOM      4  O   UNL     1      19.872  -1.244  13.112  1.00  0.00    -0.550 OA
ENDROOT
TORSDOF 0
ENDMDL
MODEL 8
REMARK VINA RESULT:    -1.708     14.220     14.510
REMARK INTER + INTRA:          -1.708
REMARK INTER:                  -1.708
REMARK INTRA:                   0.000
REMARK UNBOUND:                 0.000
REMARK SMILES CC(=O)[O-]
REMARK SMILES IDX 1 1 2 2 3 3 4 4
REMARK H PARENT
REMARK Flexibility Score: inf
ROOT
ATOM      1  C   UNL     1      23.910  -3.189  15.757  1.00  0.00     0.063 C 
ATOM      2  C   UNL     1      23.517  -4.152  16.825  1.00  0.00     0.038 C 
ATOM      3  O   UNL     1      22.300  -4.353  17.078  1.00  0.00    -0.550 OA
ATOM      4  O   UNL     1      24.493  -4.790  17.580  1.00  0.00    -0.550 OA
ENDROOT
TORSDOF 0
ENDMDL
MODEL 9
REMARK VINA RESULT:    -1.684     13.175     13.666
REMARK INTER + INTRA:          -1.684
REMARK INTER:                  -1.684
REMARK INTRA:                   0.000
REMARK UNBOUND:                 0.000
REMARK SMILES CC(=O)[O-]
REMARK SMILES IDX 1 1 2 2 3 3 4 4
REMARK H PARENT
REMARK Flexibility Score: inf
ROOT
ATOM      1  C   UNL     1      23.800  -3.439  16.005  1.00  0.00     0.063 C 
ATOM      2  C   UNL     1      23.419  -2.381  15.026  1.00  0.00     0.038 C 
ATOM      3  O   UNL     1      22.982  -2.700  13.889  1.00  0.00    -0.550 OA
ATOM      4  O   UNL     1      23.596  -1.041  15.346  1.00  0.00    -0.550 OA
ENDROOT
TORSDOF 0
ENDMDL
