MODEL 1
REMARK VINA RESULT:    19.753      0.000      0.000
REMARK INTER + INTRA:          30.862
REMARK INTER:                  27.259
REMARK INTRA:                   3.604
REMARK UNBOUND:                 3.604
REMARK SMILES C[C@H]1OC(=O)[C@H](C)[C@H]1C[C@@H](O)[C@@](C)(O)[C@H]1CC[C@@]2(O)C3=CC(=O)[C@@H]4C[C@H](O)[C@H](O)C[C@@]4(C)[C@@H]3CC[C@@]12C
REMARK SMILES IDX 12 1 13 2 10 3 9 4 8 5 7 6 6 7 4 8 2 9 3 10 5 11 1 12 11 13
REMARK SMILES IDX 15 15 16 16 36 17 17 18 18 19 35 20 37 21 20 22 34 23 33 24
REMARK SMILES IDX 21 25 31 26 22 27 24 28 30 29 32 30 23 31 25 32 28 33 26 34
REMARK SMILES IDX 19 35 29 37 27 39 14 41
REMARK H PARENT 11 14 19 36 29 38 27 40 14 42
REMARK Flexibility Score: inf
ROOT
ATOM      1  C   UNL     1      -5.257  31.901  27.921  1.00  0.00     0.091 C 
ATOM      2  C   UNL     1      -6.123  33.085  28.433  1.00  0.00     0.045 C 
ENDROOT
BRANCH   1   3
ATOM      3  C   UNL     1      -4.077  32.486  27.044  1.00  0.00     0.146 C 
BRANCH   3   4
ATOM      4  C   UNL     1      -4.329  33.903  26.463  1.00  0.00     0.043 C 
BRANCH   4   5
ATOM      5  C   UNL     1      -5.512  33.953  25.457  1.00  0.00     0.046 C 
ATOM      6  C   UNL     1      -6.125  32.037  23.861  1.00  0.00     0.020 C 
ATOM      7  C   UNL     1      -5.185  33.221  24.122  1.00  0.00     0.103 C 
ATOM      8  C   UNL     1      -5.375  34.281  23.106  1.00  0.00     0.309 C 
ATOM      9  C   UNL     1      -5.975  35.396  25.039  1.00  0.00     0.177 C 
ATOM     10  O   UNL     1      -5.779  35.481  23.639  1.00  0.00    -0.462 OA
ATOM     11  O   UNL     1      -5.156  34.126  21.876  1.00  0.00    -0.252 OA
ATOM     12  C   UNL     1      -5.276  36.578  25.718  1.00  0.00     0.053 C 
ENDBRANCH   4   5
ENDBRANCH   3   4
BRANCH   3  13
ATOM     13  O   UNL     1      -2.892  32.529  27.805  1.00  0.00    -0.390 OA
ATOM     14  H   UNL     1      -2.310  31.782  27.505  1.00  0.00     0.211 HD
ENDBRANCH   3  13
ENDBRANCH   1   3
BRANCH   1  15
ATOM     15  C   UNL     1      -4.721  30.941  29.078  1.00  0.00     0.032 C 
ATOM     16  C   UNL     1      -5.655  29.784  29.500  1.00  0.00     0.010 C 
ATOM     17  C   UNL     1      -3.300  30.280  28.950  1.00  0.00     0.006 C 
ATOM     18  C   UNL     1      -4.768  28.662  30.037  1.00  0.00     0.041 C 
ATOM     19  C   UNL     1      -3.332  29.224  30.100  1.00  0.00     0.092 C 
ATOM     20  C   UNL     1      -3.109  29.585  27.574  1.00  0.00     0.011 C 
ATOM     21  C   UNL     1      -2.149  31.304  29.188  1.00  0.00     0.015 C 
ATOM     22  C   UNL     1      -2.303  28.090  29.949  1.00  0.00    -0.031 C 
ATOM     23  C   UNL     1      -1.845  28.732  27.528  1.00  0.00     0.009 C 
ATOM     24  C   UNL     1      -1.908  27.581  28.552  1.00  0.00     0.025 C 
ATOM     25  C   UNL     1      -1.943  27.382  31.045  1.00  0.00     0.050 C 
ATOM     26  C   UNL     1      -0.595  26.701  28.569  1.00  0.00    -0.013 C 
ATOM     27  C   UNL     1      -1.110  26.174  30.962  1.00  0.00     0.159 C 
ATOM     28  C   UNL     1      -0.834  25.569  29.614  1.00  0.00     0.070 C 
ATOM     29  C   UNL     1      -0.365  26.036  27.176  1.00  0.00     0.042 C 
ATOM     30  C   UNL     1       0.635  27.586  28.945  1.00  0.00     0.013 C 
ATOM     31  O   UNL     1      -0.694  25.628  32.021  1.00  0.00    -0.295 OA
ATOM     32  C   UNL     1       0.287  24.507  29.636  1.00  0.00     0.047 C 
ATOM     33  C   UNL     1       0.719  24.932  27.167  1.00  0.00     0.143 C 
ATOM     34  C   UNL     1       0.452  23.869  28.250  1.00  0.00     0.143 C 
BRANCH  19  35
ATOM     35  O   UNL     1      -3.118  29.913  31.322  1.00  0.00    -0.385 OA
ATOM     36  H   UNL     1      -3.677  29.519  32.040  1.00  0.00     0.211 HD
ENDBRANCH  19  35
BRANCH  33  37
ATOM     37  O   UNL     1       2.001  25.479  27.332  1.00  0.00    -0.390 OA
ATOM     38  H   UNL     1       1.877  26.425  27.607  1.00  0.00     0.211 HD
ENDBRANCH  33  37
BRANCH  34  39
ATOM     39  O   UNL     1       1.506  22.943  28.291  1.00  0.00    -0.390 OA
ATOM     40  H   UNL     1       2.283  23.408  28.693  1.00  0.00     0.211 HD
ENDBRANCH  34  39
ENDBRANCH   1  15
BRANCH   1  41
ATOM     41  O   UNL     1      -6.111  31.174  27.067  1.00  0.00    -0.387 OA
ATOM     42  H   UNL     1      -5.586  30.830  26.300  1.00  0.00     0.211 HD
ENDBRANCH   1  41
TORSDOF 9
ENDMDL
MODEL 2
REMARK VINA RESULT:    19.785      1.805      2.631
REMARK INTER + INTRA:          30.907
REMARK INTER:                  28.557
REMARK INTRA:                   2.351
REMARK UNBOUND:                 3.604
REMARK SMILES C[C@H]1OC(=O)[C@H](C)[C@H]1C[C@@H](O)[C@@](C)(O)[C@H]1CC[C@@]2(O)C3=CC(=O)[C@@H]4C[C@H](O)[C@H](O)C[C@@]4(C)[C@@H]3CC[C@@]12C
REMARK SMILES IDX 12 1 13 2 10 3 9 4 8 5 7 6 6 7 4 8 2 9 3 10 5 11 1 12 11 13
REMARK SMILES IDX 15 15 16 16 36 17 17 18 18 19 35 20 37 21 20 22 34 23 33 24
REMARK SMILES IDX 21 25 31 26 22 27 24 28 30 29 32 30 23 31 25 32 28 33 26 34
REMARK SMILES IDX 19 35 29 37 27 39 14 41
REMARK H PARENT 11 14 19 36 29 38 27 40 14 42
REMARK Flexibility Score: inf
ROOT
ATOM      1  C   UNL     1      -3.800  33.927  26.851  1.00  0.00     0.091 C 
ATOM      2  C   UNL     1      -2.715  33.562  25.801  1.00  0.00     0.045 C 
ENDROOT
BRANCH   1   3
ATOM      3  C   UNL     1      -4.864  34.874  26.162  1.00  0.00     0.146 C 
BRANCH   3   4
ATOM      4  C   UNL     1      -6.125  34.156  25.611  1.00  0.00     0.043 C 
BRANCH   4   5
ATOM      5  C   UNL     1      -6.087  33.941  24.072  1.00  0.00     0.046 C 
ATOM      6  C   UNL     1      -6.124  31.636  22.942  1.00  0.00     0.020 C 
ATOM      7  C   UNL     1      -5.268  32.678  23.672  1.00  0.00     0.103 C 
ATOM      8  C   UNL     1      -4.226  33.228  22.776  1.00  0.00     0.309 C 
ATOM      9  C   UNL     1      -5.462  35.123  23.247  1.00  0.00     0.177 C 
ATOM     10  O   UNL     1      -4.333  34.584  22.583  1.00  0.00    -0.462 OA
ATOM     11  O   UNL     1      -3.302  32.543  22.264  1.00  0.00    -0.252 OA
ATOM     12  C   UNL     1      -5.038  36.372  24.025  1.00  0.00     0.053 C 
ENDBRANCH   4   5
ENDBRANCH   3   4
BRANCH   3  13
ATOM     13  O   UNL     1      -5.287  35.861  27.075  1.00  0.00    -0.390 OA
ATOM     14  H   UNL     1      -4.600  35.930  27.789  1.00  0.00     0.211 HD
ENDBRANCH   3  13
ENDBRANCH   1   3
BRANCH   1  15
ATOM     15  C   UNL     1      -4.487  32.663  27.543  1.00  0.00     0.032 C 
ATOM     16  C   UNL     1      -5.585  31.944  26.726  1.00  0.00     0.010 C 
ATOM     17  C   UNL     1      -3.593  31.505  28.118  1.00  0.00     0.006 C 
ATOM     18  C   UNL     1      -5.606  30.487  27.187  1.00  0.00     0.041 C 
ATOM     19  C   UNL     1      -4.651  30.390  28.395  1.00  0.00     0.092 C 
ATOM     20  C   UNL     1      -2.544  31.018  27.080  1.00  0.00     0.011 C 
ATOM     21  C   UNL     1      -2.877  31.912  29.441  1.00  0.00     0.015 C 
ATOM     22  C   UNL     1      -4.065  28.971  28.505  1.00  0.00    -0.031 C 
ATOM     23  C   UNL     1      -1.842  29.738  27.526  1.00  0.00     0.009 C 
ATOM     24  C   UNL     1      -2.841  28.570  27.663  1.00  0.00     0.025 C 
ATOM     25  C   UNL     1      -4.777  28.017  29.146  1.00  0.00     0.050 C 
ATOM     26  C   UNL     1      -2.160  27.237  28.170  1.00  0.00    -0.013 C 
ATOM     27  C   UNL     1      -4.378  26.602  29.141  1.00  0.00     0.159 C 
ATOM     28  C   UNL     1      -3.282  26.156  28.215  1.00  0.00     0.070 C 
ATOM     29  C   UNL     1      -1.068  26.762  27.160  1.00  0.00     0.042 C 
ATOM     30  C   UNL     1      -1.519  27.466  29.576  1.00  0.00     0.013 C 
ATOM     31  O   UNL     1      -5.001  25.774  29.862  1.00  0.00    -0.295 OA
ATOM     32  C   UNL     1      -2.757  24.737  28.524  1.00  0.00     0.047 C 
ATOM     33  C   UNL     1      -0.549  25.327  27.409  1.00  0.00     0.143 C 
ATOM     34  C   UNL     1      -1.707  24.313  27.488  1.00  0.00     0.143 C 
BRANCH  19  35
ATOM     35  O   UNL     1      -5.327  30.729  29.596  1.00  0.00    -0.385 OA
ATOM     36  H   UNL     1      -5.601  29.908  30.079  1.00  0.00     0.211 HD
ENDBRANCH  19  35
BRANCH  33  37
ATOM     37  O   UNL     1       0.228  25.263  28.576  1.00  0.00    -0.390 OA
ATOM     38  H   UNL     1      -0.383  25.012  29.315  1.00  0.00     0.211 HD
ENDBRANCH  33  37
BRANCH  34  39
ATOM     39  O   UNL     1      -1.217  23.041  27.821  1.00  0.00    -0.390 OA
ATOM     40  H   UNL     1      -0.689  23.145  28.653  1.00  0.00     0.211 HD
ENDBRANCH  34  39
ENDBRANCH   1  15
BRANCH   1  41
ATOM     41  O   UNL     1      -3.118  34.682  27.827  1.00  0.00    -0.387 OA
ATOM     42  H   UNL     1      -2.935  35.586  27.467  1.00  0.00     0.211 HD
ENDBRANCH   1  41
TORSDOF 9
ENDMDL
MODEL 3
REMARK VINA RESULT:    21.625      1.145      1.981
REMARK INTER + INTRA:          33.447
REMARK INTER:                  30.598
REMARK INTRA:                   2.849
REMARK UNBOUND:                 3.604
REMARK SMILES C[C@H]1OC(=O)[C@H](C)[C@H]1C[C@@H](O)[C@@](C)(O)[C@H]1CC[C@@]2(O)C3=CC(=O)[C@@H]4C[C@H](O)[C@H](O)C[C@@]4(C)[C@@H]3CC[C@@]12C
REMARK SMILES IDX 12 1 13 2 10 3 9 4 8 5 7 6 6 7 4 8 2 9 3 10 5 11 1 12 11 13
REMARK SMILES IDX 15 15 16 16 36 17 17 18 18 19 35 20 37 21 20 22 34 23 33 24
REMARK SMILES IDX 21 25 31 26 22 27 24 28 30 29 32 30 23 31 25 32 28 33 26 34
REMARK SMILES IDX 19 35 29 37 27 39 14 41
REMARK H PARENT 11 14 19 36 29 38 27 40 14 42
REMARK Flexibility Score: inf
ROOT
ATOM      1  C   UNL     1      -5.349  32.419  26.915  1.00  0.00     0.091 C 
ATOM      2  C   UNL     1      -4.050  33.052  26.344  1.00  0.00     0.045 C 
ENDROOT
BRANCH   1   3
ATOM      3  C   UNL     1      -6.124  31.712  25.730  1.00  0.00     0.146 C 
BRANCH   3   4
ATOM      4  C   UNL     1      -6.110  32.483  24.383  1.00  0.00     0.043 C 
BRANCH   4   5
ATOM      5  C   UNL     1      -5.097  33.661  24.359  1.00  0.00     0.046 C 
ATOM      6  C   UNL     1      -5.694  36.081  24.976  1.00  0.00     0.020 C 
ATOM      7  C   UNL     1      -5.753  34.995  23.894  1.00  0.00     0.103 C 
ATOM      8  C   UNL     1      -4.939  35.374  22.718  1.00  0.00     0.309 C 
ATOM      9  C   UNL     1      -3.855  33.457  23.418  1.00  0.00     0.177 C 
ATOM     10  O   UNL     1      -3.919  34.493  22.455  1.00  0.00    -0.462 OA
ATOM     11  O   UNL     1      -5.168  36.380  21.996  1.00  0.00    -0.252 OA
ATOM     12  C   UNL     1      -3.736  32.109  22.700  1.00  0.00     0.053 C 
ENDBRANCH   4   5
ENDBRANCH   3   4
BRANCH   3  13
ATOM     13  O   UNL     1      -5.587  30.428  25.506  1.00  0.00    -0.390 OA
ATOM     14  H   UNL     1      -5.196  30.417  24.593  1.00  0.00     0.211 HD
ENDBRANCH   3  13
ENDBRANCH   1   3
BRANCH   1  15
ATOM     15  C   UNL     1      -5.104  31.428  28.142  1.00  0.00     0.032 C 
ATOM     16  C   UNL     1      -6.125  30.280  28.314  1.00  0.00     0.010 C 
ATOM     17  C   UNL     1      -3.700  30.745  28.329  1.00  0.00     0.006 C 
ATOM     18  C   UNL     1      -5.399  29.133  29.015  1.00  0.00     0.041 C 
ATOM     19  C   UNL     1      -4.009  29.669  29.417  1.00  0.00     0.092 C 
ATOM     20  C   UNL     1      -3.208  30.072  27.018  1.00  0.00     0.011 C 
ATOM     21  C   UNL     1      -2.622  31.744  28.846  1.00  0.00     0.015 C 
ATOM     22  C   UNL     1      -2.987  28.520  29.481  1.00  0.00    -0.031 C 
ATOM     23  C   UNL     1      -1.978  29.198  27.243  1.00  0.00     0.009 C 
ATOM     24  C   UNL     1      -2.289  28.030  28.200  1.00  0.00     0.025 C 
ATOM     25  C   UNL     1      -2.897  27.786  30.614  1.00  0.00     0.050 C 
ATOM     26  C   UNL     1      -1.026  27.127  28.498  1.00  0.00    -0.013 C 
ATOM     27  C   UNL     1      -2.082  26.565  30.698  1.00  0.00     0.159 C 
ATOM     28  C   UNL     1      -1.512  25.980  29.436  1.00  0.00     0.070 C 
ATOM     29  C   UNL     1      -0.491  26.483  27.181  1.00  0.00     0.042 C 
ATOM     30  C   UNL     1       0.097  27.984  29.165  1.00  0.00     0.013 C 
ATOM     31  O   UNL     1      -1.927  25.992  31.811  1.00  0.00    -0.295 OA
ATOM     32  C   UNL     1      -0.440  24.899  29.691  1.00  0.00     0.047 C 
ATOM     33  C   UNL     1       0.552  25.361  27.396  1.00  0.00     0.143 C 
ATOM     34  C   UNL     1       0.030  24.284  28.366  1.00  0.00     0.143 C 
BRANCH  19  35
ATOM     35  O   UNL     1      -4.071  30.332  30.671  1.00  0.00    -0.385 OA
ATOM     36  H   UNL     1      -4.598  31.168  30.590  1.00  0.00     0.211 HD
ENDBRANCH  19  35
BRANCH  33  37
ATOM     37  O   UNL     1       1.768  25.883  27.862  1.00  0.00    -0.390 OA
ATOM     38  H   UNL     1       1.876  25.570  28.798  1.00  0.00     0.211 HD
ENDBRANCH  33  37
BRANCH  34  39
ATOM     39  O   UNL     1       1.034  23.339  28.626  1.00  0.00    -0.390 OA
ATOM     40  H   UNL     1       1.549  23.227  27.787  1.00  0.00     0.211 HD
ENDBRANCH  34  39
ENDBRANCH   1  15
BRANCH   1  41
ATOM     41  O   UNL     1      -6.124  33.515  27.345  1.00  0.00    -0.387 OA
ATOM     42  H   UNL     1      -5.796  33.816  28.230  1.00  0.00     0.211 HD
ENDBRANCH   1  41
TORSDOF 9
ENDMDL
MODEL 4
REMARK VINA RESULT:    21.690      0.941      1.714
REMARK INTER + INTRA:          33.535
REMARK INTER:                  32.179
REMARK INTRA:                   1.357
REMARK UNBOUND:                 3.604
REMARK SMILES C[C@H]1OC(=O)[C@H](C)[C@H]1C[C@@H](O)[C@@](C)(O)[C@H]1CC[C@@]2(O)C3=CC(=O)[C@@H]4C[C@H](O)[C@H](O)C[C@@]4(C)[C@@H]3CC[C@@]12C
REMARK SMILES IDX 12 1 13 2 10 3 9 4 8 5 7 6 6 7 4 8 2 9 3 10 5 11 1 12 11 13
REMARK SMILES IDX 15 15 16 16 36 17 17 18 18 19 35 20 37 21 20 22 34 23 33 24
REMARK SMILES IDX 21 25 31 26 22 27 24 28 30 29 32 30 23 31 25 32 28 33 26 34
REMARK SMILES IDX 19 35 29 37 27 39 14 41
REMARK H PARENT 11 14 19 36 29 38 27 40 14 42
REMARK Flexibility Score: inf
ROOT
ATOM      1  C   UNL     1      -5.241  30.930  28.034  1.00  0.00     0.091 C 
ATOM      2  C   UNL     1      -6.125  32.109  28.527  1.00  0.00     0.045 C 
ENDROOT
BRANCH   1   3
ATOM      3  C   UNL     1      -4.184  31.495  27.001  1.00  0.00     0.146 C 
BRANCH   3   4
ATOM      4  C   UNL     1      -4.758  31.861  25.606  1.00  0.00     0.043 C 
BRANCH   4   5
ATOM      5  C   UNL     1      -4.247  33.227  25.070  1.00  0.00     0.046 C 
ATOM      6  C   UNL     1      -3.650  35.226  26.567  1.00  0.00     0.020 C 
ATOM      7  C   UNL     1      -4.781  34.428  25.906  1.00  0.00     0.103 C 
ATOM      8  C   UNL     1      -5.488  35.248  24.897  1.00  0.00     0.309 C 
ATOM      9  C   UNL     1      -4.636  33.549  23.581  1.00  0.00     0.177 C 
ATOM     10  O   UNL     1      -5.423  34.726  23.628  1.00  0.00    -0.462 OA
ATOM     11  O   UNL     1      -6.124  36.301  25.164  1.00  0.00    -0.252 OA
ATOM     12  C   UNL     1      -5.394  32.468  22.806  1.00  0.00     0.053 C 
ENDBRANCH   4   5
ENDBRANCH   3   4
BRANCH   3  13
ATOM     13  O   UNL     1      -3.561  32.642  27.533  1.00  0.00    -0.390 OA
ATOM     14  H   UNL     1      -3.991  33.439  27.124  1.00  0.00     0.211 HD
ENDBRANCH   3  13
ENDBRANCH   1   3
BRANCH   1  15
ATOM     15  C   UNL     1      -4.544  30.104  29.208  1.00  0.00     0.032 C 
ATOM     16  C   UNL     1      -5.356  28.929  29.798  1.00  0.00     0.010 C 
ATOM     17  C   UNL     1      -3.095  29.528  29.007  1.00  0.00     0.006 C 
ATOM     18  C   UNL     1      -4.350  27.914  30.339  1.00  0.00     0.041 C 
ATOM     19  C   UNL     1      -2.957  28.570  30.232  1.00  0.00     0.092 C 
ATOM     20  C   UNL     1      -2.971  28.736  27.676  1.00  0.00     0.011 C 
ATOM     21  C   UNL     1      -2.004  30.640  29.063  1.00  0.00     0.015 C 
ATOM     22  C   UNL     1      -1.867  27.495  30.079  1.00  0.00    -0.031 C 
ATOM     23  C   UNL     1      -1.657  27.965  27.584  1.00  0.00     0.009 C 
ATOM     24  C   UNL     1      -1.554  26.899  28.695  1.00  0.00     0.025 C 
ATOM     25  C   UNL     1      -1.368  26.905  31.189  1.00  0.00     0.050 C 
ATOM     26  C   UNL     1      -0.185  26.110  28.663  1.00  0.00    -0.013 C 
ATOM     27  C   UNL     1      -0.461  25.750  31.125  1.00  0.00     0.159 C 
ATOM     28  C   UNL     1      -0.255  25.055  29.809  1.00  0.00     0.070 C 
ATOM     29  C   UNL     1      -0.024  25.349  27.310  1.00  0.00     0.042 C 
ATOM     30  C   UNL     1       1.007  27.100  28.860  1.00  0.00     0.013 C 
ATOM     31  O   UNL     1       0.079  25.320  32.182  1.00  0.00    -0.295 OA
ATOM     32  C   UNL     1       0.936  24.072  29.813  1.00  0.00     0.047 C 
ATOM     33  C   UNL     1       1.131  24.320  27.290  1.00  0.00     0.143 C 
ATOM     34  C   UNL     1       1.030  23.335  28.471  1.00  0.00     0.143 C 
BRANCH  19  35
ATOM     35  O   UNL     1      -2.692  29.370  31.375  1.00  0.00    -0.385 OA
ATOM     36  H   UNL     1      -1.729  29.604  31.412  1.00  0.00     0.211 HD
ENDBRANCH  19  35
BRANCH  33  37
ATOM     37  O   UNL     1       2.380  24.959  27.300  1.00  0.00    -0.390 OA
ATOM     38  H   UNL     1       2.272  25.794  27.825  1.00  0.00     0.211 HD
ENDBRANCH  33  37
BRANCH  34  39
ATOM     39  O   UNL     1       2.147  22.484  28.489  1.00  0.00    -0.390 OA
ATOM     40  H   UNL     1       2.307  22.240  29.436  1.00  0.00     0.211 HD
ENDBRANCH  34  39
ENDBRANCH   1  15
BRANCH   1  41
ATOM     41  O   UNL     1      -6.125  30.087  27.329  1.00  0.00    -0.387 OA
ATOM     42  H   UNL     1      -7.016  30.517  27.286  1.00  0.00     0.211 HD
ENDBRANCH   1  41
TORSDOF 9
ENDMDL
MODEL 5
REMARK VINA RESULT:    22.703      1.505      3.042
REMARK INTER + INTRA:          34.933
REMARK INTER:                  35.184
REMARK INTRA:                  -0.251
REMARK UNBOUND:                 3.604
REMARK SMILES C[C@H]1OC(=O)[C@H](C)[C@H]1C[C@@H](O)[C@@](C)(O)[C@H]1CC[C@@]2(O)C3=CC(=O)[C@@H]4C[C@H](O)[C@H](O)C[C@@]4(C)[C@@H]3CC[C@@]12C
REMARK SMILES IDX 12 1 13 2 10 3 9 4 8 5 7 6 6 7 4 8 2 9 3 10 5 11 1 12 11 13
REMARK SMILES IDX 15 15 16 16 36 17 17 18 18 19 35 20 37 21 20 22 34 23 33 24
REMARK SMILES IDX 21 25 31 26 22 27 24 28 30 29 32 30 23 31 25 32 28 33 26 34
REMARK SMILES IDX 19 35 29 37 27 39 14 41
REMARK H PARENT 11 14 19 36 29 38 27 40 14 42
REMARK Flexibility Score: inf
ROOT
ATOM      1  C   UNL     1      -4.880  31.848  28.110  1.00  0.00     0.091 C 
ATOM      2  C   UNL     1      -4.083  32.935  28.882  1.00  0.00     0.045 C 
ENDROOT
BRANCH   1   3
ATOM      3  C   UNL     1      -5.751  32.561  26.998  1.00  0.00     0.146 C 
BRANCH   3   4
ATOM      4  C   UNL     1      -5.064  33.760  26.292  1.00  0.00     0.043 C 
BRANCH   4   5
ATOM      5  C   UNL     1      -5.826  34.251  25.031  1.00  0.00     0.046 C 
ATOM      6  C   UNL     1      -6.125  32.853  22.898  1.00  0.00     0.020 C 
ATOM      7  C   UNL     1      -5.175  33.742  23.711  1.00  0.00     0.103 C 
ATOM      8  C   UNL     1      -4.871  34.994  22.985  1.00  0.00     0.309 C 
ATOM      9  C   UNL     1      -5.923  35.812  24.873  1.00  0.00     0.177 C 
ATOM     10  O   UNL     1      -5.263  36.125  23.660  1.00  0.00    -0.462 OA
ATOM     11  O   UNL     1      -4.277  35.041  21.875  1.00  0.00    -0.252 OA
ATOM     12  C   UNL     1      -5.337  36.667  26.000  1.00  0.00     0.053 C 
ENDBRANCH   4   5
ENDBRANCH   3   4
BRANCH   3  13
ATOM     13  O   UNL     1      -6.124  31.627  26.011  1.00  0.00    -0.390 OA
ATOM     14  H   UNL     1      -7.029  31.286  26.240  1.00  0.00     0.211 HD
ENDBRANCH   3  13
ENDBRANCH   1   3
BRANCH   1  15
ATOM     15  C   UNL     1      -3.972  30.685  27.501  1.00  0.00     0.032 C 
ATOM     16  C   UNL     1      -2.525  31.071  27.120  1.00  0.00     0.010 C 
ATOM     17  C   UNL     1      -3.834  29.319  28.266  1.00  0.00     0.006 C 
ATOM     18  C   UNL     1      -1.678  29.804  27.231  1.00  0.00     0.041 C 
ATOM     19  C   UNL     1      -2.654  28.640  27.500  1.00  0.00     0.092 C 
ATOM     20  C   UNL     1      -3.465  29.531  29.761  1.00  0.00     0.011 C 
ATOM     21  C   UNL     1      -5.122  28.448  28.158  1.00  0.00     0.015 C 
ATOM     22  C   UNL     1      -1.951  27.518  28.283  1.00  0.00    -0.031 C 
ATOM     23  C   UNL     1      -3.083  28.225  30.452  1.00  0.00     0.009 C 
ATOM     24  C   UNL     1      -1.825  27.601  29.815  1.00  0.00     0.025 C 
ATOM     25  C   UNL     1      -1.232  26.596  27.603  1.00  0.00     0.050 C 
ATOM     26  C   UNL     1      -1.424  26.221  30.472  1.00  0.00    -0.013 C 
ATOM     27  C   UNL     1      -0.386  25.602  28.280  1.00  0.00     0.159 C 
ATOM     28  C   UNL     1      -0.124  25.748  29.753  1.00  0.00     0.070 C 
ATOM     29  C   UNL     1      -1.099  26.411  31.987  1.00  0.00     0.042 C 
ATOM     30  C   UNL     1      -2.586  25.192  30.304  1.00  0.00     0.013 C 
ATOM     31  O   UNL     1       0.159  24.684  27.608  1.00  0.00    -0.295 OA
ATOM     32  C   UNL     1       0.510  24.493  30.391  1.00  0.00     0.047 C 
ATOM     33  C   UNL     1      -0.419  25.191  32.653  1.00  0.00     0.143 C 
ATOM     34  C   UNL     1       0.831  24.745  31.870  1.00  0.00     0.143 C 
BRANCH  19  35
ATOM     35  O   UNL     1      -3.172  28.129  26.281  1.00  0.00    -0.385 OA
ATOM     36  H   UNL     1      -2.871  28.688  25.520  1.00  0.00     0.211 HD
ENDBRANCH  19  35
BRANCH  33  37
ATOM     37  O   UNL     1      -1.316  24.119  32.782  1.00  0.00    -0.390 OA
ATOM     38  H   UNL     1      -1.907  24.330  33.551  1.00  0.00     0.211 HD
ENDBRANCH  33  37
BRANCH  34  39
ATOM     39  O   UNL     1       1.363  23.575  32.433  1.00  0.00    -0.390 OA
ATOM     40  H   UNL     1       2.000  23.201  31.772  1.00  0.00     0.211 HD
ENDBRANCH  34  39
ENDBRANCH   1  15
BRANCH   1  41
ATOM     41  O   UNL     1      -5.762  31.302  29.065  1.00  0.00    -0.387 OA
ATOM     42  H   UNL     1      -5.304  30.567  29.546  1.00  0.00     0.211 HD
ENDBRANCH   1  41
TORSDOF 9
ENDMDL
