MODEL 1
REMARK VINA RESULT:    -3.955      0.000      0.000
REMARK INTER + INTRA:          -4.599
REMARK INTER:                  -4.417
REMARK INTRA:                  -0.181
REMARK UNBOUND:                -0.181
REMARK SMILES O=C([O-])c1ccccc1C(=O)[O-]
REMARK SMILES IDX 4 1 9 2 5 3 8 4 6 5 7 6 2 7 1 8 3 9 10 10 11 11 12 12
REMARK H PARENT
REMARK Flexibility Score: inf
ROOT
ATOM      1  C   UNL     1       3.064   6.356  -7.157  1.00  0.00     0.006 A 
ATOM      2  C   UNL     1       1.824   6.298  -6.463  1.00  0.00     0.006 A 
ATOM      3  C   UNL     1       3.222   5.608  -8.338  1.00  0.00     0.010 A 
ATOM      4  C   UNL     1       0.768   5.544  -7.009  1.00  0.00     0.010 A 
ATOM      5  C   UNL     1       2.168   4.850  -8.851  1.00  0.00     0.001 A 
ATOM      6  C   UNL     1       0.940   4.828  -8.193  1.00  0.00     0.001 A 
ENDROOT
BRANCH   1   7
ATOM      7  C   UNL     1       4.178   7.233  -6.730  1.00  0.00     0.072 C 
ATOM      8  O   UNL     1       4.371   8.338  -7.302  1.00  0.00    -0.545 OA
ATOM      9  O   UNL     1       4.984   6.881  -5.653  1.00  0.00    -0.545 OA
ENDBRANCH   1   7
BRANCH   2  10
ATOM     10  C   UNL     1       1.617   6.939  -5.143  1.00  0.00     0.072 C 
ATOM     11  O   UNL     1       1.738   6.266  -4.085  1.00  0.00    -0.545 OA
ATOM     12  O   UNL     1       1.349   8.300  -5.051  1.00  0.00    -0.545 OA
ENDBRANCH   2  10
TORSDOF 2
ENDMDL
MODEL 2
REMARK VINA RESULT:    -3.945      0.071      3.111
REMARK INTER + INTRA:          -4.587
REMARK INTER:                  -4.415
REMARK INTRA:                  -0.172
REMARK UNBOUND:                -0.181
REMARK SMILES O=C([O-])c1ccccc1C(=O)[O-]
REMARK SMILES IDX 4 1 9 2 5 3 8 4 6 5 7 6 2 7 1 8 3 9 10 10 11 11 12 12
REMARK H PARENT
REMARK Flexibility Score: inf
ROOT
ATOM      1  C   UNL     1       1.836   6.318  -6.495  1.00  0.00     0.006 A 
ATOM      2  C   UNL     1       3.072   6.360  -7.198  1.00  0.00     0.006 A 
ATOM      3  C   UNL     1       0.780   5.548  -7.015  1.00  0.00     0.010 A 
ATOM      4  C   UNL     1       3.227   5.580  -8.359  1.00  0.00     0.010 A 
ATOM      5  C   UNL     1       0.948   4.798  -8.180  1.00  0.00     0.001 A 
ATOM      6  C   UNL     1       2.172   4.806  -8.844  1.00  0.00     0.001 A 
ENDROOT
BRANCH   1   7
ATOM      7  C   UNL     1       1.634   6.995  -5.194  1.00  0.00     0.072 C 
ATOM      8  O   UNL     1       1.737   6.347  -4.119  1.00  0.00    -0.545 OA
ATOM      9  O   UNL     1       1.393   8.363  -5.136  1.00  0.00    -0.545 OA
ENDBRANCH   1   7
BRANCH   2  10
ATOM     10  C   UNL     1       4.186   7.252  -6.802  1.00  0.00     0.072 C 
ATOM     11  O   UNL     1       4.381   8.335  -7.414  1.00  0.00    -0.545 OA
ATOM     12  O   UNL     1       4.991   6.939  -5.712  1.00  0.00    -0.545 OA
ENDBRANCH   2  10
TORSDOF 2
ENDMDL
MODEL 3
REMARK VINA RESULT:    -3.768      2.239      3.012
REMARK INTER + INTRA:          -4.391
REMARK INTER:                  -4.170
REMARK INTRA:                  -0.220
REMARK UNBOUND:                -0.181
REMARK SMILES O=C([O-])c1ccccc1C(=O)[O-]
REMARK SMILES IDX 4 1 9 2 5 3 8 4 6 5 7 6 2 7 1 8 3 9 10 10 11 11 12 12
REMARK H PARENT
REMARK Flexibility Score: inf
ROOT
ATOM      1  C   UNL     1       2.462   5.706  -4.953  1.00  0.00     0.006 A 
ATOM      2  C   UNL     1       1.141   5.313  -5.305  1.00  0.00     0.006 A 
ATOM      3  C   UNL     1       3.366   6.057  -5.973  1.00  0.00     0.010 A 
ATOM      4  C   UNL     1       0.754   5.348  -6.658  1.00  0.00     0.010 A 
ATOM      5  C   UNL     1       2.967   6.064  -7.310  1.00  0.00     0.001 A 
ATOM      6  C   UNL     1       1.661   5.721  -7.651  1.00  0.00     0.001 A 
ENDROOT
BRANCH   1   7
ATOM      7  C   UNL     1       2.909   5.833  -3.547  1.00  0.00     0.072 C 
ATOM      8  O   UNL     1       3.448   4.856  -2.962  1.00  0.00    -0.545 OA
ATOM      9  O   UNL     1       2.801   7.045  -2.876  1.00  0.00    -0.545 OA
ENDBRANCH   1   7
BRANCH   2  10
ATOM     10  C   UNL     1       0.171   4.795  -4.313  1.00  0.00     0.072 C 
ATOM     11  O   UNL     1       0.107   3.560  -4.073  1.00  0.00    -0.545 OA
ATOM     12  O   UNL     1      -0.636   5.665  -3.590  1.00  0.00    -0.545 OA
ENDBRANCH   2  10
TORSDOF 2
ENDMDL
MODEL 4
REMARK VINA RESULT:    -3.747      2.242      3.824
REMARK INTER + INTRA:          -4.367
REMARK INTER:                  -4.147
REMARK INTRA:                  -0.220
REMARK UNBOUND:                -0.181
REMARK SMILES O=C([O-])c1ccccc1C(=O)[O-]
REMARK SMILES IDX 4 1 9 2 5 3 8 4 6 5 7 6 2 7 1 8 3 9 10 10 11 11 12 12
REMARK H PARENT
REMARK Flexibility Score: inf
ROOT
ATOM      1  C   UNL     1       1.122   5.271  -5.282  1.00  0.00     0.006 A 
ATOM      2  C   UNL     1       2.435   5.688  -4.931  1.00  0.00     0.006 A 
ATOM      3  C   UNL     1       0.739   5.284  -6.636  1.00  0.00     0.010 A 
ATOM      4  C   UNL     1       3.337   6.043  -5.951  1.00  0.00     0.010 A 
ATOM      5  C   UNL     1       1.643   5.659  -7.631  1.00  0.00     0.001 A 
ATOM      6  C   UNL     1       2.943   6.026  -7.290  1.00  0.00     0.001 A 
ENDROOT
BRANCH   1   7
ATOM      7  C   UNL     1       0.157   4.750  -4.287  1.00  0.00     0.072 C 
ATOM      8  O   UNL     1       0.136   3.522  -4.005  1.00  0.00    -0.545 OA
ATOM      9  O   UNL     1      -0.693   5.612  -3.604  1.00  0.00    -0.545 OA
ENDBRANCH   1   7
BRANCH   2  10
ATOM     10  C   UNL     1       2.876   5.840  -3.525  1.00  0.00     0.072 C 
ATOM     11  O   UNL     1       3.412   4.875  -2.920  1.00  0.00    -0.545 OA
ATOM     12  O   UNL     1       2.763   7.064  -2.875  1.00  0.00    -0.545 OA
ENDBRANCH   2  10
TORSDOF 2
ENDMDL
MODEL 5
REMARK VINA RESULT:    -3.670      2.074      3.493
REMARK INTER + INTRA:          -4.281
REMARK INTER:                  -4.237
REMARK INTRA:                  -0.043
REMARK UNBOUND:                -0.181
REMARK SMILES O=C([O-])c1ccccc1C(=O)[O-]
REMARK SMILES IDX 4 1 9 2 5 3 8 4 6 5 7 6 2 7 1 8 3 9 10 10 11 11 12 12
REMARK H PARENT
REMARK Flexibility Score: inf
ROOT
ATOM      1  C   UNL     1       1.524   5.636  -6.752  1.00  0.00     0.006 A 
ATOM      2  C   UNL     1       2.240   6.556  -5.939  1.00  0.00     0.006 A 
ATOM      3  C   UNL     1       0.477   4.889  -6.181  1.00  0.00     0.010 A 
ATOM      4  C   UNL     1       1.842   6.743  -4.602  1.00  0.00     0.010 A 
ATOM      5  C   UNL     1       0.113   5.074  -4.847  1.00  0.00     0.001 A 
ATOM      6  C   UNL     1       0.786   6.007  -4.062  1.00  0.00     0.001 A 
ENDROOT
BRANCH   1   7
ATOM      7  C   UNL     1       1.784   5.480  -8.202  1.00  0.00     0.072 C 
ATOM      8  O   UNL     1       2.898   5.051  -8.604  1.00  0.00    -0.545 OA
ATOM      9  O   UNL     1       0.786   5.742  -9.133  1.00  0.00    -0.545 OA
ENDBRANCH   1   7
BRANCH   2  10
ATOM     10  C   UNL     1       3.442   7.278  -6.418  1.00  0.00     0.072 C 
ATOM     11  O   UNL     1       4.589   6.792  -6.235  1.00  0.00    -0.545 OA
ATOM     12  O   UNL     1       3.318   8.467  -7.129  1.00  0.00    -0.545 OA
ENDBRANCH   2  10
TORSDOF 2
ENDMDL
MODEL 6
REMARK VINA RESULT:    -3.664      2.107      3.294
REMARK INTER + INTRA:          -4.274
REMARK INTER:                  -4.219
REMARK INTRA:                  -0.055
REMARK UNBOUND:                -0.181
REMARK SMILES O=C([O-])c1ccccc1C(=O)[O-]
REMARK SMILES IDX 4 1 9 2 5 3 8 4 6 5 7 6 2 7 1 8 3 9 10 10 11 11 12 12
REMARK H PARENT
REMARK Flexibility Score: inf
ROOT
ATOM      1  C   UNL     1       2.212   6.501  -5.916  1.00  0.00     0.006 A 
ATOM      2  C   UNL     1       1.494   5.578  -6.725  1.00  0.00     0.006 A 
ATOM      3  C   UNL     1       1.818   6.687  -4.578  1.00  0.00     0.010 A 
ATOM      4  C   UNL     1       0.451   4.828  -6.149  1.00  0.00     0.010 A 
ATOM      5  C   UNL     1       0.767   5.949  -4.033  1.00  0.00     0.001 A 
ATOM      6  C   UNL     1       0.092   5.014  -4.814  1.00  0.00     0.001 A 
ENDROOT
BRANCH   1   7
ATOM      7  C   UNL     1       3.409   7.225  -6.401  1.00  0.00     0.072 C 
ATOM      8  O   UNL     1       4.560   6.756  -6.196  1.00  0.00    -0.545 OA
ATOM      9  O   UNL     1       3.278   8.394  -7.141  1.00  0.00    -0.545 OA
ENDBRANCH   1   7
BRANCH   2  10
ATOM     10  C   UNL     1       1.748   5.422  -8.176  1.00  0.00     0.072 C 
ATOM     11  O   UNL     1       2.851   4.968  -8.582  1.00  0.00    -0.545 OA
ATOM     12  O   UNL     1       0.755   5.713  -9.104  1.00  0.00    -0.545 OA
ENDBRANCH   2  10
TORSDOF 2
ENDMDL
MODEL 7
REMARK VINA RESULT:    -3.541      1.450      3.258
REMARK INTER + INTRA:          -4.137
REMARK INTER:                  -3.938
REMARK INTRA:                  -0.199
REMARK UNBOUND:                -0.181
REMARK SMILES O=C([O-])c1ccccc1C(=O)[O-]
REMARK SMILES IDX 4 1 9 2 5 3 8 4 6 5 7 6 2 7 1 8 3 9 10 10 11 11 12 12
REMARK H PARENT
REMARK Flexibility Score: inf
ROOT
ATOM      1  C   UNL     1       1.075   5.258  -6.078  1.00  0.00     0.006 A 
ATOM      2  C   UNL     1       2.176   6.092  -6.416  1.00  0.00     0.006 A 
ATOM      3  C   UNL     1       0.365   4.612  -7.107  1.00  0.00     0.010 A 
ATOM      4  C   UNL     1       2.566   6.199  -7.764  1.00  0.00     0.010 A 
ATOM      5  C   UNL     1       0.755   4.749  -8.440  1.00  0.00     0.001 A 
ATOM      6  C   UNL     1       1.860   5.532  -8.766  1.00  0.00     0.001 A 
ENDROOT
BRANCH   1   7
ATOM      7  C   UNL     1       0.685   4.978  -4.677  1.00  0.00     0.072 C 
ATOM      8  O   UNL     1      -0.404   5.416  -4.222  1.00  0.00    -0.545 OA
ATOM      9  O   UNL     1       1.481   4.176  -3.867  1.00  0.00    -0.545 OA
ENDBRANCH   1   7
BRANCH   2  10
ATOM     10  C   UNL     1       2.889   6.918  -5.414  1.00  0.00     0.072 C 
ATOM     11  O   UNL     1       2.421   8.032  -5.060  1.00  0.00    -0.545 OA
ATOM     12  O   UNL     1       4.048   6.448  -4.805  1.00  0.00    -0.545 OA
ENDBRANCH   2  10
TORSDOF 2
ENDMDL
MODEL 8
REMARK VINA RESULT:    -3.270      2.161      4.186
REMARK INTER + INTRA:          -3.833
REMARK INTER:                  -3.806
REMARK INTRA:                  -0.028
REMARK UNBOUND:                -0.181
REMARK SMILES O=C([O-])c1ccccc1C(=O)[O-]
REMARK SMILES IDX 4 1 9 2 5 3 8 4 6 5 7 6 2 7 1 8 3 9 10 10 11 11 12 12
REMARK H PARENT
REMARK Flexibility Score: inf
ROOT
ATOM      1  C   UNL     1       3.066   6.119  -5.139  1.00  0.00     0.006 A 
ATOM      2  C   UNL     1       3.085   6.400  -6.532  1.00  0.00     0.006 A 
ATOM      3  C   UNL     1       4.049   6.694  -4.312  1.00  0.00     0.010 A 
ATOM      4  C   UNL     1       4.045   7.296  -7.038  1.00  0.00     0.010 A 
ATOM      5  C   UNL     1       5.006   7.563  -4.838  1.00  0.00     0.001 A 
ATOM      6  C   UNL     1       4.997   7.872  -6.196  1.00  0.00     0.001 A 
ENDROOT
BRANCH   1   7
ATOM      7  C   UNL     1       2.008   5.301  -4.502  1.00  0.00     0.072 C 
ATOM      8  O   UNL     1       2.265   4.138  -4.092  1.00  0.00    -0.545 OA
ATOM      9  O   UNL     1       0.738   5.826  -4.290  1.00  0.00    -0.545 OA
ENDBRANCH   1   7
BRANCH   2  10
ATOM     10  C   UNL     1       2.179   5.730  -7.494  1.00  0.00     0.072 C 
ATOM     11  O   UNL     1       0.943   5.973  -7.477  1.00  0.00    -0.545 OA
ATOM     12  O   UNL     1       2.685   4.875  -8.467  1.00  0.00    -0.545 OA
ENDBRANCH   2  10
TORSDOF 2
ENDMDL
