MODEL 1
REMARK VINA RESULT:    -3.818      0.000      0.000
REMARK INTER + INTRA:          -5.710
REMARK INTER:                  -5.157
REMARK INTRA:                  -0.553
REMARK UNBOUND:                -0.553
REMARK SMILES CCCCCCCC(=O)[O-]
REMARK SMILES IDX 5 1 6 2 7 3 8 4 9 5 10 6 4 7 3 8 2 9 1 10
REMARK H PARENT
REMARK Flexibility Score: inf
ROOT
ATOM      1  C   UNL     1      -8.048 -23.928  47.613  1.00  0.00     0.000 C 
ENDROOT
BRANCH   1   2
ATOM      2  C   UNL     1      -7.325 -24.381  48.895  1.00  0.00     0.006 C 
BRANCH   2   3
ATOM      3  C   UNL     1      -5.906 -23.804  49.048  1.00  0.00     0.053 C 
BRANCH   3   4
ATOM      4  C   UNL     1      -4.969 -24.280  47.981  1.00  0.00     0.041 C 
ATOM      5  O   UNL     1      -4.796 -25.512  47.788  1.00  0.00    -0.550 OA
ATOM      6  O   UNL     1      -4.308 -23.360  47.175  1.00  0.00    -0.550 OA
ENDBRANCH   3   4
ENDBRANCH   2   3
ENDBRANCH   1   2
BRANCH   1   7
ATOM      7  C   UNL     1      -9.126 -22.867  47.872  1.00  0.00     0.000 C 
BRANCH   7   8
ATOM      8  C   UNL     1      -8.790 -21.554  47.154  1.00  0.00    -0.000 C 
BRANCH   8   9
ATOM      9  C   UNL     1      -7.407 -21.623  46.499  1.00  0.00    -0.003 C 
ATOM     10  C   UNL     1      -6.545 -20.431  46.904  1.00  0.00     0.004 C 
ENDBRANCH   8   9
ENDBRANCH   7   8
ENDBRANCH   1   7
TORSDOF 6
ENDMDL
MODEL 2
REMARK VINA RESULT:    -3.806      1.315      2.683
REMARK INTER + INTRA:          -5.694
REMARK INTER:                  -5.381
REMARK INTRA:                  -0.313
REMARK UNBOUND:                -0.553
REMARK SMILES CCCCCCCC(=O)[O-]
REMARK SMILES IDX 5 1 6 2 7 3 8 4 9 5 10 6 4 7 3 8 2 9 1 10
REMARK H PARENT
REMARK Flexibility Score: inf
ROOT
ATOM      1  C   UNL     1      -7.701 -21.378  46.858  1.00  0.00     0.000 C 
ENDROOT
BRANCH   1   2
ATOM      2  C   UNL     1      -6.239 -21.669  47.246  1.00  0.00     0.006 C 
BRANCH   2   3
ATOM      3  C   UNL     1      -5.977 -23.134  47.640  1.00  0.00     0.053 C 
BRANCH   3   4
ATOM      4  C   UNL     1      -4.526 -23.501  47.567  1.00  0.00     0.041 C 
ATOM      5  O   UNL     1      -4.116 -24.580  48.072  1.00  0.00    -0.550 OA
ATOM      6  O   UNL     1      -3.629 -22.665  46.913  1.00  0.00    -0.550 OA
ENDBRANCH   3   4
ENDBRANCH   2   3
ENDBRANCH   1   2
BRANCH   1   7
ATOM      7  C   UNL     1      -8.632 -22.578  47.077  1.00  0.00     0.000 C 
BRANCH   7   8
ATOM      8  C   UNL     1     -10.080 -22.120  47.291  1.00  0.00    -0.000 C 
BRANCH   8   9
ATOM      9  C   UNL     1     -10.793 -23.008  48.316  1.00  0.00    -0.003 C 
ATOM     10  C   UNL     1      -9.848 -24.065  48.881  1.00  0.00     0.004 C 
ENDBRANCH   8   9
ENDBRANCH   7   8
ENDBRANCH   1   7
TORSDOF 6
ENDMDL
MODEL 3
REMARK VINA RESULT:    -3.634      1.042      2.300
REMARK INTER + INTRA:          -5.462
REMARK INTER:                  -5.092
REMARK INTRA:                  -0.370
REMARK UNBOUND:                -0.553
REMARK SMILES CCCCCCCC(=O)[O-]
REMARK SMILES IDX 5 1 6 2 7 3 8 4 9 5 10 6 4 7 3 8 2 9 1 10
REMARK H PARENT
REMARK Flexibility Score: inf
ROOT
ATOM      1  C   UNL     1      -8.024 -23.645  47.392  1.00  0.00     0.000 C 
ENDROOT
BRANCH   1   2
ATOM      2  C   UNL     1      -7.299 -24.186  48.639  1.00  0.00     0.006 C 
BRANCH   2   3
ATOM      3  C   UNL     1      -5.893 -23.596  48.850  1.00  0.00     0.053 C 
BRANCH   3   4
ATOM      4  C   UNL     1      -4.885 -24.148  47.889  1.00  0.00     0.041 C 
ATOM      5  O   UNL     1      -4.227 -23.376  47.142  1.00  0.00    -0.550 OA
ATOM      6  O   UNL     1      -4.647 -25.517  47.839  1.00  0.00    -0.550 OA
ENDBRANCH   3   4
ENDBRANCH   2   3
ENDBRANCH   1   2
BRANCH   1   7
ATOM      7  C   UNL     1      -7.883 -22.126  47.226  1.00  0.00     0.000 C 
BRANCH   7   8
ATOM      8  C   UNL     1      -9.254 -21.440  47.253  1.00  0.00    -0.000 C 
BRANCH   8   9
ATOM      9  C   UNL     1     -10.387 -22.468  47.155  1.00  0.00    -0.003 C 
ATOM     10  C   UNL     1     -11.619 -22.005  47.928  1.00  0.00     0.004 C 
ENDBRANCH   8   9
ENDBRANCH   7   8
ENDBRANCH   1   7
TORSDOF 6
ENDMDL
MODEL 4
REMARK VINA RESULT:    -3.595     10.664     12.135
REMARK INTER + INTRA:          -5.410
REMARK INTER:                  -4.821
REMARK INTRA:                  -0.588
REMARK UNBOUND:                -0.553
REMARK SMILES CCCCCCCC(=O)[O-]
REMARK SMILES IDX 5 1 6 2 7 3 8 4 9 5 10 6 4 7 3 8 2 9 1 10
REMARK H PARENT
REMARK Flexibility Score: inf
ROOT
ATOM      1  C   UNL     1      -5.021 -36.316  45.145  1.00  0.00     0.000 C 
ENDROOT
BRANCH   1   2
ATOM      2  C   UNL     1      -3.510 -36.370  45.434  1.00  0.00     0.006 C 
BRANCH   2   3
ATOM      3  C   UNL     1      -3.105 -35.725  46.771  1.00  0.00     0.053 C 
BRANCH   3   4
ATOM      4  C   UNL     1      -2.767 -34.271  46.634  1.00  0.00     0.041 C 
ATOM      5  O   UNL     1      -1.957 -33.887  45.749  1.00  0.00    -0.550 OA
ATOM      6  O   UNL     1      -3.373 -33.335  47.463  1.00  0.00    -0.550 OA
ENDBRANCH   3   4
ENDBRANCH   2   3
ENDBRANCH   1   2
BRANCH   1   7
ATOM      7  C   UNL     1      -5.401 -35.234  44.125  1.00  0.00     0.000 C 
BRANCH   7   8
ATOM      8  C   UNL     1      -6.231 -34.125  44.782  1.00  0.00    -0.000 C 
BRANCH   8   9
ATOM      9  C   UNL     1      -6.803 -34.587  46.126  1.00  0.00    -0.003 C 
ATOM     10  C   UNL     1      -6.814 -33.448  47.142  1.00  0.00     0.004 C 
ENDBRANCH   8   9
ENDBRANCH   7   8
ENDBRANCH   1   7
TORSDOF 6
ENDMDL
MODEL 5
REMARK VINA RESULT:    -3.477     10.217     12.309
REMARK INTER + INTRA:          -5.250
REMARK INTER:                  -4.800
REMARK INTRA:                  -0.450
REMARK UNBOUND:                -0.553
REMARK SMILES CCCCCCCC(=O)[O-]
REMARK SMILES IDX 5 1 6 2 7 3 8 4 9 5 10 6 4 7 3 8 2 9 1 10
REMARK H PARENT
REMARK Flexibility Score: inf
ROOT
ATOM      1  C   UNL     1       4.709 -22.881  46.354  1.00  0.00     0.000 C 
ENDROOT
BRANCH   1   2
ATOM      2  C   UNL     1       3.787 -22.556  47.544  1.00  0.00     0.006 C 
BRANCH   2   3
ATOM      3  C   UNL     1       2.541 -21.737  47.163  1.00  0.00     0.053 C 
BRANCH   3   4
ATOM      4  C   UNL     1       2.882 -20.374  46.640  1.00  0.00     0.041 C 
ATOM      5  O   UNL     1       3.673 -19.628  47.276  1.00  0.00    -0.550 OA
ATOM      6  O   UNL     1       2.351 -19.940  45.432  1.00  0.00    -0.550 OA
ENDBRANCH   3   4
ENDBRANCH   2   3
ENDBRANCH   1   2
BRANCH   1   7
ATOM      7  C   UNL     1       6.165 -22.455  46.588  1.00  0.00     0.000 C 
BRANCH   7   8
ATOM      8  C   UNL     1       6.777 -23.212  47.773  1.00  0.00    -0.000 C 
BRANCH   8   9
ATOM      9  C   UNL     1       7.415 -22.244  48.775  1.00  0.00    -0.003 C 
ATOM     10  C   UNL     1       7.198 -20.793  48.354  1.00  0.00     0.004 C 
ENDBRANCH   8   9
ENDBRANCH   7   8
ENDBRANCH   1   7
TORSDOF 6
ENDMDL
MODEL 6
REMARK VINA RESULT:    -3.469      3.101      4.810
REMARK INTER + INTRA:          -5.238
REMARK INTER:                  -4.874
REMARK INTRA:                  -0.364
REMARK UNBOUND:                -0.553
REMARK SMILES CCCCCCCC(=O)[O-]
REMARK SMILES IDX 5 1 6 2 7 3 8 4 9 5 10 6 4 7 3 8 2 9 1 10
REMARK H PARENT
REMARK Flexibility Score: inf
ROOT
ATOM      1  C   UNL     1      -6.433 -22.556  47.512  1.00  0.00     0.000 C 
ENDROOT
BRANCH   1   2
ATOM      2  C   UNL     1      -7.837 -22.836  46.944  1.00  0.00     0.006 C 
BRANCH   2   3
ATOM      3  C   UNL     1      -8.751 -23.625  47.898  1.00  0.00     0.053 C 
BRANCH   3   4
ATOM      4  C   UNL     1     -10.093 -22.983  48.078  1.00  0.00     0.041 C 
ATOM      5  O   UNL     1     -11.014 -23.590  48.685  1.00  0.00    -0.550 OA
ATOM      6  O   UNL     1     -10.317 -21.697  47.601  1.00  0.00    -0.550 OA
ENDBRANCH   3   4
ENDBRANCH   2   3
ENDBRANCH   1   2
BRANCH   1   7
ATOM      7  C   UNL     1      -5.968 -23.617  48.519  1.00  0.00     0.000 C 
BRANCH   7   8
ATOM      8  C   UNL     1      -4.515 -24.030  48.253  1.00  0.00    -0.000 C 
BRANCH   8   9
ATOM      9  C   UNL     1      -4.344 -25.548  48.367  1.00  0.00    -0.003 C 
ATOM     10  C   UNL     1      -5.479 -26.286  47.661  1.00  0.00     0.004 C 
ENDBRANCH   8   9
ENDBRANCH   7   8
ENDBRANCH   1   7
TORSDOF 6
ENDMDL
MODEL 7
REMARK VINA RESULT:    -3.438     10.522     12.131
REMARK INTER + INTRA:          -5.197
REMARK INTER:                  -4.688
REMARK INTRA:                  -0.509
REMARK UNBOUND:                -0.553
REMARK SMILES CCCCCCCC(=O)[O-]
REMARK SMILES IDX 5 1 6 2 7 3 8 4 9 5 10 6 4 7 3 8 2 9 1 10
REMARK H PARENT
REMARK Flexibility Score: inf
ROOT
ATOM      1  C   UNL     1       4.739 -22.885  46.485  1.00  0.00     0.000 C 
ENDROOT
BRANCH   1   2
ATOM      2  C   UNL     1       6.200 -22.476  46.749  1.00  0.00     0.006 C 
BRANCH   2   3
ATOM      3  C   UNL     1       6.370 -21.474  47.905  1.00  0.00     0.053 C 
BRANCH   3   4
ATOM      4  C   UNL     1       6.738 -20.101  47.431  1.00  0.00     0.041 C 
ATOM      5  O   UNL     1       7.512 -19.377  48.112  1.00  0.00    -0.550 OA
ATOM      6  O   UNL     1       6.249 -19.630  46.218  1.00  0.00    -0.550 OA
ENDBRANCH   3   4
ENDBRANCH   2   3
ENDBRANCH   1   2
BRANCH   1   7
ATOM      7  C   UNL     1       3.776 -22.423  47.588  1.00  0.00     0.000 C 
BRANCH   7   8
ATOM      8  C   UNL     1       2.550 -21.722  46.991  1.00  0.00    -0.000 C 
BRANCH   8   9
ATOM      9  C   UNL     1       2.857 -20.256  46.668  1.00  0.00    -0.003 C 
ATOM     10  C   UNL     1       2.465 -19.913  45.234  1.00  0.00     0.004 C 
ENDBRANCH   8   9
ENDBRANCH   7   8
ENDBRANCH   1   7
TORSDOF 6
ENDMDL
MODEL 8
REMARK VINA RESULT:    -3.372     10.177     11.588
REMARK INTER + INTRA:          -5.109
REMARK INTER:                  -4.620
REMARK INTRA:                  -0.488
REMARK UNBOUND:                -0.553
REMARK SMILES CCCCCCCC(=O)[O-]
REMARK SMILES IDX 5 1 6 2 7 3 8 4 9 5 10 6 4 7 3 8 2 9 1 10
REMARK H PARENT
REMARK Flexibility Score: inf
ROOT
ATOM      1  C   UNL     1      -7.021 -33.573  47.131  1.00  0.00     0.000 C 
ENDROOT
BRANCH   1   2
ATOM      2  C   UNL     1      -5.670 -33.068  47.670  1.00  0.00     0.006 C 
BRANCH   2   3
ATOM      3  C   UNL     1      -4.701 -34.192  48.080  1.00  0.00     0.053 C 
BRANCH   3   4
ATOM      4  C   UNL     1      -3.284 -33.907  47.685  1.00  0.00     0.041 C 
ATOM      5  O   UNL     1      -2.837 -32.730  47.723  1.00  0.00    -0.550 OA
ATOM      6  O   UNL     1      -2.446 -34.947  47.303  1.00  0.00    -0.550 OA
ENDBRANCH   3   4
ENDBRANCH   2   3
ENDBRANCH   1   2
BRANCH   1   7
ATOM      7  C   UNL     1      -6.874 -34.678  46.076  1.00  0.00     0.000 C 
BRANCH   7   8
ATOM      8  C   UNL     1      -6.243 -34.131  44.790  1.00  0.00    -0.000 C 
BRANCH   8   9
ATOM      9  C   UNL     1      -5.477 -35.227  44.042  1.00  0.00    -0.003 C 
ATOM     10  C   UNL     1      -4.876 -36.239  45.013  1.00  0.00     0.004 C 
ENDBRANCH   8   9
ENDBRANCH   7   8
ENDBRANCH   1   7
TORSDOF 6
ENDMDL
MODEL 9
REMARK VINA RESULT:    -3.327     10.369     12.223
REMARK INTER + INTRA:          -5.047
REMARK INTER:                  -4.479
REMARK INTRA:                  -0.568
REMARK UNBOUND:                -0.553
REMARK SMILES CCCCCCCC(=O)[O-]
REMARK SMILES IDX 5 1 6 2 7 3 8 4 9 5 10 6 4 7 3 8 2 9 1 10
REMARK H PARENT
REMARK Flexibility Score: inf
ROOT
ATOM      1  C   UNL     1       6.253 -22.585  46.840  1.00  0.00     0.000 C 
ENDROOT
BRANCH   1   2
ATOM      2  C   UNL     1       4.812 -22.926  46.418  1.00  0.00     0.006 C 
BRANCH   2   3
ATOM      3  C   UNL     1       3.741 -22.478  47.429  1.00  0.00     0.053 C 
BRANCH   3   4
ATOM      4  C   UNL     1       2.745 -21.530  46.835  1.00  0.00     0.041 C 
ATOM      5  O   UNL     1       1.557 -21.510  47.252  1.00  0.00    -0.550 OA
ATOM      6  O   UNL     1       3.137 -20.643  45.839  1.00  0.00    -0.550 OA
ENDBRANCH   3   4
ENDBRANCH   2   3
ENDBRANCH   1   2
BRANCH   1   7
ATOM      7  C   UNL     1       6.325 -21.803  48.159  1.00  0.00     0.000 C 
BRANCH   7   8
ATOM      8  C   UNL     1       7.001 -20.441  47.955  1.00  0.00    -0.000 C 
BRANCH   8   9
ATOM      9  C   UNL     1       5.996 -19.395  47.460  1.00  0.00    -0.003 C 
ATOM     10  C   UNL     1       6.294 -18.982  46.022  1.00  0.00     0.004 C 
ENDBRANCH   8   9
ENDBRANCH   7   8
ENDBRANCH   1   7
TORSDOF 6
ENDMDL
