MODEL 1
REMARK VINA RESULT:     3.454      0.000      0.000
REMARK INTER + INTRA:           7.518
REMARK INTER:                   7.896
REMARK INTRA:                  -0.378
REMARK UNBOUND:                -0.378
REMARK SMILES CCCCCCCCCCCCCCCCCCCCCCCC(=O)[O-]
REMARK SMILES IDX 13 1 14 2 15 3 16 4 17 5 18 6 19 7 20 8 21 9 22 10 23 11
REMARK SMILES IDX 24 12 25 13 26 14 12 15 11 16 10 17 9 18 8 19 7 20 6 21 5 22
REMARK SMILES IDX 4 23 3 24 2 25 1 26
REMARK H PARENT
REMARK Flexibility Score: inf
ROOT
ATOM      1  C   UNL     1     -29.525 -20.215 -20.033  1.00  0.00     0.000 C 
ENDROOT
BRANCH   1   2
ATOM      2  C   UNL     1     -30.507 -21.346 -20.386  1.00  0.00     0.000 C 
BRANCH   2   3
ATOM      3  C   UNL     1     -29.796 -22.703 -20.571  1.00  0.00     0.000 C 
BRANCH   3   4
ATOM      4  C   UNL     1     -29.568 -23.090 -22.042  1.00  0.00     0.000 C 
BRANCH   4   5
ATOM      5  C   UNL     1     -28.080 -23.116 -22.431  1.00  0.00     0.000 C 
BRANCH   5   6
ATOM      6  C   UNL     1     -27.609 -21.792 -23.052  1.00  0.00     0.000 C 
BRANCH   6   7
ATOM      7  C   UNL     1     -28.765 -20.983 -23.668  1.00  0.00     0.000 C 
BRANCH   7   8
ATOM      8  C   UNL     1     -29.371 -21.664 -24.906  1.00  0.00     0.000 C 
BRANCH   8   9
ATOM      9  C   UNL     1     -30.544 -20.867 -25.504  1.00  0.00     0.000 C 
BRANCH   9  10
ATOM     10  C   UNL     1     -31.794 -20.894 -24.609  1.00  0.00     0.006 C 
BRANCH  10  11
ATOM     11  C   UNL     1     -31.972 -19.604 -23.798  1.00  0.00     0.053 C 
BRANCH  11  12
ATOM     12  C   UNL     1     -32.651 -19.895 -22.498  1.00  0.00     0.041 C 
ATOM     13  O   UNL     1     -32.921 -21.083 -22.175  1.00  0.00    -0.550 OA
ATOM     14  O   UNL     1     -32.941 -18.859 -21.617  1.00  0.00    -0.550 OA
ENDBRANCH  11  12
ENDBRANCH  10  11
ENDBRANCH   9  10
ENDBRANCH   8   9
ENDBRANCH   7   8
ENDBRANCH   6   7
ENDBRANCH   5   6
ENDBRANCH   4   5
ENDBRANCH   3   4
ENDBRANCH   2   3
ENDBRANCH   1   2
BRANCH   1  15
ATOM     15  C   UNL     1     -28.235 -20.735 -19.379  1.00  0.00     0.000 C 
BRANCH  15  16
ATOM     16  C   UNL     1     -28.436 -22.084 -18.672  1.00  0.00     0.000 C 
BRANCH  16  17
ATOM     17  C   UNL     1     -27.284 -22.377 -17.703  1.00  0.00     0.000 C 
BRANCH  17  18
ATOM     18  C   UNL     1     -27.791 -23.120 -16.458  1.00  0.00    -0.000 C 
BRANCH  18  19
ATOM     19  C   UNL     1     -29.324 -23.124 -16.352  1.00  0.00    -0.000 C 
BRANCH  19  20
ATOM     20  C   UNL     1     -29.840 -22.262 -15.184  1.00  0.00    -0.000 C 
BRANCH  20  21
ATOM     21  C   UNL     1     -31.362 -22.370 -14.998  1.00  0.00    -0.000 C 
BRANCH  21  22
ATOM     22  C   UNL     1     -31.969 -21.121 -14.331  1.00  0.00    -0.000 C 
BRANCH  22  23
ATOM     23  C   UNL     1     -30.921 -20.012 -14.095  1.00  0.00    -0.000 C 
BRANCH  23  24
ATOM     24  C   UNL     1     -30.605 -19.757 -12.607  1.00  0.00    -0.000 C 
BRANCH  24  25
ATOM     25  C   UNL     1     -29.310 -18.971 -12.345  1.00  0.00    -0.003 C 
ATOM     26  C   UNL     1     -29.558 -17.488 -12.074  1.00  0.00     0.004 C 
ENDBRANCH  24  25
ENDBRANCH  23  24
ENDBRANCH  22  23
ENDBRANCH  21  22
ENDBRANCH  20  21
ENDBRANCH  19  20
ENDBRANCH  18  19
ENDBRANCH  17  18
ENDBRANCH  16  17
ENDBRANCH  15  16
ENDBRANCH   1  15
TORSDOF 22
ENDMDL
MODEL 2
REMARK VINA RESULT:     3.668      3.060      8.915
REMARK INTER + INTRA:           8.006
REMARK INTER:                   9.295
REMARK INTRA:                  -1.289
REMARK UNBOUND:                -0.378
REMARK SMILES CCCCCCCCCCCCCCCCCCCCCCCC(=O)[O-]
REMARK SMILES IDX 13 1 14 2 15 3 16 4 17 5 18 6 19 7 20 8 21 9 22 10 23 11
REMARK SMILES IDX 24 12 25 13 26 14 12 15 11 16 10 17 9 18 8 19 7 20 6 21 5 22
REMARK SMILES IDX 4 23 3 24 2 25 1 26
REMARK H PARENT
REMARK Flexibility Score: inf
ROOT
ATOM      1  C   UNL     1     -28.622 -20.926 -19.016  1.00  0.00     0.000 C 
ENDROOT
BRANCH   1   2
ATOM      2  C   UNL     1     -27.543 -22.022 -18.968  1.00  0.00     0.000 C 
BRANCH   2   3
ATOM      3  C   UNL     1     -27.515 -22.759 -17.613  1.00  0.00     0.000 C 
BRANCH   3   4
ATOM      4  C   UNL     1     -28.909 -23.125 -17.076  1.00  0.00     0.000 C 
BRANCH   4   5
ATOM      5  C   UNL     1     -29.020 -22.979 -15.549  1.00  0.00     0.000 C 
BRANCH   5   6
ATOM      6  C   UNL     1     -30.464 -23.125 -15.045  1.00  0.00     0.000 C 
BRANCH   6   7
ATOM      7  C   UNL     1     -31.317 -21.874 -15.325  1.00  0.00     0.000 C 
BRANCH   7   8
ATOM      8  C   UNL     1     -31.938 -21.282 -14.049  1.00  0.00     0.000 C 
BRANCH   8   9
ATOM      9  C   UNL     1     -31.510 -19.824 -13.806  1.00  0.00     0.000 C 
BRANCH   9  10
ATOM     10  C   UNL     1     -30.023 -19.699 -13.434  1.00  0.00     0.006 C 
BRANCH  10  11
ATOM     11  C   UNL     1     -29.810 -19.294 -11.969  1.00  0.00     0.053 C 
BRANCH  11  12
ATOM     12  C   UNL     1     -29.391 -17.861 -11.881  1.00  0.00     0.041 C 
ATOM     13  O   UNL     1     -30.161 -16.949 -12.284  1.00  0.00    -0.550 OA
ATOM     14  O   UNL     1     -28.169 -17.527 -11.306  1.00  0.00    -0.550 OA
ENDBRANCH  11  12
ENDBRANCH  10  11
ENDBRANCH   9  10
ENDBRANCH   8   9
ENDBRANCH   7   8
ENDBRANCH   6   7
ENDBRANCH   5   6
ENDBRANCH   4   5
ENDBRANCH   3   4
ENDBRANCH   2   3
ENDBRANCH   1   2
BRANCH   1  15
ATOM     15  C   UNL     1     -29.521 -21.036 -20.259  1.00  0.00     0.000 C 
BRANCH  15  16
ATOM     16  C   UNL     1     -29.990 -22.475 -20.521  1.00  0.00     0.000 C 
BRANCH  16  17
ATOM     17  C   UNL     1     -29.760 -22.873 -21.985  1.00  0.00     0.000 C 
BRANCH  17  18
ATOM     18  C   UNL     1     -28.287 -22.689 -22.377  1.00  0.00    -0.000 C 
BRANCH  18  19
ATOM     19  C   UNL     1     -28.094 -21.644 -23.487  1.00  0.00    -0.000 C 
BRANCH  19  20
ATOM     20  C   UNL     1     -29.418 -20.987 -23.921  1.00  0.00    -0.000 C 
BRANCH  20  21
ATOM     21  C   UNL     1     -29.692 -21.148 -25.424  1.00  0.00    -0.000 C 
BRANCH  21  22
ATOM     22  C   UNL     1     -31.094 -20.653 -25.829  1.00  0.00    -0.000 C 
BRANCH  22  23
ATOM     23  C   UNL     1     -31.820 -19.932 -24.672  1.00  0.00    -0.000 C 
BRANCH  23  24
ATOM     24  C   UNL     1     -32.043 -20.815 -23.427  1.00  0.00    -0.000 C 
BRANCH  24  25
ATOM     25  C   UNL     1     -33.071 -20.270 -22.422  1.00  0.00    -0.003 C 
ATOM     26  C   UNL     1     -32.440 -19.386 -21.346  1.00  0.00     0.004 C 
ENDBRANCH  24  25
ENDBRANCH  23  24
ENDBRANCH  22  23
ENDBRANCH  21  22
ENDBRANCH  20  21
ENDBRANCH  19  20
ENDBRANCH  18  19
ENDBRANCH  17  18
ENDBRANCH  16  17
ENDBRANCH  15  16
ENDBRANCH   1  15
TORSDOF 22
ENDMDL
MODEL 3
REMARK VINA RESULT:     4.647      4.050      4.891
REMARK INTER + INTRA:          10.245
REMARK INTER:                  10.566
REMARK INTRA:                  -0.320
REMARK UNBOUND:                -0.378
REMARK SMILES CCCCCCCCCCCCCCCCCCCCCCCC(=O)[O-]
REMARK SMILES IDX 13 1 14 2 15 3 16 4 17 5 18 6 19 7 20 8 21 9 22 10 23 11
REMARK SMILES IDX 24 12 25 13 26 14 12 15 11 16 10 17 9 18 8 19 7 20 6 21 5 22
REMARK SMILES IDX 4 23 3 24 2 25 1 26
REMARK H PARENT
REMARK Flexibility Score: inf
ROOT
ATOM      1  C   UNL     1     -28.849 -22.014 -19.203  1.00  0.00     0.000 C 
ENDROOT
BRANCH   1   2
ATOM      2  C   UNL     1     -29.841 -23.125 -19.594  1.00  0.00     0.000 C 
BRANCH   2   3
ATOM      3  C   UNL     1     -30.434 -22.912 -21.003  1.00  0.00     0.000 C 
BRANCH   3   4
ATOM      4  C   UNL     1     -29.421 -23.119 -22.141  1.00  0.00     0.000 C 
BRANCH   4   5
ATOM      5  C   UNL     1     -28.213 -22.170 -22.049  1.00  0.00     0.000 C 
BRANCH   5   6
ATOM      6  C   UNL     1     -28.047 -21.303 -23.307  1.00  0.00     0.000 C 
BRANCH   6   7
ATOM      7  C   UNL     1     -29.039 -21.682 -24.421  1.00  0.00     0.000 C 
BRANCH   7   8
ATOM      8  C   UNL     1     -29.711 -20.455 -25.060  1.00  0.00     0.000 C 
BRANCH   8   9
ATOM      9  C   UNL     1     -31.242 -20.588 -25.125  1.00  0.00     0.000 C 
BRANCH   9  10
ATOM     10  C   UNL     1     -31.846 -21.115 -23.812  1.00  0.00     0.006 C 
BRANCH  10  11
ATOM     11  C   UNL     1     -32.922 -20.183 -23.238  1.00  0.00     0.053 C 
BRANCH  11  12
ATOM     12  C   UNL     1     -32.723 -20.001 -21.767  1.00  0.00     0.041 C 
ATOM     13  O   UNL     1     -32.647 -18.843 -21.276  1.00  0.00    -0.550 OA
ATOM     14  O   UNL     1     -32.671 -21.109 -20.929  1.00  0.00    -0.550 OA
ENDBRANCH  11  12
ENDBRANCH  10  11
ENDBRANCH   9  10
ENDBRANCH   8   9
ENDBRANCH   7   8
ENDBRANCH   6   7
ENDBRANCH   5   6
ENDBRANCH   4   5
ENDBRANCH   3   4
ENDBRANCH   2   3
ENDBRANCH   1   2
BRANCH   1  15
ATOM     15  C   UNL     1     -28.435 -22.086 -17.724  1.00  0.00     0.000 C 
BRANCH  15  16
ATOM     16  C   UNL     1     -26.960 -22.477 -17.545  1.00  0.00     0.000 C 
BRANCH  16  17
ATOM     17  C   UNL     1     -26.687 -22.963 -16.115  1.00  0.00     0.000 C 
BRANCH  17  18
ATOM     18  C   UNL     1     -25.224 -22.713 -15.723  1.00  0.00    -0.000 C 
BRANCH  18  19
ATOM     19  C   UNL     1     -25.083 -22.038 -14.349  1.00  0.00    -0.000 C 
BRANCH  19  20
ATOM     20  C   UNL     1     -23.783 -22.433 -13.624  1.00  0.00    -0.000 C 
BRANCH  20  21
ATOM     21  C   UNL     1     -22.683 -21.369 -13.761  1.00  0.00    -0.000 C 
BRANCH  21  22
ATOM     22  C   UNL     1     -22.257 -20.776 -12.404  1.00  0.00    -0.000 C 
BRANCH  22  23
ATOM     23  C   UNL     1     -20.915 -20.017 -12.490  1.00  0.00    -0.000 C 
BRANCH  23  24
ATOM     24  C   UNL     1     -21.059 -18.483 -12.431  1.00  0.00    -0.000 C 
BRANCH  24  25
ATOM     25  C   UNL     1     -21.389 -17.915 -11.041  1.00  0.00    -0.003 C 
ATOM     26  C   UNL     1     -21.027 -16.436 -10.902  1.00  0.00     0.004 C 
ENDBRANCH  24  25
ENDBRANCH  23  24
ENDBRANCH  22  23
ENDBRANCH  21  22
ENDBRANCH  20  21
ENDBRANCH  19  20
ENDBRANCH  18  19
ENDBRANCH  17  18
ENDBRANCH  16  17
ENDBRANCH  15  16
ENDBRANCH   1  15
TORSDOF 22
ENDMDL
MODEL 4
REMARK VINA RESULT:     4.790      3.225      9.233
REMARK INTER + INTRA:          10.573
REMARK INTER:                   9.809
REMARK INTRA:                   0.764
REMARK UNBOUND:                -0.378
REMARK SMILES CCCCCCCCCCCCCCCCCCCCCCCC(=O)[O-]
REMARK SMILES IDX 13 1 14 2 15 3 16 4 17 5 18 6 19 7 20 8 21 9 22 10 23 11
REMARK SMILES IDX 24 12 25 13 26 14 12 15 11 16 10 17 9 18 8 19 7 20 6 21 5 22
REMARK SMILES IDX 4 23 3 24 2 25 1 26
REMARK H PARENT
REMARK Flexibility Score: inf
ROOT
ATOM      1  C   UNL     1     -28.550 -22.989 -20.120  1.00  0.00     0.000 C 
ENDROOT
BRANCH   1   2
ATOM      2  C   UNL     1     -28.394 -21.522 -19.678  1.00  0.00     0.000 C 
BRANCH   2   3
ATOM      3  C   UNL     1     -28.015 -21.396 -18.187  1.00  0.00     0.000 C 
BRANCH   3   4
ATOM      4  C   UNL     1     -28.098 -22.721 -17.412  1.00  0.00     0.000 C 
BRANCH   4   5
ATOM      5  C   UNL     1     -29.532 -23.075 -16.981  1.00  0.00     0.000 C 
BRANCH   5   6
ATOM      6  C   UNL     1     -29.695 -23.124 -15.454  1.00  0.00     0.000 C 
BRANCH   6   7
ATOM      7  C   UNL     1     -31.151 -22.901 -15.008  1.00  0.00     0.000 C 
BRANCH   7   8
ATOM      8  C   UNL     1     -31.540 -21.413 -14.973  1.00  0.00     0.000 C 
BRANCH   8   9
ATOM      9  C   UNL     1     -31.404 -20.801 -13.568  1.00  0.00     0.000 C 
BRANCH   9  10
ATOM     10  C   UNL     1     -30.684 -19.443 -13.583  1.00  0.00     0.006 C 
BRANCH  10  11
ATOM     11  C   UNL     1     -29.382 -19.452 -12.772  1.00  0.00     0.053 C 
BRANCH  11  12
ATOM     12  C   UNL     1     -29.399 -18.364 -11.745  1.00  0.00     0.041 C 
ATOM     13  O   UNL     1     -30.119 -17.344 -11.914  1.00  0.00    -0.550 OA
ATOM     14  O   UNL     1     -28.658 -18.498 -10.577  1.00  0.00    -0.550 OA
ENDBRANCH  11  12
ENDBRANCH  10  11
ENDBRANCH   9  10
ENDBRANCH   8   9
ENDBRANCH   7   8
ENDBRANCH   6   7
ENDBRANCH   5   6
ENDBRANCH   4   5
ENDBRANCH   3   4
ENDBRANCH   2   3
ENDBRANCH   1   2
BRANCH   1  15
ATOM     15  C   UNL     1     -28.863 -23.124 -21.618  1.00  0.00     0.000 C 
BRANCH  15  16
ATOM     16  C   UNL     1     -27.597 -23.096 -22.489  1.00  0.00     0.000 C 
BRANCH  16  17
ATOM     17  C   UNL     1     -27.638 -21.932 -23.486  1.00  0.00     0.000 C 
BRANCH  17  18
ATOM     18  C   UNL     1     -29.077 -21.436 -23.690  1.00  0.00    -0.000 C 
BRANCH  18  19
ATOM     19  C   UNL     1     -29.577 -20.567 -22.526  1.00  0.00    -0.000 C 
BRANCH  19  20
ATOM     20  C   UNL     1     -30.779 -21.193 -21.793  1.00  0.00    -0.000 C 
BRANCH  20  21
ATOM     21  C   UNL     1     -31.988 -21.407 -22.716  1.00  0.00    -0.000 C 
BRANCH  21  22
ATOM     22  C   UNL     1     -32.404 -20.123 -23.459  1.00  0.00    -0.000 C 
BRANCH  22  23
ATOM     23  C   UNL     1     -32.438 -20.314 -24.991  1.00  0.00    -0.000 C 
BRANCH  23  24
ATOM     24  C   UNL     1     -31.226 -19.706 -25.725  1.00  0.00    -0.000 C 
BRANCH  24  25
ATOM     25  C   UNL     1     -30.406 -20.703 -26.561  1.00  0.00    -0.003 C 
ATOM     26  C   UNL     1     -31.122 -22.038 -26.765  1.00  0.00     0.004 C 
ENDBRANCH  24  25
ENDBRANCH  23  24
ENDBRANCH  22  23
ENDBRANCH  21  22
ENDBRANCH  20  21
ENDBRANCH  19  20
ENDBRANCH  18  19
ENDBRANCH  17  18
ENDBRANCH  16  17
ENDBRANCH  15  16
ENDBRANCH   1  15
TORSDOF 22
ENDMDL
MODEL 5
REMARK VINA RESULT:     4.854      4.369      5.636
REMARK INTER + INTRA:          10.718
REMARK INTER:                  11.844
REMARK INTRA:                  -1.127
REMARK UNBOUND:                -0.378
REMARK SMILES CCCCCCCCCCCCCCCCCCCCCCCC(=O)[O-]
REMARK SMILES IDX 13 1 14 2 15 3 16 4 17 5 18 6 19 7 20 8 21 9 22 10 23 11
REMARK SMILES IDX 24 12 25 13 26 14 12 15 11 16 10 17 9 18 8 19 7 20 6 21 5 22
REMARK SMILES IDX 4 23 3 24 2 25 1 26
REMARK H PARENT
REMARK Flexibility Score: inf
ROOT
ATOM      1  C   UNL     1     -27.860 -23.124 -18.941  1.00  0.00     0.000 C 
ENDROOT
BRANCH   1   2
ATOM      2  C   UNL     1     -29.219 -22.913 -19.633  1.00  0.00     0.000 C 
BRANCH   2   3
ATOM      3  C   UNL     1     -29.074 -22.687 -21.153  1.00  0.00     0.000 C 
BRANCH   3   4
ATOM      4  C   UNL     1     -29.517 -21.290 -21.618  1.00  0.00     0.000 C 
BRANCH   4   5
ATOM      5  C   UNL     1     -29.924 -20.371 -20.452  1.00  0.00     0.000 C 
BRANCH   5   6
ATOM      6  C   UNL     1     -31.339 -19.798 -20.619  1.00  0.00     0.000 C 
BRANCH   6   7
ATOM      7  C   UNL     1     -32.134 -20.499 -21.735  1.00  0.00     0.000 C 
BRANCH   7   8
ATOM      8  C   UNL     1     -33.155 -19.569 -22.410  1.00  0.00     0.000 C 
BRANCH   8   9
ATOM      9  C   UNL     1     -32.982 -19.511 -23.938  1.00  0.00     0.000 C 
BRANCH   9  10
ATOM     10  C   UNL     1     -31.554 -19.868 -24.383  1.00  0.00     0.006 C 
BRANCH  10  11
ATOM     11  C   UNL     1     -31.462 -20.185 -25.882  1.00  0.00     0.053 C 
BRANCH  11  12
ATOM     12  C   UNL     1     -30.543 -21.341 -26.115  1.00  0.00     0.041 C 
ATOM     13  O   UNL     1     -29.487 -21.459 -25.437  1.00  0.00    -0.550 OA
ATOM     14  O   UNL     1     -30.875 -22.317 -27.048  1.00  0.00    -0.550 OA
ENDBRANCH  11  12
ENDBRANCH  10  11
ENDBRANCH   9  10
ENDBRANCH   8   9
ENDBRANCH   7   8
ENDBRANCH   6   7
ENDBRANCH   5   6
ENDBRANCH   4   5
ENDBRANCH   3   4
ENDBRANCH   2   3
ENDBRANCH   1   2
BRANCH   1  15
ATOM     15  C   UNL     1     -27.647 -22.171 -17.755  1.00  0.00     0.000 C 
BRANCH  15  16
ATOM     16  C   UNL     1     -27.034 -22.877 -16.535  1.00  0.00     0.000 C 
BRANCH  16  17
ATOM     17  C   UNL     1     -25.629 -22.339 -16.234  1.00  0.00     0.000 C 
BRANCH  17  18
ATOM     18  C   UNL     1     -25.473 -22.022 -14.740  1.00  0.00    -0.000 C 
BRANCH  18  19
ATOM     19  C   UNL     1     -24.145 -22.532 -14.160  1.00  0.00    -0.000 C 
BRANCH  19  20
ATOM     20  C   UNL     1     -23.530 -21.556 -13.138  1.00  0.00    -0.000 C 
BRANCH  20  21
ATOM     21  C   UNL     1     -22.059 -21.232 -13.442  1.00  0.00    -0.000 C 
BRANCH  21  22
ATOM     22  C   UNL     1     -21.454 -20.224 -12.446  1.00  0.00    -0.000 C 
BRANCH  22  23
ATOM     23  C   UNL     1     -21.819 -18.765 -12.791  1.00  0.00    -0.000 C 
BRANCH  23  24
ATOM     24  C   UNL     1     -20.875 -17.719 -12.164  1.00  0.00    -0.000 C 
BRANCH  24  25
ATOM     25  C   UNL     1     -21.328 -17.172 -10.799  1.00  0.00    -0.003 C 
ATOM     26  C   UNL     1     -22.211 -18.154 -10.029  1.00  0.00     0.004 C 
ENDBRANCH  24  25
ENDBRANCH  23  24
ENDBRANCH  22  23
ENDBRANCH  21  22
ENDBRANCH  20  21
ENDBRANCH  19  20
ENDBRANCH  18  19
ENDBRANCH  17  18
ENDBRANCH  16  17
ENDBRANCH  15  16
ENDBRANCH   1  15
TORSDOF 22
ENDMDL
MODEL 6
REMARK VINA RESULT:     4.884      5.625     10.985
REMARK INTER + INTRA:          10.788
REMARK INTER:                  11.272
REMARK INTRA:                  -0.485
REMARK UNBOUND:                -0.378
REMARK SMILES CCCCCCCCCCCCCCCCCCCCCCCC(=O)[O-]
REMARK SMILES IDX 13 1 14 2 15 3 16 4 17 5 18 6 19 7 20 8 21 9 22 10 23 11
REMARK SMILES IDX 24 12 25 13 26 14 12 15 11 16 10 17 9 18 8 19 7 20 6 21 5 22
REMARK SMILES IDX 4 23 3 24 2 25 1 26
REMARK H PARENT
REMARK Flexibility Score: inf
ROOT
ATOM      1  C   UNL     1     -28.762 -21.571 -19.196  1.00  0.00     0.000 C 
ENDROOT
BRANCH   1   2
ATOM      2  C   UNL     1     -28.081 -22.715 -18.423  1.00  0.00     0.000 C 
BRANCH   2   3
ATOM      3  C   UNL     1     -26.895 -22.221 -17.569  1.00  0.00     0.000 C 
BRANCH   3   4
ATOM      4  C   UNL     1     -26.575 -23.125 -16.367  1.00  0.00     0.000 C 
BRANCH   4   5
ATOM      5  C   UNL     1     -26.099 -22.337 -15.134  1.00  0.00     0.000 C 
BRANCH   5   6
ATOM      6  C   UNL     1     -24.577 -22.411 -14.938  1.00  0.00     0.000 C 
BRANCH   6   7
ATOM      7  C   UNL     1     -24.140 -21.969 -13.530  1.00  0.00     0.000 C 
BRANCH   7   8
ATOM      8  C   UNL     1     -22.711 -21.402 -13.503  1.00  0.00     0.000 C 
BRANCH   8   9
ATOM      9  C   UNL     1     -22.062 -21.503 -12.111  1.00  0.00     0.000 C 
BRANCH   9  10
ATOM     10  C   UNL     1     -22.022 -20.152 -11.379  1.00  0.00     0.006 C 
BRANCH  10  11
ATOM     11  C   UNL     1     -21.803 -18.968 -12.331  1.00  0.00     0.053 C 
BRANCH  11  12
ATOM     12  C   UNL     1     -21.577 -17.710 -11.554  1.00  0.00     0.041 C 
ATOM     13  O   UNL     1     -20.880 -16.780 -12.042  1.00  0.00    -0.550 OA
ATOM     14  O   UNL     1     -22.178 -17.541 -10.312  1.00  0.00    -0.550 OA
ENDBRANCH  11  12
ENDBRANCH  10  11
ENDBRANCH   9  10
ENDBRANCH   8   9
ENDBRANCH   7   8
ENDBRANCH   6   7
ENDBRANCH   5   6
ENDBRANCH   4   5
ENDBRANCH   3   4
ENDBRANCH   2   3
ENDBRANCH   1   2
BRANCH   1  15
ATOM     15  C   UNL     1     -28.397 -21.569 -20.689  1.00  0.00     0.000 C 
BRANCH  15  16
ATOM     16  C   UNL     1     -28.614 -22.939 -21.351  1.00  0.00     0.000 C 
BRANCH  16  17
ATOM     17  C   UNL     1     -29.880 -22.941 -22.216  1.00  0.00     0.000 C 
BRANCH  17  18
ATOM     18  C   UNL     1     -31.137 -23.080 -21.346  1.00  0.00    -0.000 C 
BRANCH  18  19
ATOM     19  C   UNL     1     -32.245 -22.091 -21.739  1.00  0.00    -0.000 C 
BRANCH  19  20
ATOM     20  C   UNL     1     -31.742 -20.637 -21.821  1.00  0.00    -0.000 C 
BRANCH  20  21
ATOM     21  C   UNL     1     -32.300 -19.887 -23.041  1.00  0.00    -0.000 C 
BRANCH  21  22
ATOM     22  C   UNL     1     -31.870 -20.523 -24.377  1.00  0.00    -0.000 C 
BRANCH  22  23
ATOM     23  C   UNL     1     -31.024 -19.562 -25.240  1.00  0.00    -0.000 C 
BRANCH  23  24
ATOM     24  C   UNL     1     -31.025 -19.907 -26.743  1.00  0.00    -0.000 C 
BRANCH  24  25
ATOM     25  C   UNL     1     -30.613 -21.350 -27.078  1.00  0.00    -0.003 C 
ATOM     26  C   UNL     1     -31.426 -22.394 -26.312  1.00  0.00     0.004 C 
ENDBRANCH  24  25
ENDBRANCH  23  24
ENDBRANCH  22  23
ENDBRANCH  21  22
ENDBRANCH  20  21
ENDBRANCH  19  20
ENDBRANCH  18  19
ENDBRANCH  17  18
ENDBRANCH  16  17
ENDBRANCH  15  16
ENDBRANCH   1  15
TORSDOF 22
ENDMDL
