MODEL 1
REMARK VINA RESULT:    -4.242      0.000      0.000
REMARK INTER + INTRA:          -4.583
REMARK INTER:                  -4.490
REMARK INTRA:                  -0.093
REMARK UNBOUND:                -0.093
REMARK SMILES C=C(C)[C@@H]1CC=C(C)C(=O)C1
REMARK SMILES IDX 8 1 7 2 6 3 5 4 4 5 11 6 9 7 10 8 2 9 1 10 3 11
REMARK H PARENT
REMARK Flexibility Score: inf
ROOT
ATOM      1  C   UNL     1     145.865 133.203 123.251  1.00  0.00     0.048 C 
ATOM      2  C   UNL     1     144.406 133.550 123.373  1.00  0.00    -0.012 C 
ATOM      3  C   UNL     1     143.761 133.357 124.537  1.00  0.00    -0.019 C 
ATOM      4  C   UNL     1     142.324 133.763 124.730  1.00  0.00     0.036 C 
ATOM      5  C   UNL     1     141.536 133.673 123.409  1.00  0.00     0.025 C 
ATOM      6  C   UNL     1     142.235 134.501 122.313  1.00  0.00     0.089 C 
ATOM      7  C   UNL     1     143.688 134.127 122.209  1.00  0.00     0.158 C 
ATOM      8  O   UNL     1     144.305 134.352 121.134  1.00  0.00    -0.295 OA
ENDROOT
BRANCH   5   9
ATOM      9  C   UNL     1     140.084 134.092 123.589  1.00  0.00    -0.077 C 
ATOM     10  C   UNL     1     139.751 135.162 124.332  1.00  0.00     0.008 C 
ATOM     11  C   UNL     1     138.983 133.303 122.930  1.00  0.00     0.039 C 
ENDBRANCH   5   9
TORSDOF 1
ENDMDL
MODEL 2
REMARK VINA RESULT:    -4.184     15.144     16.256
REMARK INTER + INTRA:          -4.522
REMARK INTER:                  -4.432
REMARK INTRA:                  -0.090
REMARK UNBOUND:                -0.093
REMARK SMILES C=C(C)[C@@H]1CC=C(C)C(=O)C1
REMARK SMILES IDX 8 1 7 2 6 3 5 4 4 5 11 6 9 7 10 8 2 9 1 10 3 11
REMARK H PARENT
REMARK Flexibility Score: inf
ROOT
ATOM      1  C   UNL     1     129.268 136.469 114.342  1.00  0.00     0.048 C 
ATOM      2  C   UNL     1     129.741 137.870 114.620  1.00  0.00    -0.012 C 
ATOM      3  C   UNL     1     131.044 138.179 114.502  1.00  0.00    -0.019 C 
ATOM      4  C   UNL     1     131.552 139.583 114.692  1.00  0.00     0.036 C 
ATOM      5  C   UNL     1     130.682 140.359 115.700  1.00  0.00     0.025 C 
ATOM      6  C   UNL     1     129.204 140.327 115.266  1.00  0.00     0.089 C 
ATOM      7  C   UNL     1     128.758 138.915 115.003  1.00  0.00     0.158 C 
ATOM      8  O   UNL     1     127.532 138.636 115.067  1.00  0.00    -0.295 OA
ENDROOT
BRANCH   5   9
ATOM      9  C   UNL     1     131.179 141.785 115.892  1.00  0.00    -0.077 C 
ATOM     10  C   UNL     1     132.259 142.055 116.646  1.00  0.00     0.008 C 
ATOM     11  C   UNL     1     130.458 142.932 115.232  1.00  0.00     0.039 C 
ENDBRANCH   5   9
TORSDOF 1
ENDMDL
MODEL 3
REMARK VINA RESULT:    -4.149     14.658     16.932
REMARK INTER + INTRA:          -4.485
REMARK INTER:                  -4.388
REMARK INTRA:                  -0.097
REMARK UNBOUND:                -0.093
REMARK SMILES C=C(C)[C@@H]1CC=C(C)C(=O)C1
REMARK SMILES IDX 8 1 7 2 6 3 5 4 4 5 11 6 9 7 10 8 2 9 1 10 3 11
REMARK H PARENT
REMARK Flexibility Score: inf
ROOT
ATOM      1  C   UNL     1     128.288 144.220 115.422  1.00  0.00     0.048 C 
ATOM      2  C   UNL     1     129.143 142.984 115.483  1.00  0.00    -0.012 C 
ATOM      3  C   UNL     1     130.468 143.088 115.690  1.00  0.00    -0.019 C 
ATOM      4  C   UNL     1     131.350 141.877 115.838  1.00  0.00     0.036 C 
ATOM      5  C   UNL     1     130.806 140.687 115.024  1.00  0.00     0.025 C 
ATOM      6  C   UNL     1     129.344 140.396 115.416  1.00  0.00     0.089 C 
ATOM      7  C   UNL     1     128.513 141.647 115.338  1.00  0.00     0.158 C 
ATOM      8  O   UNL     1     127.266 141.549 115.192  1.00  0.00    -0.295 OA
ENDROOT
BRANCH   5   9
ATOM      9  C   UNL     1     131.684 139.453 115.175  1.00  0.00    -0.077 C 
ATOM     10  C   UNL     1     131.383 138.299 114.553  1.00  0.00     0.008 C 
ATOM     11  C   UNL     1     132.918 139.505 116.038  1.00  0.00     0.039 C 
ENDBRANCH   5   9
TORSDOF 1
ENDMDL
MODEL 4
REMARK VINA RESULT:    -4.130      2.035      4.566
REMARK INTER + INTRA:          -4.465
REMARK INTER:                  -4.368
REMARK INTRA:                  -0.097
REMARK UNBOUND:                -0.093
REMARK SMILES C=C(C)[C@@H]1CC=C(C)C(=O)C1
REMARK SMILES IDX 8 1 7 2 6 3 5 4 4 5 11 6 9 7 10 8 2 9 1 10 3 11
REMARK H PARENT
REMARK Flexibility Score: inf
ROOT
ATOM      1  C   UNL     1     137.512 135.217 121.317  1.00  0.00     0.048 C 
ATOM      2  C   UNL     1     138.840 134.762 121.859  1.00  0.00    -0.012 C 
ATOM      3  C   UNL     1     138.895 133.770 122.765  1.00  0.00    -0.019 C 
ATOM      4  C   UNL     1     140.203 133.228 123.276  1.00  0.00     0.036 C 
ATOM      5  C   UNL     1     141.294 134.316 123.282  1.00  0.00     0.025 C 
ATOM      6  C   UNL     1     141.429 134.945 121.881  1.00  0.00     0.089 C 
ATOM      7  C   UNL     1     140.089 135.397 121.370  1.00  0.00     0.158 C 
ATOM      8  O   UNL     1     140.039 136.292 120.486  1.00  0.00    -0.295 OA
ENDROOT
BRANCH   5   9
ATOM      9  C   UNL     1     142.626 133.776 123.785  1.00  0.00    -0.077 C 
ATOM     10  C   UNL     1     143.769 133.991 123.110  1.00  0.00     0.008 C 
ATOM     11  C   UNL     1     142.684 132.981 125.063  1.00  0.00     0.039 C 
ENDBRANCH   5   9
TORSDOF 1
ENDMDL
MODEL 5
REMARK VINA RESULT:    -4.094     14.709     17.041
REMARK INTER + INTRA:          -4.427
REMARK INTER:                  -4.330
REMARK INTRA:                  -0.098
REMARK UNBOUND:                -0.093
REMARK SMILES C=C(C)[C@@H]1CC=C(C)C(=O)C1
REMARK SMILES IDX 8 1 7 2 6 3 5 4 4 5 11 6 9 7 10 8 2 9 1 10 3 11
REMARK H PARENT
REMARK Flexibility Score: inf
ROOT
ATOM      1  C   UNL     1     127.886 144.098 115.725  1.00  0.00     0.048 C 
ATOM      2  C   UNL     1     128.665 142.834 115.481  1.00  0.00    -0.012 C 
ATOM      3  C   UNL     1     128.022 141.662 115.334  1.00  0.00    -0.019 C 
ATOM      4  C   UNL     1     128.753 140.386 115.009  1.00  0.00     0.036 C 
ATOM      5  C   UNL     1     130.178 140.395 115.595  1.00  0.00     0.025 C 
ATOM      6  C   UNL     1     130.944 141.644 115.118  1.00  0.00     0.089 C 
ATOM      7  C   UNL     1     130.145 142.891 115.381  1.00  0.00     0.158 C 
ATOM      8  O   UNL     1     130.742 143.996 115.472  1.00  0.00    -0.295 OA
ENDROOT
BRANCH   5   9
ATOM      9  C   UNL     1     130.931 139.115 115.264  1.00  0.00    -0.077 C 
ATOM     10  C   UNL     1     132.256 139.008 115.470  1.00  0.00     0.008 C 
ATOM     11  C   UNL     1     130.195 137.932 114.690  1.00  0.00     0.039 C 
ENDBRANCH   5   9
TORSDOF 1
ENDMDL
MODEL 6
REMARK VINA RESULT:    -4.069     14.484     16.866
REMARK INTER + INTRA:          -4.400
REMARK INTER:                  -4.306
REMARK INTRA:                  -0.094
REMARK UNBOUND:                -0.093
REMARK SMILES C=C(C)[C@@H]1CC=C(C)C(=O)C1
REMARK SMILES IDX 8 1 7 2 6 3 5 4 4 5 11 6 9 7 10 8 2 9 1 10 3 11
REMARK H PARENT
REMARK Flexibility Score: inf
ROOT
ATOM      1  C   UNL     1     126.646 135.908 114.278  1.00  0.00     0.048 C 
ATOM      2  C   UNL     1     127.788 136.875 114.435  1.00  0.00    -0.012 C 
ATOM      3  C   UNL     1     129.038 136.501 114.111  1.00  0.00    -0.019 C 
ATOM      4  C   UNL     1     130.199 137.457 114.175  1.00  0.00     0.036 C 
ATOM      5  C   UNL     1     129.990 138.515 115.276  1.00  0.00     0.025 C 
ATOM      6  C   UNL     1     128.646 139.241 115.072  1.00  0.00     0.089 C 
ATOM      7  C   UNL     1     127.524 138.250 114.926  1.00  0.00     0.158 C 
ATOM      8  O   UNL     1     126.346 138.614 115.184  1.00  0.00    -0.295 OA
ENDROOT
BRANCH   5   9
ATOM      9  C   UNL     1     131.153 139.495 115.343  1.00  0.00    -0.077 C 
ATOM     10  C   UNL     1     132.421 139.070 115.477  1.00  0.00     0.008 C 
ATOM     11  C   UNL     1     130.897 140.978 115.262  1.00  0.00     0.039 C 
ENDBRANCH   5   9
TORSDOF 1
ENDMDL
MODEL 7
REMARK VINA RESULT:    -4.058      1.761      2.346
REMARK INTER + INTRA:          -4.389
REMARK INTER:                  -4.296
REMARK INTRA:                  -0.093
REMARK UNBOUND:                -0.093
REMARK SMILES C=C(C)[C@@H]1CC=C(C)C(=O)C1
REMARK SMILES IDX 8 1 7 2 6 3 5 4 4 5 11 6 9 7 10 8 2 9 1 10 3 11
REMARK H PARENT
REMARK Flexibility Score: inf
ROOT
ATOM      1  C   UNL     1     145.580 133.822 124.049  1.00  0.00     0.048 C 
ATOM      2  C   UNL     1     144.152 133.817 123.576  1.00  0.00    -0.012 C 
ATOM      3  C   UNL     1     143.853 134.219 122.328  1.00  0.00    -0.019 C 
ATOM      4  C   UNL     1     142.451 134.155 121.783  1.00  0.00     0.036 C 
ATOM      5  C   UNL     1     141.409 134.338 122.903  1.00  0.00     0.025 C 
ATOM      6  C   UNL     1     141.646 133.310 124.026  1.00  0.00     0.089 C 
ATOM      7  C   UNL     1     143.078 133.344 124.484  1.00  0.00     0.158 C 
ATOM      8  O   UNL     1     143.364 132.923 125.637  1.00  0.00    -0.295 OA
ENDROOT
BRANCH   5   9
ATOM      9  C   UNL     1     139.986 134.264 122.366  1.00  0.00    -0.077 C 
ATOM     10  C   UNL     1     139.543 135.128 121.436  1.00  0.00     0.008 C 
ATOM     11  C   UNL     1     139.039 133.210 122.878  1.00  0.00     0.039 C 
ENDBRANCH   5   9
TORSDOF 1
ENDMDL
MODEL 8
REMARK VINA RESULT:    -4.057      2.295      4.865
REMARK INTER + INTRA:          -4.388
REMARK INTER:                  -4.294
REMARK INTRA:                  -0.093
REMARK UNBOUND:                -0.093
REMARK SMILES C=C(C)[C@@H]1CC=C(C)C(=O)C1
REMARK SMILES IDX 8 1 7 2 6 3 5 4 4 5 11 6 9 7 10 8 2 9 1 10 3 11
REMARK H PARENT
REMARK Flexibility Score: inf
ROOT
ATOM      1  C   UNL     1     137.935 134.863 121.363  1.00  0.00     0.048 C 
ATOM      2  C   UNL     1     139.372 134.806 121.803  1.00  0.00    -0.012 C 
ATOM      3  C   UNL     1     140.260 135.696 121.325  1.00  0.00    -0.019 C 
ATOM      4  C   UNL     1     141.690 135.729 121.796  1.00  0.00     0.036 C 
ATOM      5  C   UNL     1     142.175 134.324 122.203  1.00  0.00     0.025 C 
ATOM      6  C   UNL     1     141.228 133.715 123.255  1.00  0.00     0.089 C 
ATOM      7  C   UNL     1     139.801 133.779 122.784  1.00  0.00     0.158 C 
ATOM      8  O   UNL     1     138.958 132.976 123.267  1.00  0.00    -0.295 OA
ENDROOT
BRANCH   5   9
ATOM      9  C   UNL     1     143.617 134.346 122.693  1.00  0.00    -0.077 C 
ATOM     10  C   UNL     1     143.945 134.882 123.881  1.00  0.00     0.008 C 
ATOM     11  C   UNL     1     144.713 133.762 121.840  1.00  0.00     0.039 C 
ENDBRANCH   5   9
TORSDOF 1
ENDMDL
MODEL 9
REMARK VINA RESULT:    -4.049     14.647     15.974
REMARK INTER + INTRA:          -4.379
REMARK INTER:                  -4.283
REMARK INTRA:                  -0.095
REMARK UNBOUND:                -0.093
REMARK SMILES C=C(C)[C@@H]1CC=C(C)C(=O)C1
REMARK SMILES IDX 8 1 7 2 6 3 5 4 4 5 11 6 9 7 10 8 2 9 1 10 3 11
REMARK H PARENT
REMARK Flexibility Score: inf
ROOT
ATOM      1  C   UNL     1     131.637 141.533 116.257  1.00  0.00     0.048 C 
ATOM      2  C   UNL     1     130.796 140.412 115.710  1.00  0.00    -0.012 C 
ATOM      3  C   UNL     1     129.467 140.567 115.576  1.00  0.00    -0.019 C 
ATOM      4  C   UNL     1     128.596 139.505 114.960  1.00  0.00     0.036 C 
ATOM      5  C   UNL     1     129.168 138.097 115.218  1.00  0.00     0.025 C 
ATOM      6  C   UNL     1     130.626 138.015 114.727  1.00  0.00     0.089 C 
ATOM      7  C   UNL     1     131.443 139.142 115.296  1.00  0.00     0.158 C 
ATOM      8  O   UNL     1     132.694 139.015 115.377  1.00  0.00    -0.295 OA
ENDROOT
BRANCH   5   9
ATOM      9  C   UNL     1     128.303 137.014 114.590  1.00  0.00    -0.077 C 
ATOM     10  C   UNL     1     128.678 136.383 113.463  1.00  0.00     0.008 C 
ATOM     11  C   UNL     1     126.993 136.628 115.228  1.00  0.00     0.039 C 
ENDBRANCH   5   9
TORSDOF 1
ENDMDL
