MODEL 1
REMARK VINA RESULT:    -3.920      0.000      0.000
REMARK INTER + INTRA:          -5.832
REMARK INTER:                  -5.295
REMARK INTRA:                  -0.537
REMARK UNBOUND:                -0.537
REMARK SMILES CCCCCCCC(=O)[O-]
REMARK SMILES IDX 5 1 6 2 7 3 8 4 9 5 10 6 4 7 3 8 2 9 1 10
REMARK H PARENT
REMARK Flexibility Score: inf
ROOT
ATOM      1  C   UNL     1     159.971 167.242 160.037  1.00  0.00     0.000 C 
ENDROOT
BRANCH   1   2
ATOM      2  C   UNL     1     159.490 166.055 160.881  1.00  0.00     0.006 C 
BRANCH   2   3
ATOM      3  C   UNL     1     160.210 166.015 162.232  1.00  0.00     0.053 C 
BRANCH   3   4
ATOM      4  C   UNL     1     160.991 164.747 162.372  1.00  0.00     0.041 C 
ATOM      5  O   UNL     1     161.309 164.321 163.513  1.00  0.00    -0.550 OA
ATOM      6  O   UNL     1     161.411 164.060 161.240  1.00  0.00    -0.550 OA
ENDBRANCH   3   4
ENDBRANCH   2   3
ENDBRANCH   1   2
BRANCH   1   7
ATOM      7  C   UNL     1     161.174 167.932 160.692  1.00  0.00     0.000 C 
BRANCH   7   8
ATOM      8  C   UNL     1     162.390 167.923 159.758  1.00  0.00    -0.000 C 
BRANCH   8   9
ATOM      9  C   UNL     1     163.334 166.765 160.095  1.00  0.00    -0.003 C 
ATOM     10  C   UNL     1     163.506 165.828 158.902  1.00  0.00     0.004 C 
ENDBRANCH   8   9
ENDBRANCH   7   8
ENDBRANCH   1   7
TORSDOF 6
ENDMDL
MODEL 2
REMARK VINA RESULT:    -3.818      2.605      3.393
REMARK INTER + INTRA:          -5.695
REMARK INTER:                  -5.152
REMARK INTRA:                  -0.543
REMARK UNBOUND:                -0.537
REMARK SMILES CCCCCCCC(=O)[O-]
REMARK SMILES IDX 5 1 6 2 7 3 8 4 9 5 10 6 4 7 3 8 2 9 1 10
REMARK H PARENT
REMARK Flexibility Score: inf
ROOT
ATOM      1  C   UNL     1     161.772 164.420 159.830  1.00  0.00     0.000 C 
ENDROOT
BRANCH   1   2
ATOM      2  C   UNL     1     161.748 165.718 160.647  1.00  0.00     0.006 C 
BRANCH   2   3
ATOM      3  C   UNL     1     160.424 165.866 161.402  1.00  0.00     0.053 C 
BRANCH   3   4
ATOM      4  C   UNL     1     159.427 166.607 160.569  1.00  0.00     0.041 C 
ATOM      5  O   UNL     1     158.229 166.221 160.521  1.00  0.00    -0.550 OA
ATOM      6  O   UNL     1     159.829 167.696 159.806  1.00  0.00    -0.550 OA
ENDBRANCH   3   4
ENDBRANCH   2   3
ENDBRANCH   1   2
BRANCH   1   7
ATOM      7  C   UNL     1     162.253 164.680 158.397  1.00  0.00     0.000 C 
BRANCH   7   8
ATOM      8  C   UNL     1     161.128 165.261 157.533  1.00  0.00    -0.000 C 
BRANCH   8   9
ATOM      9  C   UNL     1     161.591 166.528 156.806  1.00  0.00    -0.003 C 
ATOM     10  C   UNL     1     163.020 166.896 157.195  1.00  0.00     0.004 C 
ENDBRANCH   8   9
ENDBRANCH   7   8
ENDBRANCH   1   7
TORSDOF 6
ENDMDL
MODEL 3
REMARK VINA RESULT:    -3.804      2.714      4.157
REMARK INTER + INTRA:          -5.676
REMARK INTER:                  -5.231
REMARK INTRA:                  -0.444
REMARK UNBOUND:                -0.537
REMARK SMILES CCCCCCCC(=O)[O-]
REMARK SMILES IDX 5 1 6 2 7 3 8 4 9 5 10 6 4 7 3 8 2 9 1 10
REMARK H PARENT
REMARK Flexibility Score: inf
ROOT
ATOM      1  C   UNL     1     159.255 166.225 161.119  1.00  0.00     0.000 C 
ENDROOT
BRANCH   1   2
ATOM      2  C   UNL     1     159.757 167.244 160.088  1.00  0.00     0.006 C 
BRANCH   2   3
ATOM      3  C   UNL     1     161.106 166.813 159.504  1.00  0.00     0.053 C 
BRANCH   3   4
ATOM      4  C   UNL     1     162.218 167.603 160.117  1.00  0.00     0.041 C 
ATOM      5  O   UNL     1     162.025 168.794 160.477  1.00  0.00    -0.550 OA
ATOM      6  O   UNL     1     163.482 167.042 160.246  1.00  0.00    -0.550 OA
ENDBRANCH   3   4
ENDBRANCH   2   3
ENDBRANCH   1   2
BRANCH   1   7
ATOM      7  C   UNL     1     159.520 164.789 160.649  1.00  0.00     0.000 C 
BRANCH   7   8
ATOM      8  C   UNL     1     158.243 164.145 160.097  1.00  0.00    -0.000 C 
BRANCH   8   9
ATOM      9  C   UNL     1     158.570 163.127 158.999  1.00  0.00    -0.003 C 
ATOM     10  C   UNL     1     159.870 163.486 158.284  1.00  0.00     0.004 C 
ENDBRANCH   8   9
ENDBRANCH   7   8
ENDBRANCH   1   7
TORSDOF 6
ENDMDL
MODEL 4
REMARK VINA RESULT:    -3.787      3.067      4.479
REMARK INTER + INTRA:          -5.652
REMARK INTER:                  -5.131
REMARK INTRA:                  -0.521
REMARK UNBOUND:                -0.537
REMARK SMILES CCCCCCCC(=O)[O-]
REMARK SMILES IDX 5 1 6 2 7 3 8 4 9 5 10 6 4 7 3 8 2 9 1 10
REMARK H PARENT
REMARK Flexibility Score: inf
ROOT
ATOM      1  C   UNL     1     161.169 164.987 157.710  1.00  0.00     0.000 C 
ENDROOT
BRANCH   1   2
ATOM      2  C   UNL     1     161.477 166.481 157.873  1.00  0.00     0.006 C 
BRANCH   2   3
ATOM      3  C   UNL     1     162.978 166.750 157.729  1.00  0.00     0.053 C 
BRANCH   3   4
ATOM      4  C   UNL     1     163.725 166.187 158.897  1.00  0.00     0.041 C 
ATOM      5  O   UNL     1     164.600 165.300 158.720  1.00  0.00    -0.550 OA
ATOM      6  O   UNL     1     163.420 166.605 160.185  1.00  0.00    -0.550 OA
ENDBRANCH   3   4
ENDBRANCH   2   3
ENDBRANCH   1   2
BRANCH   1   7
ATOM      7  C   UNL     1     160.548 164.410 158.989  1.00  0.00     0.000 C 
BRANCH   7   8
ATOM      8  C   UNL     1     161.361 163.219 159.508  1.00  0.00    -0.000 C 
BRANCH   8   9
ATOM      9  C   UNL     1     161.803 162.310 158.357  1.00  0.00    -0.003 C 
ATOM     10  C   UNL     1     163.296 162.005 158.436  1.00  0.00     0.004 C 
ENDBRANCH   8   9
ENDBRANCH   7   8
ENDBRANCH   1   7
TORSDOF 6
ENDMDL
MODEL 5
REMARK VINA RESULT:    -3.773      2.345      4.151
REMARK INTER + INTRA:          -5.633
REMARK INTER:                  -5.159
REMARK INTRA:                  -0.474
REMARK UNBOUND:                -0.537
REMARK SMILES CCCCCCCC(=O)[O-]
REMARK SMILES IDX 5 1 6 2 7 3 8 4 9 5 10 6 4 7 3 8 2 9 1 10
REMARK H PARENT
REMARK Flexibility Score: inf
ROOT
ATOM      1  C   UNL     1     161.034 167.920 160.548  1.00  0.00     0.000 C 
ENDROOT
BRANCH   1   2
ATOM      2  C   UNL     1     162.397 167.933 159.846  1.00  0.00     0.006 C 
BRANCH   2   3
ATOM      3  C   UNL     1     163.116 166.591 160.020  1.00  0.00     0.053 C 
BRANCH   3   4
ATOM      4  C   UNL     1     163.822 166.209 158.758  1.00  0.00     0.041 C 
ATOM      5  O   UNL     1     163.528 166.772 157.671  1.00  0.00    -0.550 OA
ATOM      6  O   UNL     1     164.772 165.195 158.772  1.00  0.00    -0.550 OA
ENDBRANCH   3   4
ENDBRANCH   2   3
ENDBRANCH   1   2
BRANCH   1   7
ATOM      7  C   UNL     1     160.131 166.819 159.980  1.00  0.00     0.000 C 
BRANCH   7   8
ATOM      8  C   UNL     1     159.291 166.168 161.086  1.00  0.00    -0.000 C 
BRANCH   8   9
ATOM      9  C   UNL     1     160.002 166.258 162.440  1.00  0.00    -0.003 C 
ATOM     10  C   UNL     1     160.801 164.990 162.729  1.00  0.00     0.004 C 
ENDBRANCH   8   9
ENDBRANCH   7   8
ENDBRANCH   1   7
TORSDOF 6
ENDMDL
MODEL 6
REMARK VINA RESULT:    -3.736      2.801      4.221
REMARK INTER + INTRA:          -5.584
REMARK INTER:                  -5.148
REMARK INTRA:                  -0.436
REMARK UNBOUND:                -0.537
REMARK SMILES CCCCCCCC(=O)[O-]
REMARK SMILES IDX 5 1 6 2 7 3 8 4 9 5 10 6 4 7 3 8 2 9 1 10
REMARK H PARENT
REMARK Flexibility Score: inf
ROOT
ATOM      1  C   UNL     1     163.570 166.118 158.279  1.00  0.00     0.000 C 
ENDROOT
BRANCH   1   2
ATOM      2  C   UNL     1     163.484 166.493 159.763  1.00  0.00     0.006 C 
BRANCH   2   3
ATOM      3  C   UNL     1     162.048 166.362 160.279  1.00  0.00     0.053 C 
BRANCH   3   4
ATOM      4  C   UNL     1     161.372 167.697 160.288  1.00  0.00     0.041 C 
ATOM      5  O   UNL     1     162.002 168.724 160.653  1.00  0.00    -0.550 OA
ATOM      6  O   UNL     1     160.031 167.800 159.941  1.00  0.00    -0.550 OA
ENDBRANCH   3   4
ENDBRANCH   2   3
ENDBRANCH   1   2
BRANCH   1   7
ATOM      7  C   UNL     1     162.628 164.953 157.949  1.00  0.00     0.000 C 
BRANCH   7   8
ATOM      8  C   UNL     1     163.376 163.615 157.971  1.00  0.00    -0.000 C 
BRANCH   8   9
ATOM      9  C   UNL     1     162.555 162.538 158.689  1.00  0.00    -0.003 C 
ATOM     10  C   UNL     1     161.059 162.749 158.473  1.00  0.00     0.004 C 
ENDBRANCH   8   9
ENDBRANCH   7   8
ENDBRANCH   1   7
TORSDOF 6
ENDMDL
MODEL 7
REMARK VINA RESULT:    -3.733      3.504      5.239
REMARK INTER + INTRA:          -5.580
REMARK INTER:                  -4.928
REMARK INTRA:                  -0.652
REMARK UNBOUND:                -0.537
REMARK SMILES CCCCCCCC(=O)[O-]
REMARK SMILES IDX 5 1 6 2 7 3 8 4 9 5 10 6 4 7 3 8 2 9 1 10
REMARK H PARENT
REMARK Flexibility Score: inf
ROOT
ATOM      1  C   UNL     1     163.577 163.886 157.914  1.00  0.00     0.000 C 
ENDROOT
BRANCH   1   2
ATOM      2  C   UNL     1     163.375 165.281 158.519  1.00  0.00     0.006 C 
BRANCH   2   3
ATOM      3  C   UNL     1     163.100 166.318 157.426  1.00  0.00     0.053 C 
BRANCH   3   4
ATOM      4  C   UNL     1     161.627 166.498 157.235  1.00  0.00     0.041 C 
ATOM      5  O   UNL     1     160.872 166.640 158.233  1.00  0.00    -0.550 OA
ATOM      6  O   UNL     1     161.081 166.461 155.959  1.00  0.00    -0.550 OA
ENDBRANCH   3   4
ENDBRANCH   2   3
ENDBRANCH   1   2
BRANCH   1   7
ATOM      7  C   UNL     1     162.404 162.960 158.260  1.00  0.00     0.000 C 
BRANCH   7   8
ATOM      8  C   UNL     1     161.731 163.387 159.570  1.00  0.00    -0.000 C 
BRANCH   8   9
ATOM      9  C   UNL     1     160.208 163.444 159.413  1.00  0.00    -0.003 C 
ATOM     10  C   UNL     1     159.795 163.234 157.959  1.00  0.00     0.004 C 
ENDBRANCH   8   9
ENDBRANCH   7   8
ENDBRANCH   1   7
TORSDOF 6
ENDMDL
MODEL 8
REMARK VINA RESULT:    -3.729      2.260      4.112
REMARK INTER + INTRA:          -5.574
REMARK INTER:                  -4.982
REMARK INTRA:                  -0.592
REMARK UNBOUND:                -0.537
REMARK SMILES CCCCCCCC(=O)[O-]
REMARK SMILES IDX 5 1 6 2 7 3 8 4 9 5 10 6 4 7 3 8 2 9 1 10
REMARK H PARENT
REMARK Flexibility Score: inf
ROOT
ATOM      1  C   UNL     1     161.125 164.818 158.389  1.00  0.00     0.000 C 
ENDROOT
BRANCH   1   2
ATOM      2  C   UNL     1     161.312 166.318 158.128  1.00  0.00     0.006 C 
BRANCH   2   3
ATOM      3  C   UNL     1     162.774 166.641 157.806  1.00  0.00     0.053 C 
BRANCH   3   4
ATOM      4  C   UNL     1     163.657 166.273 158.957  1.00  0.00     0.041 C 
ATOM      5  O   UNL     1     164.574 165.424 158.805  1.00  0.00    -0.550 OA
ATOM      6  O   UNL     1     163.436 166.831 160.209  1.00  0.00    -0.550 OA
ENDBRANCH   3   4
ENDBRANCH   2   3
ENDBRANCH   1   2
BRANCH   1   7
ATOM      7  C   UNL     1     160.309 164.578 159.665  1.00  0.00     0.000 C 
BRANCH   7   8
ATOM      8  C   UNL     1     159.833 165.903 160.273  1.00  0.00    -0.000 C 
BRANCH   8   9
ATOM      9  C   UNL     1     160.216 165.998 161.754  1.00  0.00    -0.003 C 
ATOM     10  C   UNL     1     161.201 164.898 162.140  1.00  0.00     0.004 C 
ENDBRANCH   8   9
ENDBRANCH   7   8
ENDBRANCH   1   7
TORSDOF 6
ENDMDL
MODEL 9
REMARK VINA RESULT:    -3.696      2.660      4.696
REMARK INTER + INTRA:          -5.530
REMARK INTER:                  -5.005
REMARK INTRA:                  -0.524
REMARK UNBOUND:                -0.537
REMARK SMILES CCCCCCCC(=O)[O-]
REMARK SMILES IDX 5 1 6 2 7 3 8 4 9 5 10 6 4 7 3 8 2 9 1 10
REMARK H PARENT
REMARK Flexibility Score: inf
ROOT
ATOM      1  C   UNL     1     163.135 166.625 160.023  1.00  0.00     0.000 C 
ENDROOT
BRANCH   1   2
ATOM      2  C   UNL     1     163.346 165.966 158.654  1.00  0.00     0.006 C 
BRANCH   2   3
ATOM      3  C   UNL     1     162.866 166.883 157.525  1.00  0.00     0.053 C 
BRANCH   3   4
ATOM      4  C   UNL     1     161.688 166.280 156.827  1.00  0.00     0.041 C 
ATOM      5  O   UNL     1     161.307 166.737 155.717  1.00  0.00    -0.550 OA
ATOM      6  O   UNL     1     160.980 165.245 157.424  1.00  0.00    -0.550 OA
ENDBRANCH   3   4
ENDBRANCH   2   3
ENDBRANCH   1   2
BRANCH   1   7
ATOM      7  C   UNL     1     161.875 166.080 160.708  1.00  0.00     0.000 C 
BRANCH   7   8
ATOM      8  C   UNL     1     160.751 167.123 160.705  1.00  0.00    -0.000 C 
BRANCH   8   9
ATOM      9  C   UNL     1     159.401 166.475 160.380  1.00  0.00    -0.003 C 
ATOM     10  C   UNL     1     159.442 164.967 160.612  1.00  0.00     0.004 C 
ENDBRANCH   8   9
ENDBRANCH   7   8
ENDBRANCH   1   7
TORSDOF 6
ENDMDL
