MODEL 1
REMARK VINA RESULT:    -4.460      0.000      0.000
REMARK INTER + INTRA:          -7.945
REMARK INTER:                  -7.197
REMARK INTRA:                  -0.748
REMARK UNBOUND:                -0.748
REMARK SMILES CCCCCCCCCCCCO
REMARK SMILES IDX 7 1 6 2 5 3 4 4 3 5 2 6 1 7 8 8 9 9 10 10 11 11 12 12 13 13
REMARK H PARENT 13 14
REMARK Flexibility Score: inf
ROOT
ATOM      1  C   UNL     1     -21.233  -1.034 -12.533  1.00  0.00     0.000 C 
ENDROOT
BRANCH   1   2
ATOM      2  C   UNL     1     -22.669  -0.522 -12.733  1.00  0.00    -0.000 C 
BRANCH   2   3
ATOM      3  C   UNL     1     -23.731  -1.578 -12.379  1.00  0.00    -0.000 C 
BRANCH   3   4
ATOM      4  C   UNL     1     -24.574  -1.180 -11.158  1.00  0.00    -0.000 C 
BRANCH   4   5
ATOM      5  C   UNL     1     -24.145  -1.920  -9.879  1.00  0.00    -0.000 C 
BRANCH   5   6
ATOM      6  C   UNL     1     -24.194  -3.447 -10.038  1.00  0.00    -0.003 C 
ATOM      7  C   UNL     1     -25.621  -3.994 -10.056  1.00  0.00     0.004 C 
ENDBRANCH   5   6
ENDBRANCH   4   5
ENDBRANCH   3   4
ENDBRANCH   2   3
ENDBRANCH   1   2
BRANCH   1   8
ATOM      8  C   UNL     1     -21.172  -2.561 -12.350  1.00  0.00     0.000 C 
BRANCH   8   9
ATOM      9  C   UNL     1     -20.129  -3.222 -13.268  1.00  0.00     0.000 C 
BRANCH   9  10
ATOM     10  C   UNL     1     -18.698  -2.741 -12.973  1.00  0.00     0.002 C 
BRANCH  10  11
ATOM     11  C   UNL     1     -18.093  -3.393 -11.717  1.00  0.00     0.028 C 
BRANCH  11  12
ATOM     12  C   UNL     1     -16.939  -2.590 -11.105  1.00  0.00     0.156 C 
BRANCH  12  13
ATOM     13  O   UNL     1     -16.861  -1.322 -11.697  1.00  0.00    -0.396 OA
ATOM     14  H   UNL     1     -16.835  -0.670 -10.948  1.00  0.00     0.210 HD
ENDBRANCH  12  13
ENDBRANCH  11  12
ENDBRANCH  10  11
ENDBRANCH   9  10
ENDBRANCH   8   9
ENDBRANCH   1   8
TORSDOF 11
ENDMDL
MODEL 2
REMARK VINA RESULT:    -4.414      1.856      2.220
REMARK INTER + INTRA:          -7.871
REMARK INTER:                  -7.165
REMARK INTRA:                  -0.705
REMARK UNBOUND:                -0.748
REMARK SMILES CCCCCCCCCCCCO
REMARK SMILES IDX 7 1 6 2 5 3 4 4 3 5 2 6 1 7 8 8 9 9 10 10 11 11 12 12 13 13
REMARK H PARENT 13 14
REMARK Flexibility Score: inf
ROOT
ATOM      1  C   UNL     1     -21.439  -2.361 -13.238  1.00  0.00     0.000 C 
ENDROOT
BRANCH   1   2
ATOM      2  C   UNL     1     -22.001  -0.981 -13.617  1.00  0.00    -0.000 C 
BRANCH   2   3
ATOM      3  C   UNL     1     -22.836  -0.349 -12.490  1.00  0.00    -0.000 C 
BRANCH   3   4
ATOM      4  C   UNL     1     -24.074  -1.187 -12.135  1.00  0.00    -0.000 C 
BRANCH   4   5
ATOM      5  C   UNL     1     -24.201  -1.441 -10.623  1.00  0.00    -0.000 C 
BRANCH   5   6
ATOM      6  C   UNL     1     -23.839  -2.884 -10.237  1.00  0.00    -0.003 C 
ATOM      7  C   UNL     1     -25.063  -3.796 -10.152  1.00  0.00     0.004 C 
ENDBRANCH   5   6
ENDBRANCH   4   5
ENDBRANCH   3   4
ENDBRANCH   2   3
ENDBRANCH   1   2
BRANCH   1   8
ATOM      8  C   UNL     1     -20.358  -2.278 -12.146  1.00  0.00     0.000 C 
BRANCH   8   9
ATOM      9  C   UNL     1     -18.935  -2.401 -12.717  1.00  0.00     0.000 C 
BRANCH   9  10
ATOM     10  C   UNL     1     -18.069  -3.396 -11.925  1.00  0.00     0.002 C 
BRANCH  10  11
ATOM     11  C   UNL     1     -17.908  -4.750 -12.638  1.00  0.00     0.028 C 
BRANCH  11  12
ATOM     12  C   UNL     1     -18.446  -4.754 -14.074  1.00  0.00     0.156 C 
BRANCH  12  13
ATOM     13  O   UNL     1     -18.000  -5.892 -14.759  1.00  0.00    -0.396 OA
ATOM     14  H   UNL     1     -18.079  -5.680 -15.725  1.00  0.00     0.210 HD
ENDBRANCH  12  13
ENDBRANCH  11  12
ENDBRANCH  10  11
ENDBRANCH   9  10
ENDBRANCH   8   9
ENDBRANCH   1   8
TORSDOF 11
ENDMDL
MODEL 3
REMARK VINA RESULT:    -4.365      1.514      2.582
REMARK INTER + INTRA:          -7.792
REMARK INTER:                  -7.284
REMARK INTRA:                  -0.509
REMARK UNBOUND:                -0.748
REMARK SMILES CCCCCCCCCCCCO
REMARK SMILES IDX 7 1 6 2 5 3 4 4 3 5 2 6 1 7 8 8 9 9 10 10 11 11 12 12 13 13
REMARK H PARENT 13 14
REMARK Flexibility Score: inf
ROOT
ATOM      1  C   UNL     1     -21.470  -1.228 -12.986  1.00  0.00     0.000 C 
ENDROOT
BRANCH   1   2
ATOM      2  C   UNL     1     -22.906  -1.767 -12.889  1.00  0.00    -0.000 C 
BRANCH   2   3
ATOM      3  C   UNL     1     -23.377  -1.945 -11.435  1.00  0.00    -0.000 C 
BRANCH   3   4
ATOM      4  C   UNL     1     -24.557  -1.027 -11.082  1.00  0.00    -0.000 C 
BRANCH   4   5
ATOM      5  C   UNL     1     -24.793   0.064 -12.141  1.00  0.00    -0.000 C 
BRANCH   5   6
ATOM      6  C   UNL     1     -25.970   0.986 -11.784  1.00  0.00    -0.003 C 
ATOM      7  C   UNL     1     -25.752   2.427 -12.247  1.00  0.00     0.004 C 
ENDBRANCH   5   6
ENDBRANCH   4   5
ENDBRANCH   3   4
ENDBRANCH   2   3
ENDBRANCH   1   2
BRANCH   1   8
ATOM      8  C   UNL     1     -20.445  -2.156 -12.308  1.00  0.00     0.000 C 
BRANCH   8   9
ATOM      9  C   UNL     1     -19.841  -3.178 -13.285  1.00  0.00     0.000 C 
BRANCH   9  10
ATOM     10  C   UNL     1     -18.519  -3.772 -12.772  1.00  0.00     0.002 C 
BRANCH  10  11
ATOM     11  C   UNL     1     -18.193  -3.351 -11.328  1.00  0.00     0.028 C 
BRANCH  11  12
ATOM     12  C   UNL     1     -16.903  -2.531 -11.206  1.00  0.00     0.156 C 
BRANCH  12  13
ATOM     13  O   UNL     1     -17.043  -1.300 -11.861  1.00  0.00    -0.396 OA
ATOM     14  H   UNL     1     -17.299  -1.513 -12.796  1.00  0.00     0.210 HD
ENDBRANCH  12  13
ENDBRANCH  11  12
ENDBRANCH  10  11
ENDBRANCH   9  10
ENDBRANCH   8   9
ENDBRANCH   1   8
TORSDOF 11
ENDMDL
MODEL 4
REMARK VINA RESULT:    -4.241      3.943      7.175
REMARK INTER + INTRA:          -7.593
REMARK INTER:                  -7.264
REMARK INTRA:                  -0.328
REMARK UNBOUND:                -0.748
REMARK SMILES CCCCCCCCCCCCO
REMARK SMILES IDX 7 1 6 2 5 3 4 4 3 5 2 6 1 7 8 8 9 9 10 10 11 11 12 12 13 13
REMARK H PARENT 13 14
REMARK Flexibility Score: inf
ROOT
ATOM      1  C   UNL     1     -23.565  -2.077 -12.359  1.00  0.00     0.000 C 
ENDROOT
BRANCH   1   2
ATOM      2  C   UNL     1     -22.426  -1.419 -13.157  1.00  0.00    -0.000 C 
BRANCH   2   3
ATOM      3  C   UNL     1     -21.046  -1.641 -12.514  1.00  0.00    -0.000 C 
BRANCH   3   4
ATOM      4  C   UNL     1     -20.278  -2.806 -13.156  1.00  0.00    -0.000 C 
BRANCH   4   5
ATOM      5  C   UNL     1     -19.466  -3.615 -12.129  1.00  0.00    -0.000 C 
BRANCH   5   6
ATOM      6  C   UNL     1     -18.183  -4.211 -12.730  1.00  0.00    -0.003 C 
ATOM      7  C   UNL     1     -18.431  -4.929 -14.056  1.00  0.00     0.004 C 
ENDBRANCH   5   6
ENDBRANCH   4   5
ENDBRANCH   3   4
ENDBRANCH   2   3
ENDBRANCH   1   2
BRANCH   1   8
ATOM      8  C   UNL     1     -24.313  -1.072 -11.465  1.00  0.00     0.000 C 
BRANCH   8   9
ATOM      9  C   UNL     1     -24.502   0.294 -12.146  1.00  0.00     0.000 C 
BRANCH   9  10
ATOM     10  C   UNL     1     -25.855   0.940 -11.802  1.00  0.00     0.002 C 
BRANCH  10  11
ATOM     11  C   UNL     1     -25.957   2.402 -12.271  1.00  0.00     0.028 C 
BRANCH  11  12
ATOM     12  C   UNL     1     -27.390   2.843 -12.595  1.00  0.00     0.156 C 
BRANCH  12  13
ATOM     13  O   UNL     1     -27.507   3.157 -13.956  1.00  0.00    -0.396 OA
ATOM     14  H   UNL     1     -28.467   3.050 -14.181  1.00  0.00     0.210 HD
ENDBRANCH  12  13
ENDBRANCH  11  12
ENDBRANCH  10  11
ENDBRANCH   9  10
ENDBRANCH   8   9
ENDBRANCH   1   8
TORSDOF 11
ENDMDL
MODEL 5
REMARK VINA RESULT:    -4.223      2.217      3.003
REMARK INTER + INTRA:          -7.563
REMARK INTER:                  -7.091
REMARK INTRA:                  -0.472
REMARK UNBOUND:                -0.748
REMARK SMILES CCCCCCCCCCCCO
REMARK SMILES IDX 7 1 6 2 5 3 4 4 3 5 2 6 1 7 8 8 9 9 10 10 11 11 12 12 13 13
REMARK H PARENT 13 14
REMARK Flexibility Score: inf
ROOT
ATOM      1  C   UNL     1     -21.429  -1.060 -12.485  1.00  0.00     0.000 C 
ENDROOT
BRANCH   1   2
ATOM      2  C   UNL     1     -22.149  -1.360 -11.159  1.00  0.00    -0.000 C 
BRANCH   2   3
ATOM      3  C   UNL     1     -23.195  -2.480 -11.291  1.00  0.00    -0.000 C 
BRANCH   3   4
ATOM      4  C   UNL     1     -24.538  -2.111 -10.642  1.00  0.00    -0.000 C 
BRANCH   4   5
ATOM      5  C   UNL     1     -24.784  -0.592 -10.619  1.00  0.00    -0.000 C 
BRANCH   5   6
ATOM      6  C   UNL     1     -25.210  -0.044 -11.990  1.00  0.00    -0.003 C 
ATOM      7  C   UNL     1     -25.982   1.271 -11.885  1.00  0.00     0.004 C 
ENDBRANCH   5   6
ENDBRANCH   4   5
ENDBRANCH   3   4
ENDBRANCH   2   3
ENDBRANCH   1   2
BRANCH   1   8
ATOM      8  C   UNL     1     -20.744  -2.305 -13.077  1.00  0.00     0.000 C 
BRANCH   8   9
ATOM      9  C   UNL     1     -19.305  -2.483 -12.564  1.00  0.00     0.000 C 
BRANCH   9  10
ATOM     10  C   UNL     1     -19.029  -3.915 -12.073  1.00  0.00     0.002 C 
BRANCH  10  11
ATOM     11  C   UNL     1     -17.982  -4.650 -12.928  1.00  0.00     0.028 C 
BRANCH  11  12
ATOM     12  C   UNL     1     -18.416  -4.859 -14.383  1.00  0.00     0.156 C 
BRANCH  12  13
ATOM     13  O   UNL     1     -17.982  -6.108 -14.847  1.00  0.00    -0.396 OA
ATOM     14  H   UNL     1     -17.307  -6.425 -14.192  1.00  0.00     0.210 HD
ENDBRANCH  12  13
ENDBRANCH  11  12
ENDBRANCH  10  11
ENDBRANCH   9  10
ENDBRANCH   8   9
ENDBRANCH   1   8
TORSDOF 11
ENDMDL
MODEL 6
REMARK VINA RESULT:    -4.167      2.891      6.082
REMARK INTER + INTRA:          -7.473
REMARK INTER:                  -6.674
REMARK INTRA:                  -0.798
REMARK UNBOUND:                -0.748
REMARK SMILES CCCCCCCCCCCCO
REMARK SMILES IDX 7 1 6 2 5 3 4 4 3 5 2 6 1 7 8 8 9 9 10 10 11 11 12 12 13 13
REMARK H PARENT 13 14
REMARK Flexibility Score: inf
ROOT
ATOM      1  C   UNL     1     -21.756  -1.625 -13.251  1.00  0.00     0.000 C 
ENDROOT
BRANCH   1   2
ATOM      2  C   UNL     1     -20.395  -2.086 -12.705  1.00  0.00    -0.000 C 
BRANCH   2   3
ATOM      3  C   UNL     1     -20.526  -2.963 -11.447  1.00  0.00    -0.000 C 
BRANCH   3   4
ATOM      4  C   UNL     1     -19.207  -3.656 -11.073  1.00  0.00    -0.000 C 
BRANCH   4   5
ATOM      5  C   UNL     1     -18.137  -3.519 -12.170  1.00  0.00    -0.000 C 
BRANCH   5   6
ATOM      6  C   UNL     1     -17.900  -4.835 -12.929  1.00  0.00    -0.003 C 
ATOM      7  C   UNL     1     -18.418  -4.789 -14.366  1.00  0.00     0.004 C 
ENDBRANCH   5   6
ENDBRANCH   4   5
ENDBRANCH   3   4
ENDBRANCH   2   3
ENDBRANCH   1   2
BRANCH   1   8
ATOM      8  C   UNL     1     -22.507  -0.711 -12.266  1.00  0.00     0.000 C 
BRANCH   8   9
ATOM      9  C   UNL     1     -24.004  -1.051 -12.174  1.00  0.00     0.000 C 
BRANCH   9  10
ATOM     10  C   UNL     1     -24.481  -1.216 -10.720  1.00  0.00     0.002 C 
BRANCH  10  11
ATOM     11  C   UNL     1     -23.899  -2.465 -10.036  1.00  0.00     0.028 C 
BRANCH  11  12
ATOM     12  C   UNL     1     -24.759  -3.721 -10.221  1.00  0.00     0.156 C 
BRANCH  12  13
ATOM     13  O   UNL     1     -26.113  -3.374 -10.317  1.00  0.00    -0.396 OA
ATOM     14  H   UNL     1     -26.419  -3.197  -9.390  1.00  0.00     0.210 HD
ENDBRANCH  12  13
ENDBRANCH  11  12
ENDBRANCH  10  11
ENDBRANCH   9  10
ENDBRANCH   8   9
ENDBRANCH   1   8
TORSDOF 11
ENDMDL
MODEL 7
REMARK VINA RESULT:    -4.167      2.405      3.376
REMARK INTER + INTRA:          -7.472
REMARK INTER:                  -7.106
REMARK INTRA:                  -0.366
REMARK UNBOUND:                -0.748
REMARK SMILES CCCCCCCCCCCCO
REMARK SMILES IDX 7 1 6 2 5 3 4 4 3 5 2 6 1 7 8 8 9 9 10 10 11 11 12 12 13 13
REMARK H PARENT 13 14
REMARK Flexibility Score: inf
ROOT
ATOM      1  C   UNL     1     -22.100  -1.287 -13.278  1.00  0.00     0.000 C 
ENDROOT
BRANCH   1   2
ATOM      2  C   UNL     1     -23.443  -1.832 -12.763  1.00  0.00    -0.000 C 
BRANCH   2   3
ATOM      3  C   UNL     1     -23.625  -1.630 -11.249  1.00  0.00    -0.000 C 
BRANCH   3   4
ATOM      4  C   UNL     1     -24.741  -0.628 -10.919  1.00  0.00    -0.000 C 
BRANCH   4   5
ATOM      5  C   UNL     1     -25.084   0.286 -12.109  1.00  0.00    -0.000 C 
BRANCH   5   6
ATOM      6  C   UNL     1     -26.218   1.272 -11.786  1.00  0.00    -0.003 C 
ATOM      7  C   UNL     1     -25.840   2.724 -12.079  1.00  0.00     0.004 C 
ENDBRANCH   5   6
ENDBRANCH   4   5
ENDBRANCH   3   4
ENDBRANCH   2   3
ENDBRANCH   1   2
BRANCH   1   8
ATOM      8  C   UNL     1     -20.907  -1.761 -12.428  1.00  0.00     0.000 C 
BRANCH   8   9
ATOM      9  C   UNL     1     -20.031  -2.787 -13.168  1.00  0.00     0.000 C 
BRANCH   9  10
ATOM     10  C   UNL     1     -18.754  -3.141 -12.387  1.00  0.00     0.002 C 
BRANCH  10  11
ATOM     11  C   UNL     1     -18.048  -4.396 -12.929  1.00  0.00     0.028 C 
BRANCH  11  12
ATOM     12  C   UNL     1     -18.319  -4.656 -14.416  1.00  0.00     0.156 C 
BRANCH  12  13
ATOM     13  O   UNL     1     -18.009  -5.983 -14.743  1.00  0.00    -0.396 OA
ATOM     14  H   UNL     1     -17.057  -6.113 -14.492  1.00  0.00     0.210 HD
ENDBRANCH  12  13
ENDBRANCH  11  12
ENDBRANCH  10  11
ENDBRANCH   9  10
ENDBRANCH   8   9
ENDBRANCH   1   8
TORSDOF 11
ENDMDL
MODEL 8
REMARK VINA RESULT:    -4.030      3.568      6.970
REMARK INTER + INTRA:          -7.251
REMARK INTER:                  -6.850
REMARK INTRA:                  -0.401
REMARK UNBOUND:                -0.748
REMARK SMILES CCCCCCCCCCCCO
REMARK SMILES IDX 7 1 6 2 5 3 4 4 3 5 2 6 1 7 8 8 9 9 10 10 11 11 12 12 13 13
REMARK H PARENT 13 14
REMARK Flexibility Score: inf
ROOT
ATOM      1  C   UNL     1     -22.522  -0.639 -12.499  1.00  0.00     0.000 C 
ENDROOT
BRANCH   1   2
ATOM      2  C   UNL     1     -21.597  -1.521 -13.354  1.00  0.00    -0.000 C 
BRANCH   2   3
ATOM      3  C   UNL     1     -20.466  -2.167 -12.534  1.00  0.00    -0.000 C 
BRANCH   3   4
ATOM      4  C   UNL     1     -19.823  -3.360 -13.257  1.00  0.00    -0.000 C 
BRANCH   4   5
ATOM      5  C   UNL     1     -18.499  -3.799 -12.608  1.00  0.00    -0.000 C 
BRANCH   5   6
ATOM      6  C   UNL     1     -18.203  -3.041 -11.304  1.00  0.00    -0.003 C 
ATOM      7  C   UNL     1     -16.706  -2.890 -11.035  1.00  0.00     0.004 C 
ENDBRANCH   5   6
ENDBRANCH   4   5
ENDBRANCH   3   4
ENDBRANCH   2   3
ENDBRANCH   1   2
BRANCH   1   8
ATOM      8  C   UNL     1     -23.413  -1.464 -11.553  1.00  0.00     0.000 C 
BRANCH   8   9
ATOM      9  C   UNL     1     -24.736  -0.752 -11.223  1.00  0.00     0.000 C 
BRANCH   9  10
ATOM     10  C   UNL     1     -24.968   0.492 -12.098  1.00  0.00     0.002 C 
BRANCH  10  11
ATOM     11  C   UNL     1     -26.227   1.280 -11.696  1.00  0.00     0.028 C 
BRANCH  11  12
ATOM     12  C   UNL     1     -26.272   2.698 -12.278  1.00  0.00     0.156 C 
BRANCH  12  13
ATOM     13  O   UNL     1     -27.328   2.817 -13.192  1.00  0.00    -0.396 OA
ATOM     14  H   UNL     1     -27.586   1.890 -13.435  1.00  0.00     0.210 HD
ENDBRANCH  12  13
ENDBRANCH  11  12
ENDBRANCH  10  11
ENDBRANCH   9  10
ENDBRANCH   8   9
ENDBRANCH   1   8
TORSDOF 11
ENDMDL
MODEL 9
REMARK VINA RESULT:    -3.925      4.122      7.408
REMARK INTER + INTRA:          -7.083
REMARK INTER:                  -6.729
REMARK INTRA:                  -0.354
REMARK UNBOUND:                -0.748
REMARK SMILES CCCCCCCCCCCCO
REMARK SMILES IDX 7 1 6 2 5 3 4 4 3 5 2 6 1 7 8 8 9 9 10 10 11 11 12 12 13 13
REMARK H PARENT 13 14
REMARK Flexibility Score: inf
ROOT
ATOM      1  C   UNL     1     -23.830  -1.457 -12.295  1.00  0.00     0.000 C 
ENDROOT
BRANCH   1   2
ATOM      2  C   UNL     1     -22.697  -0.594 -12.875  1.00  0.00    -0.000 C 
BRANCH   2   3
ATOM      3  C   UNL     1     -21.305  -1.039 -12.394  1.00  0.00    -0.000 C 
BRANCH   3   4
ATOM      4  C   UNL     1     -21.030  -2.523 -12.681  1.00  0.00    -0.000 C 
BRANCH   4   5
ATOM      5  C   UNL     1     -19.529  -2.827 -12.828  1.00  0.00    -0.000 C 
BRANCH   5   6
ATOM      6  C   UNL     1     -19.247  -4.326 -13.015  1.00  0.00    -0.003 C 
ATOM      7  C   UNL     1     -18.359  -4.613 -14.226  1.00  0.00     0.004 C 
ENDBRANCH   5   6
ENDBRANCH   4   5
ENDBRANCH   3   4
ENDBRANCH   2   3
ENDBRANCH   1   2
BRANCH   1   8
ATOM      8  C   UNL     1     -24.988  -0.610 -11.737  1.00  0.00     0.000 C 
BRANCH   8   9
ATOM      9  C   UNL     1     -24.848   0.881 -12.088  1.00  0.00     0.000 C 
BRANCH   9  10
ATOM     10  C   UNL     1     -26.203   1.609 -12.112  1.00  0.00     0.002 C 
BRANCH  10  11
ATOM     11  C   UNL     1     -26.938   1.552 -10.761  1.00  0.00     0.028 C 
BRANCH  11  12
ATOM     12  C   UNL     1     -28.465   1.509 -10.896  1.00  0.00     0.156 C 
BRANCH  12  13
ATOM     13  O   UNL     1     -28.904   2.504 -11.780  1.00  0.00    -0.396 OA
ATOM     14  H   UNL     1     -29.104   2.043 -12.636  1.00  0.00     0.210 HD
ENDBRANCH  12  13
ENDBRANCH  11  12
ENDBRANCH  10  11
ENDBRANCH   9  10
ENDBRANCH   8   9
ENDBRANCH   1   8
TORSDOF 11
ENDMDL
