MODEL 1
REMARK VINA RESULT:    -3.427      0.000      0.000
REMARK INTER + INTRA:          -5.073
REMARK INTER:                  -5.230
REMARK INTRA:                   0.158
REMARK UNBOUND:                 0.158
REMARK SMILES CC1=CCC[C@@H](C)C(=O)C[C@H](C(C)C)C(=O)C1
REMARK SMILES IDX 8 1 9 2 6 3 7 4 5 5 4 6 3 7 2 8 1 9 10 11 11 12 15 13 16 14
REMARK SMILES IDX 17 15 12 17 13 18 14 19
REMARK H PARENT
REMARK Flexibility Score: 70.00
ROOT
ATOM      1  C   UNL     1     -12.024 -16.153  27.956  1.00  0.00     0.136 C 
ATOM      2  O   UNL     1     -10.814 -16.128  27.770  1.00  0.00    -0.299 OA
ENDROOT
BRANCH   1   3
ATOM      3  C   UNL     1     -12.913 -16.914  26.999  1.00  0.00     0.053 C 
ATOM      4  C   UNL     1     -13.938 -15.966  26.364  1.00  0.00     0.016 C 
BRANCH   3   5
ATOM      5  C   UNL     1     -13.620 -18.090  27.699  1.00  0.00     0.015 C 
BRANCH   5   6
ATOM      6  C   UNL     1     -12.669 -19.266  28.005  1.00  0.00     0.028 C 
BRANCH   6   7
ATOM      7  C   UNL     1     -12.795 -19.723  29.440  1.00  0.00    -0.028 C 
ATOM      8  C   UNL     1     -11.997 -19.389  30.484  1.00  0.00    -0.070 CG0
ATOM      9  C   UNL     1     -12.295 -20.034  31.816  1.00  0.00     0.039 C 
ATOM     10  G   UNL     1     -10.837 -18.411  30.410  1.00  0.00     0.000 G0
ENDBRANCH   6   7
ENDBRANCH   5   6
ENDBRANCH   3   5
ENDBRANCH   1   3
BRANCH   1  11
ATOM     11  C   UNL     1     -12.624 -15.497  29.179  1.00  0.00     0.087 C 
BRANCH  11  12
ATOM     12  C   UNL     1     -12.651 -16.418  30.425  1.00  0.00     0.066 C 
BRANCH  12  13
ATOM     13  C   UNL     1     -11.291 -16.995  30.792  1.00  0.00     0.140 C 
ATOM     14  O   UNL     1     -10.491 -16.261  31.356  1.00  0.00    -0.299 OA
BRANCH  13  15
ATOM     15  C   UNL     1     -10.848 -18.393  30.419  1.00  0.00     0.106 CG0
ATOM     16  G   UNL     1     -12.003 -19.376  30.502  1.00  0.00     0.000 G0
ENDBRANCH  13  15
ENDBRANCH  12  13
BRANCH  12  17
ATOM     17  C   UNL     1     -13.343 -15.782  31.671  1.00  0.00    -0.006 C 
ATOM     18  C   UNL     1     -14.375 -14.696  31.327  1.00  0.00     0.008 C 
ATOM     19  C   UNL     1     -13.982 -16.844  32.580  1.00  0.00     0.008 C 
ENDBRANCH  12  17
ENDBRANCH  11  12
ENDBRANCH   1  11
TORSDOF 1
ENDMDL
MODEL 2
REMARK VINA RESULT:    -2.860      1.564      3.648
REMARK INTER + INTRA:          -4.207
REMARK INTER:                  -5.317
REMARK INTRA:                   1.110
REMARK UNBOUND:                 0.158
REMARK SMILES CC1=CCC[C@@H](C)C(=O)C[C@H](C(C)C)C(=O)C1
REMARK SMILES IDX 8 1 9 2 6 3 7 4 5 5 4 6 3 7 2 8 1 9 10 11 11 12 15 13 16 14
REMARK SMILES IDX 17 15 12 17 13 18 14 19
REMARK H PARENT
REMARK Flexibility Score: 70.00
ROOT
ATOM      1  C   UNL     1     -11.572 -16.791  28.119  1.00  0.00     0.136 C 
ATOM      2  O   UNL     1     -10.576 -16.129  27.854  1.00  0.00    -0.299 OA
ENDROOT
BRANCH   1   3
ATOM      3  C   UNL     1     -12.943 -16.177  27.957  1.00  0.00     0.053 C 
ATOM      4  C   UNL     1     -13.329 -16.133  26.473  1.00  0.00     0.016 C 
BRANCH   3   5
ATOM      5  C   UNL     1     -13.009 -14.769  28.579  1.00  0.00     0.015 C 
BRANCH   5   6
ATOM      6  C   UNL     1     -14.335 -14.502  29.321  1.00  0.00     0.028 C 
BRANCH   6   7
ATOM      7  C   UNL     1     -14.140 -14.490  30.820  1.00  0.00    -0.028 C 
ATOM      8  C   UNL     1     -13.863 -15.547  31.623  1.00  0.00    -0.070 CG0
ATOM      9  C   UNL     1     -13.777 -15.284  33.106  1.00  0.00     0.039 C 
ATOM     10  G   UNL     1     -13.625 -16.967  31.136  1.00  0.00     0.000 G0
ENDBRANCH   6   7
ENDBRANCH   5   6
ENDBRANCH   3   5
ENDBRANCH   1   3
BRANCH   1  11
ATOM     11  C   UNL     1     -11.440 -18.240  28.529  1.00  0.00     0.087 C 
BRANCH  11  12
ATOM     12  C   UNL     1     -11.708 -18.485  30.035  1.00  0.00     0.066 C 
BRANCH  12  13
ATOM     13  C   UNL     1     -12.176 -17.245  30.785  1.00  0.00     0.140 C 
ATOM     14  O   UNL     1     -11.327 -16.447  31.157  1.00  0.00    -0.299 OA
BRANCH  13  15
ATOM     15  C   UNL     1     -13.618 -16.996  31.171  1.00  0.00     0.106 CG0
ATOM     16  G   UNL     1     -13.829 -15.555  31.605  1.00  0.00     0.000 G0
ENDBRANCH  13  15
ENDBRANCH  12  13
BRANCH  12  17
ATOM     17  C   UNL     1     -12.645 -19.699  30.326  1.00  0.00    -0.006 C 
ATOM     18  C   UNL     1     -12.890 -20.605  29.108  1.00  0.00     0.008 C 
ATOM     19  C   UNL     1     -12.148 -20.540  31.513  1.00  0.00     0.008 C 
ENDBRANCH  12  17
ENDBRANCH  11  12
ENDBRANCH   1  11
TORSDOF 1
ENDMDL
MODEL 3
REMARK VINA RESULT:    -2.859      2.308      4.910
REMARK INTER + INTRA:          -4.205
REMARK INTER:                  -5.122
REMARK INTRA:                   0.916
REMARK UNBOUND:                 0.158
REMARK SMILES CC1=CCC[C@@H](C)C(=O)C[C@H](C(C)C)C(=O)C1
REMARK SMILES IDX 8 1 9 2 6 3 7 4 5 5 4 6 3 7 2 8 1 9 10 11 11 12 15 13 16 14
REMARK SMILES IDX 17 15 12 17 13 18 14 19
REMARK H PARENT
REMARK Flexibility Score: 70.00
ROOT
ATOM      1  C   UNL     1     -12.768 -19.322  29.035  1.00  0.00     0.136 C 
ATOM      2  O   UNL     1     -12.472 -20.387  28.509  1.00  0.00    -0.299 OA
ENDROOT
BRANCH   1   3
ATOM      3  C   UNL     1     -12.186 -18.967  30.385  1.00  0.00     0.053 C 
ATOM      4  C   UNL     1     -11.902 -20.242  31.188  1.00  0.00     0.016 C 
BRANCH   3   5
ATOM      5  C   UNL     1     -13.118 -18.025  31.171  1.00  0.00     0.015 C 
BRANCH   5   6
ATOM      6  C   UNL     1     -12.590 -16.576  31.237  1.00  0.00     0.028 C 
BRANCH   6   7
ATOM      7  C   UNL     1     -13.649 -15.581  30.820  1.00  0.00    -0.028 C 
ATOM      8  C   UNL     1     -13.709 -14.878  29.663  1.00  0.00    -0.070 CG0
ATOM      9  C   UNL     1     -14.841 -13.891  29.512  1.00  0.00     0.039 C 
ATOM     10  G   UNL     1     -12.728 -15.019  28.511  1.00  0.00     0.000 G0
ENDBRANCH   6   7
ENDBRANCH   5   6
ENDBRANCH   3   5
ENDBRANCH   1   3
BRANCH   1  11
ATOM     11  C   UNL     1     -13.643 -18.326  28.309  1.00  0.00     0.087 C 
BRANCH  11  12
ATOM     12  C   UNL     1     -12.863 -17.415  27.328  1.00  0.00     0.066 C 
BRANCH  12  13
ATOM     13  C   UNL     1     -13.244 -15.944  27.421  1.00  0.00     0.140 C 
ATOM     14  O   UNL     1     -13.953 -15.478  26.540  1.00  0.00    -0.299 OA
BRANCH  13  15
ATOM     15  C   UNL     1     -12.722 -15.012  28.494  1.00  0.00     0.106 CG0
ATOM     16  G   UNL     1     -13.703 -14.900  29.649  1.00  0.00     0.000 G0
ENDBRANCH  13  15
ENDBRANCH  12  13
BRANCH  12  17
ATOM     17  C   UNL     1     -11.314 -17.594  27.387  1.00  0.00    -0.006 C 
ATOM     18  C   UNL     1     -10.633 -17.608  26.008  1.00  0.00     0.008 C 
ATOM     19  C   UNL     1     -10.646 -16.546  28.291  1.00  0.00     0.008 C 
ENDBRANCH  12  17
ENDBRANCH  11  12
ENDBRANCH   1  11
TORSDOF 1
ENDMDL
MODEL 4
REMARK VINA RESULT:    -2.585      1.610      3.504
REMARK INTER + INTRA:          -3.787
REMARK INTER:                  -4.901
REMARK INTRA:                   1.114
REMARK UNBOUND:                 0.158
REMARK SMILES CC1=CCC[C@@H](C)C(=O)C[C@H](C(C)C)C(=O)C1
REMARK SMILES IDX 8 1 9 2 6 3 7 4 5 5 4 6 3 7 2 8 1 9 10 11 11 12 15 13 16 14
REMARK SMILES IDX 17 15 12 17 13 18 14 19
REMARK H PARENT
REMARK Flexibility Score: 70.00
ROOT
ATOM      1  C   UNL     1     -11.532 -19.092  28.962  1.00  0.00     0.136 C 
ATOM      2  O   UNL     1     -10.510 -19.061  29.634  1.00  0.00    -0.299 OA
ENDROOT
BRANCH   1   3
ATOM      3  C   UNL     1     -12.548 -20.187  29.193  1.00  0.00     0.053 C 
ATOM      4  C   UNL     1     -13.785 -19.953  28.318  1.00  0.00     0.016 C 
BRANCH   3   5
ATOM      5  C   UNL     1     -12.943 -20.286  30.680  1.00  0.00     0.015 C 
BRANCH   5   6
ATOM      6  C   UNL     1     -12.325 -19.164  31.540  1.00  0.00     0.028 C 
BRANCH   6   7
ATOM      7  C   UNL     1     -13.244 -17.968  31.637  1.00  0.00    -0.028 C 
ATOM      8  C   UNL     1     -12.916 -16.662  31.481  1.00  0.00    -0.070 CG0
ATOM      9  C   UNL     1     -14.011 -15.645  31.692  1.00  0.00     0.039 C 
ATOM     10  G   UNL     1     -11.535 -16.155  31.102  1.00  0.00     0.000 G0
ENDBRANCH   6   7
ENDBRANCH   5   6
ENDBRANCH   3   5
ENDBRANCH   1   3
BRANCH   1  11
ATOM     11  C   UNL     1     -11.822 -17.998  27.960  1.00  0.00     0.087 C 
BRANCH  11  12
ATOM     12  C   UNL     1     -12.339 -16.687  28.606  1.00  0.00     0.066 C 
BRANCH  12  13
ATOM     13  C   UNL     1     -11.360 -16.062  29.591  1.00  0.00     0.140 C 
ATOM     14  O   UNL     1     -10.349 -15.542  29.142  1.00  0.00    -0.299 OA
BRANCH  13  15
ATOM     15  C   UNL     1     -11.531 -16.128  31.094  1.00  0.00     0.106 CG0
ATOM     16  G   UNL     1     -12.909 -16.646  31.468  1.00  0.00     0.000 G0
ENDBRANCH  13  15
ENDBRANCH  12  13
BRANCH  12  17
ATOM     17  C   UNL     1     -12.849 -15.629  27.579  1.00  0.00    -0.006 C 
ATOM     18  C   UNL     1     -13.604 -16.232  26.383  1.00  0.00     0.008 C 
ATOM     19  C   UNL     1     -13.709 -14.544  28.248  1.00  0.00     0.008 C 
ENDBRANCH  12  17
ENDBRANCH  11  12
ENDBRANCH   1  11
TORSDOF 1
ENDMDL
MODEL 5
REMARK VINA RESULT:    -2.299      2.289      3.030
REMARK INTER + INTRA:          -3.352
REMARK INTER:                  -3.348
REMARK INTRA:                  -0.004
REMARK UNBOUND:                 0.158
REMARK SMILES CC1=CCC[C@@H](C)C(=O)C[C@H](C(C)C)C(=O)C1
REMARK SMILES IDX 8 1 9 2 6 3 7 4 5 5 4 6 3 7 2 8 1 9 10 11 11 12 15 13 16 14
REMARK SMILES IDX 17 15 12 17 13 18 14 19
REMARK H PARENT
REMARK Flexibility Score: 70.00
ROOT
ATOM      1  C   UNL     1     -13.136 -15.732  27.513  1.00  0.00     0.136 C 
ATOM      2  O   UNL     1     -13.969 -15.749  26.616  1.00  0.00    -0.299 OA
ENDROOT
BRANCH   1   3
ATOM      3  C   UNL     1     -12.078 -16.810  27.573  1.00  0.00     0.053 C 
ATOM      4  C   UNL     1     -11.584 -17.144  26.160  1.00  0.00     0.016 C 
BRANCH   3   5
ATOM      5  C   UNL     1     -12.602 -18.076  28.279  1.00  0.00     0.015 C 
BRANCH   5   6
ATOM      6  C   UNL     1     -11.866 -18.372  29.603  1.00  0.00     0.028 C 
BRANCH   6   7
ATOM      7  C   UNL     1     -12.816 -18.369  30.779  1.00  0.00    -0.028 C 
ATOM      8  C   UNL     1     -13.212 -17.303  31.515  1.00  0.00    -0.070 CG0
ATOM      9  C   UNL     1     -14.124 -17.572  32.687  1.00  0.00     0.039 C 
ATOM     10  G   UNL     1     -12.812 -15.863  31.240  1.00  0.00     0.000 G0
ENDBRANCH   6   7
ENDBRANCH   5   6
ENDBRANCH   3   5
ENDBRANCH   1   3
BRANCH   1  11
ATOM     11  C   UNL     1     -13.110 -14.597  28.510  1.00  0.00     0.087 C 
BRANCH  11  12
ATOM     12  C   UNL     1     -14.330 -14.582  29.465  1.00  0.00     0.066 C 
BRANCH  12  13
ATOM     13  C   UNL     1     -13.996 -14.989  30.894  1.00  0.00     0.140 C 
ATOM     14  O   UNL     1     -14.683 -14.530  31.796  1.00  0.00    -0.299 OA
BRANCH  13  15
ATOM     15  C   UNL     1     -12.810 -15.855  31.261  1.00  0.00     0.106 CG0
ATOM     16  G   UNL     1     -13.238 -17.288  31.526  1.00  0.00     0.000 G0
ENDBRANCH  13  15
ENDBRANCH  12  13
BRANCH  12  17
ATOM     17  C   UNL     1     -15.143 -13.251  29.440  1.00  0.00    -0.006 C 
ATOM     18  C   UNL     1     -14.815 -12.341  28.245  1.00  0.00     0.008 C 
ATOM     19  C   UNL     1     -16.659 -13.498  29.510  1.00  0.00     0.008 C 
ENDBRANCH  12  17
ENDBRANCH  11  12
ENDBRANCH   1  11
TORSDOF 1
ENDMDL
MODEL 6
REMARK VINA RESULT:    -2.225      2.035      4.175
REMARK INTER + INTRA:          -3.237
REMARK INTER:                  -3.897
REMARK INTRA:                   0.660
REMARK UNBOUND:                 0.158
REMARK SMILES CC1=CCC[C@@H](C)C(=O)C[C@H](C(C)C)C(=O)C1
REMARK SMILES IDX 8 1 9 2 6 3 7 4 5 5 4 6 3 7 2 8 1 9 10 11 11 12 15 13 16 14
REMARK SMILES IDX 17 15 12 17 13 18 14 19
REMARK H PARENT
REMARK Flexibility Score: 70.00
ROOT
ATOM      1  C   UNL     1     -13.230 -15.782  30.723  1.00  0.00     0.136 C 
ATOM      2  O   UNL     1     -14.032 -16.128  31.581  1.00  0.00    -0.299 OA
ENDROOT
BRANCH   1   3
ATOM      3  C   UNL     1     -13.463 -14.503  29.952  1.00  0.00     0.053 C 
ATOM      4  C   UNL     1     -14.936 -14.087  30.054  1.00  0.00     0.016 C 
BRANCH   3   5
ATOM      5  C   UNL     1     -13.039 -14.647  28.478  1.00  0.00     0.015 C 
BRANCH   5   6
ATOM      6  C   UNL     1     -13.650 -15.888  27.796  1.00  0.00     0.028 C 
BRANCH   6   7
ATOM      7  C   UNL     1     -12.834 -16.323  26.600  1.00  0.00    -0.028 C 
ATOM      8  C   UNL     1     -11.652 -16.987  26.607  1.00  0.00    -0.070 CG0
ATOM      9  C   UNL     1     -11.000 -17.251  25.271  1.00  0.00     0.039 C 
ATOM     10  G   UNL     1     -10.948 -17.492  27.855  1.00  0.00     0.000 G0
ENDBRANCH   6   7
ENDBRANCH   5   6
ENDBRANCH   3   5
ENDBRANCH   1   3
BRANCH   1  11
ATOM     11  C   UNL     1     -11.968 -16.581  30.489  1.00  0.00     0.087 C 
BRANCH  11  12
ATOM     12  C   UNL     1     -12.233 -18.057  30.098  1.00  0.00     0.066 C 
BRANCH  12  13
ATOM     13  C   UNL     1     -11.802 -18.402  28.679  1.00  0.00     0.140 C 
ATOM     14  O   UNL     1     -12.135 -19.489  28.227  1.00  0.00    -0.299 OA
BRANCH  13  15
ATOM     15  C   UNL     1     -10.912 -17.514  27.837  1.00  0.00     0.106 CG0
ATOM     16  G   UNL     1     -11.653 -16.992  26.618  1.00  0.00     0.000 G0
ENDBRANCH  13  15
ENDBRANCH  12  13
BRANCH  12  17
ATOM     17  C   UNL     1     -11.676 -19.096  31.119  1.00  0.00    -0.006 C 
ATOM     18  C   UNL     1     -12.415 -20.444  31.106  1.00  0.00     0.008 C 
ATOM     19  C   UNL     1     -10.165 -19.325  30.944  1.00  0.00     0.008 C 
ENDBRANCH  12  17
ENDBRANCH  11  12
ENDBRANCH   1  11
TORSDOF 1
ENDMDL
MODEL 7
REMARK VINA RESULT:    -2.063      2.058      3.674
REMARK INTER + INTRA:          -2.990
REMARK INTER:                  -4.605
REMARK INTRA:                   1.615
REMARK UNBOUND:                 0.158
REMARK SMILES CC1=CCC[C@@H](C)C(=O)C[C@H](C(C)C)C(=O)C1
REMARK SMILES IDX 8 1 9 2 6 3 7 4 5 5 4 6 3 7 2 8 1 9 10 11 11 12 15 13 16 14
REMARK SMILES IDX 17 15 12 17 13 18 14 19
REMARK H PARENT
REMARK Flexibility Score: 70.00
ROOT
ATOM      1  C   UNL     1     -12.963 -18.828  29.814  1.00  0.00     0.136 C 
ATOM      2  O   UNL     1     -13.467 -18.899  28.701  1.00  0.00    -0.299 OA
ENDROOT
BRANCH   1   3
ATOM      3  C   UNL     1     -11.731 -19.644  30.132  1.00  0.00     0.053 C 
ATOM      4  C   UNL     1     -12.134 -20.995  30.736  1.00  0.00     0.016 C 
BRANCH   3   5
ATOM      5  C   UNL     1     -10.780 -18.886  31.079  1.00  0.00     0.015 C 
BRANCH   5   6
ATOM      6  C   UNL     1      -9.877 -17.877  30.341  1.00  0.00     0.028 C 
BRANCH   6   7
ATOM      7  C   UNL     1     -10.137 -17.885  28.851  1.00  0.00    -0.028 C 
ATOM      8  C   UNL     1     -10.822 -16.965  28.129  1.00  0.00    -0.070 CG0
ATOM      9  C   UNL     1     -10.998 -17.235  26.655  1.00  0.00     0.039 C 
ATOM     10  G   UNL     1     -11.411 -15.683  28.694  1.00  0.00     0.000 G0
ENDBRANCH   6   7
ENDBRANCH   5   6
ENDBRANCH   3   5
ENDBRANCH   1   3
BRANCH   1  11
ATOM     11  C   UNL     1     -13.516 -17.869  30.844  1.00  0.00     0.087 C 
BRANCH  11  12
ATOM     12  C   UNL     1     -12.878 -16.458  30.783  1.00  0.00     0.066 C 
BRANCH  12  13
ATOM     13  C   UNL     1     -12.741 -15.908  29.370  1.00  0.00     0.140 C 
ATOM     14  O   UNL     1     -13.764 -15.720  28.726  1.00  0.00    -0.299 OA
BRANCH  13  15
ATOM     15  C   UNL     1     -11.410 -15.667  28.692  1.00  0.00     0.106 CG0
ATOM     16  G   UNL     1     -10.829 -16.961  28.147  1.00  0.00     0.000 G0
ENDBRANCH  13  15
ENDBRANCH  12  13
BRANCH  12  17
ATOM     17  C   UNL     1     -13.552 -15.414  31.725  1.00  0.00    -0.006 C 
ATOM     18  C   UNL     1     -14.447 -14.398  30.995  1.00  0.00     0.008 C 
ATOM     19  C   UNL     1     -14.341 -16.086  32.861  1.00  0.00     0.008 C 
ENDBRANCH  12  17
ENDBRANCH  11  12
ENDBRANCH   1  11
TORSDOF 1
ENDMDL
MODEL 8
REMARK VINA RESULT:    -1.789      1.418      3.920
REMARK INTER + INTRA:          -2.572
REMARK INTER:                  -4.022
REMARK INTRA:                   1.450
REMARK UNBOUND:                 0.158
REMARK SMILES CC1=CCC[C@@H](C)C(=O)C[C@H](C(C)C)C(=O)C1
REMARK SMILES IDX 8 1 9 2 6 3 7 4 5 5 4 6 3 7 2 8 1 9 10 11 11 12 15 13 16 14
REMARK SMILES IDX 17 15 12 17 13 18 14 19
REMARK H PARENT
REMARK Flexibility Score: 70.00
ROOT
ATOM      1  C   UNL     1     -12.298 -16.023  30.461  1.00  0.00     0.136 C 
ATOM      2  O   UNL     1     -11.186 -16.040  30.974  1.00  0.00    -0.299 OA
ENDROOT
BRANCH   1   3
ATOM      3  C   UNL     1     -13.520 -16.270  31.316  1.00  0.00     0.053 C 
ATOM      4  C   UNL     1     -13.470 -15.394  32.574  1.00  0.00     0.016 C 
BRANCH   3   5
ATOM      5  C   UNL     1     -13.653 -17.758  31.694  1.00  0.00     0.015 C 
BRANCH   5   6
ATOM      6  C   UNL     1     -12.411 -18.589  31.308  1.00  0.00     0.028 C 
BRANCH   6   7
ATOM      7  C   UNL     1     -12.794 -19.839  30.550  1.00  0.00    -0.028 C 
ATOM      8  C   UNL     1     -13.096 -19.944  29.233  1.00  0.00    -0.070 CG0
ATOM      9  C   UNL     1     -13.512 -21.303  28.726  1.00  0.00     0.039 C 
ATOM     10  G   UNL     1     -13.036 -18.799  28.236  1.00  0.00     0.000 G0
ENDBRANCH   6   7
ENDBRANCH   5   6
ENDBRANCH   3   5
ENDBRANCH   1   3
BRANCH   1  11
ATOM     11  C   UNL     1     -12.461 -15.677  28.999  1.00  0.00     0.087 C 
BRANCH  11  12
ATOM     12  C   UNL     1     -11.601 -16.553  28.054  1.00  0.00     0.066 C 
BRANCH  12  13
ATOM     13  C   UNL     1     -11.727 -18.047  28.319  1.00  0.00     0.140 C 
ATOM     14  O   UNL     1     -10.703 -18.680  28.532  1.00  0.00    -0.299 OA
BRANCH  13  15
ATOM     15  C   UNL     1     -13.037 -18.801  28.243  1.00  0.00     0.106 CG0
ATOM     16  G   UNL     1     -13.067 -19.952  29.235  1.00  0.00     0.000 G0
ENDBRANCH  13  15
ENDBRANCH  12  13
BRANCH  12  17
ATOM     17  C   UNL     1     -11.795 -16.236  26.539  1.00  0.00    -0.006 C 
ATOM     18  C   UNL     1     -11.017 -17.173  25.600  1.00  0.00     0.008 C 
ATOM     19  C   UNL     1     -13.280 -16.209  26.141  1.00  0.00     0.008 C 
ENDBRANCH  12  17
ENDBRANCH  11  12
ENDBRANCH   1  11
TORSDOF 1
ENDMDL
MODEL 9
REMARK VINA RESULT:    -1.454      2.024      2.669
REMARK INTER + INTRA:          -2.062
REMARK INTER:                  -2.809
REMARK INTRA:                   0.747
REMARK UNBOUND:                 0.158
REMARK SMILES CC1=CCC[C@@H](C)C(=O)C[C@H](C(C)C)C(=O)C1
REMARK SMILES IDX 8 1 9 2 6 3 7 4 5 5 4 6 3 7 2 8 1 9 10 11 11 12 15 13 16 14
REMARK SMILES IDX 17 15 12 17 13 18 14 19
REMARK H PARENT
REMARK Flexibility Score: 70.00
ROOT
ATOM      1  C   UNL     1     -13.921 -14.677  29.810  1.00  0.00     0.136 C 
ATOM      2  O   UNL     1     -14.869 -14.230  30.442  1.00  0.00    -0.299 OA
ENDROOT
BRANCH   1   3
ATOM      3  C   UNL     1     -13.720 -14.264  28.370  1.00  0.00     0.053 C 
ATOM      4  C   UNL     1     -14.693 -13.136  28.004  1.00  0.00     0.016 C 
BRANCH   3   5
ATOM      5  C   UNL     1     -13.886 -15.458  27.411  1.00  0.00     0.015 C 
BRANCH   5   6
ATOM      6  C   UNL     1     -12.675 -16.414  27.427  1.00  0.00     0.028 C 
BRANCH   6   7
ATOM      7  C   UNL     1     -13.108 -17.856  27.563  1.00  0.00    -0.028 C 
ATOM      8  C   UNL     1     -12.804 -18.715  28.566  1.00  0.00    -0.070 CG0
ATOM      9  C   UNL     1     -13.308 -20.132  28.438  1.00  0.00     0.039 C 
ATOM     10  G   UNL     1     -12.006 -18.352  29.807  1.00  0.00     0.000 G0
ENDBRANCH   6   7
ENDBRANCH   5   6
ENDBRANCH   3   5
ENDBRANCH   1   3
BRANCH   1  11
ATOM     11  C   UNL     1     -12.908 -15.574  30.483  1.00  0.00     0.087 C 
BRANCH  11  12
ATOM     12  C   UNL     1     -13.545 -16.731  31.293  1.00  0.00     0.066 C 
BRANCH  12  13
ATOM     13  C   UNL     1     -12.943 -18.096  30.991  1.00  0.00     0.140 C 
ATOM     14  O   UNL     1     -13.166 -19.007  31.775  1.00  0.00    -0.299 OA
BRANCH  13  15
ATOM     15  C   UNL     1     -12.014 -18.361  29.825  1.00  0.00     0.106 CG0
ATOM     16  G   UNL     1     -12.796 -18.707  28.569  1.00  0.00     0.000 G0
ENDBRANCH  13  15
ENDBRANCH  12  13
BRANCH  12  17
ATOM     17  C   UNL     1     -13.604 -16.475  32.831  1.00  0.00    -0.006 C 
ATOM     18  C   UNL     1     -13.645 -14.987  33.216  1.00  0.00     0.008 C 
ATOM     19  C   UNL     1     -14.772 -17.221  33.496  1.00  0.00     0.008 C 
ENDBRANCH  12  17
ENDBRANCH  11  12
ENDBRANCH   1  11
TORSDOF 1
ENDMDL
