MODEL 1
REMARK VINA RESULT:    -3.612      0.000      0.000
REMARK INTER + INTRA:          -9.864
REMARK INTER:                  -6.991
REMARK INTRA:                  -2.873
REMARK UNBOUND:                -2.873
REMARK SMILES CCCCCCCCCCCCCCCCCC(=O)[O-]
REMARK SMILES IDX 10 1 11 2 12 3 13 4 14 5 15 6 16 7 17 8 18 9 19 10 20 11
REMARK SMILES IDX 9 12 8 13 7 14 6 15 5 16 4 17 3 18 2 19 1 20
REMARK H PARENT
REMARK Flexibility Score: inf
ROOT
ATOM      1  C   UNL     1      -1.249   3.219  -8.395  1.00  0.00     0.000 C 
ENDROOT
BRANCH   1   2
ATOM      2  C   UNL     1      -0.678   4.648  -8.390  1.00  0.00     0.000 C 
BRANCH   2   3
ATOM      3  C   UNL     1      -1.384   5.573  -9.397  1.00  0.00     0.000 C 
BRANCH   3   4
ATOM      4  C   UNL     1      -2.848   5.914  -9.054  1.00  0.00     0.000 C 
BRANCH   4   5
ATOM      5  C   UNL     1      -3.637   6.617 -10.174  1.00  0.00     0.000 C 
BRANCH   5   6
ATOM      6  C   UNL     1      -5.076   6.091 -10.312  1.00  0.00     0.000 C 
BRANCH   6   7
ATOM      7  C   UNL     1      -5.292   4.767  -9.562  1.00  0.00     0.006 C 
BRANCH   7   8
ATOM      8  C   UNL     1      -6.227   3.808 -10.312  1.00  0.00     0.053 C 
BRANCH   8   9
ATOM      9  C   UNL     1      -6.397   2.537  -9.542  1.00  0.00     0.041 C 
ATOM     10  O   UNL     1      -6.396   2.554  -8.283  1.00  0.00    -0.550 OA
ATOM     11  O   UNL     1      -6.506   1.326 -10.214  1.00  0.00    -0.550 OA
ENDBRANCH   8   9
ENDBRANCH   7   8
ENDBRANCH   6   7
ENDBRANCH   5   6
ENDBRANCH   4   5
ENDBRANCH   3   4
ENDBRANCH   2   3
ENDBRANCH   1   2
BRANCH   1  12
ATOM     12  C   UNL     1      -0.157   2.144  -8.269  1.00  0.00     0.000 C 
BRANCH  12  13
ATOM     13  C   UNL     1       0.139   1.449  -9.609  1.00  0.00    -0.000 C 
BRANCH  13  14
ATOM     14  C   UNL     1       1.298   2.107 -10.381  1.00  0.00    -0.000 C 
BRANCH  14  15
ATOM     15  C   UNL     1       0.897   2.792 -11.703  1.00  0.00    -0.000 C 
BRANCH  15  16
ATOM     16  C   UNL     1      -0.470   2.366 -12.274  1.00  0.00    -0.000 C 
BRANCH  16  17
ATOM     17  C   UNL     1      -1.469   3.517 -12.486  1.00  0.00    -0.000 C 
BRANCH  17  18
ATOM     18  C   UNL     1      -2.827   3.260 -11.809  1.00  0.00    -0.000 C 
BRANCH  18  19
ATOM     19  C   UNL     1      -3.046   1.777 -11.474  1.00  0.00    -0.003 C 
ATOM     20  C   UNL     1      -3.920   1.063 -12.504  1.00  0.00     0.004 C 
ENDBRANCH  18  19
ENDBRANCH  17  18
ENDBRANCH  16  17
ENDBRANCH  15  16
ENDBRANCH  14  15
ENDBRANCH  13  14
ENDBRANCH  12  13
ENDBRANCH   1  12
TORSDOF 16
ENDMDL
MODEL 2
REMARK VINA RESULT:    -3.604      1.344      2.808
REMARK INTER + INTRA:          -9.848
REMARK INTER:                  -7.179
REMARK INTRA:                  -2.669
REMARK UNBOUND:                -2.873
REMARK SMILES CCCCCCCCCCCCCCCCCC(=O)[O-]
REMARK SMILES IDX 10 1 11 2 12 3 13 4 14 5 15 6 16 7 17 8 18 9 19 10 20 11
REMARK SMILES IDX 9 12 8 13 7 14 6 15 5 16 4 17 3 18 2 19 1 20
REMARK H PARENT
REMARK Flexibility Score: inf
ROOT
ATOM      1  C   UNL     1      -1.213   3.206  -7.977  1.00  0.00     0.000 C 
ENDROOT
BRANCH   1   2
ATOM      2  C   UNL     1      -2.249   3.388  -9.100  1.00  0.00     0.000 C 
BRANCH   2   3
ATOM      3  C   UNL     1      -3.285   4.481  -8.782  1.00  0.00     0.000 C 
BRANCH   3   4
ATOM      4  C   UNL     1      -3.484   5.534  -9.892  1.00  0.00     0.000 C 
BRANCH   4   5
ATOM      5  C   UNL     1      -4.951   5.870 -10.220  1.00  0.00     0.000 C 
BRANCH   5   6
ATOM      6  C   UNL     1      -5.828   4.617 -10.383  1.00  0.00     0.000 C 
BRANCH   6   7
ATOM      7  C   UNL     1      -5.443   3.787 -11.618  1.00  0.00     0.006 C 
BRANCH   7   8
ATOM      8  C   UNL     1      -5.092   2.334 -11.268  1.00  0.00     0.053 C 
BRANCH   8   9
ATOM      9  C   UNL     1      -6.049   1.798 -10.250  1.00  0.00     0.041 C 
ATOM     10  O   UNL     1      -5.690   1.665  -9.051  1.00  0.00    -0.550 OA
ATOM     11  O   UNL     1      -7.322   1.397 -10.637  1.00  0.00    -0.550 OA
ENDBRANCH   8   9
ENDBRANCH   7   8
ENDBRANCH   6   7
ENDBRANCH   5   6
ENDBRANCH   4   5
ENDBRANCH   3   4
ENDBRANCH   2   3
ENDBRANCH   1   2
BRANCH   1  12
ATOM     12  C   UNL     1      -0.110   2.201  -8.346  1.00  0.00     0.000 C 
BRANCH  12  13
ATOM     13  C   UNL     1      -0.135   1.823  -9.837  1.00  0.00    -0.000 C 
BRANCH  13  14
ATOM     14  C   UNL     1       1.232   2.005 -10.522  1.00  0.00    -0.000 C 
BRANCH  14  15
ATOM     15  C   UNL     1       1.300   3.150 -11.553  1.00  0.00    -0.000 C 
BRANCH  15  16
ATOM     16  C   UNL     1      -0.064   3.720 -11.991  1.00  0.00    -0.000 C 
BRANCH  16  17
ATOM     17  C   UNL     1      -0.258   5.220 -11.709  1.00  0.00    -0.000 C 
BRANCH  17  18
ATOM     18  C   UNL     1       0.468   5.685 -10.434  1.00  0.00    -0.000 C 
BRANCH  18  19
ATOM     19  C   UNL     1      -0.195   6.915  -9.795  1.00  0.00    -0.003 C 
ATOM     20  C   UNL     1      -0.274   6.817  -8.272  1.00  0.00     0.004 C 
ENDBRANCH  18  19
ENDBRANCH  17  18
ENDBRANCH  16  17
ENDBRANCH  15  16
ENDBRANCH  14  15
ENDBRANCH  13  14
ENDBRANCH  12  13
ENDBRANCH   1  12
TORSDOF 16
ENDMDL
MODEL 3
REMARK VINA RESULT:    -3.585      1.363      1.930
REMARK INTER + INTRA:          -9.811
REMARK INTER:                  -6.929
REMARK INTRA:                  -2.882
REMARK UNBOUND:                -2.873
REMARK SMILES CCCCCCCCCCCCCCCCCC(=O)[O-]
REMARK SMILES IDX 10 1 11 2 12 3 13 4 14 5 15 6 16 7 17 8 18 9 19 10 20 11
REMARK SMILES IDX 9 12 8 13 7 14 6 15 5 16 4 17 3 18 2 19 1 20
REMARK H PARENT
REMARK Flexibility Score: inf
ROOT
ATOM      1  C   UNL     1      -0.385   2.488  -7.870  1.00  0.00     0.000 C 
ENDROOT
BRANCH   1   2
ATOM      2  C   UNL     1      -1.365   3.456  -8.556  1.00  0.00     0.000 C 
BRANCH   2   3
ATOM      3  C   UNL     1      -1.020   4.933  -8.296  1.00  0.00     0.000 C 
BRANCH   3   4
ATOM      4  C   UNL     1      -2.125   5.939  -8.681  1.00  0.00     0.000 C 
BRANCH   4   5
ATOM      5  C   UNL     1      -3.534   5.336  -8.837  1.00  0.00     0.000 C 
BRANCH   5   6
ATOM      6  C   UNL     1      -4.309   5.931 -10.025  1.00  0.00     0.000 C 
BRANCH   6   7
ATOM      7  C   UNL     1      -5.490   5.048 -10.458  1.00  0.00     0.006 C 
BRANCH   7   8
ATOM      8  C   UNL     1      -5.114   3.563 -10.554  1.00  0.00     0.053 C 
BRANCH   8   9
ATOM      9  C   UNL     1      -5.967   2.749  -9.633  1.00  0.00     0.041 C 
ATOM     10  O   UNL     1      -5.947   1.491  -9.698  1.00  0.00    -0.550 OA
ATOM     11  O   UNL     1      -6.821   3.380  -8.738  1.00  0.00    -0.550 OA
ENDBRANCH   8   9
ENDBRANCH   7   8
ENDBRANCH   6   7
ENDBRANCH   5   6
ENDBRANCH   4   5
ENDBRANCH   3   4
ENDBRANCH   2   3
ENDBRANCH   1   2
BRANCH   1  12
ATOM     12  C   UNL     1       0.269   1.508  -8.858  1.00  0.00     0.000 C 
BRANCH  12  13
ATOM     13  C   UNL     1      -0.473   1.449 -10.204  1.00  0.00    -0.000 C 
BRANCH  13  14
ATOM     14  C   UNL     1       0.479   1.315 -11.407  1.00  0.00    -0.000 C 
BRANCH  14  15
ATOM     15  C   UNL     1       1.613   2.360 -11.463  1.00  0.00    -0.000 C 
BRANCH  15  16
ATOM     16  C   UNL     1       1.290   3.635 -12.268  1.00  0.00    -0.000 C 
BRANCH  16  17
ATOM     17  C   UNL     1       0.810   4.828 -11.423  1.00  0.00    -0.000 C 
BRANCH  17  18
ATOM     18  C   UNL     1      -0.521   5.416 -11.924  1.00  0.00    -0.000 C 
BRANCH  18  19
ATOM     19  C   UNL     1      -1.603   4.342 -12.119  1.00  0.00    -0.003 C 
ATOM     20  C   UNL     1      -2.611   4.711 -13.206  1.00  0.00     0.004 C 
ENDBRANCH  18  19
ENDBRANCH  17  18
ENDBRANCH  16  17
ENDBRANCH  15  16
ENDBRANCH  14  15
ENDBRANCH  13  14
ENDBRANCH  12  13
ENDBRANCH   1  12
TORSDOF 16
ENDMDL
MODEL 4
REMARK VINA RESULT:    -3.582      1.084      3.694
REMARK INTER + INTRA:          -9.805
REMARK INTER:                  -6.673
REMARK INTRA:                  -3.132
REMARK UNBOUND:                -2.873
REMARK SMILES CCCCCCCCCCCCCCCCCC(=O)[O-]
REMARK SMILES IDX 10 1 11 2 12 3 13 4 14 5 15 6 16 7 17 8 18 9 19 10 20 11
REMARK SMILES IDX 9 12 8 13 7 14 6 15 5 16 4 17 3 18 2 19 1 20
REMARK H PARENT
REMARK Flexibility Score: inf
ROOT
ATOM      1  C   UNL     1       0.694   2.649 -10.566  1.00  0.00     0.000 C 
ENDROOT
BRANCH   1   2
ATOM      2  C   UNL     1      -0.021   2.833 -11.916  1.00  0.00     0.000 C 
BRANCH   2   3
ATOM      3  C   UNL     1      -0.982   4.035 -11.920  1.00  0.00     0.000 C 
BRANCH   3   4
ATOM      4  C   UNL     1      -2.451   3.695 -12.244  1.00  0.00     0.000 C 
BRANCH   4   5
ATOM      5  C   UNL     1      -2.762   2.193 -12.381  1.00  0.00     0.000 C 
BRANCH   5   6
ATOM      6  C   UNL     1      -3.489   1.620 -11.152  1.00  0.00     0.000 C 
BRANCH   6   7
ATOM      7  C   UNL     1      -4.697   2.473 -10.733  1.00  0.00     0.006 C 
BRANCH   7   8
ATOM      8  C   UNL     1      -5.372   1.954  -9.457  1.00  0.00     0.053 C 
BRANCH   8   9
ATOM      9  C   UNL     1      -6.491   2.862  -9.053  1.00  0.00     0.041 C 
ATOM     10  O   UNL     1      -6.450   3.464  -7.947  1.00  0.00    -0.550 OA
ATOM     11  O   UNL     1      -7.602   3.005  -9.875  1.00  0.00    -0.550 OA
ENDBRANCH   8   9
ENDBRANCH   7   8
ENDBRANCH   6   7
ENDBRANCH   5   6
ENDBRANCH   4   5
ENDBRANCH   3   4
ENDBRANCH   2   3
ENDBRANCH   1   2
BRANCH   1  12
ATOM     12  C   UNL     1      -0.162   1.887  -9.541  1.00  0.00     0.000 C 
BRANCH  12  13
ATOM     13  C   UNL     1      -0.507   2.744  -8.311  1.00  0.00    -0.000 C 
BRANCH  13  14
ATOM     14  C   UNL     1      -1.920   3.351  -8.382  1.00  0.00    -0.000 C 
BRANCH  14  15
ATOM     15  C   UNL     1      -1.966   4.882  -8.560  1.00  0.00    -0.000 C 
BRANCH  15  16
ATOM     16  C   UNL     1      -3.285   5.437  -9.133  1.00  0.00    -0.000 C 
BRANCH  16  17
ATOM     17  C   UNL     1      -3.124   6.644 -10.073  1.00  0.00    -0.000 C 
BRANCH  17  18
ATOM     18  C   UNL     1      -4.466   7.144 -10.637  1.00  0.00    -0.000 C 
BRANCH  18  19
ATOM     19  C   UNL     1      -5.544   6.049 -10.650  1.00  0.00    -0.003 C 
ATOM     20  C   UNL     1      -5.878   5.568 -12.061  1.00  0.00     0.004 C 
ENDBRANCH  18  19
ENDBRANCH  17  18
ENDBRANCH  16  17
ENDBRANCH  15  16
ENDBRANCH  14  15
ENDBRANCH  13  14
ENDBRANCH  12  13
ENDBRANCH   1  12
TORSDOF 16
ENDMDL
MODEL 5
REMARK VINA RESULT:    -3.565      1.302      4.185
REMARK INTER + INTRA:          -9.773
REMARK INTER:                  -7.179
REMARK INTRA:                  -2.594
REMARK UNBOUND:                -2.873
REMARK SMILES CCCCCCCCCCCCCCCCCC(=O)[O-]
REMARK SMILES IDX 10 1 11 2 12 3 13 4 14 5 15 6 16 7 17 8 18 9 19 10 20 11
REMARK SMILES IDX 9 12 8 13 7 14 6 15 5 16 4 17 3 18 2 19 1 20
REMARK H PARENT
REMARK Flexibility Score: inf
ROOT
ATOM      1  C   UNL     1       0.274   1.359  -8.896  1.00  0.00     0.000 C 
ENDROOT
BRANCH   1   2
ATOM      2  C   UNL     1       0.979   2.200  -9.974  1.00  0.00     0.000 C 
BRANCH   2   3
ATOM      3  C   UNL     1       0.730   1.670 -11.398  1.00  0.00     0.000 C 
BRANCH   3   4
ATOM      4  C   UNL     1      -0.649   1.014 -11.617  1.00  0.00     0.000 C 
BRANCH   4   5
ATOM      5  C   UNL     1      -1.530   1.684 -12.688  1.00  0.00     0.000 C 
BRANCH   5   6
ATOM      6  C   UNL     1      -2.653   2.544 -12.084  1.00  0.00     0.000 C 
BRANCH   6   7
ATOM      7  C   UNL     1      -3.845   1.701 -11.602  1.00  0.00     0.006 C 
BRANCH   7   8
ATOM      8  C   UNL     1      -5.023   2.562 -11.125  1.00  0.00     0.053 C 
BRANCH   8   9
ATOM      9  C   UNL     1      -5.945   1.753 -10.268  1.00  0.00     0.041 C 
ATOM     10  O   UNL     1      -6.897   1.115 -10.788  1.00  0.00    -0.550 OA
ATOM     11  O   UNL     1      -5.783   1.745  -8.888  1.00  0.00    -0.550 OA
ENDBRANCH   8   9
ENDBRANCH   7   8
ENDBRANCH   6   7
ENDBRANCH   5   6
ENDBRANCH   4   5
ENDBRANCH   3   4
ENDBRANCH   2   3
ENDBRANCH   1   2
BRANCH   1  12
ATOM     12  C   UNL     1      -0.282   2.216  -7.747  1.00  0.00     0.000 C 
BRANCH  12  13
ATOM     13  C   UNL     1      -0.921   3.524  -8.246  1.00  0.00    -0.000 C 
BRANCH  13  14
ATOM     14  C   UNL     1      -2.422   3.376  -8.555  1.00  0.00    -0.000 C 
BRANCH  14  15
ATOM     15  C   UNL     1      -3.151   4.690  -8.902  1.00  0.00    -0.000 C 
BRANCH  15  16
ATOM     16  C   UNL     1      -2.308   5.970  -8.740  1.00  0.00    -0.000 C 
BRANCH  16  17
ATOM     17  C   UNL     1      -2.463   6.995  -9.878  1.00  0.00    -0.000 C 
BRANCH  17  18
ATOM     18  C   UNL     1      -1.124   7.347 -10.549  1.00  0.00    -0.000 C 
BRANCH  18  19
ATOM     19  C   UNL     1      -0.118   6.187 -10.501  1.00  0.00    -0.003 C 
ATOM     20  C   UNL     1      -0.193   5.292 -11.737  1.00  0.00     0.004 C 
ENDBRANCH  18  19
ENDBRANCH  17  18
ENDBRANCH  16  17
ENDBRANCH  15  16
ENDBRANCH  14  15
ENDBRANCH  13  14
ENDBRANCH  12  13
ENDBRANCH   1  12
TORSDOF 16
ENDMDL
MODEL 6
REMARK VINA RESULT:    -3.555      1.422      2.328
REMARK INTER + INTRA:          -9.754
REMARK INTER:                  -6.386
REMARK INTRA:                  -3.367
REMARK UNBOUND:                -2.873
REMARK SMILES CCCCCCCCCCCCCCCCCC(=O)[O-]
REMARK SMILES IDX 10 1 11 2 12 3 13 4 14 5 15 6 16 7 17 8 18 9 19 10 20 11
REMARK SMILES IDX 9 12 8 13 7 14 6 15 5 16 4 17 3 18 2 19 1 20
REMARK H PARENT
REMARK Flexibility Score: inf
ROOT
ATOM      1  C   UNL     1      -1.104   3.746  -8.164  1.00  0.00     0.000 C 
ENDROOT
BRANCH   1   2
ATOM      2  C   UNL     1      -0.403   4.892  -8.914  1.00  0.00     0.000 C 
BRANCH   2   3
ATOM      3  C   UNL     1      -1.358   6.049  -9.257  1.00  0.00     0.000 C 
BRANCH   3   4
ATOM      4  C   UNL     1      -2.833   5.814  -8.871  1.00  0.00     0.000 C 
BRANCH   4   5
ATOM      5  C   UNL     1      -3.850   6.025 -10.008  1.00  0.00     0.000 C 
BRANCH   5   6
ATOM      6  C   UNL     1      -4.907   4.909 -10.078  1.00  0.00     0.000 C 
BRANCH   6   7
ATOM      7  C   UNL     1      -4.775   3.901  -8.925  1.00  0.00     0.006 C 
BRANCH   7   8
ATOM      8  C   UNL     1      -4.317   2.516  -9.401  1.00  0.00     0.053 C 
BRANCH   8   9
ATOM      9  C   UNL     1      -5.327   1.926 -10.335  1.00  0.00     0.041 C 
ATOM     10  O   UNL     1      -6.456   1.569  -9.904  1.00  0.00    -0.550 OA
ATOM     11  O   UNL     1      -5.004   1.723 -11.670  1.00  0.00    -0.550 OA
ENDBRANCH   8   9
ENDBRANCH   7   8
ENDBRANCH   6   7
ENDBRANCH   5   6
ENDBRANCH   4   5
ENDBRANCH   3   4
ENDBRANCH   2   3
ENDBRANCH   1   2
BRANCH   1  12
ATOM     12  C   UNL     1      -0.492   2.371  -8.480  1.00  0.00     0.000 C 
BRANCH  12  13
ATOM     13  C   UNL     1       0.555   2.439  -9.605  1.00  0.00    -0.000 C 
BRANCH  13  14
ATOM     14  C   UNL     1       0.260   1.460 -10.756  1.00  0.00    -0.000 C 
BRANCH  14  15
ATOM     15  C   UNL     1      -1.224   1.359 -11.165  1.00  0.00    -0.000 C 
BRANCH  15  16
ATOM     16  C   UNL     1      -1.629   2.214 -12.382  1.00  0.00    -0.000 C 
BRANCH  16  17
ATOM     17  C   UNL     1      -1.967   3.680 -12.058  1.00  0.00    -0.000 C 
BRANCH  17  18
ATOM     18  C   UNL     1      -1.167   4.679 -12.913  1.00  0.00    -0.000 C 
BRANCH  18  19
ATOM     19  C   UNL     1       0.302   4.785 -12.475  1.00  0.00    -0.003 C 
ATOM     20  C   UNL     1       0.760   6.231 -12.293  1.00  0.00     0.004 C 
ENDBRANCH  18  19
ENDBRANCH  17  18
ENDBRANCH  16  17
ENDBRANCH  15  16
ENDBRANCH  14  15
ENDBRANCH  13  14
ENDBRANCH  12  13
ENDBRANCH   1  12
TORSDOF 16
ENDMDL
MODEL 7
REMARK VINA RESULT:    -3.543      1.433      2.952
REMARK INTER + INTRA:          -9.731
REMARK INTER:                  -6.832
REMARK INTRA:                  -2.899
REMARK UNBOUND:                -2.873
REMARK SMILES CCCCCCCCCCCCCCCCCC(=O)[O-]
REMARK SMILES IDX 10 1 11 2 12 3 13 4 14 5 15 6 16 7 17 8 18 9 19 10 20 11
REMARK SMILES IDX 9 12 8 13 7 14 6 15 5 16 4 17 3 18 2 19 1 20
REMARK H PARENT
REMARK Flexibility Score: inf
ROOT
ATOM      1  C   UNL     1      -1.966   6.594  -8.816  1.00  0.00     0.000 C 
ENDROOT
BRANCH   1   2
ATOM      2  C   UNL     1      -2.097   5.130  -8.360  1.00  0.00     0.000 C 
BRANCH   2   3
ATOM      3  C   UNL     1      -3.388   4.464  -8.868  1.00  0.00     0.000 C 
BRANCH   3   4
ATOM      4  C   UNL     1      -4.311   5.378  -9.699  1.00  0.00     0.000 C 
BRANCH   4   5
ATOM      5  C   UNL     1      -4.338   5.082 -11.210  1.00  0.00     0.000 C 
BRANCH   5   6
ATOM      6  C   UNL     1      -5.383   4.020 -11.592  1.00  0.00     0.000 C 
BRANCH   6   7
ATOM      7  C   UNL     1      -6.736   4.251 -10.900  1.00  0.00     0.006 C 
BRANCH   7   8
ATOM      8  C   UNL     1      -7.300   2.974 -10.262  1.00  0.00     0.053 C 
BRANCH   8   9
ATOM      9  C   UNL     1      -6.503   2.600  -9.052  1.00  0.00     0.041 C 
ATOM     10  O   UNL     1      -5.729   1.607  -9.085  1.00  0.00    -0.550 OA
ATOM     11  O   UNL     1      -6.652   3.319  -7.872  1.00  0.00    -0.550 OA
ENDBRANCH   8   9
ENDBRANCH   7   8
ENDBRANCH   6   7
ENDBRANCH   5   6
ENDBRANCH   4   5
ENDBRANCH   3   4
ENDBRANCH   2   3
ENDBRANCH   1   2
BRANCH   1  12
ATOM     12  C   UNL     1      -0.751   6.823  -9.731  1.00  0.00     0.000 C 
BRANCH  12  13
ATOM     13  C   UNL     1       0.220   5.631  -9.725  1.00  0.00    -0.000 C 
BRANCH  13  14
ATOM     14  C   UNL     1       0.445   5.036 -11.128  1.00  0.00    -0.000 C 
BRANCH  14  15
ATOM     15  C   UNL     1      -0.837   4.807 -11.955  1.00  0.00    -0.000 C 
BRANCH  15  16
ATOM     16  C   UNL     1      -1.181   3.331 -12.237  1.00  0.00    -0.000 C 
BRANCH  16  17
ATOM     17  C   UNL     1      -1.384   2.464 -10.982  1.00  0.00    -0.000 C 
BRANCH  17  18
ATOM     18  C   UNL     1      -0.308   1.374 -10.830  1.00  0.00    -0.000 C 
BRANCH  18  19
ATOM     19  C   UNL     1       0.633   1.636  -9.645  1.00  0.00    -0.003 C 
ATOM     20  C   UNL     1      -0.109   2.114  -8.398  1.00  0.00     0.004 C 
ENDBRANCH  18  19
ENDBRANCH  17  18
ENDBRANCH  16  17
ENDBRANCH  15  16
ENDBRANCH  14  15
ENDBRANCH  13  14
ENDBRANCH  12  13
ENDBRANCH   1  12
TORSDOF 16
ENDMDL
MODEL 8
REMARK VINA RESULT:    -3.521      1.532      3.382
REMARK INTER + INTRA:          -9.688
REMARK INTER:                  -6.942
REMARK INTRA:                  -2.746
REMARK UNBOUND:                -2.873
REMARK SMILES CCCCCCCCCCCCCCCCCC(=O)[O-]
REMARK SMILES IDX 10 1 11 2 12 3 13 4 14 5 15 6 16 7 17 8 18 9 19 10 20 11
REMARK SMILES IDX 9 12 8 13 7 14 6 15 5 16 4 17 3 18 2 19 1 20
REMARK H PARENT
REMARK Flexibility Score: inf
ROOT
ATOM      1  C   UNL     1       0.552   2.004  -9.732  1.00  0.00     0.000 C 
ENDROOT
BRANCH   1   2
ATOM      2  C   UNL     1      -0.040   1.825  -8.323  1.00  0.00     0.000 C 
BRANCH   2   3
ATOM      3  C   UNL     1      -0.872   3.038  -7.870  1.00  0.00     0.000 C 
BRANCH   3   4
ATOM      4  C   UNL     1      -0.629   4.332  -8.674  1.00  0.00     0.000 C 
BRANCH   4   5
ATOM      5  C   UNL     1      -1.818   4.804  -9.531  1.00  0.00     0.000 C 
BRANCH   5   6
ATOM      6  C   UNL     1      -3.153   4.775  -8.767  1.00  0.00     0.000 C 
BRANCH   6   7
ATOM      7  C   UNL     1      -4.272   4.084  -9.564  1.00  0.00     0.006 C 
BRANCH   7   8
ATOM      8  C   UNL     1      -4.254   2.557  -9.404  1.00  0.00     0.053 C 
BRANCH   8   9
ATOM      9  C   UNL     1      -5.628   2.050  -9.094  1.00  0.00     0.041 C 
ATOM     10  O   UNL     1      -6.072   2.104  -7.917  1.00  0.00    -0.550 OA
ATOM     11  O   UNL     1      -6.397   1.472 -10.096  1.00  0.00    -0.550 OA
ENDBRANCH   8   9
ENDBRANCH   7   8
ENDBRANCH   6   7
ENDBRANCH   5   6
ENDBRANCH   4   5
ENDBRANCH   3   4
ENDBRANCH   2   3
ENDBRANCH   1   2
BRANCH   1  12
ATOM     12  C   UNL     1      -0.084   1.059 -10.765  1.00  0.00     0.000 C 
BRANCH  12  13
ATOM     13  C   UNL     1      -1.206   1.738 -11.569  1.00  0.00    -0.000 C 
BRANCH  13  14
ATOM     14  C   UNL     1      -0.707   2.356 -12.888  1.00  0.00    -0.000 C 
BRANCH  14  15
ATOM     15  C   UNL     1      -0.457   3.877 -12.844  1.00  0.00    -0.000 C 
BRANCH  15  16
ATOM     16  C   UNL     1       0.997   4.295 -12.547  1.00  0.00    -0.000 C 
BRANCH  16  17
ATOM     17  C   UNL     1       2.071   3.375 -13.154  1.00  0.00    -0.000 C 
BRANCH  17  18
ATOM     18  C   UNL     1       3.206   3.051 -12.167  1.00  0.00    -0.000 C 
BRANCH  18  19
ATOM     19  C   UNL     1       3.629   1.575 -12.220  1.00  0.00    -0.003 C 
ATOM     20  C   UNL     1       2.730   0.737 -13.127  1.00  0.00     0.004 C 
ENDBRANCH  18  19
ENDBRANCH  17  18
ENDBRANCH  16  17
ENDBRANCH  15  16
ENDBRANCH  14  15
ENDBRANCH  13  14
ENDBRANCH  12  13
ENDBRANCH   1  12
TORSDOF 16
ENDMDL
MODEL 9
REMARK VINA RESULT:    -3.490      1.592      4.457
REMARK INTER + INTRA:          -9.627
REMARK INTER:                  -6.815
REMARK INTRA:                  -2.812
REMARK UNBOUND:                -2.873
REMARK SMILES CCCCCCCCCCCCCCCCCC(=O)[O-]
REMARK SMILES IDX 10 1 11 2 12 3 13 4 14 5 15 6 16 7 17 8 18 9 19 10 20 11
REMARK SMILES IDX 9 12 8 13 7 14 6 15 5 16 4 17 3 18 2 19 1 20
REMARK H PARENT
REMARK Flexibility Score: inf
ROOT
ATOM      1  C   UNL     1      -0.974   3.135  -8.088  1.00  0.00     0.000 C 
ENDROOT
BRANCH   1   2
ATOM      2  C   UNL     1       0.053   2.941  -9.217  1.00  0.00     0.000 C 
BRANCH   2   3
ATOM      3  C   UNL     1       0.090   1.495  -9.745  1.00  0.00     0.000 C 
BRANCH   3   4
ATOM      4  C   UNL     1       0.033   1.359 -11.280  1.00  0.00     0.000 C 
BRANCH   4   5
ATOM      5  C   UNL     1      -1.288   0.801 -11.840  1.00  0.00     0.000 C 
BRANCH   5   6
ATOM      6  C   UNL     1      -2.400   1.862 -11.917  1.00  0.00     0.000 C 
BRANCH   6   7
ATOM      7  C   UNL     1      -3.788   1.284 -11.596  1.00  0.00     0.006 C 
BRANCH   7   8
ATOM      8  C   UNL     1      -4.778   2.355 -11.119  1.00  0.00     0.053 C 
BRANCH   8   9
ATOM      9  C   UNL     1      -5.818   1.745 -10.233  1.00  0.00     0.041 C 
ATOM     10  O   UNL     1      -6.893   1.310 -10.725  1.00  0.00    -0.550 OA
ATOM     11  O   UNL     1      -5.623   1.703  -8.858  1.00  0.00    -0.550 OA
ENDBRANCH   8   9
ENDBRANCH   7   8
ENDBRANCH   6   7
ENDBRANCH   5   6
ENDBRANCH   4   5
ENDBRANCH   3   4
ENDBRANCH   2   3
ENDBRANCH   1   2
BRANCH   1  12
ATOM     12  C   UNL     1      -2.385   3.442  -8.617  1.00  0.00     0.000 C 
BRANCH  12  13
ATOM     13  C   UNL     1      -2.414   4.683  -9.525  1.00  0.00    -0.000 C 
BRANCH  13  14
ATOM     14  C   UNL     1      -2.675   5.987  -8.748  1.00  0.00    -0.000 C 
BRANCH  14  15
ATOM     15  C   UNL     1      -1.640   7.106  -8.982  1.00  0.00    -0.000 C 
BRANCH  15  16
ATOM     16  C   UNL     1      -0.261   6.871  -8.334  1.00  0.00    -0.000 C 
BRANCH  16  17
ATOM     17  C   UNL     1       0.924   6.883  -9.315  1.00  0.00    -0.000 C 
BRANCH  17  18
ATOM     18  C   UNL     1       0.480   6.804 -10.787  1.00  0.00    -0.000 C 
BRANCH  18  19
ATOM     19  C   UNL     1       0.807   5.448 -11.429  1.00  0.00    -0.003 C 
ATOM     20  C   UNL     1      -0.224   5.026 -12.474  1.00  0.00     0.004 C 
ENDBRANCH  18  19
ENDBRANCH  17  18
ENDBRANCH  16  17
ENDBRANCH  15  16
ENDBRANCH  14  15
ENDBRANCH  13  14
ENDBRANCH  12  13
ENDBRANCH   1  12
TORSDOF 16
ENDMDL
