MODEL 1
REMARK VINA RESULT:     0.000      0.000      0.000
REMARK INTER + INTRA:          -3.368
REMARK INTER:                   0.000
REMARK INTRA:                  -3.368
REMARK UNBOUND:                -3.368
REMARK SMILES CCCCCCCCCCCCCC[C@@H](C)C(=O)[O-]
REMARK SMILES IDX 9 1 10 2 11 3 12 4 13 5 14 6 15 7 16 8 17 9 18 10 19 11 8 12
REMARK SMILES IDX 7 13 6 14 5 15 4 16 3 17 2 18 1 19
REMARK H PARENT
REMARK Flexibility Score: inf
ROOT
ATOM      1  C   UNL     1     171.869 187.993 195.844  1.00  0.00     0.000 C 
ENDROOT
BRANCH   1   2
ATOM      2  C   UNL     1     170.614 188.809 196.192  1.00  0.00     0.000 C 
BRANCH   2   3
ATOM      3  C   UNL     1     169.712 188.033 197.161  1.00  0.00     0.000 C 
BRANCH   3   4
ATOM      4  C   UNL     1     168.228 188.208 196.803  1.00  0.00     0.000 C 
BRANCH   4   5
ATOM      5  C   UNL     1     168.026 189.264 195.704  1.00  0.00     0.001 C 
BRANCH   5   6
ATOM      6  C   UNL     1     166.940 188.846 194.691  1.00  0.00     0.009 C 
BRANCH   6   7
ATOM      7  C   UNL     1     166.843 189.771 193.457  1.00  0.00     0.032 C 
ATOM      8  C   UNL     1     168.056 190.705 193.316  1.00  0.00     0.014 C 
BRANCH   7   9
ATOM      9  C   UNL     1     166.580 188.977 192.202  1.00  0.00     0.044 C 
ATOM     10  O   UNL     1     166.654 189.514 191.063  1.00  0.00    -0.550 OA
ATOM     11  O   UNL     1     166.320 187.612 192.299  1.00  0.00    -0.550 OA
ENDBRANCH   7   9
ENDBRANCH   6   7
ENDBRANCH   5   6
ENDBRANCH   4   5
ENDBRANCH   3   4
ENDBRANCH   2   3
ENDBRANCH   1   2
BRANCH   1  12
ATOM     12  C   UNL     1     171.926 187.585 194.365  1.00  0.00     0.000 C 
BRANCH  12  13
ATOM     13  C   UNL     1     170.901 188.346 193.503  1.00  0.00    -0.000 C 
BRANCH  13  14
ATOM     14  C   UNL     1     169.897 187.409 192.813  1.00  0.00    -0.000 C 
BRANCH  14  15
ATOM     15  C   UNL     1     169.945 185.977 193.368  1.00  0.00    -0.000 C 
BRANCH  15  16
ATOM     16  C   UNL     1     168.647 185.637 194.114  1.00  0.00    -0.000 C 
BRANCH  16  17
ATOM     17  C   UNL     1     168.938 184.843 195.397  1.00  0.00    -0.000 C 
BRANCH  17  18
ATOM     18  C   UNL     1     170.410 184.418 195.507  1.00  0.00    -0.003 C 
ATOM     19  C   UNL     1     170.956 184.533 196.930  1.00  0.00     0.004 C 
ENDBRANCH  17  18
ENDBRANCH  16  17
ENDBRANCH  15  16
ENDBRANCH  14  15
ENDBRANCH  13  14
ENDBRANCH  12  13
ENDBRANCH   1  12
TORSDOF 14
ENDMDL
MODEL 2
REMARK VINA RESULT:     0.007      9.568     11.901
REMARK INTER + INTRA:          -3.356
REMARK INTER:                   0.000
REMARK INTRA:                  -3.356
REMARK UNBOUND:                -3.368
REMARK SMILES CCCCCCCCCCCCCC[C@@H](C)C(=O)[O-]
REMARK SMILES IDX 9 1 10 2 11 3 12 4 13 5 14 6 15 7 16 8 17 9 18 10 19 11 8 12
REMARK SMILES IDX 7 13 6 14 5 15 4 16 3 17 2 18 1 19
REMARK H PARENT
REMARK Flexibility Score: inf
ROOT
ATOM      1  C   UNL     1     179.731 185.992 194.570  1.00  0.00     0.000 C 
ENDROOT
BRANCH   1   2
ATOM      2  C   UNL     1     181.243 186.252 194.643  1.00  0.00     0.000 C 
BRANCH   2   3
ATOM      3  C   UNL     1     181.536 187.558 195.392  1.00  0.00     0.000 C 
BRANCH   3   4
ATOM      4  C   UNL     1     182.447 188.482 194.568  1.00  0.00     0.000 C 
BRANCH   4   5
ATOM      5  C   UNL     1     181.860 189.898 194.440  1.00  0.00     0.001 C 
BRANCH   5   6
ATOM      6  C   UNL     1     180.861 190.216 195.571  1.00  0.00     0.009 C 
BRANCH   6   7
ATOM      7  C   UNL     1     179.561 190.898 195.088  1.00  0.00     0.032 C 
ATOM      8  C   UNL     1     178.477 190.950 196.178  1.00  0.00     0.014 C 
BRANCH   7   9
ATOM      9  C   UNL     1     179.845 192.255 194.496  1.00  0.00     0.044 C 
ATOM     10  O   UNL     1     180.418 193.154 195.169  1.00  0.00    -0.550 OA
ATOM     11  O   UNL     1     179.533 192.495 193.160  1.00  0.00    -0.550 OA
ENDBRANCH   7   9
ENDBRANCH   6   7
ENDBRANCH   5   6
ENDBRANCH   4   5
ENDBRANCH   3   4
ENDBRANCH   2   3
ENDBRANCH   1   2
BRANCH   1  12
ATOM     12  C   UNL     1     178.908 187.029 195.350  1.00  0.00     0.000 C 
BRANCH  12  13
ATOM     13  C   UNL     1     177.788 187.654 194.498  1.00  0.00    -0.000 C 
BRANCH  13  14
ATOM     14  C   UNL     1     178.099 187.619 192.993  1.00  0.00    -0.000 C 
BRANCH  14  15
ATOM     15  C   UNL     1     178.189 189.023 192.374  1.00  0.00    -0.000 C 
BRANCH  15  16
ATOM     16  C   UNL     1     179.547 189.231 191.688  1.00  0.00    -0.000 C 
BRANCH  16  17
ATOM     17  C   UNL     1     180.238 187.886 191.411  1.00  0.00    -0.000 C 
BRANCH  17  18
ATOM     18  C   UNL     1     181.705 188.054 190.985  1.00  0.00    -0.003 C 
ATOM     19  C   UNL     1     182.531 186.784 191.189  1.00  0.00     0.004 C 
ENDBRANCH  17  18
ENDBRANCH  16  17
ENDBRANCH  15  16
ENDBRANCH  14  15
ENDBRANCH  13  14
ENDBRANCH  12  13
ENDBRANCH   1  12
TORSDOF 14
ENDMDL
MODEL 3
REMARK VINA RESULT:     0.017      8.962     10.694
REMARK INTER + INTRA:          -3.336
REMARK INTER:                   0.000
REMARK INTRA:                  -3.336
REMARK UNBOUND:                -3.368
REMARK SMILES CCCCCCCCCCCCCC[C@@H](C)C(=O)[O-]
REMARK SMILES IDX 9 1 10 2 11 3 12 4 13 5 14 6 15 7 16 8 17 9 18 10 19 11 8 12
REMARK SMILES IDX 7 13 6 14 5 15 4 16 3 17 2 18 1 19
REMARK H PARENT
REMARK Flexibility Score: inf
ROOT
ATOM      1  C   UNL     1     178.146 191.402 193.129  1.00  0.00     0.000 C 
ENDROOT
BRANCH   1   2
ATOM      2  C   UNL     1     177.006 192.153 192.426  1.00  0.00     0.000 C 
BRANCH   2   3
ATOM      3  C   UNL     1     175.832 191.210 192.133  1.00  0.00     0.000 C 
BRANCH   3   4
ATOM      4  C   UNL     1     175.334 191.370 190.688  1.00  0.00     0.000 C 
BRANCH   4   5
ATOM      5  C   UNL     1     175.598 192.785 190.146  1.00  0.00     0.001 C 
BRANCH   5   6
ATOM      6  C   UNL     1     176.124 192.762 188.696  1.00  0.00     0.009 C 
BRANCH   6   7
ATOM      7  C   UNL     1     177.029 193.961 188.337  1.00  0.00     0.032 C 
ATOM      8  C   UNL     1     177.362 194.841 189.554  1.00  0.00     0.014 C 
BRANCH   7   9
ATOM      9  C   UNL     1     178.265 193.509 187.601  1.00  0.00     0.044 C 
ATOM     10  O   UNL     1     178.199 192.647 186.683  1.00  0.00    -0.550 OA
ATOM     11  O   UNL     1     179.489 194.105 187.892  1.00  0.00    -0.550 OA
ENDBRANCH   7   9
ENDBRANCH   6   7
ENDBRANCH   5   6
ENDBRANCH   4   5
ENDBRANCH   3   4
ENDBRANCH   2   3
ENDBRANCH   1   2
BRANCH   1  12
ATOM     12  C   UNL     1     179.472 191.469 192.357  1.00  0.00     0.000 C 
BRANCH  12  13
ATOM     13  C   UNL     1     179.294 192.002 190.924  1.00  0.00    -0.000 C 
BRANCH  13  14
ATOM     14  C   UNL     1     179.733 190.987 189.856  1.00  0.00    -0.000 C 
BRANCH  14  15
ATOM     15  C   UNL     1     178.564 190.141 189.327  1.00  0.00    -0.000 C 
BRANCH  15  16
ATOM     16  C   UNL     1     178.666 188.694 189.829  1.00  0.00    -0.000 C 
BRANCH  16  17
ATOM     17  C   UNL     1     177.372 188.260 190.535  1.00  0.00    -0.000 C 
BRANCH  17  18
ATOM     18  C   UNL     1     177.596 187.911 192.014  1.00  0.00    -0.003 C 
ATOM     19  C   UNL     1     179.075 187.760 192.369  1.00  0.00     0.004 C 
ENDBRANCH  17  18
ENDBRANCH  16  17
ENDBRANCH  15  16
ENDBRANCH  14  15
ENDBRANCH  13  14
ENDBRANCH  12  13
ENDBRANCH   1  12
TORSDOF 14
ENDMDL
MODEL 4
REMARK VINA RESULT:     0.022     13.245     15.335
REMARK INTER + INTRA:          -3.328
REMARK INTER:                   0.000
REMARK INTRA:                  -3.328
REMARK UNBOUND:                -3.368
REMARK SMILES CCCCCCCCCCCCCC[C@@H](C)C(=O)[O-]
REMARK SMILES IDX 9 1 10 2 11 3 12 4 13 5 14 6 15 7 16 8 17 9 18 10 19 11 8 12
REMARK SMILES IDX 7 13 6 14 5 15 4 16 3 17 2 18 1 19
REMARK H PARENT
REMARK Flexibility Score: inf
ROOT
ATOM      1  C   UNL     1     180.089 190.416 203.299  1.00  0.00     0.000 C 
ENDROOT
BRANCH   1   2
ATOM      2  C   UNL     1     179.405 190.907 202.015  1.00  0.00     0.000 C 
BRANCH   2   3
ATOM      3  C   UNL     1     180.351 190.785 200.813  1.00  0.00     0.000 C 
BRANCH   3   4
ATOM      4  C   UNL     1     180.340 192.064 199.961  1.00  0.00     0.000 C 
BRANCH   4   5
ATOM      5  C   UNL     1     179.038 192.862 200.145  1.00  0.00     0.001 C 
BRANCH   5   6
ATOM      6  C   UNL     1     179.300 194.375 200.292  1.00  0.00     0.009 C 
BRANCH   6   7
ATOM      7  C   UNL     1     178.245 195.116 201.144  1.00  0.00     0.032 C 
ATOM      8  C   UNL     1     177.237 194.161 201.805  1.00  0.00     0.014 C 
BRANCH   7   9
ATOM      9  C   UNL     1     178.901 196.039 202.140  1.00  0.00     0.044 C 
ATOM     10  O   UNL     1     178.494 196.108 203.332  1.00  0.00    -0.550 OA
ATOM     11  O   UNL     1     180.019 196.774 201.756  1.00  0.00    -0.550 OA
ENDBRANCH   7   9
ENDBRANCH   6   7
ENDBRANCH   5   6
ENDBRANCH   4   5
ENDBRANCH   3   4
ENDBRANCH   2   3
ENDBRANCH   1   2
BRANCH   1  12
ATOM     12  C   UNL     1     180.083 191.466 204.420  1.00  0.00     0.000 C 
BRANCH  12  13
ATOM     13  C   UNL     1     179.986 192.904 203.879  1.00  0.00    -0.000 C 
BRANCH  13  14
ATOM     14  C   UNL     1     181.300 193.686 204.038  1.00  0.00    -0.000 C 
BRANCH  14  15
ATOM     15  C   UNL     1     182.001 193.946 202.695  1.00  0.00    -0.000 C 
BRANCH  15  16
ATOM     16  C   UNL     1     183.058 192.869 202.415  1.00  0.00    -0.000 C 
BRANCH  16  17
ATOM     17  C   UNL     1     183.672 192.342 203.722  1.00  0.00    -0.000 C 
BRANCH  17  18
ATOM     18  C   UNL     1     183.783 190.810 203.745  1.00  0.00    -0.003 C 
ATOM     19  C   UNL     1     183.686 190.188 202.352  1.00  0.00     0.004 C 
ENDBRANCH  17  18
ENDBRANCH  16  17
ENDBRANCH  15  16
ENDBRANCH  14  15
ENDBRANCH  13  14
ENDBRANCH  12  13
ENDBRANCH   1  12
TORSDOF 14
ENDMDL
MODEL 5
REMARK VINA RESULT:     0.024      5.566      8.022
REMARK INTER + INTRA:          -3.324
REMARK INTER:                   0.000
REMARK INTRA:                  -3.324
REMARK UNBOUND:                -3.368
REMARK SMILES CCCCCCCCCCCCCC[C@@H](C)C(=O)[O-]
REMARK SMILES IDX 9 1 10 2 11 3 12 4 13 5 14 6 15 7 16 8 17 9 18 10 19 11 8 12
REMARK SMILES IDX 7 13 6 14 5 15 4 16 3 17 2 18 1 19
REMARK H PARENT
REMARK Flexibility Score: inf
ROOT
ATOM      1  C   UNL     1     174.663 191.073 195.952  1.00  0.00     0.000 C 
ENDROOT
BRANCH   1   2
ATOM      2  C   UNL     1     174.884 189.864 195.030  1.00  0.00     0.000 C 
BRANCH   2   3
ATOM      3  C   UNL     1     176.370 189.708 194.683  1.00  0.00     0.000 C 
BRANCH   3   4
ATOM      4  C   UNL     1     176.560 189.293 193.215  1.00  0.00     0.000 C 
BRANCH   4   5
ATOM      5  C   UNL     1     175.300 188.623 192.643  1.00  0.00     0.001 C 
BRANCH   5   6
ATOM      6  C   UNL     1     174.890 189.224 191.283  1.00  0.00     0.009 C 
BRANCH   6   7
ATOM      7  C   UNL     1     173.369 189.198 191.016  1.00  0.00     0.032 C 
ATOM      8  C   UNL     1     172.558 188.752 192.244  1.00  0.00     0.014 C 
BRANCH   7   9
ATOM      9  C   UNL     1     172.891 190.515 190.460  1.00  0.00     0.044 C 
ATOM     10  O   UNL     1     173.547 191.127 189.575  1.00  0.00    -0.550 OA
ATOM     11  O   UNL     1     171.667 191.030 190.881  1.00  0.00    -0.550 OA
ENDBRANCH   7   9
ENDBRANCH   6   7
ENDBRANCH   5   6
ENDBRANCH   4   5
ENDBRANCH   3   4
ENDBRANCH   2   3
ENDBRANCH   1   2
BRANCH   1  12
ATOM     12  C   UNL     1     173.721 192.124 195.347  1.00  0.00     0.000 C 
BRANCH  12  13
ATOM     13  C   UNL     1     173.513 191.928 193.834  1.00  0.00    -0.000 C 
BRANCH  13  14
ATOM     14  C   UNL     1     174.087 193.087 193.003  1.00  0.00    -0.000 C 
BRANCH  14  15
ATOM     15  C   UNL     1     175.370 192.698 192.250  1.00  0.00    -0.000 C 
BRANCH  15  16
ATOM     16  C   UNL     1     176.615 193.069 193.066  1.00  0.00    -0.000 C 
BRANCH  16  17
ATOM     17  C   UNL     1     176.380 194.350 193.883  1.00  0.00    -0.000 C 
BRANCH  17  18
ATOM     18  C   UNL     1     176.844 194.212 195.341  1.00  0.00    -0.003 C 
ATOM     19  C   UNL     1     177.792 193.032 195.552  1.00  0.00     0.004 C 
ENDBRANCH  17  18
ENDBRANCH  16  17
ENDBRANCH  15  16
ENDBRANCH  14  15
ENDBRANCH  13  14
ENDBRANCH  12  13
ENDBRANCH   1  12
TORSDOF 14
ENDMDL
MODEL 6
REMARK VINA RESULT:     0.024      9.890     12.283
REMARK INTER + INTRA:          -3.323
REMARK INTER:                   0.000
REMARK INTRA:                  -3.323
REMARK UNBOUND:                -3.368
REMARK SMILES CCCCCCCCCCCCCC[C@@H](C)C(=O)[O-]
REMARK SMILES IDX 9 1 10 2 11 3 12 4 13 5 14 6 15 7 16 8 17 9 18 10 19 11 8 12
REMARK SMILES IDX 7 13 6 14 5 15 4 16 3 17 2 18 1 19
REMARK H PARENT
REMARK Flexibility Score: inf
ROOT
ATOM      1  C   UNL     1     177.283 189.965 192.869  1.00  0.00     0.000 C 
ENDROOT
BRANCH   1   2
ATOM      2  C   UNL     1     177.933 189.862 194.257  1.00  0.00     0.000 C 
BRANCH   2   3
ATOM      3  C   UNL     1     179.461 189.948 194.151  1.00  0.00     0.000 C 
BRANCH   3   4
ATOM      4  C   UNL     1     180.037 190.942 195.171  1.00  0.00     0.000 C 
BRANCH   4   5
ATOM      5  C   UNL     1     179.172 191.025 196.440  1.00  0.00     0.001 C 
BRANCH   5   6
ATOM      6  C   UNL     1     178.848 192.482 196.827  1.00  0.00     0.009 C 
BRANCH   6   7
ATOM      7  C   UNL     1     180.005 193.474 196.570  1.00  0.00     0.032 C 
ATOM      8  C   UNL     1     179.513 194.911 196.331  1.00  0.00     0.014 C 
BRANCH   7   9
ATOM      9  C   UNL     1     181.041 193.396 197.663  1.00  0.00     0.044 C 
ATOM     10  O   UNL     1     182.252 193.163 197.399  1.00  0.00    -0.550 OA
ATOM     11  O   UNL     1     180.666 193.654 198.979  1.00  0.00    -0.550 OA
ENDBRANCH   7   9
ENDBRANCH   6   7
ENDBRANCH   5   6
ENDBRANCH   4   5
ENDBRANCH   3   4
ENDBRANCH   2   3
ENDBRANCH   1   2
BRANCH   1  12
ATOM     12  C   UNL     1     176.549 191.296 192.648  1.00  0.00     0.000 C 
BRANCH  12  13
ATOM     13  C   UNL     1     176.520 192.170 193.916  1.00  0.00    -0.000 C 
BRANCH  13  14
ATOM     14  C   UNL     1     177.181 193.542 193.705  1.00  0.00    -0.000 C 
BRANCH  14  15
ATOM     15  C   UNL     1     178.060 193.588 192.445  1.00  0.00    -0.000 C 
BRANCH  15  16
ATOM     16  C   UNL     1     179.539 193.757 192.817  1.00  0.00    -0.000 C 
BRANCH  16  17
ATOM     17  C   UNL     1     180.432 192.830 191.976  1.00  0.00    -0.000 C 
BRANCH  17  18
ATOM     18  C   UNL     1     179.660 192.141 190.840  1.00  0.00    -0.003 C 
ATOM     19  C   UNL     1     180.150 190.719 190.569  1.00  0.00     0.004 C 
ENDBRANCH  17  18
ENDBRANCH  16  17
ENDBRANCH  15  16
ENDBRANCH  14  15
ENDBRANCH  13  14
ENDBRANCH  12  13
ENDBRANCH   1  12
TORSDOF 14
ENDMDL
MODEL 7
REMARK VINA RESULT:     0.024      5.741      7.949
REMARK INTER + INTRA:          -3.323
REMARK INTER:                   0.000
REMARK INTRA:                  -3.323
REMARK UNBOUND:                -3.368
REMARK SMILES CCCCCCCCCCCCCC[C@@H](C)C(=O)[O-]
REMARK SMILES IDX 9 1 10 2 11 3 12 4 13 5 14 6 15 7 16 8 17 9 18 10 19 11 8 12
REMARK SMILES IDX 7 13 6 14 5 15 4 16 3 17 2 18 1 19
REMARK H PARENT
REMARK Flexibility Score: inf
ROOT
ATOM      1  C   UNL     1     172.762 185.132 188.849  1.00  0.00     0.000 C 
ENDROOT
BRANCH   1   2
ATOM      2  C   UNL     1     174.238 185.392 188.514  1.00  0.00     0.000 C 
BRANCH   2   3
ATOM      3  C   UNL     1     175.092 184.155 188.824  1.00  0.00     0.000 C 
BRANCH   3   4
ATOM      4  C   UNL     1     176.177 184.473 189.866  1.00  0.00     0.000 C 
BRANCH   4   5
ATOM      5  C   UNL     1     176.175 185.960 190.258  1.00  0.00     0.001 C 
BRANCH   5   6
ATOM      6  C   UNL     1     175.912 186.162 191.764  1.00  0.00     0.009 C 
BRANCH   6   7
ATOM      7  C   UNL     1     174.447 186.515 192.106  1.00  0.00     0.032 C 
ATOM      8  C   UNL     1     174.154 186.440 193.613  1.00  0.00     0.014 C 
BRANCH   7   9
ATOM      9  C   UNL     1     174.054 187.843 191.510  1.00  0.00     0.044 C 
ATOM     10  O   UNL     1     172.965 187.984 190.890  1.00  0.00    -0.550 OA
ATOM     11  O   UNL     1     174.876 188.950 191.709  1.00  0.00    -0.550 OA
ENDBRANCH   7   9
ENDBRANCH   6   7
ENDBRANCH   5   6
ENDBRANCH   4   5
ENDBRANCH   3   4
ENDBRANCH   2   3
ENDBRANCH   1   2
BRANCH   1  12
ATOM     12  C   UNL     1     172.546 183.831 189.636  1.00  0.00     0.000 C 
BRANCH  12  13
ATOM     13  C   UNL     1     172.008 184.083 191.056  1.00  0.00    -0.000 C 
BRANCH  13  14
ATOM     14  C   UNL     1     172.712 183.222 192.118  1.00  0.00    -0.000 C 
BRANCH  14  15
ATOM     15  C   UNL     1     173.593 182.124 191.501  1.00  0.00    -0.000 C 
BRANCH  15  16
ATOM     16  C   UNL     1     174.926 182.007 192.252  1.00  0.00    -0.000 C 
BRANCH  16  17
ATOM     17  C   UNL     1     174.888 182.794 193.572  1.00  0.00    -0.000 C 
BRANCH  17  18
ATOM     18  C   UNL     1     176.280 183.272 194.014  1.00  0.00    -0.003 C 
ATOM     19  C   UNL     1     177.378 182.896 193.019  1.00  0.00     0.004 C 
ENDBRANCH  17  18
ENDBRANCH  16  17
ENDBRANCH  15  16
ENDBRANCH  14  15
ENDBRANCH  13  14
ENDBRANCH  12  13
ENDBRANCH   1  12
TORSDOF 14
ENDMDL
MODEL 8
REMARK VINA RESULT:     0.026     11.718     14.250
REMARK INTER + INTRA:          -3.320
REMARK INTER:                   0.000
REMARK INTRA:                  -3.320
REMARK UNBOUND:                -3.368
REMARK SMILES CCCCCCCCCCCCCC[C@@H](C)C(=O)[O-]
REMARK SMILES IDX 9 1 10 2 11 3 12 4 13 5 14 6 15 7 16 8 17 9 18 10 19 11 8 12
REMARK SMILES IDX 7 13 6 14 5 15 4 16 3 17 2 18 1 19
REMARK H PARENT
REMARK Flexibility Score: inf
ROOT
ATOM      1  C   UNL     1     175.391 194.183 199.955  1.00  0.00     0.000 C 
ENDROOT
BRANCH   1   2
ATOM      2  C   UNL     1     175.246 195.062 198.703  1.00  0.00     0.000 C 
BRANCH   2   3
ATOM      3  C   UNL     1     176.517 195.000 197.845  1.00  0.00     0.000 C 
BRANCH   3   4
ATOM      4  C   UNL     1     177.038 196.408 197.518  1.00  0.00     0.000 C 
BRANCH   4   5
ATOM      5  C   UNL     1     178.509 196.584 197.932  1.00  0.00     0.001 C 
BRANCH   5   6
ATOM      6  C   UNL     1     179.200 195.233 198.205  1.00  0.00     0.009 C 
BRANCH   6   7
ATOM      7  C   UNL     1     180.551 195.355 198.946  1.00  0.00     0.032 C 
ATOM      8  C   UNL     1     180.972 194.046 199.634  1.00  0.00     0.014 C 
BRANCH   7   9
ATOM      9  C   UNL     1     181.624 195.896 198.035  1.00  0.00     0.044 C 
ATOM     10  O   UNL     1     182.115 197.043 198.214  1.00  0.00    -0.550 OA
ATOM     11  O   UNL     1     182.130 195.085 197.022  1.00  0.00    -0.550 OA
ENDBRANCH   7   9
ENDBRANCH   6   7
ENDBRANCH   5   6
ENDBRANCH   4   5
ENDBRANCH   3   4
ENDBRANCH   2   3
ENDBRANCH   1   2
BRANCH   1  12
ATOM     12  C   UNL     1     176.602 193.242 199.889  1.00  0.00     0.000 C 
BRANCH  12  13
ATOM     13  C   UNL     1     177.559 193.429 201.081  1.00  0.00    -0.000 C 
BRANCH  13  14
ATOM     14  C   UNL     1     177.288 194.725 201.860  1.00  0.00    -0.000 C 
BRANCH  14  15
ATOM     15  C   UNL     1     178.551 195.581 202.044  1.00  0.00    -0.000 C 
BRANCH  15  16
ATOM     16  C   UNL     1     178.304 197.025 201.584  1.00  0.00    -0.000 C 
BRANCH  16  17
ATOM     17  C   UNL     1     176.808 197.278 201.337  1.00  0.00    -0.000 C 
BRANCH  17  18
ATOM     18  C   UNL     1     176.555 198.545 200.505  1.00  0.00    -0.003 C 
ATOM     19  C   UNL     1     175.140 198.602 199.929  1.00  0.00     0.004 C 
ENDBRANCH  17  18
ENDBRANCH  16  17
ENDBRANCH  15  16
ENDBRANCH  14  15
ENDBRANCH  13  14
ENDBRANCH  12  13
ENDBRANCH   1  12
TORSDOF 14
ENDMDL
MODEL 9
REMARK VINA RESULT:     0.032      9.338     12.009
REMARK INTER + INTRA:          -3.310
REMARK INTER:                   0.000
REMARK INTRA:                  -3.310
REMARK UNBOUND:                -3.368
REMARK SMILES CCCCCCCCCCCCCC[C@@H](C)C(=O)[O-]
REMARK SMILES IDX 9 1 10 2 11 3 12 4 13 5 14 6 15 7 16 8 17 9 18 10 19 11 8 12
REMARK SMILES IDX 7 13 6 14 5 15 4 16 3 17 2 18 1 19
REMARK H PARENT
REMARK Flexibility Score: inf
ROOT
ATOM      1  C   UNL     1     175.805 190.695 195.456  1.00  0.00     0.000 C 
ENDROOT
BRANCH   1   2
ATOM      2  C   UNL     1     176.396 191.758 194.518  1.00  0.00     0.000 C 
BRANCH   2   3
ATOM      3  C   UNL     1     177.902 191.923 194.761  1.00  0.00     0.000 C 
BRANCH   3   4
ATOM      4  C   UNL     1     178.262 193.386 195.062  1.00  0.00     0.000 C 
BRANCH   4   5
ATOM      5  C   UNL     1     179.311 193.499 196.181  1.00  0.00     0.001 C 
BRANCH   5   6
ATOM      6  C   UNL     1     179.855 192.120 196.607  1.00  0.00     0.009 C 
BRANCH   6   7
ATOM      7  C   UNL     1     180.296 192.046 198.086  1.00  0.00     0.032 C 
ATOM      8  C   UNL     1     180.208 190.623 198.662  1.00  0.00     0.014 C 
BRANCH   7   9
ATOM      9  C   UNL     1     181.660 192.661 198.278  1.00  0.00     0.044 C 
ATOM     10  O   UNL     1     181.845 193.592 199.108  1.00  0.00    -0.550 OA
ATOM     11  O   UNL     1     182.746 192.142 197.578  1.00  0.00    -0.550 OA
ENDBRANCH   7   9
ENDBRANCH   6   7
ENDBRANCH   5   6
ENDBRANCH   4   5
ENDBRANCH   3   4
ENDBRANCH   2   3
ENDBRANCH   1   2
BRANCH   1  12
ATOM     12  C   UNL     1     176.875 189.967 196.284  1.00  0.00     0.000 C 
BRANCH  12  13
ATOM     13  C   UNL     1     176.627 190.083 197.799  1.00  0.00    -0.000 C 
BRANCH  13  14
ATOM     14  C   UNL     1     175.843 191.351 198.176  1.00  0.00    -0.000 C 
BRANCH  14  15
ATOM     15  C   UNL     1     176.739 192.444 198.781  1.00  0.00    -0.000 C 
BRANCH  15  16
ATOM     16  C   UNL     1     176.318 193.833 198.282  1.00  0.00    -0.000 C 
BRANCH  16  17
ATOM     17  C   UNL     1     175.050 193.749 197.416  1.00  0.00    -0.000 C 
BRANCH  17  18
ATOM     18  C   UNL     1     175.038 194.791 196.287  1.00  0.00    -0.003 C 
ATOM     19  C   UNL     1     176.001 195.950 196.541  1.00  0.00     0.004 C 
ENDBRANCH  17  18
ENDBRANCH  16  17
ENDBRANCH  15  16
ENDBRANCH  14  15
ENDBRANCH  13  14
ENDBRANCH  12  13
ENDBRANCH   1  12
TORSDOF 14
ENDMDL
