MODEL 1
REMARK VINA RESULT:    45.868      0.000      0.000
REMARK INTER + INTRA:          53.629
REMARK INTER:                  53.913
REMARK INTRA:                  -0.284
REMARK UNBOUND:                -0.284
REMARK SMILES O=c1c(O)c(-c2ccc(O)c(O)c2)oc2cc(O)ccc12
REMARK SMILES IDX 5 1 3 2 2 3 1 4 21 5 15 6 14 7 16 8 17 9 19 10 20 11 6 12
REMARK SMILES IDX 7 13 8 14 9 15 13 16 11 17 10 18 12 20 4 22 18 24
REMARK H PARENT 10 19 12 21 4 23 18 25
REMARK Flexibility Score: inf
ROOT
ATOM      1  C   UNL     1     -27.734  42.290   9.183  1.00  0.00     0.180 A 
ATOM      2  C   UNL     1     -28.655  43.005   8.388  1.00  0.00     0.208 A 
ATOM      3  C   UNL     1     -28.708  42.739   7.011  1.00  0.00     0.235 A 
ATOM      4  O   UNL     1     -29.531  43.357   6.281  1.00  0.00    -0.285 OA
ATOM      5  C   UNL     1     -27.835  41.789   6.457  1.00  0.00     0.069 A 
ATOM      6  C   UNL     1     -26.927  41.134   7.316  1.00  0.00     0.142 A 
ATOM      7  O   UNL     1     -26.914  41.408   8.616  1.00  0.00    -0.452 OA
ATOM      8  C   UNL     1     -26.034  40.188   6.800  1.00  0.00     0.094 A 
ATOM      9  C   UNL     1     -26.038  39.884   5.435  1.00  0.00     0.119 A 
ATOM     10  C   UNL     1     -26.941  40.531   4.579  1.00  0.00     0.047 A 
ATOM     11  C   UNL     1     -27.836  41.478   5.084  1.00  0.00     0.020 A 
ENDROOT
BRANCH   1  12
ATOM     12  C   UNL     1     -27.629  42.502  10.645  1.00  0.00     0.025 A 
ATOM     13  C   UNL     1     -28.573  41.959  11.533  1.00  0.00     0.016 A 
ATOM     14  C   UNL     1     -28.440  42.150  12.911  1.00  0.00     0.051 A 
ATOM     15  C   UNL     1     -27.355  42.873  13.422  1.00  0.00     0.157 A 
ATOM     16  C   UNL     1     -26.531  43.207  11.164  1.00  0.00     0.062 A 
ATOM     17  C   UNL     1     -26.394  43.401  12.544  1.00  0.00     0.158 A 
BRANCH  15  18
ATOM     18  O   UNL     1     -27.226  43.063  14.797  1.00  0.00    -0.504 OA
ATOM     19  H   UNL     1     -28.036  43.146  15.400  1.00  0.00     0.293 HD
ENDBRANCH  15  18
BRANCH  17  20
ATOM     20  O   UNL     1     -25.298  44.120  13.021  1.00  0.00    -0.504 OA
ATOM     21  H   UNL     1     -24.394  44.086  12.567  1.00  0.00     0.293 HD
ENDBRANCH  17  20
ENDBRANCH   1  12
BRANCH   2  22
ATOM     22  O   UNL     1     -29.475  43.980   8.960  1.00  0.00    -0.502 OA
ATOM     23  H   UNL     1     -30.475  44.012   8.794  1.00  0.00     0.293 HD
ENDBRANCH   2  22
BRANCH   9  24
ATOM     24  O   UNL     1     -25.144  38.939   4.939  1.00  0.00    -0.508 OA
ATOM     25  H   UNL     1     -24.316  38.670   5.456  1.00  0.00     0.293 HD
ENDBRANCH   9  24
TORSDOF 5
ENDMDL
MODEL 2
REMARK VINA RESULT:    47.352      0.657      1.467
REMARK INTER + INTRA:          55.373
REMARK INTER:                  55.680
REMARK INTRA:                  -0.307
REMARK UNBOUND:                -0.284
REMARK SMILES O=c1c(O)c(-c2ccc(O)c(O)c2)oc2cc(O)ccc12
REMARK SMILES IDX 5 1 3 2 2 3 1 4 21 5 15 6 14 7 16 8 17 9 19 10 20 11 6 12
REMARK SMILES IDX 7 13 8 14 9 15 13 16 11 17 10 18 12 20 4 22 18 24
REMARK H PARENT 10 19 12 21 4 23 18 25
REMARK Flexibility Score: inf
ROOT
ATOM      1  C   UNL     1     -27.468  42.309   9.360  1.00  0.00     0.180 A 
ATOM      2  C   UNL     1     -28.486  42.982   8.653  1.00  0.00     0.208 A 
ATOM      3  C   UNL     1     -28.669  42.695   7.292  1.00  0.00     0.235 A 
ATOM      4  O   UNL     1     -29.580  43.275   6.641  1.00  0.00    -0.285 OA
ATOM      5  C   UNL     1     -27.826  41.763   6.664  1.00  0.00     0.069 A 
ATOM      6  C   UNL     1     -26.816  41.150   7.434  1.00  0.00     0.142 A 
ATOM      7  O   UNL     1     -26.681  41.444   8.723  1.00  0.00    -0.452 OA
ATOM      8  C   UNL     1     -25.949  40.225   6.842  1.00  0.00     0.094 A 
ATOM      9  C   UNL     1     -26.080  39.900   5.488  1.00  0.00     0.119 A 
ATOM     10  C   UNL     1     -27.084  40.506   4.720  1.00  0.00     0.047 A 
ATOM     11  C   UNL     1     -27.954  41.433   5.302  1.00  0.00     0.020 A 
ENDROOT
BRANCH   1  12
ATOM     12  C   UNL     1     -27.223  42.545  10.801  1.00  0.00     0.025 A 
ATOM     13  C   UNL     1     -26.275  43.486  11.238  1.00  0.00     0.016 A 
ATOM     14  C   UNL     1     -26.079  43.710  12.603  1.00  0.00     0.051 A 
ATOM     15  C   UNL     1     -26.836  43.009  13.550  1.00  0.00     0.157 A 
ATOM     16  C   UNL     1     -27.994  41.860  11.754  1.00  0.00     0.062 A 
ATOM     17  C   UNL     1     -27.800  42.081  13.123  1.00  0.00     0.158 A 
BRANCH  15  18
ATOM     18  O   UNL     1     -26.636  43.233  14.912  1.00  0.00    -0.504 OA
ATOM     19  H   UNL     1     -26.080  44.011  15.246  1.00  0.00     0.293 HD
ENDBRANCH  15  18
BRANCH  17  20
ATOM     20  O   UNL     1     -28.575  41.371  14.040  1.00  0.00    -0.504 OA
ATOM     21  H   UNL     1     -28.525  40.363  14.119  1.00  0.00     0.293 HD
ENDBRANCH  17  20
ENDBRANCH   1  12
BRANCH   2  22
ATOM     22  O   UNL     1     -29.277  43.940   9.293  1.00  0.00    -0.502 OA
ATOM     23  H   UNL     1     -28.948  44.465  10.095  1.00  0.00     0.293 HD
ENDBRANCH   2  22
BRANCH   9  24
ATOM     24  O   UNL     1     -25.210  38.976   4.915  1.00  0.00    -0.508 OA
ATOM     25  H   UNL     1     -24.851  38.189   5.442  1.00  0.00     0.293 HD
ENDBRANCH   9  24
TORSDOF 5
ENDMDL
