MODEL 1
REMARK VINA RESULT:    -5.398      0.000      0.000
REMARK INTER + INTRA:          -5.398
REMARK INTER:                  -5.398
REMARK INTRA:                   0.000
REMARK UNBOUND:                 0.000
REMARK SMILES C=C1CCC[C@]2(C)CC(=O)C(=C(C)C)C[C@H]12
REMARK SMILES IDX 13 1 12 2 11 3 15 4 16 5 2 6 1 7 3 8 4 9 5 10 6 11 8 12 9 13
REMARK SMILES IDX 10 14 7 15 14 16
REMARK H PARENT
REMARK Flexibility Score: inf
ROOT
ATOM      1  C   UNL     1     -33.647  20.121  24.540  1.00  0.00     0.039 C 
ATOM      2  C   UNL     1     -32.785  18.897  24.342  1.00  0.00    -0.070 C 
ATOM      3  C   UNL     1     -31.428  18.991  24.258  1.00  0.00    -0.006 C 
ATOM      4  C   UNL     1     -30.705  20.321  24.352  1.00  0.00     0.047 C 
ATOM      5  C   UNL     1     -29.323  20.222  25.049  1.00  0.00     0.025 C 
ATOM      6  C   UNL     1     -28.594  21.545  24.873  1.00  0.00    -0.073 C 
ATOM      7  C   UNL     1     -28.603  22.465  25.849  1.00  0.00     0.008 C 
ATOM      8  C   UNL     1     -27.994  21.869  23.521  1.00  0.00     0.031 C 
ATOM      9  C   UNL     1     -27.196  20.685  22.958  1.00  0.00     0.005 C 
ATOM     10  C   UNL     1     -27.951  19.348  23.075  1.00  0.00     0.008 C 
ATOM     11  C   UNL     1     -28.432  19.052  24.527  1.00  0.00    -0.018 C 
ATOM     12  C   UNL     1     -29.221  17.716  24.564  1.00  0.00     0.088 C 
ATOM     13  C   UNL     1     -30.571  17.828  23.933  1.00  0.00     0.159 C 
ATOM     14  O   UNL     1     -30.958  16.932  23.134  1.00  0.00    -0.295 OA
ATOM     15  C   UNL     1     -27.205  18.872  25.461  1.00  0.00     0.012 C 
ATOM     16  C   UNL     1     -33.487  17.559  24.282  1.00  0.00     0.039 C 
ENDROOT
TORSDOF 0
ENDMDL
MODEL 2
REMARK VINA RESULT:    -5.223      1.960      4.745
REMARK INTER + INTRA:          -5.223
REMARK INTER:                  -5.223
REMARK INTRA:                   0.000
REMARK UNBOUND:                 0.000
REMARK SMILES C=C1CCC[C@]2(C)CC(=O)C(=C(C)C)C[C@H]12
REMARK SMILES IDX 13 1 12 2 11 3 15 4 16 5 2 6 1 7 3 8 4 9 5 10 6 11 8 12 9 13
REMARK SMILES IDX 10 14 7 15 14 16
REMARK H PARENT
REMARK Flexibility Score: inf
ROOT
ATOM      1  C   UNL     1     -30.278  22.562  28.156  1.00  0.00     0.039 C 
ATOM      2  C   UNL     1     -29.245  21.879  27.291  1.00  0.00    -0.070 C 
ATOM      3  C   UNL     1     -29.600  20.930  26.379  1.00  0.00    -0.006 C 
ATOM      4  C   UNL     1     -31.041  20.501  26.181  1.00  0.00     0.047 C 
ATOM      5  C   UNL     1     -31.378  20.134  24.712  1.00  0.00     0.025 C 
ATOM      6  C   UNL     1     -32.757  19.496  24.674  1.00  0.00    -0.073 C 
ATOM      7  C   UNL     1     -33.837  20.222  24.347  1.00  0.00     0.008 C 
ATOM      8  C   UNL     1     -32.912  18.072  25.165  1.00  0.00     0.031 C 
ATOM      9  C   UNL     1     -31.830  17.152  24.583  1.00  0.00     0.005 C 
ATOM     10  C   UNL     1     -30.419  17.763  24.673  1.00  0.00     0.008 C 
ATOM     11  C   UNL     1     -30.335  19.184  24.041  1.00  0.00    -0.018 C 
ATOM     12  C   UNL     1     -28.902  19.756  24.204  1.00  0.00     0.088 C 
ATOM     13  C   UNL     1     -28.598  20.153  25.614  1.00  0.00     0.159 C 
ATOM     14  O   UNL     1     -27.496  19.818  26.128  1.00  0.00    -0.295 OA
ATOM     15  C   UNL     1     -30.611  19.100  22.516  1.00  0.00     0.012 C 
ATOM     16  C   UNL     1     -27.808  22.320  27.450  1.00  0.00     0.039 C 
ENDROOT
TORSDOF 0
ENDMDL
MODEL 3
REMARK VINA RESULT:    -5.173      4.737      6.297
REMARK INTER + INTRA:          -5.173
REMARK INTER:                  -5.173
REMARK INTRA:                   0.000
REMARK UNBOUND:                 0.000
REMARK SMILES C=C1CCC[C@]2(C)CC(=O)C(=C(C)C)C[C@H]12
REMARK SMILES IDX 13 1 12 2 11 3 15 4 16 5 2 6 1 7 3 8 4 9 5 10 6 11 8 12 9 13
REMARK SMILES IDX 10 14 7 15 14 16
REMARK H PARENT
REMARK Flexibility Score: inf
ROOT
ATOM      1  C   UNL     1     -31.629  25.037  30.354  1.00  0.00     0.039 C 
ATOM      2  C   UNL     1     -31.246  23.738  31.022  1.00  0.00    -0.070 C 
ATOM      3  C   UNL     1     -30.661  22.725  30.322  1.00  0.00    -0.006 C 
ATOM      4  C   UNL     1     -30.365  22.837  28.839  1.00  0.00     0.047 C 
ATOM      5  C   UNL     1     -29.072  22.095  28.412  1.00  0.00     0.025 C 
ATOM      6  C   UNL     1     -29.005  22.068  26.893  1.00  0.00    -0.073 C 
ATOM      7  C   UNL     1     -28.263  22.965  26.226  1.00  0.00     0.008 C 
ATOM      8  C   UNL     1     -29.912  21.115  26.143  1.00  0.00     0.031 C 
ATOM      9  C   UNL     1     -29.881  19.707  26.751  1.00  0.00     0.005 C 
ATOM     10  C   UNL     1     -30.009  19.718  28.286  1.00  0.00     0.008 C 
ATOM     11  C   UNL     1     -28.960  20.642  28.973  1.00  0.00    -0.018 C 
ATOM     12  C   UNL     1     -29.175  20.640  30.510  1.00  0.00     0.088 C 
ATOM     13  C   UNL     1     -30.397  21.397  30.921  1.00  0.00     0.159 C 
ATOM     14  O   UNL     1     -31.183  20.892  31.768  1.00  0.00    -0.295 OA
ATOM     15  C   UNL     1     -27.530  20.093  28.722  1.00  0.00     0.012 C 
ATOM     16  C   UNL     1     -31.502  23.623  32.508  1.00  0.00     0.039 C 
ENDROOT
TORSDOF 0
ENDMDL
MODEL 4
REMARK VINA RESULT:    -5.125      5.362      7.272
REMARK INTER + INTRA:          -5.125
REMARK INTER:                  -5.125
REMARK INTRA:                   0.000
REMARK UNBOUND:                 0.000
REMARK SMILES C=C1CCC[C@]2(C)CC(=O)C(=C(C)C)C[C@H]12
REMARK SMILES IDX 13 1 12 2 11 3 15 4 16 5 2 6 1 7 3 8 4 9 5 10 6 11 8 12 9 13
REMARK SMILES IDX 10 14 7 15 14 16
REMARK H PARENT
REMARK Flexibility Score: inf
ROOT
ATOM      1  C   UNL     1     -29.723  23.116  33.506  1.00  0.00     0.039 C 
ATOM      2  C   UNL     1     -30.700  23.502  32.421  1.00  0.00    -0.070 C 
ATOM      3  C   UNL     1     -30.504  23.129  31.124  1.00  0.00    -0.006 C 
ATOM      4  C   UNL     1     -29.301  22.313  30.693  1.00  0.00     0.047 C 
ATOM      5  C   UNL     1     -29.608  21.327  29.537  1.00  0.00     0.025 C 
ATOM      6  C   UNL     1     -28.297  20.747  29.031  1.00  0.00    -0.073 C 
ATOM      7  C   UNL     1     -27.877  19.543  29.447  1.00  0.00     0.008 C 
ATOM      8  C   UNL     1     -27.400  21.618  28.175  1.00  0.00     0.031 C 
ATOM      9  C   UNL     1     -28.190  22.326  27.066  1.00  0.00     0.005 C 
ATOM     10  C   UNL     1     -29.491  22.970  27.580  1.00  0.00     0.008 C 
ATOM     11  C   UNL     1     -30.399  21.966  28.351  1.00  0.00    -0.018 C 
ATOM     12  C   UNL     1     -31.666  22.690  28.878  1.00  0.00     0.088 C 
ATOM     13  C   UNL     1     -31.373  23.604  30.023  1.00  0.00     0.159 C 
ATOM     14  O   UNL     1     -31.868  24.764  30.033  1.00  0.00    -0.295 OA
ATOM     15  C   UNL     1     -30.888  20.852  27.388  1.00  0.00     0.012 C 
ATOM     16  C   UNL     1     -31.923  24.285  32.839  1.00  0.00     0.039 C 
ENDROOT
TORSDOF 0
ENDMDL
MODEL 5
REMARK VINA RESULT:    -5.079      3.586      6.118
REMARK INTER + INTRA:          -5.079
REMARK INTER:                  -5.079
REMARK INTRA:                   0.000
REMARK UNBOUND:                 0.000
REMARK SMILES C=C1CCC[C@]2(C)CC(=O)C(=C(C)C)C[C@H]12
REMARK SMILES IDX 13 1 12 2 11 3 15 4 16 5 2 6 1 7 3 8 4 9 5 10 6 11 8 12 9 13
REMARK SMILES IDX 10 14 7 15 14 16
REMARK H PARENT
REMARK Flexibility Score: inf
ROOT
ATOM      1  C   UNL     1     -31.198  20.019  25.751  1.00  0.00     0.039 C 
ATOM      2  C   UNL     1     -32.451  19.282  25.340  1.00  0.00    -0.070 C 
ATOM      3  C   UNL     1     -32.705  18.016  25.779  1.00  0.00    -0.006 C 
ATOM      4  C   UNL     1     -31.752  17.274  26.696  1.00  0.00     0.047 C 
ATOM      5  C   UNL     1     -32.470  16.341  27.705  1.00  0.00     0.025 C 
ATOM      6  C   UNL     1     -31.427  15.478  28.397  1.00  0.00    -0.073 C 
ATOM      7  C   UNL     1     -30.961  15.811  29.610  1.00  0.00     0.008 C 
ATOM      8  C   UNL     1     -30.809  14.329  27.628  1.00  0.00     0.031 C 
ATOM      9  C   UNL     1     -31.875  13.489  26.912  1.00  0.00     0.005 C 
ATOM     10  C   UNL     1     -32.903  14.352  26.155  1.00  0.00     0.008 C 
ATOM     11  C   UNL     1     -33.565  15.433  27.060  1.00  0.00    -0.018 C 
ATOM     12  C   UNL     1     -34.554  16.291  26.226  1.00  0.00     0.088 C 
ATOM     13  C   UNL     1     -33.856  17.224  25.289  1.00  0.00     0.159 C 
ATOM     14  O   UNL     1     -34.257  17.320  24.097  1.00  0.00    -0.295 OA
ATOM     15  C   UNL     1     -34.400  14.748  28.174  1.00  0.00     0.012 C 
ATOM     16  C   UNL     1     -33.429  20.020  24.455  1.00  0.00     0.039 C 
ENDROOT
TORSDOF 0
ENDMDL
MODEL 6
REMARK VINA RESULT:    -5.059      6.502      8.006
REMARK INTER + INTRA:          -5.059
REMARK INTER:                  -5.059
REMARK INTRA:                   0.000
REMARK UNBOUND:                 0.000
REMARK SMILES C=C1CCC[C@]2(C)CC(=O)C(=C(C)C)C[C@H]12
REMARK SMILES IDX 13 1 12 2 11 3 15 4 16 5 2 6 1 7 3 8 4 9 5 10 6 11 8 12 9 13
REMARK SMILES IDX 10 14 7 15 14 16
REMARK H PARENT
REMARK Flexibility Score: inf
ROOT
ATOM      1  C   UNL     1     -34.244  25.374  30.019  1.00  0.00     0.039 C 
ATOM      2  C   UNL     1     -33.598  24.787  31.252  1.00  0.00    -0.070 C 
ATOM      3  C   UNL     1     -32.592  23.871  31.157  1.00  0.00    -0.006 C 
ATOM      4  C   UNL     1     -32.067  23.385  29.820  1.00  0.00     0.047 C 
ATOM      5  C   UNL     1     -30.546  23.081  29.831  1.00  0.00     0.025 C 
ATOM      6  C   UNL     1     -30.182  22.381  28.531  1.00  0.00    -0.073 C 
ATOM      7  C   UNL     1     -29.656  23.071  27.508  1.00  0.00     0.008 C 
ATOM      8  C   UNL     1     -30.568  20.927  28.356  1.00  0.00     0.031 C 
ATOM      9  C   UNL     1     -30.200  20.091  29.590  1.00  0.00     0.005 C 
ATOM     10  C   UNL     1     -30.620  20.763  30.911  1.00  0.00     0.008 C 
ATOM     11  C   UNL     1     -30.081  22.218  31.046  1.00  0.00    -0.018 C 
ATOM     12  C   UNL     1     -30.577  22.848  32.375  1.00  0.00     0.088 C 
ATOM     13  C   UNL     1     -32.034  23.183  32.344  1.00  0.00     0.159 C 
ATOM     14  O   UNL     1     -32.762  22.875  33.326  1.00  0.00    -0.295 OA
ATOM     15  C   UNL     1     -28.530  22.201  31.112  1.00  0.00     0.012 C 
ATOM     16  C   UNL     1     -34.086  25.286  32.592  1.00  0.00     0.039 C 
ENDROOT
TORSDOF 0
ENDMDL
MODEL 7
REMARK VINA RESULT:    -5.045      8.326      9.410
REMARK INTER + INTRA:          -5.045
REMARK INTER:                  -5.045
REMARK INTRA:                   0.000
REMARK UNBOUND:                 0.000
REMARK SMILES C=C1CCC[C@]2(C)CC(=O)C(=C(C)C)C[C@H]12
REMARK SMILES IDX 13 1 12 2 11 3 15 4 16 5 2 6 1 7 3 8 4 9 5 10 6 11 8 12 9 13
REMARK SMILES IDX 10 14 7 15 14 16
REMARK H PARENT
REMARK Flexibility Score: inf
ROOT
ATOM      1  C   UNL     1     -33.170  13.017  28.864  1.00  0.00     0.039 C 
ATOM      2  C   UNL     1     -33.135  12.773  30.355  1.00  0.00    -0.070 C 
ATOM      3  C   UNL     1     -32.198  13.365  31.148  1.00  0.00    -0.006 C 
ATOM      4  C   UNL     1     -31.139  14.295  30.588  1.00  0.00     0.047 C 
ATOM      5  C   UNL     1     -30.756  15.445  31.556  1.00  0.00     0.025 C 
ATOM      6  C   UNL     1     -29.533  16.159  31.002  1.00  0.00    -0.073 C 
ATOM      7  C   UNL     1     -29.664  17.295  30.301  1.00  0.00     0.008 C 
ATOM      8  C   UNL     1     -28.183  15.484  31.121  1.00  0.00     0.031 C 
ATOM      9  C   UNL     1     -27.946  14.935  32.535  1.00  0.00     0.005 C 
ATOM     10  C   UNL     1     -29.157  14.157  33.082  1.00  0.00     0.008 C 
ATOM     11  C   UNL     1     -30.480  14.977  33.020  1.00  0.00    -0.018 C 
ATOM     12  C   UNL     1     -31.663  14.120  33.543  1.00  0.00     0.088 C 
ATOM     13  C   UNL     1     -32.059  13.041  32.586  1.00  0.00     0.159 C 
ATOM     14  O   UNL     1     -32.267  11.875  33.019  1.00  0.00    -0.295 OA
ATOM     15  C   UNL     1     -30.377  16.213  33.953  1.00  0.00     0.012 C 
ATOM     16  C   UNL     1     -34.206  11.877  30.934  1.00  0.00     0.039 C 
ENDROOT
TORSDOF 0
ENDMDL
MODEL 8
REMARK VINA RESULT:    -5.004      3.660      5.571
REMARK INTER + INTRA:          -5.004
REMARK INTER:                  -5.004
REMARK INTRA:                   0.000
REMARK UNBOUND:                 0.000
REMARK SMILES C=C1CCC[C@]2(C)CC(=O)C(=C(C)C)C[C@H]12
REMARK SMILES IDX 13 1 12 2 11 3 15 4 16 5 2 6 1 7 3 8 4 9 5 10 6 11 8 12 9 13
REMARK SMILES IDX 10 14 7 15 14 16
REMARK H PARENT
REMARK Flexibility Score: inf
ROOT
ATOM      1  C   UNL     1     -30.817  15.864  29.947  1.00  0.00     0.039 C 
ATOM      2  C   UNL     1     -31.987  15.323  29.159  1.00  0.00    -0.070 C 
ATOM      3  C   UNL     1     -32.365  15.884  27.976  1.00  0.00    -0.006 C 
ATOM      4  C   UNL     1     -31.644  17.079  27.383  1.00  0.00     0.047 C 
ATOM      5  C   UNL     1     -31.596  17.063  25.833  1.00  0.00     0.025 C 
ATOM      6  C   UNL     1     -31.074  18.406  25.349  1.00  0.00    -0.073 C 
ATOM      7  C   UNL     1     -29.784  18.557  25.014  1.00  0.00     0.008 C 
ATOM      8  C   UNL     1     -31.997  19.606  25.402  1.00  0.00     0.031 C 
ATOM      9  C   UNL     1     -33.383  19.280  24.829  1.00  0.00     0.005 C 
ATOM     10  C   UNL     1     -33.949  17.950  25.362  1.00  0.00     0.008 C 
ATOM     11  C   UNL     1     -32.971  16.754  25.160  1.00  0.00    -0.018 C 
ATOM     12  C   UNL     1     -33.584  15.459  25.757  1.00  0.00     0.088 C 
ATOM     13  C   UNL     1     -33.585  15.459  27.252  1.00  0.00     0.159 C 
ATOM     14  O   UNL     1     -34.623  15.099  27.871  1.00  0.00    -0.295 OA
ATOM     15  C   UNL     1     -32.764  16.493  23.644  1.00  0.00     0.012 C 
ATOM     16  C   UNL     1     -32.695  14.110  29.718  1.00  0.00     0.039 C 
ENDROOT
TORSDOF 0
ENDMDL
MODEL 9
REMARK VINA RESULT:    -4.985      2.020      4.192
REMARK INTER + INTRA:          -4.985
REMARK INTER:                  -4.985
REMARK INTRA:                   0.000
REMARK UNBOUND:                 0.000
REMARK SMILES C=C1CCC[C@]2(C)CC(=O)C(=C(C)C)C[C@H]12
REMARK SMILES IDX 13 1 12 2 11 3 15 4 16 5 2 6 1 7 3 8 4 9 5 10 6 11 8 12 9 13
REMARK SMILES IDX 10 14 7 15 14 16
REMARK H PARENT
REMARK Flexibility Score: inf
ROOT
ATOM      1  C   UNL     1     -29.825  15.332  21.667  1.00  0.00     0.039 C 
ATOM      2  C   UNL     1     -31.122  15.340  22.442  1.00  0.00    -0.070 C 
ATOM      3  C   UNL     1     -31.485  16.409  23.207  1.00  0.00    -0.006 C 
ATOM      4  C   UNL     1     -30.613  17.645  23.330  1.00  0.00     0.047 C 
ATOM      5  C   UNL     1     -31.426  18.958  23.473  1.00  0.00     0.025 C 
ATOM      6  C   UNL     1     -30.469  20.085  23.829  1.00  0.00    -0.073 C 
ATOM      7  C   UNL     1     -30.007  20.914  22.880  1.00  0.00     0.008 C 
ATOM      8  C   UNL     1     -29.925  20.157  25.240  1.00  0.00     0.031 C 
ATOM      9  C   UNL     1     -31.037  19.986  26.284  1.00  0.00     0.005 C 
ATOM     10  C   UNL     1     -31.976  18.808  25.966  1.00  0.00     0.008 C 
ATOM     11  C   UNL     1     -32.573  18.883  24.529  1.00  0.00    -0.018 C 
ATOM     12  C   UNL     1     -33.472  17.646  24.261  1.00  0.00     0.088 C 
ATOM     13  C   UNL     1     -32.682  16.390  24.078  1.00  0.00     0.159 C 
ATOM     14  O   UNL     1     -33.047  15.337  24.667  1.00  0.00    -0.295 OA
ATOM     15  C   UNL     1     -33.484  20.133  24.402  1.00  0.00     0.012 C 
ATOM     16  C   UNL     1     -32.018  14.132  22.302  1.00  0.00     0.039 C 
ENDROOT
TORSDOF 0
ENDMDL
