MODEL 1
REMARK VINA RESULT:    -5.507      0.000      0.000
REMARK INTER + INTRA:         -16.699
REMARK INTER:                 -14.362
REMARK INTRA:                  -2.337
REMARK UNBOUND:                -2.337
REMARK SMILES CCCCCCCCCCCCCCCCCCCCCCCCCCCCCO
REMARK SMILES IDX 16 1 15 2 14 3 13 4 12 5 11 6 10 7 9 8 8 9 7 10 6 11 5 12
REMARK SMILES IDX 4 13 3 14 2 15 1 16 17 17 18 18 19 19 20 20 21 21 22 22
REMARK SMILES IDX 23 23 24 24 25 25 26 26 27 27 28 28 29 29 30 30
REMARK H PARENT 30 31
REMARK Flexibility Score: inf
ROOT
ATOM      1  C   UNL     1     -40.336  45.270 -54.638  1.00  0.00     0.000 C 
ENDROOT
BRANCH   1   2
ATOM      2  C   UNL     1     -40.045  44.745 -53.226  1.00  0.00     0.000 C 
BRANCH   2   3
ATOM      3  C   UNL     1     -41.263  44.007 -52.658  1.00  0.00     0.000 C 
BRANCH   3   4
ATOM      4  C   UNL     1     -42.555  44.436 -53.369  1.00  0.00     0.000 C 
BRANCH   4   5
ATOM      5  C   UNL     1     -43.362  43.232 -53.882  1.00  0.00     0.000 C 
BRANCH   5   6
ATOM      6  C   UNL     1     -42.873  41.903 -53.279  1.00  0.00     0.000 C 
BRANCH   6   7
ATOM      7  C   UNL     1     -44.012  40.871 -53.133  1.00  0.00     0.000 C 
BRANCH   7   8
ATOM      8  C   UNL     1     -43.578  39.425 -53.427  1.00  0.00    -0.000 C 
BRANCH   8   9
ATOM      9  C   UNL     1     -44.443  38.385 -52.697  1.00  0.00    -0.000 C 
BRANCH   9  10
ATOM     10  C   UNL     1     -43.627  37.189 -52.179  1.00  0.00    -0.000 C 
BRANCH  10  11
ATOM     11  C   UNL     1     -42.110  37.369 -52.378  1.00  0.00    -0.000 C 
BRANCH  11  12
ATOM     12  C   UNL     1     -41.377  37.735 -51.070  1.00  0.00    -0.000 C 
BRANCH  12  13
ATOM     13  C   UNL     1     -40.926  39.207 -50.993  1.00  0.00    -0.000 C 
BRANCH  13  14
ATOM     14  C   UNL     1     -41.851  40.132 -50.182  1.00  0.00    -0.000 C 
BRANCH  14  15
ATOM     15  C   UNL     1     -41.079  41.131 -49.307  1.00  0.00    -0.003 C 
ATOM     16  C   UNL     1     -40.672  40.498 -47.979  1.00  0.00     0.004 C 
ENDBRANCH  14  15
ENDBRANCH  13  14
ENDBRANCH  12  13
ENDBRANCH  11  12
ENDBRANCH  10  11
ENDBRANCH   9  10
ENDBRANCH   8   9
ENDBRANCH   7   8
ENDBRANCH   6   7
ENDBRANCH   5   6
ENDBRANCH   4   5
ENDBRANCH   3   4
ENDBRANCH   2   3
ENDBRANCH   1   2
BRANCH   1  17
ATOM     17  C   UNL     1     -40.145  46.791 -54.714  1.00  0.00     0.000 C 
BRANCH  17  18
ATOM     18  C   UNL     1     -39.255  47.337 -53.581  1.00  0.00     0.000 C 
BRANCH  18  19
ATOM     19  C   UNL     1     -38.761  48.787 -53.773  1.00  0.00     0.000 C 
BRANCH  19  20
ATOM     20  C   UNL     1     -37.723  49.270 -52.743  1.00  0.00     0.000 C 
BRANCH  20  21
ATOM     21  C   UNL     1     -36.861  48.127 -52.179  1.00  0.00     0.000 C 
BRANCH  21  22
ATOM     22  C   UNL     1     -35.371  48.288 -52.515  1.00  0.00     0.000 C 
BRANCH  22  23
ATOM     23  C   UNL     1     -35.041  49.639 -53.168  1.00  0.00     0.000 C 
BRANCH  23  24
ATOM     24  C   UNL     1     -33.697  50.177 -52.658  1.00  0.00     0.000 C 
BRANCH  24  25
ATOM     25  C   UNL     1     -33.841  51.082 -51.420  1.00  0.00     0.000 C 
BRANCH  25  26
ATOM     26  C   UNL     1     -32.563  51.836 -51.010  1.00  0.00     0.000 C 
BRANCH  26  27
ATOM     27  C   UNL     1     -31.597  52.166 -52.164  1.00  0.00     0.002 C 
BRANCH  27  28
ATOM     28  C   UNL     1     -31.083  53.623 -52.153  1.00  0.00     0.028 C 
BRANCH  28  29
ATOM     29  C   UNL     1     -31.037  54.238 -50.751  1.00  0.00     0.156 C 
BRANCH  29  30
ATOM     30  O   UNL     1     -32.009  55.241 -50.630  1.00  0.00    -0.396 OA
ATOM     31  H   UNL     1     -32.339  55.199 -49.696  1.00  0.00     0.210 HD
ENDBRANCH  29  30
ENDBRANCH  28  29
ENDBRANCH  27  28
ENDBRANCH  26  27
ENDBRANCH  25  26
ENDBRANCH  24  25
ENDBRANCH  23  24
ENDBRANCH  22  23
ENDBRANCH  21  22
ENDBRANCH  20  21
ENDBRANCH  19  20
ENDBRANCH  18  19
ENDBRANCH  17  18
ENDBRANCH   1  17
TORSDOF 28
ENDMDL
MODEL 2
REMARK VINA RESULT:    -5.454      2.986     13.040
REMARK INTER + INTRA:         -16.559
REMARK INTER:                 -14.306
REMARK INTRA:                  -2.252
REMARK UNBOUND:                -2.337
REMARK SMILES CCCCCCCCCCCCCCCCCCCCCCCCCCCCCO
REMARK SMILES IDX 16 1 15 2 14 3 13 4 12 5 11 6 10 7 9 8 8 9 7 10 6 11 5 12
REMARK SMILES IDX 4 13 3 14 2 15 1 16 17 17 18 18 19 19 20 20 21 21 22 22
REMARK SMILES IDX 23 23 24 24 25 25 26 26 27 27 28 28 29 29 30 30
REMARK H PARENT 30 31
REMARK Flexibility Score: inf
ROOT
ATOM      1  C   UNL     1     -40.710  45.099 -54.737  1.00  0.00     0.000 C 
ENDROOT
BRANCH   1   2
ATOM      2  C   UNL     1     -40.198  46.541 -54.855  1.00  0.00     0.000 C 
BRANCH   2   3
ATOM      3  C   UNL     1     -39.369  46.927 -53.625  1.00  0.00     0.000 C 
BRANCH   3   4
ATOM      4  C   UNL     1     -38.788  48.341 -53.768  1.00  0.00     0.000 C 
BRANCH   4   5
ATOM      5  C   UNL     1     -37.959  48.754 -52.540  1.00  0.00     0.000 C 
BRANCH   5   6
ATOM      6  C   UNL     1     -36.878  47.715 -52.190  1.00  0.00     0.000 C 
BRANCH   6   7
ATOM      7  C   UNL     1     -35.451  48.242 -52.456  1.00  0.00     0.000 C 
BRANCH   7   8
ATOM      8  C   UNL     1     -35.318  49.768 -52.317  1.00  0.00    -0.000 C 
BRANCH   8   9
ATOM      9  C   UNL     1     -34.386  50.382 -53.373  1.00  0.00    -0.000 C 
BRANCH   9  10
ATOM     10  C   UNL     1     -33.205  51.147 -52.753  1.00  0.00    -0.000 C 
BRANCH  10  11
ATOM     11  C   UNL     1     -32.686  50.496 -51.457  1.00  0.00    -0.000 C 
BRANCH  11  12
ATOM     12  C   UNL     1     -32.519  51.511 -50.306  1.00  0.00    -0.000 C 
BRANCH  12  13
ATOM     13  C   UNL     1     -32.591  52.985 -50.753  1.00  0.00    -0.000 C 
BRANCH  13  14
ATOM     14  C   UNL     1     -31.430  53.872 -50.268  1.00  0.00    -0.000 C 
BRANCH  14  15
ATOM     15  C   UNL     1     -30.667  54.541 -51.422  1.00  0.00    -0.003 C 
ATOM     16  C   UNL     1     -30.535  53.596 -52.614  1.00  0.00     0.004 C 
ENDBRANCH  14  15
ENDBRANCH  13  14
ENDBRANCH  12  13
ENDBRANCH  11  12
ENDBRANCH  10  11
ENDBRANCH   9  10
ENDBRANCH   8   9
ENDBRANCH   7   8
ENDBRANCH   6   7
ENDBRANCH   5   6
ENDBRANCH   4   5
ENDBRANCH   3   4
ENDBRANCH   2   3
ENDBRANCH   1   2
BRANCH   1  17
ATOM     17  C   UNL     1     -41.020  44.740 -53.277  1.00  0.00     0.000 C 
BRANCH  17  18
ATOM     18  C   UNL     1     -42.360  43.997 -53.117  1.00  0.00     0.000 C 
BRANCH  18  19
ATOM     19  C   UNL     1     -42.969  43.450 -54.426  1.00  0.00     0.000 C 
BRANCH  19  20
ATOM     20  C   UNL     1     -43.236  41.934 -54.445  1.00  0.00     0.000 C 
BRANCH  20  21
ATOM     21  C   UNL     1     -43.495  41.353 -53.044  1.00  0.00     0.000 C 
BRANCH  21  22
ATOM     22  C   UNL     1     -43.873  39.865 -53.079  1.00  0.00     0.000 C 
BRANCH  22  23
ATOM     23  C   UNL     1     -44.630  39.404 -51.824  1.00  0.00     0.000 C 
BRANCH  23  24
ATOM     24  C   UNL     1     -44.103  38.046 -51.338  1.00  0.00     0.000 C 
BRANCH  24  25
ATOM     25  C   UNL     1     -42.585  37.883 -51.541  1.00  0.00     0.000 C 
BRANCH  25  26
ATOM     26  C   UNL     1     -41.725  38.184 -50.299  1.00  0.00     0.000 C 
BRANCH  26  27
ATOM     27  C   UNL     1     -40.609  39.225 -50.510  1.00  0.00     0.002 C 
BRANCH  27  28
ATOM     28  C   UNL     1     -40.816  40.534 -49.717  1.00  0.00     0.028 C 
BRANCH  28  29
ATOM     29  C   UNL     1     -40.836  41.783 -50.604  1.00  0.00     0.156 C 
BRANCH  29  30
ATOM     30  O   UNL     1     -41.413  42.859 -49.913  1.00  0.00    -0.396 OA
ATOM     31  H   UNL     1     -40.684  43.274 -49.386  1.00  0.00     0.210 HD
ENDBRANCH  29  30
ENDBRANCH  28  29
ENDBRANCH  27  28
ENDBRANCH  26  27
ENDBRANCH  25  26
ENDBRANCH  24  25
ENDBRANCH  23  24
ENDBRANCH  22  23
ENDBRANCH  21  22
ENDBRANCH  20  21
ENDBRANCH  19  20
ENDBRANCH  18  19
ENDBRANCH  17  18
ENDBRANCH   1  17
TORSDOF 28
ENDMDL
MODEL 3
REMARK VINA RESULT:    -5.404      3.095     12.435
REMARK INTER + INTRA:         -16.428
REMARK INTER:                 -14.022
REMARK INTRA:                  -2.407
REMARK UNBOUND:                -2.337
REMARK SMILES CCCCCCCCCCCCCCCCCCCCCCCCCCCCCO
REMARK SMILES IDX 16 1 15 2 14 3 13 4 12 5 11 6 10 7 9 8 8 9 7 10 6 11 5 12
REMARK SMILES IDX 4 13 3 14 2 15 1 16 17 17 18 18 19 19 20 20 21 21 22 22
REMARK SMILES IDX 23 23 24 24 25 25 26 26 27 27 28 28 29 29 30 30
REMARK H PARENT 30 31
REMARK Flexibility Score: inf
ROOT
ATOM      1  C   UNL     1     -41.238  44.348 -52.357  1.00  0.00     0.000 C 
ENDROOT
BRANCH   1   2
ATOM      2  C   UNL     1     -39.890  44.634 -53.031  1.00  0.00     0.000 C 
BRANCH   2   3
ATOM      3  C   UNL     1     -40.056  44.756 -54.550  1.00  0.00     0.000 C 
BRANCH   3   4
ATOM      4  C   UNL     1     -40.261  46.218 -54.972  1.00  0.00     0.000 C 
BRANCH   4   5
ATOM      5  C   UNL     1     -39.556  47.200 -54.021  1.00  0.00     0.000 C 
BRANCH   5   6
ATOM      6  C   UNL     1     -39.219  48.535 -54.708  1.00  0.00     0.000 C 
BRANCH   6   7
ATOM      7  C   UNL     1     -38.253  49.400 -53.869  1.00  0.00     0.000 C 
BRANCH   7   8
ATOM      8  C   UNL     1     -38.006  48.854 -52.453  1.00  0.00    -0.000 C 
BRANCH   8   9
ATOM      9  C   UNL     1     -36.533  48.491 -52.203  1.00  0.00    -0.000 C 
BRANCH   9  10
ATOM     10  C   UNL     1     -35.559  49.378 -52.996  1.00  0.00    -0.000 C 
BRANCH  10  11
ATOM     11  C   UNL     1     -34.539  50.100 -52.096  1.00  0.00    -0.000 C 
BRANCH  11  12
ATOM     12  C   UNL     1     -33.087  49.643 -52.355  1.00  0.00    -0.000 C 
BRANCH  12  13
ATOM     13  C   UNL     1     -32.059  50.792 -52.363  1.00  0.00    -0.000 C 
BRANCH  13  14
ATOM     14  C   UNL     1     -32.636  52.186 -52.057  1.00  0.00    -0.000 C 
BRANCH  14  15
ATOM     15  C   UNL     1     -32.016  52.828 -50.806  1.00  0.00    -0.003 C 
ATOM     16  C   UNL     1     -32.400  52.056 -49.546  1.00  0.00     0.004 C 
ENDBRANCH  14  15
ENDBRANCH  13  14
ENDBRANCH  12  13
ENDBRANCH  11  12
ENDBRANCH  10  11
ENDBRANCH   9  10
ENDBRANCH   8   9
ENDBRANCH   7   8
ENDBRANCH   6   7
ENDBRANCH   5   6
ENDBRANCH   4   5
ENDBRANCH   3   4
ENDBRANCH   2   3
ENDBRANCH   1   2
BRANCH   1  17
ATOM     17  C   UNL     1     -42.194  43.624 -53.316  1.00  0.00     0.000 C 
BRANCH  17  18
ATOM     18  C   UNL     1     -42.830  42.368 -52.690  1.00  0.00     0.000 C 
BRANCH  18  19
ATOM     19  C   UNL     1     -42.643  41.064 -53.494  1.00  0.00     0.000 C 
BRANCH  19  20
ATOM     20  C   UNL     1     -43.927  40.249 -53.734  1.00  0.00     0.000 C 
BRANCH  20  21
ATOM     21  C   UNL     1     -44.453  39.571 -52.458  1.00  0.00     0.000 C 
BRANCH  21  22
ATOM     22  C   UNL     1     -44.843  38.102 -52.685  1.00  0.00     0.000 C 
BRANCH  22  23
ATOM     23  C   UNL     1     -43.963  37.116 -51.901  1.00  0.00     0.000 C 
BRANCH  23  24
ATOM     24  C   UNL     1     -43.428  37.766 -50.617  1.00  0.00     0.000 C 
BRANCH  24  25
ATOM     25  C   UNL     1     -41.914  37.557 -50.423  1.00  0.00     0.000 C 
BRANCH  25  26
ATOM     26  C   UNL     1     -41.016  38.399 -51.349  1.00  0.00     0.000 C 
BRANCH  26  27
ATOM     27  C   UNL     1     -40.682  39.812 -50.832  1.00  0.00     0.002 C 
BRANCH  27  28
ATOM     28  C   UNL     1     -40.885  39.986 -49.311  1.00  0.00     0.028 C 
BRANCH  28  29
ATOM     29  C   UNL     1     -40.697  41.430 -48.837  1.00  0.00     0.156 C 
BRANCH  29  30
ATOM     30  O   UNL     1     -41.485  42.299 -49.605  1.00  0.00    -0.396 OA
ATOM     31  H   UNL     1     -41.106  43.205 -49.479  1.00  0.00     0.210 HD
ENDBRANCH  29  30
ENDBRANCH  28  29
ENDBRANCH  27  28
ENDBRANCH  26  27
ENDBRANCH  25  26
ENDBRANCH  24  25
ENDBRANCH  23  24
ENDBRANCH  22  23
ENDBRANCH  21  22
ENDBRANCH  20  21
ENDBRANCH  19  20
ENDBRANCH  18  19
ENDBRANCH  17  18
ENDBRANCH   1  17
TORSDOF 28
ENDMDL
MODEL 4
REMARK VINA RESULT:    -5.401      3.122     12.189
REMARK INTER + INTRA:         -16.421
REMARK INTER:                 -13.894
REMARK INTRA:                  -2.527
REMARK UNBOUND:                -2.337
REMARK SMILES CCCCCCCCCCCCCCCCCCCCCCCCCCCCCO
REMARK SMILES IDX 16 1 15 2 14 3 13 4 12 5 11 6 10 7 9 8 8 9 7 10 6 11 5 12
REMARK SMILES IDX 4 13 3 14 2 15 1 16 17 17 18 18 19 19 20 20 21 21 22 22
REMARK SMILES IDX 23 23 24 24 25 25 26 26 27 27 28 28 29 29 30 30
REMARK H PARENT 30 31
REMARK Flexibility Score: inf
ROOT
ATOM      1  C   UNL     1     -42.371  43.220 -52.553  1.00  0.00     0.000 C 
ENDROOT
BRANCH   1   2
ATOM      2  C   UNL     1     -41.031  43.631 -51.931  1.00  0.00     0.000 C 
BRANCH   2   3
ATOM      3  C   UNL     1     -40.293  44.626 -52.834  1.00  0.00     0.000 C 
BRANCH   3   4
ATOM      4  C   UNL     1     -41.001  44.779 -54.187  1.00  0.00     0.000 C 
BRANCH   4   5
ATOM      5  C   UNL     1     -40.480  45.989 -54.981  1.00  0.00     0.000 C 
BRANCH   5   6
ATOM      6  C   UNL     1     -39.689  46.969 -54.097  1.00  0.00     0.000 C 
BRANCH   6   7
ATOM      7  C   UNL     1     -39.299  48.258 -54.853  1.00  0.00     0.000 C 
BRANCH   7   8
ATOM      8  C   UNL     1     -38.703  49.349 -53.948  1.00  0.00    -0.000 C 
BRANCH   8   9
ATOM      9  C   UNL     1     -38.340  48.828 -52.548  1.00  0.00    -0.000 C 
BRANCH   9  10
ATOM     10  C   UNL     1     -36.864  48.416 -52.431  1.00  0.00    -0.000 C 
BRANCH  10  11
ATOM     11  C   UNL     1     -35.926  49.613 -52.183  1.00  0.00    -0.000 C 
BRANCH  11  12
ATOM     12  C   UNL     1     -34.782  49.698 -53.216  1.00  0.00    -0.000 C 
BRANCH  12  13
ATOM     13  C   UNL     1     -33.464  50.263 -52.648  1.00  0.00    -0.000 C 
BRANCH  13  14
ATOM     14  C   UNL     1     -33.557  51.690 -52.079  1.00  0.00    -0.000 C 
BRANCH  14  15
ATOM     15  C   UNL     1     -32.436  52.008 -51.077  1.00  0.00    -0.003 C 
ATOM     16  C   UNL     1     -32.578  51.168 -49.810  1.00  0.00     0.004 C 
ENDBRANCH  14  15
ENDBRANCH  13  14
ENDBRANCH  12  13
ENDBRANCH  11  12
ENDBRANCH  10  11
ENDBRANCH   9  10
ENDBRANCH   8   9
ENDBRANCH   7   8
ENDBRANCH   6   7
ENDBRANCH   5   6
ENDBRANCH   4   5
ENDBRANCH   3   4
ENDBRANCH   2   3
ENDBRANCH   1   2
BRANCH   1  17
ATOM     17  C   UNL     1     -42.471  41.695 -52.698  1.00  0.00     0.000 C 
BRANCH  17  18
ATOM     18  C   UNL     1     -43.123  41.264 -54.026  1.00  0.00     0.000 C 
BRANCH  18  19
ATOM     19  C   UNL     1     -44.612  41.637 -54.181  1.00  0.00     0.000 C 
BRANCH  19  20
ATOM     20  C   UNL     1     -45.602  40.464 -54.056  1.00  0.00     0.000 C 
BRANCH  20  21
ATOM     21  C   UNL     1     -45.643  39.863 -52.641  1.00  0.00     0.000 C 
BRANCH  21  22
ATOM     22  C   UNL     1     -44.915  38.513 -52.549  1.00  0.00     0.000 C 
BRANCH  22  23
ATOM     23  C   UNL     1     -44.273  38.265 -51.175  1.00  0.00     0.000 C 
BRANCH  23  24
ATOM     24  C   UNL     1     -43.188  37.184 -51.268  1.00  0.00     0.000 C 
BRANCH  24  25
ATOM     25  C   UNL     1     -42.196  37.426 -52.422  1.00  0.00     0.000 C 
BRANCH  25  26
ATOM     26  C   UNL     1     -41.087  38.453 -52.124  1.00  0.00     0.000 C 
BRANCH  26  27
ATOM     27  C   UNL     1     -40.800  38.695 -50.630  1.00  0.00     0.002 C 
BRANCH  27  28
ATOM     28  C   UNL     1     -40.397  40.148 -50.297  1.00  0.00     0.028 C 
BRANCH  28  29
ATOM     29  C   UNL     1     -41.018  40.666 -48.996  1.00  0.00     0.156 C 
BRANCH  29  30
ATOM     30  O   UNL     1     -40.637  41.998 -48.775  1.00  0.00    -0.396 OA
ATOM     31  H   UNL     1     -39.837  41.966 -48.191  1.00  0.00     0.210 HD
ENDBRANCH  29  30
ENDBRANCH  28  29
ENDBRANCH  27  28
ENDBRANCH  26  27
ENDBRANCH  25  26
ENDBRANCH  24  25
ENDBRANCH  23  24
ENDBRANCH  22  23
ENDBRANCH  21  22
ENDBRANCH  20  21
ENDBRANCH  19  20
ENDBRANCH  18  19
ENDBRANCH  17  18
ENDBRANCH   1  17
TORSDOF 28
ENDMDL
MODEL 5
REMARK VINA RESULT:    -5.340      3.344     11.991
REMARK INTER + INTRA:         -16.263
REMARK INTER:                 -13.788
REMARK INTRA:                  -2.475
REMARK UNBOUND:                -2.337
REMARK SMILES CCCCCCCCCCCCCCCCCCCCCCCCCCCCCO
REMARK SMILES IDX 16 1 15 2 14 3 13 4 12 5 11 6 10 7 9 8 8 9 7 10 6 11 5 12
REMARK SMILES IDX 4 13 3 14 2 15 1 16 17 17 18 18 19 19 20 20 21 21 22 22
REMARK SMILES IDX 23 23 24 24 25 25 26 26 27 27 28 28 29 29 30 30
REMARK H PARENT 30 31
REMARK Flexibility Score: inf
ROOT
ATOM      1  C   UNL     1     -41.000  41.730 -49.701  1.00  0.00     0.000 C 
ENDROOT
BRANCH   1   2
ATOM      2  C   UNL     1     -41.697  42.190 -50.987  1.00  0.00     0.000 C 
BRANCH   2   3
ATOM      3  C   UNL     1     -40.765  43.073 -51.826  1.00  0.00     0.000 C 
BRANCH   3   4
ATOM      4  C   UNL     1     -41.560  44.097 -52.648  1.00  0.00     0.000 C 
BRANCH   4   5
ATOM      5  C   UNL     1     -40.809  44.529 -53.919  1.00  0.00     0.000 C 
BRANCH   5   6
ATOM      6  C   UNL     1     -40.899  46.046 -54.162  1.00  0.00     0.000 C 
BRANCH   6   7
ATOM      7  C   UNL     1     -39.526  46.742 -54.043  1.00  0.00     0.000 C 
BRANCH   7   8
ATOM      8  C   UNL     1     -39.447  48.084 -54.789  1.00  0.00    -0.000 C 
BRANCH   8   9
ATOM      9  C   UNL     1     -38.908  49.223 -53.907  1.00  0.00    -0.000 C 
BRANCH   9  10
ATOM     10  C   UNL     1     -37.374  49.219 -53.801  1.00  0.00    -0.000 C 
BRANCH  10  11
ATOM     11  C   UNL     1     -36.874  48.964 -52.366  1.00  0.00    -0.000 C 
BRANCH  11  12
ATOM     12  C   UNL     1     -35.371  49.269 -52.196  1.00  0.00    -0.000 C 
BRANCH  12  13
ATOM     13  C   UNL     1     -34.731  49.971 -53.410  1.00  0.00    -0.000 C 
BRANCH  13  14
ATOM     14  C   UNL     1     -33.501  50.839 -53.090  1.00  0.00    -0.000 C 
BRANCH  14  15
ATOM     15  C   UNL     1     -33.565  51.472 -51.691  1.00  0.00    -0.003 C 
ATOM     16  C   UNL     1     -32.399  51.005 -50.824  1.00  0.00     0.004 C 
ENDBRANCH  14  15
ENDBRANCH  13  14
ENDBRANCH  12  13
ENDBRANCH  11  12
ENDBRANCH  10  11
ENDBRANCH   9  10
ENDBRANCH   8   9
ENDBRANCH   7   8
ENDBRANCH   6   7
ENDBRANCH   5   6
ENDBRANCH   4   5
ENDBRANCH   3   4
ENDBRANCH   2   3
ENDBRANCH   1   2
BRANCH   1  17
ATOM     17  C   UNL     1     -41.114  40.209 -49.523  1.00  0.00     0.000 C 
BRANCH  17  18
ATOM     18  C   UNL     1     -40.546  39.425 -50.722  1.00  0.00     0.000 C 
BRANCH  18  19
ATOM     19  C   UNL     1     -41.347  38.168 -51.125  1.00  0.00     0.000 C 
BRANCH  19  20
ATOM     20  C   UNL     1     -42.782  38.096 -50.573  1.00  0.00     0.000 C 
BRANCH  20  21
ATOM     21  C   UNL     1     -43.853  38.264 -51.664  1.00  0.00     0.000 C 
BRANCH  21  22
ATOM     22  C   UNL     1     -44.007  39.722 -52.123  1.00  0.00     0.000 C 
BRANCH  22  23
ATOM     23  C   UNL     1     -43.376  39.992 -53.497  1.00  0.00     0.000 C 
BRANCH  23  24
ATOM     24  C   UNL     1     -43.660  41.430 -53.954  1.00  0.00     0.000 C 
BRANCH  24  25
ATOM     25  C   UNL     1     -45.164  41.723 -54.115  1.00  0.00     0.000 C 
BRANCH  25  26
ATOM     26  C   UNL     1     -45.501  42.949 -54.983  1.00  0.00     0.000 C 
BRANCH  26  27
ATOM     27  C   UNL     1     -46.673  43.811 -54.475  1.00  0.00     0.002 C 
BRANCH  27  28
ATOM     28  C   UNL     1     -46.333  45.312 -54.337  1.00  0.00     0.028 C 
BRANCH  28  29
ATOM     29  C   UNL     1     -45.036  45.570 -53.564  1.00  0.00     0.156 C 
BRANCH  29  30
ATOM     30  O   UNL     1     -45.318  45.808 -52.211  1.00  0.00    -0.396 OA
ATOM     31  H   UNL     1     -44.511  45.534 -51.705  1.00  0.00     0.210 HD
ENDBRANCH  29  30
ENDBRANCH  28  29
ENDBRANCH  27  28
ENDBRANCH  26  27
ENDBRANCH  25  26
ENDBRANCH  24  25
ENDBRANCH  23  24
ENDBRANCH  22  23
ENDBRANCH  21  22
ENDBRANCH  20  21
ENDBRANCH  19  20
ENDBRANCH  18  19
ENDBRANCH  17  18
ENDBRANCH   1  17
TORSDOF 28
ENDMDL
MODEL 6
REMARK VINA RESULT:    -5.251      3.042     12.352
REMARK INTER + INTRA:         -16.031
REMARK INTER:                 -13.511
REMARK INTRA:                  -2.520
REMARK UNBOUND:                -2.337
REMARK SMILES CCCCCCCCCCCCCCCCCCCCCCCCCCCCCO
REMARK SMILES IDX 16 1 15 2 14 3 13 4 12 5 11 6 10 7 9 8 8 9 7 10 6 11 5 12
REMARK SMILES IDX 4 13 3 14 2 15 1 16 17 17 18 18 19 19 20 20 21 21 22 22
REMARK SMILES IDX 23 23 24 24 25 25 26 26 27 27 28 28 29 29 30 30
REMARK H PARENT 30 31
REMARK Flexibility Score: inf
ROOT
ATOM      1  C   UNL     1     -41.886  44.752 -52.978  1.00  0.00     0.000 C 
ENDROOT
BRANCH   1   2
ATOM      2  C   UNL     1     -40.893  44.994 -54.122  1.00  0.00     0.000 C 
BRANCH   2   3
ATOM      3  C   UNL     1     -41.065  46.402 -54.704  1.00  0.00     0.000 C 
BRANCH   3   4
ATOM      4  C   UNL     1     -39.716  47.126 -54.818  1.00  0.00     0.000 C 
BRANCH   4   5
ATOM      5  C   UNL     1     -39.885  48.624 -55.121  1.00  0.00     0.000 C 
BRANCH   5   6
ATOM      6  C   UNL     1     -39.154  49.512 -54.099  1.00  0.00     0.000 C 
BRANCH   6   7
ATOM      7  C   UNL     1     -38.737  48.730 -52.835  1.00  0.00     0.000 C 
BRANCH   7   8
ATOM      8  C   UNL     1     -37.380  49.166 -52.258  1.00  0.00    -0.000 C 
BRANCH   8   9
ATOM      9  C   UNL     1     -36.191  48.666 -53.095  1.00  0.00    -0.000 C 
BRANCH   9  10
ATOM     10  C   UNL     1     -34.832  48.999 -52.457  1.00  0.00    -0.000 C 
BRANCH  10  11
ATOM     11  C   UNL     1     -34.567  50.514 -52.369  1.00  0.00    -0.000 C 
BRANCH  11  12
ATOM     12  C   UNL     1     -33.351  50.956 -53.210  1.00  0.00    -0.000 C 
BRANCH  12  13
ATOM     13  C   UNL     1     -32.069  51.191 -52.386  1.00  0.00    -0.000 C 
BRANCH  13  14
ATOM     14  C   UNL     1     -31.678  52.667 -52.193  1.00  0.00    -0.000 C 
BRANCH  14  15
ATOM     15  C   UNL     1     -32.021  53.198 -50.792  1.00  0.00    -0.003 C 
ATOM     16  C   UNL     1     -32.375  52.055 -49.844  1.00  0.00     0.004 C 
ENDBRANCH  14  15
ENDBRANCH  13  14
ENDBRANCH  12  13
ENDBRANCH  11  12
ENDBRANCH  10  11
ENDBRANCH   9  10
ENDBRANCH   8   9
ENDBRANCH   7   8
ENDBRANCH   6   7
ENDBRANCH   5   6
ENDBRANCH   4   5
ENDBRANCH   3   4
ENDBRANCH   2   3
ENDBRANCH   1   2
BRANCH   1  17
ATOM     17  C   UNL     1     -43.204  44.166 -53.504  1.00  0.00     0.000 C 
BRANCH  17  18
ATOM     18  C   UNL     1     -42.989  43.099 -54.594  1.00  0.00     0.000 C 
BRANCH  18  19
ATOM     19  C   UNL     1     -42.661  41.683 -54.075  1.00  0.00     0.000 C 
BRANCH  19  20
ATOM     20  C   UNL     1     -43.739  41.043 -53.181  1.00  0.00     0.000 C 
BRANCH  20  21
ATOM     21  C   UNL     1     -43.727  39.505 -53.237  1.00  0.00     0.000 C 
BRANCH  21  22
ATOM     22  C   UNL     1     -42.570  38.952 -54.083  1.00  0.00     0.000 C 
BRANCH  22  23
ATOM     23  C   UNL     1     -41.538  38.170 -53.255  1.00  0.00     0.000 C 
BRANCH  23  24
ATOM     24  C   UNL     1     -42.236  37.213 -52.278  1.00  0.00     0.000 C 
BRANCH  24  25
ATOM     25  C   UNL     1     -41.700  37.328 -50.839  1.00  0.00     0.000 C 
BRANCH  25  26
ATOM     26  C   UNL     1     -41.884  38.709 -50.182  1.00  0.00     0.000 C 
BRANCH  26  27
ATOM     27  C   UNL     1     -40.595  39.538 -50.022  1.00  0.00     0.002 C 
BRANCH  27  28
ATOM     28  C   UNL     1     -40.547  40.798 -50.913  1.00  0.00     0.028 C 
BRANCH  28  29
ATOM     29  C   UNL     1     -41.434  41.937 -50.400  1.00  0.00     0.156 C 
BRANCH  29  30
ATOM     30  O   UNL     1     -40.892  42.482 -49.227  1.00  0.00    -0.396 OA
ATOM     31  H   UNL     1     -40.132  41.898 -48.973  1.00  0.00     0.210 HD
ENDBRANCH  29  30
ENDBRANCH  28  29
ENDBRANCH  27  28
ENDBRANCH  26  27
ENDBRANCH  25  26
ENDBRANCH  24  25
ENDBRANCH  23  24
ENDBRANCH  22  23
ENDBRANCH  21  22
ENDBRANCH  20  21
ENDBRANCH  19  20
ENDBRANCH  18  19
ENDBRANCH  17  18
ENDBRANCH   1  17
TORSDOF 28
ENDMDL
MODEL 7
REMARK VINA RESULT:    -5.047      3.930     12.898
REMARK INTER + INTRA:         -15.499
REMARK INTER:                 -12.813
REMARK INTRA:                  -2.685
REMARK UNBOUND:                -2.337
REMARK SMILES CCCCCCCCCCCCCCCCCCCCCCCCCCCCCO
REMARK SMILES IDX 16 1 15 2 14 3 13 4 12 5 11 6 10 7 9 8 8 9 7 10 6 11 5 12
REMARK SMILES IDX 4 13 3 14 2 15 1 16 17 17 18 18 19 19 20 20 21 21 22 22
REMARK SMILES IDX 23 23 24 24 25 25 26 26 27 27 28 28 29 29 30 30
REMARK H PARENT 30 31
REMARK Flexibility Score: inf
ROOT
ATOM      1  C   UNL     1     -41.287  41.546 -49.775  1.00  0.00     0.000 C 
ENDROOT
BRANCH   1   2
ATOM      2  C   UNL     1     -40.943  41.619 -51.268  1.00  0.00     0.000 C 
BRANCH   2   3
ATOM      3  C   UNL     1     -40.883  43.076 -51.742  1.00  0.00     0.000 C 
BRANCH   3   4
ATOM      4  C   UNL     1     -42.054  43.405 -52.680  1.00  0.00     0.000 C 
BRANCH   4   5
ATOM      5  C   UNL     1     -41.793  44.672 -53.512  1.00  0.00     0.000 C 
BRANCH   5   6
ATOM      6  C   UNL     1     -40.331  45.142 -53.413  1.00  0.00     0.000 C 
BRANCH   6   7
ATOM      7  C   UNL     1     -40.054  46.383 -54.289  1.00  0.00     0.000 C 
BRANCH   7   8
ATOM      8  C   UNL     1     -39.208  47.459 -53.589  1.00  0.00    -0.000 C 
BRANCH   8   9
ATOM      9  C   UNL     1     -39.161  48.782 -54.371  1.00  0.00    -0.000 C 
BRANCH   9  10
ATOM     10  C   UNL     1     -37.780  49.456 -54.319  1.00  0.00    -0.000 C 
BRANCH  10  11
ATOM     11  C   UNL     1     -36.856  48.845 -53.247  1.00  0.00    -0.000 C 
BRANCH  11  12
ATOM     12  C   UNL     1     -35.405  49.361 -53.348  1.00  0.00    -0.000 C 
BRANCH  12  13
ATOM     13  C   UNL     1     -34.886  50.033 -52.062  1.00  0.00    -0.000 C 
BRANCH  13  14
ATOM     14  C   UNL     1     -33.869  51.167 -52.282  1.00  0.00    -0.000 C 
BRANCH  14  15
ATOM     15  C   UNL     1     -32.910  51.349 -51.094  1.00  0.00    -0.003 C 
ATOM     16  C   UNL     1     -32.327  52.759 -51.071  1.00  0.00     0.004 C 
ENDBRANCH  14  15
ENDBRANCH  13  14
ENDBRANCH  12  13
ENDBRANCH  11  12
ENDBRANCH  10  11
ENDBRANCH   9  10
ENDBRANCH   8   9
ENDBRANCH   7   8
ENDBRANCH   6   7
ENDBRANCH   5   6
ENDBRANCH   4   5
ENDBRANCH   3   4
ENDBRANCH   2   3
ENDBRANCH   1   2
BRANCH   1  17
ATOM     17  C   UNL     1     -41.048  40.135 -49.220  1.00  0.00     0.000 C 
BRANCH  17  18
ATOM     18  C   UNL     1     -41.170  39.041 -50.298  1.00  0.00     0.000 C 
BRANCH  18  19
ATOM     19  C   UNL     1     -42.360  38.075 -50.125  1.00  0.00     0.000 C 
BRANCH  19  20
ATOM     20  C   UNL     1     -42.399  36.893 -51.110  1.00  0.00     0.000 C 
BRANCH  20  21
ATOM     21  C   UNL     1     -41.701  37.204 -52.446  1.00  0.00     0.000 C 
BRANCH  21  22
ATOM     22  C   UNL     1     -42.675  37.721 -53.516  1.00  0.00     0.000 C 
BRANCH  22  23
ATOM     23  C   UNL     1     -42.366  39.155 -53.972  1.00  0.00     0.000 C 
BRANCH  23  24
ATOM     24  C   UNL     1     -43.627  40.028 -53.917  1.00  0.00     0.000 C 
BRANCH  24  25
ATOM     25  C   UNL     1     -44.122  40.279 -52.480  1.00  0.00     0.000 C 
BRANCH  25  26
ATOM     26  C   UNL     1     -45.517  39.711 -52.161  1.00  0.00     0.000 C 
BRANCH  26  27
ATOM     27  C   UNL     1     -46.548  39.822 -53.302  1.00  0.00     0.002 C 
BRANCH  27  28
ATOM     28  C   UNL     1     -47.820  40.610 -52.921  1.00  0.00     0.028 C 
BRANCH  28  29
ATOM     29  C   UNL     1     -48.070  41.826 -53.818  1.00  0.00     0.156 C 
BRANCH  29  30
ATOM     30  O   UNL     1     -47.371  42.940 -53.331  1.00  0.00    -0.396 OA
ATOM     31  H   UNL     1     -46.559  42.587 -52.887  1.00  0.00     0.210 HD
ENDBRANCH  29  30
ENDBRANCH  28  29
ENDBRANCH  27  28
ENDBRANCH  26  27
ENDBRANCH  25  26
ENDBRANCH  24  25
ENDBRANCH  23  24
ENDBRANCH  22  23
ENDBRANCH  21  22
ENDBRANCH  20  21
ENDBRANCH  19  20
ENDBRANCH  18  19
ENDBRANCH  17  18
ENDBRANCH   1  17
TORSDOF 28
ENDMDL
MODEL 8
REMARK VINA RESULT:    -4.985      3.660     13.191
REMARK INTER + INTRA:         -15.336
REMARK INTER:                 -13.135
REMARK INTRA:                  -2.200
REMARK UNBOUND:                -2.337
REMARK SMILES CCCCCCCCCCCCCCCCCCCCCCCCCCCCCO
REMARK SMILES IDX 16 1 15 2 14 3 13 4 12 5 11 6 10 7 9 8 8 9 7 10 6 11 5 12
REMARK SMILES IDX 4 13 3 14 2 15 1 16 17 17 18 18 19 19 20 20 21 21 22 22
REMARK SMILES IDX 23 23 24 24 25 25 26 26 27 27 28 28 29 29 30 30
REMARK H PARENT 30 31
REMARK Flexibility Score: inf
ROOT
ATOM      1  C   UNL     1     -41.131  45.091 -52.873  1.00  0.00     0.000 C 
ENDROOT
BRANCH   1   2
ATOM      2  C   UNL     1     -41.538  45.515 -54.290  1.00  0.00     0.000 C 
BRANCH   2   3
ATOM      3  C   UNL     1     -40.387  46.246 -54.991  1.00  0.00     0.000 C 
BRANCH   3   4
ATOM      4  C   UNL     1     -39.553  47.058 -53.991  1.00  0.00     0.000 C 
BRANCH   4   5
ATOM      5  C   UNL     1     -39.234  48.469 -54.513  1.00  0.00     0.000 C 
BRANCH   5   6
ATOM      6  C   UNL     1     -38.377  49.277 -53.522  1.00  0.00     0.000 C 
BRANCH   6   7
ATOM      7  C   UNL     1     -36.894  48.848 -53.542  1.00  0.00     0.000 C 
BRANCH   7   8
ATOM      8  C   UNL     1     -36.197  48.966 -52.176  1.00  0.00    -0.000 C 
BRANCH   8   9
ATOM      9  C   UNL     1     -35.068  50.009 -52.174  1.00  0.00    -0.000 C 
BRANCH   9  10
ATOM     10  C   UNL     1     -34.538  50.316 -53.583  1.00  0.00    -0.000 C 
BRANCH  10  11
ATOM     11  C   UNL     1     -33.008  50.167 -53.693  1.00  0.00    -0.000 C 
BRANCH  11  12
ATOM     12  C   UNL     1     -32.303  51.494 -54.046  1.00  0.00    -0.000 C 
BRANCH  12  13
ATOM     13  C   UNL     1     -31.682  52.217 -52.835  1.00  0.00    -0.000 C 
BRANCH  13  14
ATOM     14  C   UNL     1     -31.663  51.403 -51.528  1.00  0.00    -0.000 C 
BRANCH  14  15
ATOM     15  C   UNL     1     -32.621  51.960 -50.463  1.00  0.00    -0.003 C 
ATOM     16  C   UNL     1     -32.568  51.126 -49.187  1.00  0.00     0.004 C 
ENDBRANCH  14  15
ENDBRANCH  13  14
ENDBRANCH  12  13
ENDBRANCH  11  12
ENDBRANCH  10  11
ENDBRANCH   9  10
ENDBRANCH   8   9
ENDBRANCH   7   8
ENDBRANCH   6   7
ENDBRANCH   5   6
ENDBRANCH   4   5
ENDBRANCH   3   4
ENDBRANCH   2   3
ENDBRANCH   1   2
BRANCH   1  17
ATOM     17  C   UNL     1     -41.558  43.645 -52.584  1.00  0.00     0.000 C 
BRANCH  17  18
ATOM     18  C   UNL     1     -40.623  42.935 -51.586  1.00  0.00     0.000 C 
BRANCH  18  19
ATOM     19  C   UNL     1     -41.309  41.919 -50.648  1.00  0.00     0.000 C 
BRANCH  19  20
ATOM     20  C   UNL     1     -40.800  40.471 -50.760  1.00  0.00     0.000 C 
BRANCH  20  21
ATOM     21  C   UNL     1     -41.833  39.434 -50.285  1.00  0.00     0.000 C 
BRANCH  21  22
ATOM     22  C   UNL     1     -41.302  37.994 -50.354  1.00  0.00     0.000 C 
BRANCH  22  23
ATOM     23  C   UNL     1     -42.406  36.956 -50.606  1.00  0.00     0.000 C 
BRANCH  23  24
ATOM     24  C   UNL     1     -43.725  37.644 -50.984  1.00  0.00     0.000 C 
BRANCH  24  25
ATOM     25  C   UNL     1     -44.361  37.065 -52.262  1.00  0.00     0.000 C 
BRANCH  25  26
ATOM     26  C   UNL     1     -44.834  38.112 -53.288  1.00  0.00     0.000 C 
BRANCH  26  27
ATOM     27  C   UNL     1     -43.826  39.237 -53.591  1.00  0.00     0.002 C 
BRANCH  27  28
ATOM     28  C   UNL     1     -44.222  40.609 -53.002  1.00  0.00     0.028 C 
BRANCH  28  29
ATOM     29  C   UNL     1     -44.190  41.742 -54.032  1.00  0.00     0.156 C 
BRANCH  29  30
ATOM     30  O   UNL     1     -45.376  42.487 -53.969  1.00  0.00    -0.396 OA
ATOM     31  H   UNL     1     -45.895  42.122 -53.208  1.00  0.00     0.210 HD
ENDBRANCH  29  30
ENDBRANCH  28  29
ENDBRANCH  27  28
ENDBRANCH  26  27
ENDBRANCH  25  26
ENDBRANCH  24  25
ENDBRANCH  23  24
ENDBRANCH  22  23
ENDBRANCH  21  22
ENDBRANCH  20  21
ENDBRANCH  19  20
ENDBRANCH  18  19
ENDBRANCH  17  18
ENDBRANCH   1  17
TORSDOF 28
ENDMDL
MODEL 9
REMARK VINA RESULT:    -4.935      2.014      5.557
REMARK INTER + INTRA:         -15.207
REMARK INTER:                 -11.998
REMARK INTRA:                  -3.209
REMARK UNBOUND:                -2.337
REMARK SMILES CCCCCCCCCCCCCCCCCCCCCCCCCCCCCO
REMARK SMILES IDX 16 1 15 2 14 3 13 4 12 5 11 6 10 7 9 8 8 9 7 10 6 11 5 12
REMARK SMILES IDX 4 13 3 14 2 15 1 16 17 17 18 18 19 19 20 20 21 21 22 22
REMARK SMILES IDX 23 23 24 24 25 25 26 26 27 27 28 28 29 29 30 30
REMARK H PARENT 30 31
REMARK Flexibility Score: inf
ROOT
ATOM      1  C   UNL     1     -42.150  41.327 -50.762  1.00  0.00     0.000 C 
ENDROOT
BRANCH   1   2
ATOM      2  C   UNL     1     -40.852  41.033 -50.000  1.00  0.00     0.000 C 
BRANCH   2   3
ATOM      3  C   UNL     1     -40.649  39.523 -49.832  1.00  0.00     0.000 C 
BRANCH   3   4
ATOM      4  C   UNL     1     -40.934  38.775 -51.142  1.00  0.00     0.000 C 
BRANCH   4   5
ATOM      5  C   UNL     1     -41.462  37.352 -50.895  1.00  0.00     0.000 C 
BRANCH   5   6
ATOM      6  C   UNL     1     -42.835  37.352 -50.200  1.00  0.00     0.000 C 
BRANCH   6   7
ATOM      7  C   UNL     1     -43.906  38.107 -51.017  1.00  0.00     0.000 C 
BRANCH   7   8
ATOM      8  C   UNL     1     -44.367  37.355 -52.276  1.00  0.00    -0.000 C 
BRANCH   8   9
ATOM      9  C   UNL     1     -44.478  38.269 -53.507  1.00  0.00    -0.000 C 
BRANCH   9  10
ATOM     10  C   UNL     1     -43.433  39.396 -53.508  1.00  0.00    -0.000 C 
BRANCH  10  11
ATOM     11  C   UNL     1     -43.652  40.415 -54.643  1.00  0.00    -0.000 C 
BRANCH  11  12
ATOM     12  C   UNL     1     -44.833  41.370 -54.367  1.00  0.00    -0.000 C 
BRANCH  12  13
ATOM     13  C   UNL     1     -44.537  42.846 -54.694  1.00  0.00    -0.000 C 
BRANCH  13  14
ATOM     14  C   UNL     1     -45.725  43.808 -54.510  1.00  0.00    -0.000 C 
BRANCH  14  15
ATOM     15  C   UNL     1     -45.306  45.286 -54.533  1.00  0.00    -0.003 C 
ATOM     16  C   UNL     1     -45.312  45.879 -53.127  1.00  0.00     0.004 C 
ENDBRANCH  14  15
ENDBRANCH  13  14
ENDBRANCH  12  13
ENDBRANCH  11  12
ENDBRANCH  10  11
ENDBRANCH   9  10
ENDBRANCH   8   9
ENDBRANCH   7   8
ENDBRANCH   6   7
ENDBRANCH   5   6
ENDBRANCH   4   5
ENDBRANCH   3   4
ENDBRANCH   2   3
ENDBRANCH   1   2
BRANCH   1  17
ATOM     17  C   UNL     1     -41.916  42.352 -51.881  1.00  0.00     0.000 C 
BRANCH  17  18
ATOM     18  C   UNL     1     -40.606  43.142 -51.701  1.00  0.00     0.000 C 
BRANCH  18  19
ATOM     19  C   UNL     1     -40.407  44.319 -52.679  1.00  0.00     0.000 C 
BRANCH  19  20
ATOM     20  C   UNL     1     -41.678  45.123 -53.011  1.00  0.00     0.000 C 
BRANCH  20  21
ATOM     21  C   UNL     1     -41.673  45.688 -54.442  1.00  0.00     0.000 C 
BRANCH  21  22
ATOM     22  C   UNL     1     -40.254  45.952 -54.969  1.00  0.00     0.000 C 
BRANCH  22  23
ATOM     23  C   UNL     1     -39.780  47.394 -54.729  1.00  0.00     0.000 C 
BRANCH  23  24
ATOM     24  C   UNL     1     -38.694  47.437 -53.645  1.00  0.00     0.000 C 
BRANCH  24  25
ATOM     25  C   UNL     1     -38.668  48.769 -52.873  1.00  0.00     0.000 C 
BRANCH  25  26
ATOM     26  C   UNL     1     -37.429  49.647 -53.127  1.00  0.00     0.000 C 
BRANCH  26  27
ATOM     27  C   UNL     1     -36.115  49.121 -52.517  1.00  0.00     0.002 C 
BRANCH  27  28
ATOM     28  C   UNL     1     -35.101  50.230 -52.163  1.00  0.00     0.028 C 
BRANCH  28  29
ATOM     29  C   UNL     1     -33.702  49.976 -52.734  1.00  0.00     0.156 C 
BRANCH  29  30
ATOM     30  O   UNL     1     -33.078  51.193 -53.046  1.00  0.00    -0.396 OA
ATOM     31  H   UNL     1     -32.963  51.203 -54.030  1.00  0.00     0.210 HD
ENDBRANCH  29  30
ENDBRANCH  28  29
ENDBRANCH  27  28
ENDBRANCH  26  27
ENDBRANCH  25  26
ENDBRANCH  24  25
ENDBRANCH  23  24
ENDBRANCH  22  23
ENDBRANCH  21  22
ENDBRANCH  20  21
ENDBRANCH  19  20
ENDBRANCH  18  19
ENDBRANCH  17  18
ENDBRANCH   1  17
TORSDOF 28
ENDMDL
