MODEL 1
REMARK VINA RESULT:    -6.705      0.000      0.000
REMARK INTER + INTRA:          -7.293
REMARK INTER:                  -7.293
REMARK INTRA:                   0.000
REMARK UNBOUND:                 0.000
REMARK SMILES Cc1cc(O)c2c(c1)C(=O)c1cc(O)cc(O)c1C2=O
REMARK SMILES IDX 1 1 2 2 8 3 7 4 6 5 4 6 3 7 19 8 20 9 18 10 11 11 9 12 10 13
REMARK SMILES IDX 12 14 13 15 15 16 16 17 5 18 17 20 14 22
REMARK H PARENT 5 19 17 21 14 23
REMARK Flexibility Score: inf
ROOT
ATOM      1  C   UNL     1     180.629 181.705 179.576  1.00  0.00     0.044 C 
ATOM      2  C   UNL     1     180.275 181.068 178.264  1.00  0.00    -0.047 A 
ATOM      3  C   UNL     1     179.069 181.386 177.631  1.00  0.00     0.016 A 
ATOM      4  C   UNL     1     178.707 180.762 176.424  1.00  0.00     0.038 A 
ATOM      5  C   UNL     1     179.554 179.785 175.856  1.00  0.00     0.076 A 
ATOM      6  C   UNL     1     180.797 179.500 176.479  1.00  0.00     0.127 A 
ATOM      7  C   UNL     1     181.126 180.119 177.689  1.00  0.00     0.050 A 
ATOM      8  C   UNL     1     179.069 179.044 174.663  1.00  0.00     0.201 C 
ATOM      9  O   UNL     1     179.447 177.858 174.464  1.00  0.00    -0.288 OA
ATOM     10  C   UNL     1     178.000 179.631 173.813  1.00  0.00     0.076 A 
ATOM     11  C   UNL     1     177.155 180.608 174.386  1.00  0.00     0.041 A 
ATOM     12  C   UNL     1     177.442 181.129 175.745  1.00  0.00     0.194 C 
ATOM     13  O   UNL     1     176.621 181.903 176.310  1.00  0.00    -0.289 OA
ATOM     14  C   UNL     1     176.049 181.086 173.664  1.00  0.00     0.059 A 
ATOM     15  C   UNL     1     175.786 180.612 172.375  1.00  0.00     0.120 A 
ATOM     16  C   UNL     1     176.641 179.678 171.791  1.00  0.00     0.093 A 
ATOM     17  C   UNL     1     177.760 179.203 172.482  1.00  0.00     0.131 A 
ENDROOT
BRANCH   6  18
ATOM     18  O   UNL     1     181.744 178.640 175.917  1.00  0.00    -0.507 OA
ATOM     19  H   UNL     1     182.252 177.946 176.447  1.00  0.00     0.293 HD
ENDBRANCH   6  18
BRANCH  17  20
ATOM     20  O   UNL     1     178.619 178.339 171.800  1.00  0.00    -0.507 OA
ATOM     21  H   UNL     1     178.936 178.498 170.854  1.00  0.00     0.293 HD
ENDBRANCH  17  20
BRANCH  15  22
ATOM     22  O   UNL     1     174.683 181.075 171.659  1.00  0.00    -0.508 OA
ATOM     23  H   UNL     1     174.789 181.687 170.858  1.00  0.00     0.293 HD
ENDBRANCH  15  22
TORSDOF 3
ENDMDL
MODEL 2
REMARK VINA RESULT:    -6.673      3.710      5.832
REMARK INTER + INTRA:          -7.258
REMARK INTER:                  -7.258
REMARK INTRA:                   0.000
REMARK UNBOUND:                 0.000
REMARK SMILES Cc1cc(O)c2c(c1)C(=O)c1cc(O)cc(O)c1C2=O
REMARK SMILES IDX 1 1 2 2 8 3 7 4 6 5 4 6 3 7 19 8 20 9 18 10 11 11 9 12 10 13
REMARK SMILES IDX 12 14 13 15 15 16 16 17 5 18 17 20 14 22
REMARK H PARENT 5 19 17 21 14 23
REMARK Flexibility Score: inf
ROOT
ATOM      1  C   UNL     1     180.119 179.081 179.515  1.00  0.00     0.044 C 
ATOM      2  C   UNL     1     180.465 179.698 178.192  1.00  0.00    -0.047 A 
ATOM      3  C   UNL     1     181.673 179.378 177.561  1.00  0.00     0.016 A 
ATOM      4  C   UNL     1     182.027 179.984 176.343  1.00  0.00     0.038 A 
ATOM      5  C   UNL     1     181.172 180.946 175.761  1.00  0.00     0.076 A 
ATOM      6  C   UNL     1     179.929 181.233 176.382  1.00  0.00     0.127 A 
ATOM      7  C   UNL     1     179.608 180.632 177.603  1.00  0.00     0.050 A 
ATOM      8  C   UNL     1     181.650 181.670 174.554  1.00  0.00     0.201 C 
ATOM      9  O   UNL     1     181.264 182.850 174.337  1.00  0.00    -0.288 OA
ATOM     10  C   UNL     1     182.721 181.077 173.712  1.00  0.00     0.076 A 
ATOM     11  C   UNL     1     183.574 180.115 174.299  1.00  0.00     0.041 A 
ATOM     12  C   UNL     1     183.294 179.615 175.667  1.00  0.00     0.194 C 
ATOM     13  O   UNL     1     184.121 178.855 176.243  1.00  0.00    -0.289 OA
ATOM     14  C   UNL     1     184.682 179.632 173.582  1.00  0.00     0.059 A 
ATOM     15  C   UNL     1     184.938 180.087 172.285  1.00  0.00     0.120 A 
ATOM     16  C   UNL     1     184.076 181.005 171.688  1.00  0.00     0.093 A 
ATOM     17  C   UNL     1     182.956 181.484 172.374  1.00  0.00     0.131 A 
ENDROOT
BRANCH   6  18
ATOM     18  O   UNL     1     178.976 182.077 175.808  1.00  0.00    -0.507 OA
ATOM     19  H   UNL     1     178.728 182.981 176.188  1.00  0.00     0.293 HD
ENDBRANCH   6  18
BRANCH  17  20
ATOM     20  O   UNL     1     182.089 182.331 171.679  1.00  0.00    -0.507 OA
ATOM     21  H   UNL     1     181.192 182.629 172.038  1.00  0.00     0.293 HD
ENDBRANCH  17  20
BRANCH  15  22
ATOM     22  O   UNL     1     186.043 179.619 171.575  1.00  0.00    -0.508 OA
ATOM     23  H   UNL     1     186.801 180.236 171.307  1.00  0.00     0.293 HD
ENDBRANCH  15  22
TORSDOF 3
ENDMDL
MODEL 3
REMARK VINA RESULT:    -6.355      1.772      3.911
REMARK INTER + INTRA:          -6.912
REMARK INTER:                  -6.912
REMARK INTRA:                   0.000
REMARK UNBOUND:                 0.000
REMARK SMILES Cc1cc(O)c2c(c1)C(=O)c1cc(O)cc(O)c1C2=O
REMARK SMILES IDX 1 1 2 2 8 3 7 4 6 5 4 6 3 7 19 8 20 9 18 10 11 11 9 12 10 13
REMARK SMILES IDX 12 14 13 15 15 16 16 17 5 18 17 20 14 22
REMARK H PARENT 5 19 17 21 14 23
REMARK Flexibility Score: inf
ROOT
ATOM      1  C   UNL     1     180.703 181.920 179.543  1.00  0.00     0.044 C 
ATOM      2  C   UNL     1     180.013 181.339 178.345  1.00  0.00    -0.047 A 
ATOM      3  C   UNL     1     180.611 180.299 177.625  1.00  0.00     0.016 A 
ATOM      4  C   UNL     1     179.994 179.777 176.474  1.00  0.00     0.038 A 
ATOM      5  C   UNL     1     178.772 180.324 176.021  1.00  0.00     0.076 A 
ATOM      6  C   UNL     1     178.149 181.348 176.781  1.00  0.00     0.127 A 
ATOM      7  C   UNL     1     178.792 181.864 177.911  1.00  0.00     0.050 A 
ATOM      8  C   UNL     1     178.229 179.847 174.724  1.00  0.00     0.201 C 
ATOM      9  O   UNL     1     177.537 180.623 174.010  1.00  0.00    -0.288 OA
ATOM     10  C   UNL     1     178.655 178.530 174.183  1.00  0.00     0.076 A 
ATOM     11  C   UNL     1     179.878 177.988 174.639  1.00  0.00     0.041 A 
ATOM     12  C   UNL     1     180.620 178.654 175.736  1.00  0.00     0.194 C 
ATOM     13  O   UNL     1     181.770 178.248 176.058  1.00  0.00    -0.289 OA
ATOM     14  C   UNL     1     180.385 176.815 174.052  1.00  0.00     0.059 A 
ATOM     15  C   UNL     1     179.679 176.173 173.030  1.00  0.00     0.120 A 
ATOM     16  C   UNL     1     178.453 176.683 172.606  1.00  0.00     0.093 A 
ATOM     17  C   UNL     1     177.919 177.837 173.188  1.00  0.00     0.131 A 
ENDROOT
BRANCH   6  18
ATOM     18  O   UNL     1     176.885 181.855 176.471  1.00  0.00    -0.507 OA
ATOM     19  H   UNL     1     176.143 181.299 176.067  1.00  0.00     0.293 HD
ENDBRANCH   6  18
BRANCH  17  20
ATOM     20  O   UNL     1     176.645 178.236 172.776  1.00  0.00    -0.507 OA
ATOM     21  H   UNL     1     176.339 179.198 172.761  1.00  0.00     0.293 HD
ENDBRANCH  17  20
BRANCH  15  22
ATOM     22  O   UNL     1     180.184 175.017 172.438  1.00  0.00    -0.508 OA
ATOM     23  H   UNL     1     180.330 174.953 171.437  1.00  0.00     0.293 HD
ENDBRANCH  15  22
TORSDOF 3
ENDMDL
MODEL 4
REMARK VINA RESULT:    -6.348      3.699      4.433
REMARK INTER + INTRA:          -6.904
REMARK INTER:                  -6.904
REMARK INTRA:                   0.000
REMARK UNBOUND:                 0.000
REMARK SMILES Cc1cc(O)c2c(c1)C(=O)c1cc(O)cc(O)c1C2=O
REMARK SMILES IDX 1 1 2 2 8 3 7 4 6 5 4 6 3 7 19 8 20 9 18 10 11 11 9 12 10 13
REMARK SMILES IDX 12 14 13 15 15 16 16 17 5 18 17 20 14 22
REMARK H PARENT 5 19 17 21 14 23
REMARK Flexibility Score: inf
ROOT
ATOM      1  C   UNL     1     180.003 178.817 179.533  1.00  0.00     0.044 C 
ATOM      2  C   UNL     1     180.701 179.402 178.341  1.00  0.00    -0.047 A 
ATOM      3  C   UNL     1     180.105 180.442 177.618  1.00  0.00     0.016 A 
ATOM      4  C   UNL     1     180.729 180.968 176.474  1.00  0.00     0.038 A 
ATOM      5  C   UNL     1     181.957 180.426 176.029  1.00  0.00     0.076 A 
ATOM      6  C   UNL     1     182.577 179.403 176.792  1.00  0.00     0.127 A 
ATOM      7  C   UNL     1     181.927 178.883 177.915  1.00  0.00     0.050 A 
ATOM      8  C   UNL     1     182.509 180.907 174.737  1.00  0.00     0.201 C 
ATOM      9  O   UNL     1     183.209 180.135 174.028  1.00  0.00    -0.288 OA
ATOM     10  C   UNL     1     182.082 182.223 174.195  1.00  0.00     0.076 A 
ATOM     11  C   UNL     1     180.854 182.761 174.642  1.00  0.00     0.041 A 
ATOM     12  C   UNL     1     180.106 182.090 175.733  1.00  0.00     0.194 C 
ATOM     13  O   UNL     1     178.952 182.492 176.047  1.00  0.00    -0.289 OA
ATOM     14  C   UNL     1     180.348 183.933 174.054  1.00  0.00     0.059 A 
ATOM     15  C   UNL     1     181.060 184.580 173.039  1.00  0.00     0.120 A 
ATOM     16  C   UNL     1     182.291 184.075 172.624  1.00  0.00     0.093 A 
ATOM     17  C   UNL     1     182.824 182.921 173.208  1.00  0.00     0.131 A 
ENDROOT
BRANCH   6  18
ATOM     18  O   UNL     1     183.845 178.901 176.491  1.00  0.00    -0.507 OA
ATOM     19  H   UNL     1     184.384 178.326 177.124  1.00  0.00     0.293 HD
ENDBRANCH   6  18
BRANCH  17  20
ATOM     20  O   UNL     1     184.102 182.527 172.805  1.00  0.00    -0.507 OA
ATOM     21  H   UNL     1     184.591 182.933 172.019  1.00  0.00     0.293 HD
ENDBRANCH  17  20
BRANCH  15  22
ATOM     22  O   UNL     1     180.556 185.736 172.445  1.00  0.00    -0.508 OA
ATOM     23  H   UNL     1     181.152 186.529 172.238  1.00  0.00     0.293 HD
ENDBRANCH  15  22
TORSDOF 3
ENDMDL
MODEL 5
REMARK VINA RESULT:    -6.248      3.980      5.861
REMARK INTER + INTRA:          -6.796
REMARK INTER:                  -6.796
REMARK INTRA:                   0.000
REMARK UNBOUND:                 0.000
REMARK SMILES Cc1cc(O)c2c(c1)C(=O)c1cc(O)cc(O)c1C2=O
REMARK SMILES IDX 1 1 2 2 8 3 7 4 6 5 4 6 3 7 19 8 20 9 18 10 11 11 9 12 10 13
REMARK SMILES IDX 12 14 13 15 15 16 16 17 5 18 17 20 14 22
REMARK H PARENT 5 19 17 21 14 23
REMARK Flexibility Score: inf
ROOT
ATOM      1  C   UNL     1     180.052 181.500 178.147  1.00  0.00     0.044 C 
ATOM      2  C   UNL     1     180.548 180.615 177.042  1.00  0.00    -0.047 A 
ATOM      3  C   UNL     1     181.633 181.013 176.254  1.00  0.00     0.016 A 
ATOM      4  C   UNL     1     182.077 180.212 175.188  1.00  0.00     0.038 A 
ATOM      5  C   UNL     1     181.407 179.004 174.889  1.00  0.00     0.076 A 
ATOM      6  C   UNL     1     180.336 178.584 175.719  1.00  0.00     0.127 A 
ATOM      7  C   UNL     1     179.900 179.407 176.761  1.00  0.00     0.050 A 
ATOM      8  C   UNL     1     181.812 178.261 173.668  1.00  0.00     0.201 C 
ATOM      9  O   UNL     1     180.963 177.568 173.045  1.00  0.00    -0.288 OA
ATOM     10  C   UNL     1     183.158 178.486 173.078  1.00  0.00     0.076 A 
ATOM     11  C   UNL     1     183.824 179.695 173.380  1.00  0.00     0.041 A 
ATOM     12  C   UNL     1     183.247 180.627 174.379  1.00  0.00     0.194 C 
ATOM     13  O   UNL     1     183.769 181.763 174.557  1.00  0.00    -0.289 OA
ATOM     14  C   UNL     1     185.034 180.007 172.736  1.00  0.00     0.059 A 
ATOM     15  C   UNL     1     185.590 179.121 171.808  1.00  0.00     0.120 A 
ATOM     16  C   UNL     1     184.957 177.909 171.538  1.00  0.00     0.093 A 
ATOM     17  C   UNL     1     183.763 177.567 172.182  1.00  0.00     0.131 A 
ENDROOT
BRANCH   6  18
ATOM     18  O   UNL     1     179.703 177.348 175.567  1.00  0.00    -0.507 OA
ATOM     19  H   UNL     1     179.837 176.570 176.198  1.00  0.00     0.293 HD
ENDBRANCH   6  18
BRANCH  17  20
ATOM     20  O   UNL     1     183.235 176.299 171.929  1.00  0.00    -0.507 OA
ATOM     21  H   UNL     1     183.538 175.463 172.408  1.00  0.00     0.293 HD
ENDBRANCH  17  20
BRANCH  15  22
ATOM     22  O   UNL     1     186.783 179.432 171.158  1.00  0.00    -0.508 OA
ATOM     23  H   UNL     1     186.841 179.478 170.147  1.00  0.00     0.293 HD
ENDBRANCH  15  22
TORSDOF 3
ENDMDL
MODEL 6
REMARK VINA RESULT:    -6.246      2.412      3.091
REMARK INTER + INTRA:          -6.794
REMARK INTER:                  -6.794
REMARK INTRA:                   0.000
REMARK UNBOUND:                 0.000
REMARK SMILES Cc1cc(O)c2c(c1)C(=O)c1cc(O)cc(O)c1C2=O
REMARK SMILES IDX 1 1 2 2 8 3 7 4 6 5 4 6 3 7 19 8 20 9 18 10 11 11 9 12 10 13
REMARK SMILES IDX 12 14 13 15 15 16 16 17 5 18 17 20 14 22
REMARK H PARENT 5 19 17 21 14 23
REMARK Flexibility Score: inf
ROOT
ATOM      1  C   UNL     1     180.625 179.404 178.256  1.00  0.00     0.044 C 
ATOM      2  C   UNL     1     180.141 180.263 177.126  1.00  0.00    -0.047 A 
ATOM      3  C   UNL     1     179.060 179.849 176.340  1.00  0.00     0.016 A 
ATOM      4  C   UNL     1     178.627 180.625 175.251  1.00  0.00     0.038 A 
ATOM      5  C   UNL     1     179.304 181.823 174.927  1.00  0.00     0.076 A 
ATOM      6  C   UNL     1     180.370 182.260 175.755  1.00  0.00     0.127 A 
ATOM      7  C   UNL     1     180.795 181.461 176.820  1.00  0.00     0.050 A 
ATOM      8  C   UNL     1     178.910 182.536 173.685  1.00  0.00     0.201 C 
ATOM      9  O   UNL     1     179.766 183.211 173.052  1.00  0.00    -0.288 OA
ATOM     10  C   UNL     1     177.568 182.302 173.091  1.00  0.00     0.076 A 
ATOM     11  C   UNL     1     176.895 181.103 173.418  1.00  0.00     0.041 A 
ATOM     12  C   UNL     1     177.461 180.194 174.444  1.00  0.00     0.194 C 
ATOM     13  O   UNL     1     176.934 179.065 174.646  1.00  0.00    -0.289 OA
ATOM     14  C   UNL     1     175.689 180.780 172.773  1.00  0.00     0.059 A 
ATOM     15  C   UNL     1     175.143 181.644 171.819  1.00  0.00     0.120 A 
ATOM     16  C   UNL     1     175.783 182.846 171.524  1.00  0.00     0.093 A 
ATOM     17  C   UNL     1     176.973 183.200 172.168  1.00  0.00     0.131 A 
ENDROOT
BRANCH   6  18
ATOM     18  O   UNL     1     181.008 183.490 175.577  1.00  0.00    -0.507 OA
ATOM     19  H   UNL     1     181.710 183.658 174.869  1.00  0.00     0.293 HD
ENDBRANCH   6  18
BRANCH  17  20
ATOM     20  O   UNL     1     177.507 184.460 171.888  1.00  0.00    -0.507 OA
ATOM     21  H   UNL     1     177.008 185.179 171.384  1.00  0.00     0.293 HD
ENDBRANCH  17  20
BRANCH  15  22
ATOM     22  O   UNL     1     173.953 181.321 171.168  1.00  0.00    -0.508 OA
ATOM     23  H   UNL     1     173.822 180.423 170.718  1.00  0.00     0.293 HD
ENDBRANCH  15  22
TORSDOF 3
ENDMDL
MODEL 7
REMARK VINA RESULT:    -6.224      3.264      5.002
REMARK INTER + INTRA:          -6.769
REMARK INTER:                  -6.769
REMARK INTRA:                   0.000
REMARK UNBOUND:                 0.000
REMARK SMILES Cc1cc(O)c2c(c1)C(=O)c1cc(O)cc(O)c1C2=O
REMARK SMILES IDX 1 1 2 2 8 3 7 4 6 5 4 6 3 7 19 8 20 9 18 10 11 11 9 12 10 13
REMARK SMILES IDX 12 14 13 15 15 16 16 17 5 18 17 20 14 22
REMARK H PARENT 5 19 17 21 14 23
REMARK Flexibility Score: inf
ROOT
ATOM      1  C   UNL     1     178.497 181.658 177.254  1.00  0.00     0.044 C 
ATOM      2  C   UNL     1     179.522 180.904 176.459  1.00  0.00    -0.047 A 
ATOM      3  C   UNL     1     179.231 179.627 175.968  1.00  0.00     0.016 A 
ATOM      4  C   UNL     1     180.199 178.894 175.260  1.00  0.00     0.038 A 
ATOM      5  C   UNL     1     181.488 179.437 175.063  1.00  0.00     0.076 A 
ATOM      6  C   UNL     1     181.762 180.751 175.523  1.00  0.00     0.127 A 
ATOM      7  C   UNL     1     180.790 181.452 176.242  1.00  0.00     0.050 A 
ATOM      8  C   UNL     1     182.525 178.574 174.440  1.00  0.00     0.201 C 
ATOM      9  O   UNL     1     183.738 178.735 174.742  1.00  0.00    -0.288 OA
ATOM     10  C   UNL     1     182.118 177.408 173.615  1.00  0.00     0.076 A 
ATOM     11  C   UNL     1     180.828 176.867 173.816  1.00  0.00     0.041 A 
ATOM     12  C   UNL     1     179.871 177.554 174.716  1.00  0.00     0.194 C 
ATOM     13  O   UNL     1     178.767 177.010 174.998  1.00  0.00    -0.289 OA
ATOM     14  C   UNL     1     180.455 175.684 173.157  1.00  0.00     0.059 A 
ATOM     15  C   UNL     1     181.348 175.043 172.292  1.00  0.00     0.120 A 
ATOM     16  C   UNL     1     182.607 175.595 172.060  1.00  0.00     0.093 A 
ATOM     17  C   UNL     1     182.993 176.784 172.688  1.00  0.00     0.131 A 
ENDROOT
BRANCH   6  18
ATOM     18  O   UNL     1     182.968 181.406 175.261  1.00  0.00    -0.507 OA
ATOM     19  H   UNL     1     183.028 182.305 174.802  1.00  0.00     0.293 HD
ENDBRANCH   6  18
BRANCH  17  20
ATOM     20  O   UNL     1     184.232 177.325 172.338  1.00  0.00    -0.507 OA
ATOM     21  H   UNL     1     184.657 177.204 171.429  1.00  0.00     0.293 HD
ENDBRANCH  17  20
BRANCH  15  22
ATOM     22  O   UNL     1     180.986 173.863 171.645  1.00  0.00    -0.508 OA
ATOM     23  H   UNL     1     181.474 172.991 171.820  1.00  0.00     0.293 HD
ENDBRANCH  15  22
TORSDOF 3
ENDMDL
MODEL 8
REMARK VINA RESULT:    -6.208      3.593      4.453
REMARK INTER + INTRA:          -6.752
REMARK INTER:                  -6.752
REMARK INTRA:                   0.000
REMARK UNBOUND:                 0.000
REMARK SMILES Cc1cc(O)c2c(c1)C(=O)c1cc(O)cc(O)c1C2=O
REMARK SMILES IDX 1 1 2 2 8 3 7 4 6 5 4 6 3 7 19 8 20 9 18 10 11 11 9 12 10 13
REMARK SMILES IDX 12 14 13 15 15 16 16 17 5 18 17 20 14 22
REMARK H PARENT 5 19 17 21 14 23
REMARK Flexibility Score: inf
ROOT
ATOM      1  C   UNL     1     182.231 179.025 177.276  1.00  0.00     0.044 C 
ATOM      2  C   UNL     1     181.213 179.786 176.479  1.00  0.00    -0.047 A 
ATOM      3  C   UNL     1     181.517 181.058 175.980  1.00  0.00     0.016 A 
ATOM      4  C   UNL     1     180.556 181.798 175.271  1.00  0.00     0.038 A 
ATOM      5  C   UNL     1     179.260 181.268 175.080  1.00  0.00     0.076 A 
ATOM      6  C   UNL     1     178.972 179.960 175.549  1.00  0.00     0.127 A 
ATOM      7  C   UNL     1     179.938 179.252 176.270  1.00  0.00     0.050 A 
ATOM      8  C   UNL     1     178.231 182.139 174.456  1.00  0.00     0.201 C 
ATOM      9  O   UNL     1     177.016 181.994 174.762  1.00  0.00    -0.288 OA
ATOM     10  C   UNL     1     178.649 183.296 173.623  1.00  0.00     0.076 A 
ATOM     11  C   UNL     1     179.946 183.823 173.817  1.00  0.00     0.041 A 
ATOM     12  C   UNL     1     180.898 183.130 174.719  1.00  0.00     0.194 C 
ATOM     13  O   UNL     1     182.008 183.663 174.994  1.00  0.00    -0.289 OA
ATOM     14  C   UNL     1     180.330 184.998 173.150  1.00  0.00     0.059 A 
ATOM     15  C   UNL     1     179.442 185.644 172.283  1.00  0.00     0.120 A 
ATOM     16  C   UNL     1     178.177 185.105 172.059  1.00  0.00     0.093 A 
ATOM     17  C   UNL     1     177.779 183.925 172.695  1.00  0.00     0.131 A 
ENDROOT
BRANCH   6  18
ATOM     18  O   UNL     1     177.758 179.317 175.295  1.00  0.00    -0.507 OA
ATOM     19  H   UNL     1     177.585 178.345 175.508  1.00  0.00     0.293 HD
ENDBRANCH   6  18
BRANCH  17  20
ATOM     20  O   UNL     1     176.532 183.396 172.351  1.00  0.00    -0.507 OA
ATOM     21  H   UNL     1     176.238 183.234 171.398  1.00  0.00     0.293 HD
ENDBRANCH  17  20
BRANCH  15  22
ATOM     22  O   UNL     1     179.815 186.817 171.629  1.00  0.00    -0.508 OA
ATOM     23  H   UNL     1     180.722 186.911 171.185  1.00  0.00     0.293 HD
ENDBRANCH  15  22
TORSDOF 3
ENDMDL
MODEL 9
REMARK VINA RESULT:    -6.120      1.216      3.214
REMARK INTER + INTRA:          -6.656
REMARK INTER:                  -6.656
REMARK INTRA:                   0.000
REMARK UNBOUND:                 0.000
REMARK SMILES Cc1cc(O)c2c(c1)C(=O)c1cc(O)cc(O)c1C2=O
REMARK SMILES IDX 1 1 2 2 8 3 7 4 6 5 4 6 3 7 19 8 20 9 18 10 11 11 9 12 10 13
REMARK SMILES IDX 12 14 13 15 15 16 16 17 5 18 17 20 14 22
REMARK H PARENT 5 19 17 21 14 23
REMARK Flexibility Score: inf
ROOT
ATOM      1  C   UNL     1     181.555 179.249 179.430  1.00  0.00     0.044 C 
ATOM      2  C   UNL     1     180.542 179.654 178.400  1.00  0.00    -0.047 A 
ATOM      3  C   UNL     1     180.456 178.960 177.188  1.00  0.00     0.016 A 
ATOM      4  C   UNL     1     179.542 179.360 176.197  1.00  0.00     0.038 A 
ATOM      5  C   UNL     1     178.719 180.488 176.413  1.00  0.00     0.076 A 
ATOM      6  C   UNL     1     178.779 181.159 177.662  1.00  0.00     0.127 A 
ATOM      7  C   UNL     1     179.711 180.756 178.623  1.00  0.00     0.050 A 
ATOM      8  C   UNL     1     177.874 180.965 175.288  1.00  0.00     0.201 C 
ATOM      9  O   UNL     1     177.593 182.190 175.190  1.00  0.00    -0.288 OA
ATOM     10  C   UNL     1     177.521 180.036 174.183  1.00  0.00     0.076 A 
ATOM     11  C   UNL     1     178.347 178.909 173.971  1.00  0.00     0.041 A 
ATOM     12  C   UNL     1     179.436 178.599 174.929  1.00  0.00     0.194 C 
ATOM     13  O   UNL     1     180.254 177.672 174.677  1.00  0.00    -0.289 OA
ATOM     14  C   UNL     1     178.130 178.083 172.855  1.00  0.00     0.059 A 
ATOM     15  C   UNL     1     177.093 178.361 171.959  1.00  0.00     0.120 A 
ATOM     16  C   UNL     1     176.251 179.448 172.188  1.00  0.00     0.093 A 
ATOM     17  C   UNL     1     176.434 180.273 173.302  1.00  0.00     0.131 A 
ENDROOT
BRANCH   6  18
ATOM     18  O   UNL     1     177.915 182.204 178.000  1.00  0.00    -0.507 OA
ATOM     19  H   UNL     1     176.908 182.130 177.965  1.00  0.00     0.293 HD
ENDBRANCH   6  18
BRANCH  17  20
ATOM     20  O   UNL     1     175.497 181.286 173.515  1.00  0.00    -0.507 OA
ATOM     21  H   UNL     1     174.830 181.586 172.817  1.00  0.00     0.293 HD
ENDBRANCH  17  20
BRANCH  15  22
ATOM     22  O   UNL     1     176.882 177.551 170.845  1.00  0.00    -0.508 OA
ATOM     23  H   UNL     1     177.247 176.607 170.798  1.00  0.00     0.293 HD
ENDBRANCH  15  22
TORSDOF 3
ENDMDL
