MODEL 1
REMARK VINA RESULT:    -4.136      0.000      0.000
REMARK INTER + INTRA:          -8.885
REMARK INTER:                  -7.279
REMARK INTRA:                  -1.606
REMARK UNBOUND:                -1.606
REMARK SMILES CCCCCCC=CCCCCCCCC(=O)[O-]
REMARK SMILES IDX 10 1 11 2 12 3 13 4 14 5 15 6 16 7 17 8 18 9 9 10 8 11 7 12
REMARK SMILES IDX 6 13 5 14 4 15 3 16 2 17 1 18
REMARK H PARENT
REMARK Flexibility Score: inf
ROOT
ATOM      1  C   UNL     1      12.922 -17.042  -7.732  1.00  0.00     0.004 C 
ENDROOT
BRANCH   1   2
ATOM      2  C   UNL     1      11.956 -17.376  -6.586  1.00  0.00     0.000 C 
BRANCH   2   3
ATOM      3  C   UNL     1      10.629 -17.978  -7.082  1.00  0.00     0.000 C 
BRANCH   3   4
ATOM      4  C   UNL     1      10.755 -19.484  -7.394  1.00  0.00     0.000 C 
BRANCH   4   5
ATOM      5  C   UNL     1      10.127 -19.888  -8.739  1.00  0.00     0.006 C 
BRANCH   5   6
ATOM      6  C   UNL     1      10.359 -18.850  -9.842  1.00  0.00     0.053 C 
BRANCH   6   7
ATOM      7  C   UNL     1      11.667 -19.096 -10.524  1.00  0.00     0.041 C 
ATOM      8  O   UNL     1      12.201 -20.236 -10.481  1.00  0.00    -0.550 OA
ATOM      9  O   UNL     1      12.322 -18.054 -11.168  1.00  0.00    -0.550 OA
ENDBRANCH   6   7
ENDBRANCH   5   6
ENDBRANCH   4   5
ENDBRANCH   3   4
ENDBRANCH   2   3
ENDBRANCH   1   2
BRANCH   1  10
ATOM     10  C   UNL     1      14.201 -16.347  -7.242  1.00  0.00     0.027 C 
BRANCH  10  11
ATOM     11  C   UNL     1      14.084 -14.846  -7.339  1.00  0.00    -0.031 C 
ATOM     12  C   UNL     1      13.729 -14.027  -6.331  1.00  0.00    -0.031 C 
BRANCH  12  13
ATOM     13  C   UNL     1      13.369 -14.467  -4.930  1.00  0.00     0.027 C 
BRANCH  13  14
ATOM     14  C   UNL     1      11.936 -14.054  -4.546  1.00  0.00     0.004 C 
BRANCH  14  15
ATOM     15  C   UNL     1      11.394 -14.701  -3.255  1.00  0.00     0.000 C 
BRANCH  15  16
ATOM     16  C   UNL     1      10.641 -16.028  -3.455  1.00  0.00    -0.000 C 
BRANCH  16  17
ATOM     17  C   UNL     1       9.392 -15.880  -4.336  1.00  0.00    -0.003 C 
ATOM     18  C   UNL     1       8.329 -16.908  -3.961  1.00  0.00     0.004 C 
ENDBRANCH  16  17
ENDBRANCH  15  16
ENDBRANCH  14  15
ENDBRANCH  13  14
ENDBRANCH  12  13
ENDBRANCH  10  11
ENDBRANCH   1  10
TORSDOF 13
ENDMDL
MODEL 2
REMARK VINA RESULT:    -3.960      0.827      3.694
REMARK INTER + INTRA:          -8.575
REMARK INTER:                  -6.869
REMARK INTRA:                  -1.706
REMARK UNBOUND:                -1.606
REMARK SMILES CCCCCCC=CCCCCCCCC(=O)[O-]
REMARK SMILES IDX 10 1 11 2 12 3 13 4 14 5 15 6 16 7 17 8 18 9 9 10 8 11 7 12
REMARK SMILES IDX 6 13 5 14 4 15 3 16 2 17 1 18
REMARK H PARENT
REMARK Flexibility Score: inf
ROOT
ATOM      1  C   UNL     1       9.747 -17.312  -4.971  1.00  0.00     0.004 C 
ENDROOT
BRANCH   1   2
ATOM      2  C   UNL     1      10.806 -17.382  -6.082  1.00  0.00     0.000 C 
BRANCH   2   3
ATOM      3  C   UNL     1      11.347 -18.807  -6.298  1.00  0.00     0.000 C 
BRANCH   3   4
ATOM      4  C   UNL     1      10.701 -19.495  -7.520  1.00  0.00     0.000 C 
BRANCH   4   5
ATOM      5  C   UNL     1      10.597 -18.583  -8.755  1.00  0.00     0.006 C 
BRANCH   5   6
ATOM      6  C   UNL     1      10.774 -19.343 -10.074  1.00  0.00     0.053 C 
BRANCH   6   7
ATOM      7  C   UNL     1      12.118 -19.058 -10.666  1.00  0.00     0.041 C 
ATOM      8  O   UNL     1      12.369 -17.924 -11.153  1.00  0.00    -0.550 OA
ATOM      9  O   UNL     1      13.079 -20.059 -10.724  1.00  0.00    -0.550 OA
ENDBRANCH   6   7
ENDBRANCH   5   6
ENDBRANCH   4   5
ENDBRANCH   3   4
ENDBRANCH   2   3
ENDBRANCH   1   2
BRANCH   1  10
ATOM     10  C   UNL     1       9.455 -15.872  -4.525  1.00  0.00     0.027 C 
BRANCH  10  11
ATOM     11  C   UNL     1      10.287 -15.486  -3.327  1.00  0.00    -0.031 C 
ATOM     12  C   UNL     1      11.347 -14.656  -3.351  1.00  0.00    -0.031 C 
BRANCH  12  13
ATOM     13  C   UNL     1      11.899 -13.976  -4.584  1.00  0.00     0.027 C 
BRANCH  13  14
ATOM     14  C   UNL     1      13.143 -14.699  -5.132  1.00  0.00     0.004 C 
BRANCH  14  15
ATOM     15  C   UNL     1      13.777 -14.053  -6.381  1.00  0.00     0.000 C 
BRANCH  15  16
ATOM     16  C   UNL     1      14.511 -15.026  -7.319  1.00  0.00    -0.000 C 
BRANCH  16  17
ATOM     17  C   UNL     1      13.590 -16.112  -7.894  1.00  0.00    -0.003 C 
ATOM     18  C   UNL     1      14.339 -17.428  -8.079  1.00  0.00     0.004 C 
ENDBRANCH  16  17
ENDBRANCH  15  16
ENDBRANCH  14  15
ENDBRANCH  13  14
ENDBRANCH  12  13
ENDBRANCH  10  11
ENDBRANCH   1  10
TORSDOF 13
ENDMDL
MODEL 3
REMARK VINA RESULT:    -3.941     12.013     13.909
REMARK INTER + INTRA:          -8.542
REMARK INTER:                  -6.580
REMARK INTRA:                  -1.962
REMARK UNBOUND:                -1.606
REMARK SMILES CCCCCCC=CCCCCCCCC(=O)[O-]
REMARK SMILES IDX 10 1 11 2 12 3 13 4 14 5 15 6 16 7 17 8 18 9 9 10 8 11 7 12
REMARK SMILES IDX 6 13 5 14 4 15 3 16 2 17 1 18
REMARK H PARENT
REMARK Flexibility Score: inf
ROOT
ATOM      1  C   UNL     1      -0.624 -14.227  -6.556  1.00  0.00     0.004 C 
ENDROOT
BRANCH   1   2
ATOM      2  C   UNL     1      -1.374 -14.844  -5.366  1.00  0.00     0.000 C 
BRANCH   2   3
ATOM      3  C   UNL     1      -0.844 -16.239  -4.987  1.00  0.00     0.000 C 
BRANCH   3   4
ATOM      4  C   UNL     1      -1.860 -17.355  -5.311  1.00  0.00     0.000 C 
BRANCH   4   5
ATOM      5  C   UNL     1      -3.133 -16.843  -6.006  1.00  0.00     0.006 C 
BRANCH   5   6
ATOM      6  C   UNL     1      -3.478 -17.630  -7.276  1.00  0.00     0.053 C 
BRANCH   6   7
ATOM      7  C   UNL     1      -3.452 -16.731  -8.471  1.00  0.00     0.041 C 
ATOM      8  O   UNL     1      -3.327 -15.486  -8.326  1.00  0.00    -0.550 OA
ATOM      9  O   UNL     1      -3.613 -17.263  -9.744  1.00  0.00    -0.550 OA
ENDBRANCH   6   7
ENDBRANCH   5   6
ENDBRANCH   4   5
ENDBRANCH   3   4
ENDBRANCH   2   3
ENDBRANCH   1   2
BRANCH   1  10
ATOM     10  C   UNL     1       0.474 -15.151  -7.103  1.00  0.00     0.027 C 
BRANCH  10  11
ATOM     11  C   UNL     1       0.122 -15.674  -8.474  1.00  0.00    -0.031 C 
ATOM     12  C   UNL     1       0.141 -16.970  -8.840  1.00  0.00    -0.031 C 
BRANCH  12  13
ATOM     13  C   UNL     1       0.532 -18.127  -7.948  1.00  0.00     0.027 C 
BRANCH  13  14
ATOM     14  C   UNL     1      -0.097 -19.452  -8.414  1.00  0.00     0.004 C 
BRANCH  14  15
ATOM     15  C   UNL     1       0.786 -20.701  -8.211  1.00  0.00     0.000 C 
BRANCH  15  16
ATOM     16  C   UNL     1       0.607 -21.806  -9.266  1.00  0.00    -0.000 C 
BRANCH  16  17
ATOM     17  C   UNL     1      -0.834 -21.909  -9.786  1.00  0.00    -0.003 C 
ATOM     18  C   UNL     1      -0.862 -22.350 -11.246  1.00  0.00     0.004 C 
ENDBRANCH  16  17
ENDBRANCH  15  16
ENDBRANCH  14  15
ENDBRANCH  13  14
ENDBRANCH  12  13
ENDBRANCH  10  11
ENDBRANCH   1  10
TORSDOF 13
ENDMDL
MODEL 4
REMARK VINA RESULT:    -3.917     12.309     14.495
REMARK INTER + INTRA:          -8.499
REMARK INTER:                  -5.881
REMARK INTRA:                  -2.618
REMARK UNBOUND:                -1.606
REMARK SMILES CCCCCCC=CCCCCCCCC(=O)[O-]
REMARK SMILES IDX 10 1 11 2 12 3 13 4 14 5 15 6 16 7 17 8 18 9 9 10 8 11 7 12
REMARK SMILES IDX 6 13 5 14 4 15 3 16 2 17 1 18
REMARK H PARENT
REMARK Flexibility Score: inf
ROOT
ATOM      1  C   UNL     1       0.161 -17.889  -8.393  1.00  0.00     0.004 C 
ENDROOT
BRANCH   1   2
ATOM      2  C   UNL     1      -0.061 -16.722  -7.420  1.00  0.00     0.000 C 
BRANCH   2   3
ATOM      3  C   UNL     1      -0.206 -15.368  -8.137  1.00  0.00     0.000 C 
BRANCH   3   4
ATOM      4  C   UNL     1      -0.684 -14.252  -7.183  1.00  0.00     0.000 C 
BRANCH   4   5
ATOM      5  C   UNL     1      -0.149 -14.401  -5.748  1.00  0.00     0.006 C 
BRANCH   5   6
ATOM      6  C   UNL     1      -1.141 -13.912  -4.687  1.00  0.00     0.053 C 
BRANCH   6   7
ATOM      7  C   UNL     1      -0.897 -12.471  -4.368  1.00  0.00     0.041 C 
ATOM      8  O   UNL     1       0.277 -12.017  -4.341  1.00  0.00    -0.550 OA
ATOM      9  O   UNL     1      -1.963 -11.638  -4.054  1.00  0.00    -0.550 OA
ENDBRANCH   6   7
ENDBRANCH   5   6
ENDBRANCH   4   5
ENDBRANCH   3   4
ENDBRANCH   2   3
ENDBRANCH   1   2
BRANCH   1  10
ATOM     10  C   UNL     1      -1.085 -18.772  -8.550  1.00  0.00     0.027 C 
BRANCH  10  11
ATOM     11  C   UNL     1      -1.955 -18.302  -9.689  1.00  0.00    -0.031 C 
ATOM     12  C   UNL     1      -3.223 -17.863  -9.569  1.00  0.00    -0.031 C 
BRANCH  12  13
ATOM     13  C   UNL     1      -4.003 -17.779  -8.276  1.00  0.00     0.027 C 
BRANCH  13  14
ATOM     14  C   UNL     1      -3.969 -16.363  -7.674  1.00  0.00     0.004 C 
BRANCH  14  15
ATOM     15  C   UNL     1      -3.530 -16.291  -6.197  1.00  0.00     0.000 C 
BRANCH  15  16
ATOM     16  C   UNL     1      -3.102 -17.633  -5.576  1.00  0.00    -0.000 C 
BRANCH  16  17
ATOM     17  C   UNL     1      -2.159 -17.463  -4.377  1.00  0.00    -0.003 C 
ATOM     18  C   UNL     1      -1.089 -18.549  -4.360  1.00  0.00     0.004 C 
ENDBRANCH  16  17
ENDBRANCH  15  16
ENDBRANCH  14  15
ENDBRANCH  13  14
ENDBRANCH  12  13
ENDBRANCH  10  11
ENDBRANCH   1  10
TORSDOF 13
ENDMDL
MODEL 5
REMARK VINA RESULT:    -3.895     11.880     14.417
REMARK INTER + INTRA:          -8.461
REMARK INTER:                  -5.868
REMARK INTRA:                  -2.592
REMARK UNBOUND:                -1.606
REMARK SMILES CCCCCCC=CCCCCCCCC(=O)[O-]
REMARK SMILES IDX 10 1 11 2 12 3 13 4 14 5 15 6 16 7 17 8 18 9 9 10 8 11 7 12
REMARK SMILES IDX 6 13 5 14 4 15 3 16 2 17 1 18
REMARK H PARENT
REMARK Flexibility Score: inf
ROOT
ATOM      1  C   UNL     1      -0.343 -17.032  -8.969  1.00  0.00     0.004 C 
ENDROOT
BRANCH   1   2
ATOM      2  C   UNL     1       0.132 -15.767  -8.239  1.00  0.00     0.000 C 
BRANCH   2   3
ATOM      3  C   UNL     1       0.788 -16.075  -6.881  1.00  0.00     0.000 C 
BRANCH   3   4
ATOM      4  C   UNL     1       0.207 -15.206  -5.745  1.00  0.00     0.000 C 
BRANCH   4   5
ATOM      5  C   UNL     1      -0.633 -14.019  -6.248  1.00  0.00     0.006 C 
BRANCH   5   6
ATOM      6  C   UNL     1      -1.548 -13.435  -5.166  1.00  0.00     0.053 C 
BRANCH   6   7
ATOM      7  C   UNL     1      -0.738 -12.900  -4.028  1.00  0.00     0.041 C 
ATOM      8  O   UNL     1      -0.861 -13.394  -2.876  1.00  0.00    -0.550 OA
ATOM      9  O   UNL     1       0.117 -11.825  -4.228  1.00  0.00    -0.550 OA
ENDBRANCH   6   7
ENDBRANCH   5   6
ENDBRANCH   4   5
ENDBRANCH   3   4
ENDBRANCH   2   3
ENDBRANCH   1   2
BRANCH   1  10
ATOM     10  C   UNL     1       0.116 -18.322  -8.273  1.00  0.00     0.027 C 
BRANCH  10  11
ATOM     11  C   UNL     1      -0.864 -19.448  -8.495  1.00  0.00    -0.031 C 
ATOM     12  C   UNL     1      -1.826 -19.823  -7.629  1.00  0.00    -0.031 C 
BRANCH  12  13
ATOM     13  C   UNL     1      -2.082 -19.194  -6.278  1.00  0.00     0.027 C 
BRANCH  13  14
ATOM     14  C   UNL     1      -3.342 -18.310  -6.283  1.00  0.00     0.004 C 
BRANCH  14  15
ATOM     15  C   UNL     1      -3.081 -16.802  -6.484  1.00  0.00     0.000 C 
BRANCH  15  16
ATOM     16  C   UNL     1      -3.627 -16.214  -7.797  1.00  0.00    -0.000 C 
BRANCH  16  17
ATOM     17  C   UNL     1      -4.480 -17.213  -8.591  1.00  0.00    -0.003 C 
ATOM     18  C   UNL     1      -3.954 -17.375 -10.014  1.00  0.00     0.004 C 
ENDBRANCH  16  17
ENDBRANCH  15  16
ENDBRANCH  14  15
ENDBRANCH  13  14
ENDBRANCH  12  13
ENDBRANCH  10  11
ENDBRANCH   1  10
TORSDOF 13
ENDMDL
MODEL 6
REMARK VINA RESULT:    -3.891     11.756     14.347
REMARK INTER + INTRA:          -8.455
REMARK INTER:                  -7.569
REMARK INTRA:                  -0.885
REMARK UNBOUND:                -1.606
REMARK SMILES CCCCCCC=CCCCCCCCC(=O)[O-]
REMARK SMILES IDX 10 1 11 2 12 3 13 4 14 5 15 6 16 7 17 8 18 9 9 10 8 11 7 12
REMARK SMILES IDX 6 13 5 14 4 15 3 16 2 17 1 18
REMARK H PARENT
REMARK Flexibility Score: inf
ROOT
ATOM      1  C   UNL     1      -1.298 -17.924  -9.022  1.00  0.00     0.004 C 
ENDROOT
BRANCH   1   2
ATOM      2  C   UNL     1      -0.399 -16.751  -8.605  1.00  0.00     0.000 C 
BRANCH   2   3
ATOM      3  C   UNL     1      -1.146 -15.697  -7.768  1.00  0.00     0.000 C 
BRANCH   3   4
ATOM      4  C   UNL     1      -0.234 -14.517  -7.371  1.00  0.00     0.000 C 
BRANCH   4   5
ATOM      5  C   UNL     1       0.015 -14.415  -5.856  1.00  0.00     0.006 C 
BRANCH   5   6
ATOM      6  C   UNL     1      -1.215 -13.931  -5.080  1.00  0.00     0.053 C 
BRANCH   6   7
ATOM      7  C   UNL     1      -0.993 -12.546  -4.560  1.00  0.00     0.041 C 
ATOM      8  O   UNL     1       0.177 -12.107  -4.404  1.00  0.00    -0.550 OA
ATOM      9  O   UNL     1      -2.078 -11.756  -4.202  1.00  0.00    -0.550 OA
ENDBRANCH   6   7
ENDBRANCH   5   6
ENDBRANCH   4   5
ENDBRANCH   3   4
ENDBRANCH   2   3
ENDBRANCH   1   2
BRANCH   1  10
ATOM     10  C   UNL     1      -0.784 -19.275  -8.503  1.00  0.00     0.027 C 
BRANCH  10  11
ATOM     11  C   UNL     1       0.662 -19.189  -8.082  1.00  0.00    -0.031 C 
ATOM     12  C   UNL     1       1.474 -20.243  -7.870  1.00  0.00    -0.031 C 
BRANCH  12  13
ATOM     13  C   UNL     1       1.075 -21.696  -8.001  1.00  0.00     0.027 C 
BRANCH  13  14
ATOM     14  C   UNL     1       1.207 -22.202  -9.448  1.00  0.00     0.004 C 
BRANCH  14  15
ATOM     15  C   UNL     1       0.059 -23.113  -9.929  1.00  0.00     0.000 C 
BRANCH  15  16
ATOM     16  C   UNL     1      -1.148 -22.377 -10.537  1.00  0.00    -0.000 C 
BRANCH  16  17
ATOM     17  C   UNL     1      -1.068 -22.258 -12.066  1.00  0.00    -0.003 C 
ATOM     18  C   UNL     1      -1.898 -23.341 -12.747  1.00  0.00     0.004 C 
ENDBRANCH  16  17
ENDBRANCH  15  16
ENDBRANCH  14  15
ENDBRANCH  13  14
ENDBRANCH  12  13
ENDBRANCH  10  11
ENDBRANCH   1  10
TORSDOF 13
ENDMDL
MODEL 7
REMARK VINA RESULT:    -3.891     11.433     14.530
REMARK INTER + INTRA:          -8.453
REMARK INTER:                  -6.580
REMARK INTRA:                  -1.873
REMARK UNBOUND:                -1.606
REMARK SMILES CCCCCCC=CCCCCCCCC(=O)[O-]
REMARK SMILES IDX 10 1 11 2 12 3 13 4 14 5 15 6 16 7 17 8 18 9 9 10 8 11 7 12
REMARK SMILES IDX 6 13 5 14 4 15 3 16 2 17 1 18
REMARK H PARENT
REMARK Flexibility Score: inf
ROOT
ATOM      1  C   UNL     1      -2.140 -15.276  -8.047  1.00  0.00     0.004 C 
ENDROOT
BRANCH   1   2
ATOM      2  C   UNL     1      -0.627 -15.519  -8.148  1.00  0.00     0.000 C 
BRANCH   2   3
ATOM      3  C   UNL     1       0.178 -14.697  -7.125  1.00  0.00     0.000 C 
BRANCH   3   4
ATOM      4  C   UNL     1       0.412 -15.473  -5.811  1.00  0.00     0.000 C 
BRANCH   4   5
ATOM      5  C   UNL     1      -0.144 -14.758  -4.568  1.00  0.00     0.006 C 
BRANCH   5   6
ATOM      6  C   UNL     1      -1.281 -13.784  -4.897  1.00  0.00     0.053 C 
BRANCH   6   7
ATOM      7  C   UNL     1      -0.950 -12.410  -4.407  1.00  0.00     0.041 C 
ATOM      8  O   UNL     1       0.249 -12.029  -4.349  1.00  0.00    -0.550 OA
ATOM      9  O   UNL     1      -1.962 -11.566  -3.969  1.00  0.00    -0.550 OA
ENDBRANCH   6   7
ENDBRANCH   5   6
ENDBRANCH   4   5
ENDBRANCH   3   4
ENDBRANCH   2   3
ENDBRANCH   1   2
BRANCH   1  10
ATOM     10  C   UNL     1      -2.914 -16.537  -7.637  1.00  0.00     0.027 C 
BRANCH  10  11
ATOM     11  C   UNL     1      -3.879 -16.967  -8.714  1.00  0.00    -0.031 C 
ATOM     12  C   UNL     1      -3.588 -17.799  -9.732  1.00  0.00    -0.031 C 
BRANCH  12  13
ATOM     13  C   UNL     1      -2.241 -18.437  -9.984  1.00  0.00     0.027 C 
BRANCH  13  14
ATOM     14  C   UNL     1      -2.235 -19.933  -9.624  1.00  0.00     0.004 C 
BRANCH  14  15
ATOM     15  C   UNL     1      -1.701 -20.264  -8.215  1.00  0.00     0.000 C 
BRANCH  15  16
ATOM     16  C   UNL     1      -0.172 -20.179  -8.058  1.00  0.00    -0.000 C 
BRANCH  16  17
ATOM     17  C   UNL     1       0.282 -18.932  -7.288  1.00  0.00    -0.003 C 
ATOM     18  C   UNL     1       1.664 -18.476  -7.745  1.00  0.00     0.004 C 
ENDBRANCH  16  17
ENDBRANCH  15  16
ENDBRANCH  14  15
ENDBRANCH  13  14
ENDBRANCH  12  13
ENDBRANCH  10  11
ENDBRANCH   1  10
TORSDOF 13
ENDMDL
MODEL 8
REMARK VINA RESULT:    -3.868      3.085      6.690
REMARK INTER + INTRA:          -8.414
REMARK INTER:                  -6.227
REMARK INTRA:                  -2.187
REMARK UNBOUND:                -1.606
REMARK SMILES CCCCCCC=CCCCCCCCC(=O)[O-]
REMARK SMILES IDX 10 1 11 2 12 3 13 4 14 5 15 6 16 7 17 8 18 9 9 10 8 11 7 12
REMARK SMILES IDX 6 13 5 14 4 15 3 16 2 17 1 18
REMARK H PARENT
REMARK Flexibility Score: inf
ROOT
ATOM      1  C   UNL     1      14.300 -16.913  -7.329  1.00  0.00     0.004 C 
ENDROOT
BRANCH   1   2
ATOM      2  C   UNL     1      13.676 -15.571  -7.741  1.00  0.00     0.000 C 
BRANCH   2   3
ATOM      3  C   UNL     1      14.133 -14.403  -6.848  1.00  0.00     0.000 C 
BRANCH   3   4
ATOM      4  C   UNL     1      14.944 -14.888  -5.628  1.00  0.00     0.000 C 
BRANCH   4   5
ATOM      5  C   UNL     1      14.239 -14.639  -4.283  1.00  0.00     0.006 C 
BRANCH   5   6
ATOM      6  C   UNL     1      13.096 -15.625  -4.017  1.00  0.00     0.053 C 
BRANCH   6   7
ATOM      7  C   UNL     1      11.786 -14.906  -3.971  1.00  0.00     0.041 C 
ATOM      8  O   UNL     1      10.751 -15.498  -3.564  1.00  0.00    -0.550 OA
ATOM      9  O   UNL     1      11.695 -13.596  -4.423  1.00  0.00    -0.550 OA
ENDBRANCH   6   7
ENDBRANCH   5   6
ENDBRANCH   4   5
ENDBRANCH   3   4
ENDBRANCH   2   3
ENDBRANCH   1   2
BRANCH   1  10
ATOM     10  C   UNL     1      13.245 -17.988  -7.031  1.00  0.00     0.027 C 
BRANCH  10  11
ATOM     11  C   UNL     1      11.870 -17.384  -6.880  1.00  0.00    -0.031 C 
ATOM     12  C   UNL     1      10.716 -17.981  -7.236  1.00  0.00    -0.031 C 
BRANCH  12  13
ATOM     13  C   UNL     1      10.595 -19.352  -7.862  1.00  0.00     0.027 C 
BRANCH  13  14
ATOM     14  C   UNL     1      10.206 -19.274  -9.349  1.00  0.00     0.004 C 
BRANCH  14  15
ATOM     15  C   UNL     1      11.391 -19.290 -10.337  1.00  0.00     0.000 C 
BRANCH  15  16
ATOM     16  C   UNL     1      11.930 -17.904 -10.734  1.00  0.00    -0.000 C 
BRANCH  16  17
ATOM     17  C   UNL     1      13.464 -17.843 -10.756  1.00  0.00    -0.003 C 
ATOM     18  C   UNL     1      14.064 -19.202 -11.101  1.00  0.00     0.004 C 
ENDBRANCH  16  17
ENDBRANCH  15  16
ENDBRANCH  14  15
ENDBRANCH  13  14
ENDBRANCH  12  13
ENDBRANCH  10  11
ENDBRANCH   1  10
TORSDOF 13
ENDMDL
MODEL 9
REMARK VINA RESULT:    -3.861      1.105      3.405
REMARK INTER + INTRA:          -8.402
REMARK INTER:                  -6.906
REMARK INTRA:                  -1.496
REMARK UNBOUND:                -1.606
REMARK SMILES CCCCCCC=CCCCCCCCC(=O)[O-]
REMARK SMILES IDX 10 1 11 2 12 3 13 4 14 5 15 6 16 7 17 8 18 9 9 10 8 11 7 12
REMARK SMILES IDX 6 13 5 14 4 15 3 16 2 17 1 18
REMARK H PARENT
REMARK Flexibility Score: inf
ROOT
ATOM      1  C   UNL     1      10.586 -18.403  -5.592  1.00  0.00     0.004 C 
ENDROOT
BRANCH   1   2
ATOM      2  C   UNL     1      11.282 -19.033  -6.807  1.00  0.00     0.000 C 
BRANCH   2   3
ATOM      3  C   UNL     1      10.925 -18.330  -8.129  1.00  0.00     0.000 C 
BRANCH   3   4
ATOM      4  C   UNL     1      10.214 -19.278  -9.118  1.00  0.00     0.000 C 
BRANCH   4   5
ATOM      5  C   UNL     1      11.033 -19.567 -10.388  1.00  0.00     0.006 C 
BRANCH   5   6
ATOM      6  C   UNL     1      12.020 -18.446 -10.730  1.00  0.00     0.053 C 
BRANCH   6   7
ATOM      7  C   UNL     1      13.375 -19.011 -11.017  1.00  0.00     0.041 C 
ATOM      8  O   UNL     1      13.595 -20.241 -10.859  1.00  0.00    -0.550 OA
ATOM      9  O   UNL     1      14.410 -18.173 -11.412  1.00  0.00    -0.550 OA
ENDBRANCH   6   7
ENDBRANCH   5   6
ENDBRANCH   4   5
ENDBRANCH   3   4
ENDBRANCH   2   3
ENDBRANCH   1   2
BRANCH   1  10
ATOM     10  C   UNL     1      10.190 -16.938  -5.834  1.00  0.00     0.027 C 
BRANCH  10  11
ATOM     11  C   UNL     1       9.220 -16.449  -4.786  1.00  0.00    -0.031 C 
ATOM     12  C   UNL     1       9.563 -15.886  -3.612  1.00  0.00    -0.031 C 
BRANCH  12  13
ATOM     13  C   UNL     1      10.978 -15.658  -3.129  1.00  0.00     0.027 C 
BRANCH  13  14
ATOM     14  C   UNL     1      11.437 -14.206  -3.354  1.00  0.00     0.004 C 
BRANCH  14  15
ATOM     15  C   UNL     1      12.096 -13.934  -4.722  1.00  0.00     0.000 C 
BRANCH  15  16
ATOM     16  C   UNL     1      13.113 -14.994  -5.181  1.00  0.00    -0.000 C 
BRANCH  16  17
ATOM     17  C   UNL     1      13.725 -14.682  -6.553  1.00  0.00    -0.003 C 
ATOM     18  C   UNL     1      13.689 -15.906  -7.463  1.00  0.00     0.004 C 
ENDBRANCH  16  17
ENDBRANCH  15  16
ENDBRANCH  14  15
ENDBRANCH  13  14
ENDBRANCH  12  13
ENDBRANCH  10  11
ENDBRANCH   1  10
TORSDOF 13
ENDMDL
