MODEL 1
REMARK VINA RESULT:    -3.222      0.000      0.000
REMARK INTER + INTRA:          -4.325
REMARK INTER:                  -3.881
REMARK INTRA:                  -0.444
REMARK UNBOUND:                -0.444
REMARK SMILES NC(=O)C[C@@H]([NH3+])C(=O)[O-]
REMARK SMILES IDX 4 1 5 2 6 3 7 7 8 8 9 9 2 10 3 11 1 12
REMARK H PARENT 6 4 6 5 6 6 1 13 1 14
REMARK Flexibility Score: inf
ROOT
ATOM      1  C   UNL     1      49.163  34.019  87.091  1.00  0.00     0.171 C 
ENDROOT
BRANCH   1   2
ATOM      2  C   UNL     1      48.743  34.176  85.616  1.00  0.00     0.237 C 
BRANCH   2   3
ATOM      3  N   UNL     1      47.930  35.384  85.440  1.00  0.00    -0.350 N 
ATOM      4  H   UNL     1      46.913  35.140  85.488  1.00  0.00     0.345 HD
ATOM      5  H   UNL     1      48.131  35.836  84.517  1.00  0.00     0.345 HD
ATOM      6  H   UNL     1      48.137  36.066  86.206  1.00  0.00     0.345 HD
ENDBRANCH   2   3
BRANCH   2   7
ATOM      7  C   UNL     1      49.951  34.230  84.715  1.00  0.00     0.100 C 
ATOM      8  O   UNL     1      49.828  34.578  83.512  1.00  0.00    -0.544 OA
ATOM      9  O   UNL     1      51.206  33.886  85.204  1.00  0.00    -0.544 OA
ENDBRANCH   2   7
ENDBRANCH   1   2
BRANCH   1  10
ATOM     10  C   UNL     1      49.544  35.336  87.700  1.00  0.00     0.223 C 
ATOM     11  O   UNL     1      48.645  36.125  88.099  1.00  0.00    -0.275 OA
ATOM     12  N   UNL     1      50.918  35.688  87.868  1.00  0.00    -0.369 N 
ATOM     13  H   UNL     1      51.676  35.038  87.562  1.00  0.00     0.159 HD
ATOM     14  H   UNL     1      51.179  36.599  88.306  1.00  0.00     0.159 HD
ENDBRANCH   1  10
TORSDOF 4
ENDMDL
MODEL 2
REMARK VINA RESULT:    -3.165     17.283     18.334
REMARK INTER + INTRA:          -4.256
REMARK INTER:                  -3.818
REMARK INTRA:                  -0.438
REMARK UNBOUND:                -0.444
REMARK SMILES NC(=O)C[C@@H]([NH3+])C(=O)[O-]
REMARK SMILES IDX 4 1 5 2 6 3 7 7 8 8 9 9 2 10 3 11 1 12
REMARK H PARENT 6 4 6 5 6 6 1 13 1 14
REMARK Flexibility Score: inf
ROOT
ATOM      1  C   UNL     1      45.590  19.302  77.744  1.00  0.00     0.171 C 
ENDROOT
BRANCH   1   2
ATOM      2  C   UNL     1      46.858  19.617  78.562  1.00  0.00     0.237 C 
BRANCH   2   3
ATOM      3  N   UNL     1      47.491  18.377  79.024  1.00  0.00    -0.350 N 
ATOM      4  H   UNL     1      48.198  18.592  79.766  1.00  0.00     0.345 HD
ATOM      5  H   UNL     1      47.965  17.885  78.231  1.00  0.00     0.345 HD
ATOM      6  H   UNL     1      46.769  17.742  79.436  1.00  0.00     0.345 HD
ENDBRANCH   2   3
BRANCH   2   7
ATOM      7  C   UNL     1      47.837  20.425  77.749  1.00  0.00     0.100 C 
ATOM      8  O   UNL     1      47.451  21.032  76.715  1.00  0.00    -0.544 OA
ATOM      9  O   UNL     1      49.173  20.495  78.126  1.00  0.00    -0.544 OA
ENDBRANCH   2   7
ENDBRANCH   1   2
BRANCH   1  10
ATOM     10  C   UNL     1      45.798  18.128  76.833  1.00  0.00     0.223 C 
ATOM     11  O   UNL     1      45.612  16.958  77.266  1.00  0.00    -0.275 OA
ATOM     12  N   UNL     1      46.166  18.325  75.467  1.00  0.00    -0.369 N 
ATOM     13  H   UNL     1      46.304  19.287  75.086  1.00  0.00     0.159 HD
ATOM     14  H   UNL     1      46.295  17.506  74.833  1.00  0.00     0.159 HD
ENDBRANCH   1  10
TORSDOF 4
ENDMDL
MODEL 3
REMARK VINA RESULT:    -3.145     18.358     19.293
REMARK INTER + INTRA:          -4.232
REMARK INTER:                  -3.983
REMARK INTRA:                  -0.249
REMARK UNBOUND:                -0.444
REMARK SMILES NC(=O)C[C@@H]([NH3+])C(=O)[O-]
REMARK SMILES IDX 4 1 5 2 6 3 7 7 8 8 9 9 2 10 3 11 1 12
REMARK H PARENT 6 4 6 5 6 6 1 13 1 14
REMARK Flexibility Score: inf
ROOT
ATOM      1  C   UNL     1      39.657  18.998  80.528  1.00  0.00     0.171 C 
ENDROOT
BRANCH   1   2
ATOM      2  C   UNL     1      40.216  19.983  79.482  1.00  0.00     0.237 C 
BRANCH   2   3
ATOM      3  N   UNL     1      39.374  21.183  79.408  1.00  0.00    -0.350 N 
ATOM      4  H   UNL     1      38.366  20.908  79.353  1.00  0.00     0.345 HD
ATOM      5  H   UNL     1      39.620  21.756  78.567  1.00  0.00     0.345 HD
ATOM      6  H   UNL     1      39.508  21.764  80.268  1.00  0.00     0.345 HD
ENDBRANCH   2   3
BRANCH   2   7
ATOM      7  C   UNL     1      41.636  20.368  79.809  1.00  0.00     0.100 C 
ATOM      8  O   UNL     1      42.582  19.982  79.073  1.00  0.00    -0.544 OA
ATOM      9  O   UNL     1      41.913  21.139  80.932  1.00  0.00    -0.544 OA
ENDBRANCH   2   7
ENDBRANCH   1   2
BRANCH   1  10
ATOM     10  C   UNL     1      38.376  18.368  80.065  1.00  0.00     0.223 C 
ATOM     11  O   UNL     1      37.284  18.978  80.228  1.00  0.00    -0.275 OA
ATOM     12  N   UNL     1      38.386  17.101  79.406  1.00  0.00    -0.369 N 
ATOM     13  H   UNL     1      39.282  16.592  79.245  1.00  0.00     0.159 HD
ATOM     14  H   UNL     1      37.493  16.675  79.072  1.00  0.00     0.159 HD
ENDBRANCH   1  10
TORSDOF 4
ENDMDL
MODEL 4
REMARK VINA RESULT:    -3.091      9.601     10.549
REMARK INTER + INTRA:          -4.167
REMARK INTER:                  -3.902
REMARK INTRA:                  -0.265
REMARK UNBOUND:                -0.444
REMARK SMILES NC(=O)C[C@@H]([NH3+])C(=O)[O-]
REMARK SMILES IDX 4 1 5 2 6 3 7 7 8 8 9 9 2 10 3 11 1 12
REMARK H PARENT 6 4 6 5 6 6 1 13 1 14
REMARK Flexibility Score: inf
ROOT
ATOM      1  C   UNL     1      43.603  30.585  93.297  1.00  0.00     0.171 C 
ENDROOT
BRANCH   1   2
ATOM      2  C   UNL     1      43.907  29.258  92.573  1.00  0.00     0.237 C 
BRANCH   2   3
ATOM      3  N   UNL     1      45.211  28.732  92.993  1.00  0.00    -0.350 N 
ATOM      4  H   UNL     1      45.914  29.508  93.026  1.00  0.00     0.345 HD
ATOM      5  H   UNL     1      45.545  27.996  92.328  1.00  0.00     0.345 HD
ATOM      6  H   UNL     1      45.136  28.319  93.950  1.00  0.00     0.345 HD
ENDBRANCH   2   3
BRANCH   2   7
ATOM      7  C   UNL     1      42.829  28.239  92.841  1.00  0.00     0.100 C 
ATOM      8  O   UNL     1      42.347  28.116  93.998  1.00  0.00    -0.544 OA
ATOM      9  O   UNL     1      42.368  27.419  91.816  1.00  0.00    -0.544 OA
ENDBRANCH   2   7
ENDBRANCH   1   2
BRANCH   1  10
ATOM     10  C   UNL     1      44.461  31.704  92.783  1.00  0.00     0.223 C 
ATOM     11  O   UNL     1      45.194  31.517  91.774  1.00  0.00    -0.275 OA
ATOM     12  N   UNL     1      44.424  32.990  93.402  1.00  0.00    -0.369 N 
ATOM     13  H   UNL     1      43.809  33.168  94.226  1.00  0.00     0.159 HD
ATOM     14  H   UNL     1      45.012  33.770  93.032  1.00  0.00     0.159 HD
ENDBRANCH   1  10
TORSDOF 4
ENDMDL
MODEL 5
REMARK VINA RESULT:    -3.086     18.286     19.359
REMARK INTER + INTRA:          -4.161
REMARK INTER:                  -3.905
REMARK INTRA:                  -0.256
REMARK UNBOUND:                -0.444
REMARK SMILES NC(=O)C[C@@H]([NH3+])C(=O)[O-]
REMARK SMILES IDX 4 1 5 2 6 3 7 7 8 8 9 9 2 10 3 11 1 12
REMARK H PARENT 6 4 6 5 6 6 1 13 1 14
REMARK Flexibility Score: inf
ROOT
ATOM      1  C   UNL     1      45.480  17.975  77.269  1.00  0.00     0.171 C 
ENDROOT
BRANCH   1   2
ATOM      2  C   UNL     1      46.336  19.094  76.644  1.00  0.00     0.237 C 
BRANCH   2   3
ATOM      3  N   UNL     1      46.333  18.986  75.181  1.00  0.00    -0.350 N 
ATOM      4  H   UNL     1      47.273  18.674  74.844  1.00  0.00     0.345 HD
ATOM      5  H   UNL     1      46.100  19.908  74.742  1.00  0.00     0.345 HD
ATOM      6  H   UNL     1      45.626  18.277  74.879  1.00  0.00     0.345 HD
ENDBRANCH   2   3
BRANCH   2   7
ATOM      7  C   UNL     1      45.836  20.453  77.064  1.00  0.00     0.100 C 
ATOM      8  O   UNL     1      45.510  20.666  78.261  1.00  0.00    -0.544 OA
ATOM      9  O   UNL     1      45.719  21.476  76.129  1.00  0.00    -0.544 OA
ENDBRANCH   2   7
ENDBRANCH   1   2
BRANCH   1  10
ATOM     10  C   UNL     1      46.044  16.616  76.971  1.00  0.00     0.223 C 
ATOM     11  O   UNL     1      45.946  16.139  75.808  1.00  0.00    -0.275 OA
ATOM     12  N   UNL     1      46.726  15.875  77.984  1.00  0.00    -0.369 N 
ATOM     13  H   UNL     1      46.834  16.263  78.946  1.00  0.00     0.159 HD
ATOM     14  H   UNL     1      47.130  14.937  77.768  1.00  0.00     0.159 HD
ENDBRANCH   1  10
TORSDOF 4
ENDMDL
MODEL 6
REMARK VINA RESULT:    -3.030      2.408      2.877
REMARK INTER + INTRA:          -4.094
REMARK INTER:                  -3.613
REMARK INTRA:                  -0.481
REMARK UNBOUND:                -0.444
REMARK SMILES NC(=O)C[C@@H]([NH3+])C(=O)[O-]
REMARK SMILES IDX 4 1 5 2 6 3 7 7 8 8 9 9 2 10 3 11 1 12
REMARK H PARENT 6 4 6 5 6 6 1 13 1 14
REMARK Flexibility Score: inf
ROOT
ATOM      1  C   UNL     1      51.505  34.155  88.104  1.00  0.00     0.171 C 
ENDROOT
BRANCH   1   2
ATOM      2  C   UNL     1      50.086  34.660  87.776  1.00  0.00     0.237 C 
BRANCH   2   3
ATOM      3  N   UNL     1      50.032  36.125  87.853  1.00  0.00    -0.350 N 
ATOM      4  H   UNL     1      49.337  36.493  87.163  1.00  0.00     0.345 HD
ATOM      5  H   UNL     1      50.971  36.540  87.649  1.00  0.00     0.345 HD
ATOM      6  H   UNL     1      49.730  36.419  88.810  1.00  0.00     0.345 HD
ENDBRANCH   2   3
BRANCH   2   7
ATOM      7  C   UNL     1      49.652  34.198  86.409  1.00  0.00     0.100 C 
ATOM      8  O   UNL     1      50.423  34.330  85.422  1.00  0.00    -0.544 OA
ATOM      9  O   UNL     1      48.394  33.635  86.225  1.00  0.00    -0.544 OA
ENDBRANCH   2   7
ENDBRANCH   1   2
BRANCH   1  10
ATOM     10  C   UNL     1      52.541  35.207  87.837  1.00  0.00     0.223 C 
ATOM     11  O   UNL     1      52.898  35.984  88.764  1.00  0.00    -0.275 OA
ATOM     12  N   UNL     1      53.156  35.311  86.551  1.00  0.00    -0.369 N 
ATOM     13  H   UNL     1      52.886  34.664  85.778  1.00  0.00     0.159 HD
ATOM     14  H   UNL     1      53.886  36.035  86.374  1.00  0.00     0.159 HD
ENDBRANCH   1  10
TORSDOF 4
ENDMDL
MODEL 7
REMARK VINA RESULT:    -3.006      1.390      3.653
REMARK INTER + INTRA:          -4.064
REMARK INTER:                  -3.596
REMARK INTRA:                  -0.468
REMARK UNBOUND:                -0.444
REMARK SMILES NC(=O)C[C@@H]([NH3+])C(=O)[O-]
REMARK SMILES IDX 4 1 5 2 6 3 7 7 8 8 9 9 2 10 3 11 1 12
REMARK H PARENT 6 4 6 5 6 6 1 13 1 14
REMARK Flexibility Score: inf
ROOT
ATOM      1  C   UNL     1      48.819  33.654  86.314  1.00  0.00     0.171 C 
ENDROOT
BRANCH   1   2
ATOM      2  C   UNL     1      50.153  34.095  86.949  1.00  0.00     0.237 C 
BRANCH   2   3
ATOM      3  N   UNL     1      51.169  34.305  85.911  1.00  0.00    -0.350 N 
ATOM      4  H   UNL     1      51.701  35.186  86.106  1.00  0.00     0.345 HD
ATOM      5  H   UNL     1      50.724  34.376  84.966  1.00  0.00     0.345 HD
ATOM      6  H   UNL     1      51.847  33.508  85.911  1.00  0.00     0.345 HD
ENDBRANCH   2   3
BRANCH   2   7
ATOM      7  C   UNL     1      49.975  35.352  87.760  1.00  0.00     0.100 C 
ATOM      8  O   UNL     1      50.979  35.958  88.218  1.00  0.00    -0.544 OA
ATOM      9  O   UNL     1      48.701  35.845  88.019  1.00  0.00    -0.544 OA
ENDBRANCH   2   7
ENDBRANCH   1   2
BRANCH   1  10
ATOM     10  C   UNL     1      48.560  34.369  85.020  1.00  0.00     0.223 C 
ATOM     11  O   UNL     1      49.012  33.896  83.943  1.00  0.00    -0.275 OA
ATOM     12  N   UNL     1      47.772  35.561  84.994  1.00  0.00    -0.369 N 
ATOM     13  H   UNL     1      47.374  35.955  85.874  1.00  0.00     0.159 HD
ATOM     14  H   UNL     1      47.583  36.046  84.089  1.00  0.00     0.159 HD
ENDBRANCH   1  10
TORSDOF 4
ENDMDL
MODEL 8
REMARK VINA RESULT:    -3.005     19.258     20.095
REMARK INTER + INTRA:          -4.063
REMARK INTER:                  -3.810
REMARK INTRA:                  -0.254
REMARK UNBOUND:                -0.444
REMARK SMILES NC(=O)C[C@@H]([NH3+])C(=O)[O-]
REMARK SMILES IDX 4 1 5 2 6 3 7 7 8 8 9 9 2 10 3 11 1 12
REMARK H PARENT 6 4 6 5 6 6 1 13 1 14
REMARK Flexibility Score: inf
ROOT
ATOM      1  C   UNL     1      37.365  19.126  80.718  1.00  0.00     0.171 C 
ENDROOT
BRANCH   1   2
ATOM      2  C   UNL     1      37.630  20.616  81.015  1.00  0.00     0.237 C 
BRANCH   2   3
ATOM      3  N   UNL     1      37.333  21.435  79.834  1.00  0.00    -0.350 N 
ATOM      4  H   UNL     1      38.222  21.693  79.347  1.00  0.00     0.345 HD
ATOM      5  H   UNL     1      36.826  22.309  80.108  1.00  0.00     0.345 HD
ATOM      6  H   UNL     1      36.740  20.891  79.166  1.00  0.00     0.345 HD
ENDBRANCH   2   3
BRANCH   2   7
ATOM      7  C   UNL     1      36.809  21.085  82.189  1.00  0.00     0.100 C 
ATOM      8  O   UNL     1      35.875  21.911  82.019  1.00  0.00    -0.544 OA
ATOM      9  O   UNL     1      37.086  20.617  83.469  1.00  0.00    -0.544 OA
ENDBRANCH   2   7
ENDBRANCH   1   2
BRANCH   1  10
ATOM     10  C   UNL     1      38.478  18.517  79.916  1.00  0.00     0.223 C 
ATOM     11  O   UNL     1      39.527  19.181  79.696  1.00  0.00    -0.275 OA
ATOM     12  N   UNL     1      38.375  17.176  79.433  1.00  0.00    -0.369 N 
ATOM     13  H   UNL     1      37.522  16.606  79.622  1.00  0.00     0.159 HD
ATOM     14  H   UNL     1      39.158  16.752  78.888  1.00  0.00     0.159 HD
ENDBRANCH   1  10
TORSDOF 4
ENDMDL
MODEL 9
REMARK VINA RESULT:    -2.909     16.994     17.909
REMARK INTER + INTRA:          -3.948
REMARK INTER:                  -3.499
REMARK INTRA:                  -0.449
REMARK UNBOUND:                -0.444
REMARK SMILES NC(=O)C[C@@H]([NH3+])C(=O)[O-]
REMARK SMILES IDX 4 1 5 2 6 3 7 7 8 8 9 9 2 10 3 11 1 12
REMARK H PARENT 6 4 6 5 6 6 1 13 1 14
REMARK Flexibility Score: inf
ROOT
ATOM      1  C   UNL     1      46.637  20.314  78.555  1.00  0.00     0.171 C 
ENDROOT
BRANCH   1   2
ATOM      2  C   UNL     1      46.567  20.228  77.018  1.00  0.00     0.237 C 
BRANCH   2   3
ATOM      3  N   UNL     1      47.908  20.359  76.436  1.00  0.00    -0.350 N 
ATOM      4  H   UNL     1      47.900  21.085  75.682  1.00  0.00     0.345 HD
ATOM      5  H   UNL     1      48.226  19.448  76.031  1.00  0.00     0.345 HD
ATOM      6  H   UNL     1      48.586  20.661  77.173  1.00  0.00     0.345 HD
ENDBRANCH   2   3
BRANCH   2   7
ATOM      7  C   UNL     1      45.938  18.931  76.579  1.00  0.00     0.100 C 
ATOM      8  O   UNL     1      45.371  18.186  77.421  1.00  0.00    -0.544 OA
ATOM      9  O   UNL     1      45.989  18.542  75.245  1.00  0.00    -0.544 OA
ENDBRANCH   2   7
ENDBRANCH   1   2
BRANCH   1  10
ATOM     10  C   UNL     1      47.867  19.642  79.091  1.00  0.00     0.223 C 
ATOM     11  O   UNL     1      48.917  20.314  79.276  1.00  0.00    -0.275 OA
ATOM     12  N   UNL     1      47.846  18.255  79.431  1.00  0.00    -0.369 N 
ATOM     13  H   UNL     1      46.980  17.687  79.303  1.00  0.00     0.159 HD
ATOM     14  H   UNL     1      48.700  17.795  79.817  1.00  0.00     0.159 HD
ENDBRANCH   1  10
TORSDOF 4
ENDMDL
