MODEL 1
REMARK VINA RESULT:    -7.441      0.000      0.000
REMARK INTER + INTRA:          -9.164
REMARK INTER:                  -8.963
REMARK INTRA:                  -0.201
REMARK UNBOUND:                -0.201
REMARK SMILES O=c1c(O)c(-c2ccc(O)c(O)c2)oc2cc(O)cc(O)c12
REMARK SMILES IDX 5 1 3 2 2 3 1 4 22 5 20 6 19 7 17 8 16 9 15 10 14 11 6 12
REMARK SMILES IDX 7 13 8 14 9 15 13 16 11 17 10 18 12 20 4 22 21 24 18 26
REMARK H PARENT 10 19 12 21 4 23 21 25 18 27
REMARK Flexibility Score: inf
ROOT
ATOM      1  C   UNL     1     140.592 -18.109  78.729  1.00  0.00     0.180 A 
ATOM      2  C   UNL     1     139.228 -17.952  78.419  1.00  0.00     0.208 A 
ATOM      3  C   UNL     1     138.553 -16.813  78.887  1.00  0.00     0.238 A 
ATOM      4  O   UNL     1     137.334 -16.656  78.607  1.00  0.00    -0.285 OA
ATOM      5  C   UNL     1     139.244 -15.865  79.670  1.00  0.00     0.111 A 
ATOM      6  C   UNL     1     138.636 -14.694  80.183  1.00  0.00     0.134 A 
ATOM      7  C   UNL     1     139.391 -13.803  80.962  1.00  0.00     0.093 A 
ATOM      8  C   UNL     1     140.736 -14.061  81.237  1.00  0.00     0.123 A 
ATOM      9  C   UNL     1     141.342 -15.216  80.733  1.00  0.00     0.094 A 
ATOM     10  C   UNL     1     140.608 -16.115  79.953  1.00  0.00     0.146 A 
ATOM     11  O   UNL     1     141.209 -17.202  79.481  1.00  0.00    -0.452 OA
ENDROOT
BRANCH   1  12
ATOM     12  C   UNL     1     141.377 -19.272  78.256  1.00  0.00     0.025 A 
ATOM     13  C   UNL     1     141.122 -20.542  78.795  1.00  0.00     0.016 A 
ATOM     14  C   UNL     1     141.864 -21.651  78.378  1.00  0.00     0.051 A 
ATOM     15  C   UNL     1     142.882 -21.504  77.431  1.00  0.00     0.157 A 
ATOM     16  C   UNL     1     142.416 -19.123  77.319  1.00  0.00     0.062 A 
ATOM     17  C   UNL     1     143.163 -20.234  76.901  1.00  0.00     0.158 A 
BRANCH  15  18
ATOM     18  O   UNL     1     143.605 -22.629  77.033  1.00  0.00    -0.504 OA
ATOM     19  H   UNL     1     143.918 -23.328  77.695  1.00  0.00     0.293 HD
ENDBRANCH  15  18
BRANCH  17  20
ATOM     20  O   UNL     1     144.186 -20.078  75.967  1.00  0.00    -0.504 OA
ATOM     21  H   UNL     1     144.400 -19.176  75.558  1.00  0.00     0.293 HD
ENDBRANCH  17  20
ENDBRANCH   1  12
BRANCH   2  22
ATOM     22  O   UNL     1     138.553 -18.929  77.683  1.00  0.00    -0.502 OA
ATOM     23  H   UNL     1     138.778 -19.133  76.718  1.00  0.00     0.293 HD
ENDBRANCH   2  22
BRANCH   6  24
ATOM     24  O   UNL     1     137.295 -14.408  79.926  1.00  0.00    -0.507 OA
ATOM     25  H   UNL     1     136.608 -15.142  79.802  1.00  0.00     0.293 HD
ENDBRANCH   6  24
BRANCH   8  26
ATOM     26  O   UNL     1     141.462 -13.161  82.014  1.00  0.00    -0.508 OA
ATOM     27  H   UNL     1     141.212 -12.971  82.978  1.00  0.00     0.293 HD
ENDBRANCH   8  26
TORSDOF 6
ENDMDL
MODEL 2
REMARK VINA RESULT:    -6.101      4.627      9.734
REMARK INTER + INTRA:          -7.550
REMARK INTER:                  -7.926
REMARK INTRA:                   0.376
REMARK UNBOUND:                -0.201
REMARK SMILES O=c1c(O)c(-c2ccc(O)c(O)c2)oc2cc(O)cc(O)c12
REMARK SMILES IDX 5 1 3 2 2 3 1 4 22 5 20 6 19 7 17 8 16 9 15 10 14 11 6 12
REMARK SMILES IDX 7 13 8 14 9 15 13 16 11 17 10 18 12 20 4 22 21 24 18 26
REMARK H PARENT 10 19 12 21 4 23 21 25 18 27
REMARK Flexibility Score: inf
ROOT
ATOM      1  C   UNL     1     145.479 -21.999  76.955  1.00  0.00     0.180 A 
ATOM      2  C   UNL     1     146.159 -22.760  77.926  1.00  0.00     0.208 A 
ATOM      3  C   UNL     1     147.455 -23.219  77.642  1.00  0.00     0.238 A 
ATOM      4  O   UNL     1     148.078 -23.892  78.508  1.00  0.00    -0.285 OA
ATOM      5  C   UNL     1     148.039 -22.930  76.391  1.00  0.00     0.111 A 
ATOM      6  C   UNL     1     149.337 -23.360  76.026  1.00  0.00     0.134 A 
ATOM      7  C   UNL     1     149.844 -23.039  74.757  1.00  0.00     0.093 A 
ATOM      8  C   UNL     1     149.081 -22.301  73.851  1.00  0.00     0.123 A 
ATOM      9  C   UNL     1     147.797 -21.873  74.206  1.00  0.00     0.094 A 
ATOM     10  C   UNL     1     147.275 -22.181  75.466  1.00  0.00     0.146 A 
ATOM     11  O   UNL     1     146.055 -21.758  75.781  1.00  0.00    -0.452 OA
ENDROOT
BRANCH   1  12
ATOM     12  C   UNL     1     144.119 -21.463  77.187  1.00  0.00     0.025 A 
ATOM     13  C   UNL     1     143.264 -22.115  78.090  1.00  0.00     0.016 A 
ATOM     14  C   UNL     1     141.969 -21.637  78.310  1.00  0.00     0.051 A 
ATOM     15  C   UNL     1     141.503 -20.514  77.620  1.00  0.00     0.157 A 
ATOM     16  C   UNL     1     143.641 -20.346  76.478  1.00  0.00     0.062 A 
ATOM     17  C   UNL     1     142.340 -19.867  76.695  1.00  0.00     0.158 A 
BRANCH  15  18
ATOM     18  O   UNL     1     140.207 -20.060  77.861  1.00  0.00    -0.504 OA
ATOM     19  H   UNL     1     140.011 -19.321  78.524  1.00  0.00     0.293 HD
ENDBRANCH  15  18
BRANCH  17  20
ATOM     20  O   UNL     1     141.877 -18.755  75.993  1.00  0.00    -0.504 OA
ATOM     21  H   UNL     1     142.480 -18.231  75.371  1.00  0.00     0.293 HD
ENDBRANCH  17  20
ENDBRANCH   1  12
BRANCH   2  22
ATOM     22  O   UNL     1     145.540 -23.074  79.138  1.00  0.00    -0.502 OA
ATOM     23  H   UNL     1     144.550 -22.932  79.295  1.00  0.00     0.293 HD
ENDBRANCH   2  22
BRANCH   6  24
ATOM     24  O   UNL     1     150.125 -24.100  76.908  1.00  0.00    -0.507 OA
ATOM     25  H   UNL     1     151.046 -23.787  77.191  1.00  0.00     0.293 HD
ENDBRANCH   6  24
BRANCH   8  26
ATOM     26  O   UNL     1     149.607 -21.996  72.597  1.00  0.00    -0.508 OA
ATOM     27  H   UNL     1     149.065 -22.120  71.750  1.00  0.00     0.293 HD
ENDBRANCH   8  26
TORSDOF 6
ENDMDL
MODEL 3
REMARK VINA RESULT:    -5.727      4.682     10.028
REMARK INTER + INTRA:          -7.099
REMARK INTER:                  -7.565
REMARK INTRA:                   0.465
REMARK UNBOUND:                -0.201
REMARK SMILES O=c1c(O)c(-c2ccc(O)c(O)c2)oc2cc(O)cc(O)c12
REMARK SMILES IDX 5 1 3 2 2 3 1 4 22 5 20 6 19 7 17 8 16 9 15 10 14 11 6 12
REMARK SMILES IDX 7 13 8 14 9 15 13 16 11 17 10 18 12 20 4 22 21 24 18 26
REMARK H PARENT 10 19 12 21 4 23 21 25 18 27
REMARK Flexibility Score: inf
ROOT
ATOM      1  C   UNL     1     145.626 -22.426  76.965  1.00  0.00     0.180 A 
ATOM      2  C   UNL     1     146.448 -22.115  75.865  1.00  0.00     0.208 A 
ATOM      3  C   UNL     1     147.657 -22.811  75.704  1.00  0.00     0.238 A 
ATOM      4  O   UNL     1     148.397 -22.549  74.717  1.00  0.00    -0.285 OA
ATOM      5  C   UNL     1     148.032 -23.786  76.652  1.00  0.00     0.111 A 
ATOM      6  C   UNL     1     149.235 -24.527  76.564  1.00  0.00     0.134 A 
ATOM      7  C   UNL     1     149.541 -25.475  77.554  1.00  0.00     0.093 A 
ATOM      8  C   UNL     1     148.672 -25.693  78.624  1.00  0.00     0.123 A 
ATOM      9  C   UNL     1     147.482 -24.964  78.716  1.00  0.00     0.094 A 
ATOM     10  C   UNL     1     147.158 -24.017  77.739  1.00  0.00     0.146 A 
ATOM     11  O   UNL     1     146.018 -23.342  77.847  1.00  0.00    -0.452 OA
ENDROOT
BRANCH   1  12
ATOM     12  C   UNL     1     144.328 -21.751  77.193  1.00  0.00     0.025 A 
ATOM     13  C   UNL     1     143.471 -22.225  78.198  1.00  0.00     0.016 A 
ATOM     14  C   UNL     1     142.232 -21.615  78.417  1.00  0.00     0.051 A 
ATOM     15  C   UNL     1     141.825 -20.536  77.626  1.00  0.00     0.157 A 
ATOM     16  C   UNL     1     143.908 -20.679  76.384  1.00  0.00     0.062 A 
ATOM     17  C   UNL     1     142.664 -20.068  76.601  1.00  0.00     0.158 A 
BRANCH  15  18
ATOM     18  O   UNL     1     140.584 -19.948  77.869  1.00  0.00    -0.504 OA
ATOM     19  H   UNL     1     140.220 -19.203  77.288  1.00  0.00     0.293 HD
ENDBRANCH  15  18
BRANCH  17  20
ATOM     20  O   UNL     1     142.258 -19.002  75.799  1.00  0.00    -0.504 OA
ATOM     21  H   UNL     1     142.865 -18.211  75.619  1.00  0.00     0.293 HD
ENDBRANCH  17  20
ENDBRANCH   1  12
BRANCH   2  22
ATOM     22  O   UNL     1     146.078 -21.111  74.967  1.00  0.00    -0.502 OA
ATOM     23  H   UNL     1     146.734 -20.421  74.624  1.00  0.00     0.293 HD
ENDBRANCH   2  22
BRANCH   6  24
ATOM     24  O   UNL     1     150.125 -24.332  75.508  1.00  0.00    -0.507 OA
ATOM     25  H   UNL     1     150.363 -25.080  74.867  1.00  0.00     0.293 HD
ENDBRANCH   6  24
BRANCH   8  26
ATOM     26  O   UNL     1     149.000 -26.639  79.593  1.00  0.00    -0.508 OA
ATOM     27  H   UNL     1     148.370 -27.397  79.828  1.00  0.00     0.293 HD
ENDBRANCH   8  26
TORSDOF 6
ENDMDL
