MODEL 1
REMARK VINA RESULT:    -4.436      0.000      0.000
REMARK INTER + INTRA:         -11.006
REMARK INTER:                  -8.586
REMARK INTRA:                  -2.420
REMARK UNBOUND:                -2.420
REMARK SMILES CCCCCCCCCCCCCCCCCC(=O)[O-]
REMARK SMILES IDX 10 1 11 2 12 3 13 4 14 5 15 6 16 7 17 8 18 9 19 10 20 11
REMARK SMILES IDX 9 12 8 13 7 14 6 15 5 16 4 17 3 18 2 19 1 20
REMARK H PARENT
REMARK Flexibility Score: inf
ROOT
ATOM      1  C   UNL     1      15.381   4.093  -0.357  1.00  0.00     0.000 C 
ENDROOT
BRANCH   1   2
ATOM      2  C   UNL     1      15.378   3.274  -1.667  1.00  0.00     0.000 C 
BRANCH   2   3
ATOM      3  C   UNL     1      15.923   1.842  -1.503  1.00  0.00     0.000 C 
BRANCH   3   4
ATOM      4  C   UNL     1      15.037   0.737  -2.109  1.00  0.00     0.000 C 
BRANCH   4   5
ATOM      5  C   UNL     1      13.870   0.277  -1.216  1.00  0.00     0.000 C 
BRANCH   5   6
ATOM      6  C   UNL     1      12.537   0.946  -1.580  1.00  0.00     0.000 C 
BRANCH   6   7
ATOM      7  C   UNL     1      12.016   1.802  -0.417  1.00  0.00     0.006 C 
BRANCH   7   8
ATOM      8  C   UNL     1      11.751   3.254  -0.837  1.00  0.00     0.053 C 
BRANCH   8   9
ATOM      9  C   UNL     1      10.289   3.577  -0.825  1.00  0.00     0.041 C 
ATOM     10  O   UNL     1       9.440   2.692  -1.110  1.00  0.00    -0.550 OA
ATOM     11  O   UNL     1       9.865   4.868  -0.533  1.00  0.00    -0.550 OA
ENDBRANCH   8   9
ENDBRANCH   7   8
ENDBRANCH   6   7
ENDBRANCH   5   6
ENDBRANCH   4   5
ENDBRANCH   3   4
ENDBRANCH   2   3
ENDBRANCH   1   2
BRANCH   1  12
ATOM     12  C   UNL     1      15.331   3.198   0.893  1.00  0.00     0.000 C 
BRANCH  12  13
ATOM     13  C   UNL     1      14.298   3.678   1.926  1.00  0.00    -0.000 C 
BRANCH  13  14
ATOM     14  C   UNL     1      13.747   2.529   2.787  1.00  0.00    -0.000 C 
BRANCH  14  15
ATOM     15  C   UNL     1      14.614   1.262   2.707  1.00  0.00    -0.000 C 
BRANCH  15  16
ATOM     16  C   UNL     1      15.007   0.724   4.095  1.00  0.00    -0.000 C 
BRANCH  16  17
ATOM     17  C   UNL     1      15.718   1.777   4.960  1.00  0.00    -0.000 C 
BRANCH  17  18
ATOM     18  C   UNL     1      15.156   1.841   6.391  1.00  0.00    -0.000 C 
BRANCH  18  19
ATOM     19  C   UNL     1      13.622   1.736   6.425  1.00  0.00    -0.003 C 
ATOM     20  C   UNL     1      13.128   0.523   7.213  1.00  0.00     0.004 C 
ENDBRANCH  18  19
ENDBRANCH  17  18
ENDBRANCH  16  17
ENDBRANCH  15  16
ENDBRANCH  14  15
ENDBRANCH  13  14
ENDBRANCH  12  13
ENDBRANCH   1  12
TORSDOF 16
ENDMDL
MODEL 2
REMARK VINA RESULT:    -4.428      3.198      6.012
REMARK INTER + INTRA:         -10.990
REMARK INTER:                  -8.544
REMARK INTRA:                  -2.446
REMARK UNBOUND:                -2.420
REMARK SMILES CCCCCCCCCCCCCCCCCC(=O)[O-]
REMARK SMILES IDX 10 1 11 2 12 3 13 4 14 5 15 6 16 7 17 8 18 9 19 10 20 11
REMARK SMILES IDX 9 12 8 13 7 14 6 15 5 16 4 17 3 18 2 19 1 20
REMARK H PARENT
REMARK Flexibility Score: inf
ROOT
ATOM      1  C   UNL     1      16.341   1.879  -1.580  1.00  0.00     0.000 C 
ENDROOT
BRANCH   1   2
ATOM      2  C   UNL     1      15.377   3.085  -1.535  1.00  0.00     0.000 C 
BRANCH   2   3
ATOM      3  C   UNL     1      15.634   4.040  -0.353  1.00  0.00     0.000 C 
BRANCH   3   4
ATOM      4  C   UNL     1      14.665   3.880   0.835  1.00  0.00     0.000 C 
BRANCH   4   5
ATOM      5  C   UNL     1      15.065   2.801   1.859  1.00  0.00     0.000 C 
BRANCH   5   6
ATOM      6  C   UNL     1      13.928   2.445   2.827  1.00  0.00     0.000 C 
BRANCH   6   7
ATOM      7  C   UNL     1      14.349   1.312   3.775  1.00  0.00     0.006 C 
BRANCH   7   8
ATOM      8  C   UNL     1      15.628   1.652   4.553  1.00  0.00     0.053 C 
BRANCH   8   9
ATOM      9  C   UNL     1      15.351   1.866   6.009  1.00  0.00     0.041 C 
ATOM     10  O   UNL     1      16.301   2.027   6.820  1.00  0.00    -0.550 OA
ATOM     11  O   UNL     1      14.042   1.853   6.476  1.00  0.00    -0.550 OA
ENDBRANCH   8   9
ENDBRANCH   7   8
ENDBRANCH   6   7
ENDBRANCH   5   6
ENDBRANCH   4   5
ENDBRANCH   3   4
ENDBRANCH   2   3
ENDBRANCH   1   2
BRANCH   1  12
ATOM     12  C   UNL     1      15.680   0.623  -2.173  1.00  0.00     0.000 C 
BRANCH  12  13
ATOM     13  C   UNL     1      14.152   0.620  -2.002  1.00  0.00    -0.000 C 
BRANCH  13  14
ATOM     14  C   UNL     1      13.690  -0.267  -0.833  1.00  0.00    -0.000 C 
BRANCH  14  15
ATOM     15  C   UNL     1      12.484   0.323  -0.085  1.00  0.00    -0.000 C 
BRANCH  15  16
ATOM     16  C   UNL     1      12.012   1.661  -0.683  1.00  0.00    -0.000 C 
BRANCH  16  17
ATOM     17  C   UNL     1      11.282   2.544   0.343  1.00  0.00    -0.000 C 
BRANCH  17  18
ATOM     18  C   UNL     1      10.846   3.896  -0.248  1.00  0.00    -0.000 C 
BRANCH  18  19
ATOM     19  C   UNL     1      10.367   4.881   0.831  1.00  0.00    -0.003 C 
ATOM     20  C   UNL     1      11.347   5.007   1.997  1.00  0.00     0.004 C 
ENDBRANCH  18  19
ENDBRANCH  17  18
ENDBRANCH  16  17
ENDBRANCH  15  16
ENDBRANCH  14  15
ENDBRANCH  13  14
ENDBRANCH  12  13
ENDBRANCH   1  12
TORSDOF 16
ENDMDL
MODEL 3
REMARK VINA RESULT:    -4.421      3.807      6.673
REMARK INTER + INTRA:         -10.977
REMARK INTER:                  -8.394
REMARK INTRA:                  -2.582
REMARK UNBOUND:                -2.420
REMARK SMILES CCCCCCCCCCCCCCCCCC(=O)[O-]
REMARK SMILES IDX 10 1 11 2 12 3 13 4 14 5 15 6 16 7 17 8 18 9 19 10 20 11
REMARK SMILES IDX 9 12 8 13 7 14 6 15 5 16 4 17 3 18 2 19 1 20
REMARK H PARENT
REMARK Flexibility Score: inf
ROOT
ATOM      1  C   UNL     1      15.379   3.162  -1.589  1.00  0.00     0.000 C 
ENDROOT
BRANCH   1   2
ATOM      2  C   UNL     1      15.193   3.839  -0.213  1.00  0.00     0.000 C 
BRANCH   2   3
ATOM      3  C   UNL     1      15.403   2.886   0.980  1.00  0.00     0.000 C 
BRANCH   3   4
ATOM      4  C   UNL     1      14.525   3.181   2.211  1.00  0.00     0.000 C 
BRANCH   4   5
ATOM      5  C   UNL     1      13.959   1.936   2.919  1.00  0.00     0.000 C 
BRANCH   5   6
ATOM      6  C   UNL     1      14.304   1.889   4.414  1.00  0.00     0.000 C 
BRANCH   6   7
ATOM      7  C   UNL     1      15.817   1.729   4.624  1.00  0.00     0.006 C 
BRANCH   7   8
ATOM      8  C   UNL     1      16.254   2.141   6.037  1.00  0.00     0.053 C 
BRANCH   8   9
ATOM      9  C   UNL     1      17.037   1.058   6.713  1.00  0.00     0.041 C 
ATOM     10  O   UNL     1      16.451   0.043   7.174  1.00  0.00    -0.550 OA
ATOM     11  O   UNL     1      18.412   1.186   6.865  1.00  0.00    -0.550 OA
ENDBRANCH   8   9
ENDBRANCH   7   8
ENDBRANCH   6   7
ENDBRANCH   5   6
ENDBRANCH   4   5
ENDBRANCH   3   4
ENDBRANCH   2   3
ENDBRANCH   1   2
BRANCH   1  12
ATOM     12  C   UNL     1      16.149   1.834  -1.489  1.00  0.00     0.000 C 
BRANCH  12  13
ATOM     13  C   UNL     1      15.458   0.688  -2.246  1.00  0.00    -0.000 C 
BRANCH  13  14
ATOM     14  C   UNL     1      13.931   0.696  -2.064  1.00  0.00    -0.000 C 
BRANCH  14  15
ATOM     15  C   UNL     1      13.500   0.196  -0.676  1.00  0.00    -0.000 C 
BRANCH  15  16
ATOM     16  C   UNL     1      12.237   0.906  -0.155  1.00  0.00    -0.000 C 
BRANCH  16  17
ATOM     17  C   UNL     1      11.707   1.966  -1.134  1.00  0.00    -0.000 C 
BRANCH  17  18
ATOM     18  C   UNL     1      11.666   3.374  -0.513  1.00  0.00    -0.000 C 
BRANCH  18  19
ATOM     19  C   UNL     1      11.066   3.374   0.902  1.00  0.00    -0.003 C 
ATOM     20  C   UNL     1      11.241   4.712   1.620  1.00  0.00     0.004 C 
ENDBRANCH  18  19
ENDBRANCH  17  18
ENDBRANCH  16  17
ENDBRANCH  15  16
ENDBRANCH  14  15
ENDBRANCH  13  14
ENDBRANCH  12  13
ENDBRANCH   1  12
TORSDOF 16
ENDMDL
MODEL 4
REMARK VINA RESULT:    -4.418      2.539      5.356
REMARK INTER + INTRA:         -10.970
REMARK INTER:                  -8.849
REMARK INTRA:                  -2.121
REMARK UNBOUND:                -2.420
REMARK SMILES CCCCCCCCCCCCCCCCCC(=O)[O-]
REMARK SMILES IDX 10 1 11 2 12 3 13 4 14 5 15 6 16 7 17 8 18 9 19 10 20 11
REMARK SMILES IDX 9 12 8 13 7 14 6 15 5 16 4 17 3 18 2 19 1 20
REMARK H PARENT
REMARK Flexibility Score: inf
ROOT
ATOM      1  C   UNL     1      14.916   4.225   0.421  1.00  0.00     0.000 C 
ENDROOT
BRANCH   1   2
ATOM      2  C   UNL     1      14.731   3.082   1.443  1.00  0.00     0.000 C 
BRANCH   2   3
ATOM      3  C   UNL     1      13.379   3.125   2.182  1.00  0.00     0.000 C 
BRANCH   3   4
ATOM      4  C   UNL     1      12.603   4.449   2.042  1.00  0.00     0.000 C 
BRANCH   4   5
ATOM      5  C   UNL     1      11.278   4.346   1.264  1.00  0.00     0.000 C 
BRANCH   5   6
ATOM      6  C   UNL     1      10.142   5.154   1.907  1.00  0.00     0.000 C 
BRANCH   6   7
ATOM      7  C   UNL     1       8.906   5.184   0.996  1.00  0.00     0.006 C 
BRANCH   7   8
ATOM      8  C   UNL     1       8.944   6.354   0.003  1.00  0.00     0.053 C 
BRANCH   8   9
ATOM      9  C   UNL     1       8.747   5.891  -1.407  1.00  0.00     0.041 C 
ATOM     10  O   UNL     1       8.932   4.683  -1.711  1.00  0.00    -0.550 OA
ATOM     11  O   UNL     1       8.392   6.803  -2.394  1.00  0.00    -0.550 OA
ENDBRANCH   8   9
ENDBRANCH   7   8
ENDBRANCH   6   7
ENDBRANCH   5   6
ENDBRANCH   4   5
ENDBRANCH   3   4
ENDBRANCH   2   3
ENDBRANCH   1   2
BRANCH   1  12
ATOM     12  C   UNL     1      15.521   3.732  -0.905  1.00  0.00     0.000 C 
BRANCH  12  13
ATOM     13  C   UNL     1      16.481   2.547  -0.715  1.00  0.00    -0.000 C 
BRANCH  13  14
ATOM     14  C   UNL     1      16.306   1.466  -1.795  1.00  0.00    -0.000 C 
BRANCH  14  15
ATOM     15  C   UNL     1      15.189   0.466  -1.453  1.00  0.00    -0.000 C 
BRANCH  15  16
ATOM     16  C   UNL     1      14.152   0.327  -2.581  1.00  0.00    -0.000 C 
BRANCH  16  17
ATOM     17  C   UNL     1      13.113   1.460  -2.574  1.00  0.00    -0.000 C 
BRANCH  17  18
ATOM     18  C   UNL     1      12.455   1.647  -1.196  1.00  0.00    -0.000 C 
BRANCH  18  19
ATOM     19  C   UNL     1      11.239   0.728  -0.995  1.00  0.00    -0.003 C 
ATOM     20  C   UNL     1       9.927   1.501  -0.863  1.00  0.00     0.004 C 
ENDBRANCH  18  19
ENDBRANCH  17  18
ENDBRANCH  16  17
ENDBRANCH  15  16
ENDBRANCH  14  15
ENDBRANCH  13  14
ENDBRANCH  12  13
ENDBRANCH   1  12
TORSDOF 16
ENDMDL
MODEL 5
REMARK VINA RESULT:    -4.392      1.340      2.241
REMARK INTER + INTRA:         -10.920
REMARK INTER:                  -8.089
REMARK INTRA:                  -2.832
REMARK UNBOUND:                -2.420
REMARK SMILES CCCCCCCCCCCCCCCCCC(=O)[O-]
REMARK SMILES IDX 10 1 11 2 12 3 13 4 14 5 15 6 16 7 17 8 18 9 19 10 20 11
REMARK SMILES IDX 9 12 8 13 7 14 6 15 5 16 4 17 3 18 2 19 1 20
REMARK H PARENT
REMARK Flexibility Score: inf
ROOT
ATOM      1  C   UNL     1      16.449   2.237  -1.197  1.00  0.00     0.000 C 
ENDROOT
BRANCH   1   2
ATOM      2  C   UNL     1      16.120   0.979  -2.031  1.00  0.00     0.000 C 
BRANCH   2   3
ATOM      3  C   UNL     1      14.626   0.606  -2.028  1.00  0.00     0.000 C 
BRANCH   3   4
ATOM      4  C   UNL     1      14.186  -0.308  -0.869  1.00  0.00     0.000 C 
BRANCH   4   5
ATOM      5  C   UNL     1      12.940   0.169  -0.101  1.00  0.00     0.000 C 
BRANCH   5   6
ATOM      6  C   UNL     1      12.289   1.411  -0.727  1.00  0.00     0.000 C 
BRANCH   6   7
ATOM      7  C   UNL     1      11.304   2.067   0.251  1.00  0.00     0.006 C 
BRANCH   7   8
ATOM      8  C   UNL     1      11.142   3.571  -0.009  1.00  0.00     0.053 C 
BRANCH   8   9
ATOM      9  C   UNL     1      10.625   4.290   1.199  1.00  0.00     0.041 C 
ATOM     10  O   UNL     1       9.470   4.048   1.637  1.00  0.00    -0.550 OA
ATOM     11  O   UNL     1      11.408   5.256   1.820  1.00  0.00    -0.550 OA
ENDBRANCH   8   9
ENDBRANCH   7   8
ENDBRANCH   6   7
ENDBRANCH   5   6
ENDBRANCH   4   5
ENDBRANCH   3   4
ENDBRANCH   2   3
ENDBRANCH   1   2
BRANCH   1  12
ATOM     12  C   UNL     1      15.408   3.354  -1.388  1.00  0.00     0.000 C 
BRANCH  12  13
ATOM     13  C   UNL     1      14.964   3.985  -0.057  1.00  0.00    -0.000 C 
BRANCH  13  14
ATOM     14  C   UNL     1      15.077   3.010   1.126  1.00  0.00    -0.000 C 
BRANCH  14  15
ATOM     15  C   UNL     1      14.188   3.417   2.313  1.00  0.00    -0.000 C 
BRANCH  15  16
ATOM     16  C   UNL     1      13.798   2.220   3.200  1.00  0.00    -0.000 C 
BRANCH  16  17
ATOM     17  C   UNL     1      14.761   1.031   3.048  1.00  0.00    -0.000 C 
BRANCH  17  18
ATOM     18  C   UNL     1      15.470   0.675   4.366  1.00  0.00    -0.000 C 
BRANCH  18  19
ATOM     19  C   UNL     1      15.280   1.754   5.445  1.00  0.00    -0.003 C 
ATOM     20  C   UNL     1      16.604   2.258   6.018  1.00  0.00     0.004 C 
ENDBRANCH  18  19
ENDBRANCH  17  18
ENDBRANCH  16  17
ENDBRANCH  15  16
ENDBRANCH  14  15
ENDBRANCH  13  14
ENDBRANCH  12  13
ENDBRANCH   1  12
TORSDOF 16
ENDMDL
MODEL 6
REMARK VINA RESULT:    -4.289      2.293      3.659
REMARK INTER + INTRA:         -10.721
REMARK INTER:                  -8.513
REMARK INTRA:                  -2.208
REMARK UNBOUND:                -2.420
REMARK SMILES CCCCCCCCCCCCCCCCCC(=O)[O-]
REMARK SMILES IDX 10 1 11 2 12 3 13 4 14 5 15 6 16 7 17 8 18 9 19 10 20 11
REMARK SMILES IDX 9 12 8 13 7 14 6 15 5 16 4 17 3 18 2 19 1 20
REMARK H PARENT
REMARK Flexibility Score: inf
ROOT
ATOM      1  C   UNL     1      12.561   4.065   2.242  1.00  0.00     0.000 C 
ENDROOT
BRANCH   1   2
ATOM      2  C   UNL     1      11.465   5.104   1.916  1.00  0.00     0.000 C 
BRANCH   2   3
ATOM      3  C   UNL     1      10.248   4.510   1.182  1.00  0.00     0.000 C 
BRANCH   3   4
ATOM      4  C   UNL     1      10.515   4.067  -0.269  1.00  0.00     0.000 C 
BRANCH   4   5
ATOM      5  C   UNL     1      10.234   2.580  -0.556  1.00  0.00     0.000 C 
BRANCH   5   6
ATOM      6  C   UNL     1      11.510   1.771  -0.830  1.00  0.00     0.000 C 
BRANCH   6   7
ATOM      7  C   UNL     1      12.591   2.651  -1.475  1.00  0.00     0.006 C 
BRANCH   7   8
ATOM      8  C   UNL     1      13.829   1.842  -1.887  1.00  0.00     0.053 C 
BRANCH   8   9
ATOM      9  C   UNL     1      15.074   2.673  -1.840  1.00  0.00     0.041 C 
ATOM     10  O   UNL     1      16.202   2.122  -1.743  1.00  0.00    -0.550 OA
ATOM     11  O   UNL     1      14.986   4.059  -1.869  1.00  0.00    -0.550 OA
ENDBRANCH   8   9
ENDBRANCH   7   8
ENDBRANCH   6   7
ENDBRANCH   5   6
ENDBRANCH   4   5
ENDBRANCH   3   4
ENDBRANCH   2   3
ENDBRANCH   1   2
BRANCH   1  12
ATOM     12  C   UNL     1      13.915   4.422   1.604  1.00  0.00     0.000 C 
BRANCH  12  13
ATOM     13  C   UNL     1      14.934   3.274   1.691  1.00  0.00    -0.000 C 
BRANCH  13  14
ATOM     14  C   UNL     1      14.263   1.891   1.747  1.00  0.00    -0.000 C 
BRANCH  14  15
ATOM     15  C   UNL     1      14.643   1.102   3.011  1.00  0.00    -0.000 C 
BRANCH  15  16
ATOM     16  C   UNL     1      15.559   1.901   3.956  1.00  0.00    -0.000 C 
BRANCH  16  17
ATOM     17  C   UNL     1      15.767   1.203   5.310  1.00  0.00    -0.000 C 
BRANCH  17  18
ATOM     18  C   UNL     1      15.168   2.000   6.482  1.00  0.00    -0.000 C 
BRANCH  18  19
ATOM     19  C   UNL     1      13.651   1.793   6.618  1.00  0.00    -0.003 C 
ATOM     20  C   UNL     1      13.235   0.331   6.455  1.00  0.00     0.004 C 
ENDBRANCH  18  19
ENDBRANCH  17  18
ENDBRANCH  16  17
ENDBRANCH  15  16
ENDBRANCH  14  15
ENDBRANCH  13  14
ENDBRANCH  12  13
ENDBRANCH   1  12
TORSDOF 16
ENDMDL
MODEL 7
REMARK VINA RESULT:    -4.278      2.593      4.915
REMARK INTER + INTRA:         -10.700
REMARK INTER:                  -7.833
REMARK INTRA:                  -2.867
REMARK UNBOUND:                -2.420
REMARK SMILES CCCCCCCCCCCCCCCCCC(=O)[O-]
REMARK SMILES IDX 10 1 11 2 12 3 13 4 14 5 15 6 16 7 17 8 18 9 19 10 20 11
REMARK SMILES IDX 9 12 8 13 7 14 6 15 5 16 4 17 3 18 2 19 1 20
REMARK H PARENT
REMARK Flexibility Score: inf
ROOT
ATOM      1  C   UNL     1      15.377   3.076  -1.742  1.00  0.00     0.000 C 
ENDROOT
BRANCH   1   2
ATOM      2  C   UNL     1      14.752   3.770  -0.512  1.00  0.00     0.000 C 
BRANCH   2   3
ATOM      3  C   UNL     1      14.957   2.999   0.805  1.00  0.00     0.000 C 
BRANCH   3   4
ATOM      4  C   UNL     1      14.106   3.496   1.990  1.00  0.00     0.000 C 
BRANCH   4   5
ATOM      5  C   UNL     1      13.334   4.803   1.732  1.00  0.00     0.000 C 
BRANCH   5   6
ATOM      6  C   UNL     1      11.917   4.788   2.323  1.00  0.00     0.000 C 
BRANCH   6   7
ATOM      7  C   UNL     1      10.874   5.158   1.258  1.00  0.00     0.006 C 
BRANCH   7   8
ATOM      8  C   UNL     1       9.479   4.613   1.598  1.00  0.00     0.053 C 
BRANCH   8   9
ATOM      9  C   UNL     1       8.525   4.780   0.456  1.00  0.00     0.041 C 
ATOM     10  O   UNL     1       8.175   5.930   0.083  1.00  0.00    -0.550 OA
ATOM     11  O   UNL     1       7.995   3.661  -0.175  1.00  0.00    -0.550 OA
ENDBRANCH   8   9
ENDBRANCH   7   8
ENDBRANCH   6   7
ENDBRANCH   5   6
ENDBRANCH   4   5
ENDBRANCH   3   4
ENDBRANCH   2   3
ENDBRANCH   1   2
BRANCH   1  12
ATOM     12  C   UNL     1      16.483   2.081  -1.353  1.00  0.00     0.000 C 
BRANCH  12  13
ATOM     13  C   UNL     1      16.409   0.769  -2.153  1.00  0.00    -0.000 C 
BRANCH  13  14
ATOM     14  C   UNL     1      14.977   0.428  -2.598  1.00  0.00    -0.000 C 
BRANCH  14  15
ATOM     15  C   UNL     1      14.294  -0.583  -1.662  1.00  0.00    -0.000 C 
BRANCH  15  16
ATOM     16  C   UNL     1      13.196   0.060  -0.795  1.00  0.00    -0.000 C 
BRANCH  16  17
ATOM     17  C   UNL     1      12.275   0.992  -1.600  1.00  0.00    -0.000 C 
BRANCH  17  18
ATOM     18  C   UNL     1      11.584   2.045  -0.715  1.00  0.00    -0.000 C 
BRANCH  18  19
ATOM     19  C   UNL     1      11.243   1.504   0.683  1.00  0.00    -0.003 C 
ATOM     20  C   UNL     1       9.882   0.810   0.734  1.00  0.00     0.004 C 
ENDBRANCH  18  19
ENDBRANCH  17  18
ENDBRANCH  16  17
ENDBRANCH  15  16
ENDBRANCH  14  15
ENDBRANCH  13  14
ENDBRANCH  12  13
ENDBRANCH   1  12
TORSDOF 16
ENDMDL
MODEL 8
REMARK VINA RESULT:    -4.254      2.598      3.785
REMARK INTER + INTRA:         -10.653
REMARK INTER:                  -8.185
REMARK INTRA:                  -2.468
REMARK UNBOUND:                -2.420
REMARK SMILES CCCCCCCCCCCCCCCCCC(=O)[O-]
REMARK SMILES IDX 10 1 11 2 12 3 13 4 14 5 15 6 16 7 17 8 18 9 19 10 20 11
REMARK SMILES IDX 9 12 8 13 7 14 6 15 5 16 4 17 3 18 2 19 1 20
REMARK H PARENT
REMARK Flexibility Score: inf
ROOT
ATOM      1  C   UNL     1      14.536   4.146   0.609  1.00  0.00     0.000 C 
ENDROOT
BRANCH   1   2
ATOM      2  C   UNL     1      13.515   4.617   1.667  1.00  0.00     0.000 C 
BRANCH   2   3
ATOM      3  C   UNL     1      12.062   4.221   1.345  1.00  0.00     0.000 C 
BRANCH   3   4
ATOM      4  C   UNL     1      11.901   3.224   0.182  1.00  0.00     0.000 C 
BRANCH   4   5
ATOM      5  C   UNL     1      11.475   1.804   0.597  1.00  0.00     0.000 C 
BRANCH   5   6
ATOM      6  C   UNL     1      11.897   0.731  -0.417  1.00  0.00     0.000 C 
BRANCH   6   7
ATOM      7  C   UNL     1      13.141   1.175  -1.200  1.00  0.00     0.006 C 
BRANCH   7   8
ATOM      8  C   UNL     1      14.269   0.135  -1.135  1.00  0.00     0.053 C 
BRANCH   8   9
ATOM      9  C   UNL     1      15.269   0.332  -2.233  1.00  0.00     0.041 C 
ATOM     10  O   UNL     1      15.199  -0.352  -3.287  1.00  0.00    -0.550 OA
ATOM     11  O   UNL     1      16.300   1.250  -2.076  1.00  0.00    -0.550 OA
ENDBRANCH   8   9
ENDBRANCH   7   8
ENDBRANCH   6   7
ENDBRANCH   5   6
ENDBRANCH   4   5
ENDBRANCH   3   4
ENDBRANCH   2   3
ENDBRANCH   1   2
BRANCH   1  12
ATOM     12  C   UNL     1      15.377   2.953   1.097  1.00  0.00     0.000 C 
BRANCH  12  13
ATOM     13  C   UNL     1      15.072   2.569   2.555  1.00  0.00    -0.000 C 
BRANCH  13  14
ATOM     14  C   UNL     1      14.620   1.107   2.699  1.00  0.00    -0.000 C 
BRANCH  14  15
ATOM     15  C   UNL     1      13.455   0.944   3.690  1.00  0.00    -0.000 C 
BRANCH  15  16
ATOM     16  C   UNL     1      13.929   0.567   5.105  1.00  0.00    -0.000 C 
BRANCH  16  17
ATOM     17  C   UNL     1      14.006   1.779   6.048  1.00  0.00    -0.000 C 
BRANCH  17  18
ATOM     18  C   UNL     1      15.443   2.073   6.513  1.00  0.00    -0.000 C 
BRANCH  18  19
ATOM     19  C   UNL     1      16.384   0.875   6.305  1.00  0.00    -0.003 C 
ATOM     20  C   UNL     1      17.851   1.221   6.563  1.00  0.00     0.004 C 
ENDBRANCH  18  19
ENDBRANCH  17  18
ENDBRANCH  16  17
ENDBRANCH  15  16
ENDBRANCH  14  15
ENDBRANCH  13  14
ENDBRANCH  12  13
ENDBRANCH   1  12
TORSDOF 16
ENDMDL
MODEL 9
REMARK VINA RESULT:    -4.203      3.028      6.180
REMARK INTER + INTRA:         -10.555
REMARK INTER:                  -8.328
REMARK INTRA:                  -2.228
REMARK UNBOUND:                -2.420
REMARK SMILES CCCCCCCCCCCCCCCCCC(=O)[O-]
REMARK SMILES IDX 10 1 11 2 12 3 13 4 14 5 15 6 16 7 17 8 18 9 19 10 20 11
REMARK SMILES IDX 9 12 8 13 7 14 6 15 5 16 4 17 3 18 2 19 1 20
REMARK H PARENT
REMARK Flexibility Score: inf
ROOT
ATOM      1  C   UNL     1      16.119   3.277  -0.300  1.00  0.00     0.000 C 
ENDROOT
BRANCH   1   2
ATOM      2  C   UNL     1      15.044   4.035   0.510  1.00  0.00     0.000 C 
BRANCH   2   3
ATOM      3  C   UNL     1      14.711   3.379   1.863  1.00  0.00     0.000 C 
BRANCH   3   4
ATOM      4  C   UNL     1      14.464   1.859   1.807  1.00  0.00     0.000 C 
BRANCH   4   5
ATOM      5  C   UNL     1      14.595   1.129   3.157  1.00  0.00     0.000 C 
BRANCH   5   6
ATOM      6  C   UNL     1      15.437   1.906   4.179  1.00  0.00     0.000 C 
BRANCH   6   7
ATOM      7  C   UNL     1      15.211   1.368   5.599  1.00  0.00     0.006 C 
BRANCH   7   8
ATOM      8  C   UNL     1      13.845   1.780   6.167  1.00  0.00     0.053 C 
BRANCH   8   9
ATOM      9  C   UNL     1      12.997   0.590   6.490  1.00  0.00     0.041 C 
ATOM     10  O   UNL     1      12.360  -0.003   5.580  1.00  0.00    -0.550 OA
ATOM     11  O   UNL     1      12.881   0.156   7.805  1.00  0.00    -0.550 OA
ENDBRANCH   8   9
ENDBRANCH   7   8
ENDBRANCH   6   7
ENDBRANCH   5   6
ENDBRANCH   4   5
ENDBRANCH   3   4
ENDBRANCH   2   3
ENDBRANCH   1   2
BRANCH   1  12
ATOM     12  C   UNL     1      15.588   2.776  -1.654  1.00  0.00     0.000 C 
BRANCH  12  13
ATOM     13  C   UNL     1      15.575   1.242  -1.754  1.00  0.00    -0.000 C 
BRANCH  13  14
ATOM     14  C   UNL     1      14.186   0.684  -2.108  1.00  0.00    -0.000 C 
BRANCH  14  15
ATOM     15  C   UNL     1      13.073   1.734  -1.955  1.00  0.00    -0.000 C 
BRANCH  15  16
ATOM     16  C   UNL     1      11.679   1.101  -1.791  1.00  0.00    -0.000 C 
BRANCH  16  17
ATOM     17  C   UNL     1      10.863   1.751  -0.661  1.00  0.00    -0.000 C 
BRANCH  17  18
ATOM     18  C   UNL     1      11.478   3.075  -0.176  1.00  0.00    -0.000 C 
BRANCH  18  19
ATOM     19  C   UNL     1      11.027   3.445   1.247  1.00  0.00    -0.003 C 
ATOM     20  C   UNL     1      11.374   4.886   1.622  1.00  0.00     0.004 C 
ENDBRANCH  18  19
ENDBRANCH  17  18
ENDBRANCH  16  17
ENDBRANCH  15  16
ENDBRANCH  14  15
ENDBRANCH  13  14
ENDBRANCH  12  13
ENDBRANCH   1  12
TORSDOF 16
ENDMDL
