MODEL 1
REMARK VINA RESULT:    -6.319      0.000      0.000
REMARK INTER + INTRA:          -8.540
REMARK INTER:                  -7.981
REMARK INTRA:                  -0.559
REMARK UNBOUND:                -0.559
REMARK SMILES Oc1cc(O)cc(CCc2ccccc2O)c1
REMARK SMILES IDX 9 1 10 2 12 3 13 4 11 5 14 6 15 7 16 8 8 10 7 11 6 12 17 13
REMARK SMILES IDX 4 14 2 15 3 16 5 17 1 19
REMARK H PARENT 16 9 5 18 1 20
REMARK Flexibility Score: inf
ROOT
ATOM      1  C   UNL     1       7.644  10.829   7.626  1.00  0.00     0.044 C 
ENDROOT
BRANCH   1   2
ATOM      2  C   UNL     1       8.118  11.440   6.330  1.00  0.00    -0.006 A 
ATOM      3  C   UNL     1       9.658  12.904   5.148  1.00  0.00     0.001 A 
ATOM      4  C   UNL     1       8.986  12.652   3.950  1.00  0.00     0.004 A 
ATOM      5  C   UNL     1       9.225  12.308   6.334  1.00  0.00     0.007 A 
ATOM      6  C   UNL     1       7.877  11.804   3.936  1.00  0.00     0.046 A 
ATOM      7  C   UNL     1       7.433  11.199   5.122  1.00  0.00     0.118 A 
BRANCH   7   8
ATOM      8  O   UNL     1       6.315  10.365   5.103  1.00  0.00    -0.508 OA
ATOM      9  H   UNL     1       6.203   9.611   5.770  1.00  0.00     0.293 HD
ENDBRANCH   7   8
ENDBRANCH   1   2
BRANCH   1  10
ATOM     10  C   UNL     1       6.897  11.866   8.469  1.00  0.00     0.040 C 
BRANCH  10  11
ATOM     11  C   UNL     1       5.470  11.440   8.689  1.00  0.00    -0.040 A 
ATOM     12  C   UNL     1       5.049  10.154   8.311  1.00  0.00     0.050 A 
ATOM     13  C   UNL     1       4.535  12.344   9.219  1.00  0.00     0.050 A 
ATOM     14  C   UNL     1       3.713   9.768   8.485  1.00  0.00     0.119 A 
ATOM     15  C   UNL     1       3.201  11.960   9.393  1.00  0.00     0.119 A 
ATOM     16  C   UNL     1       2.793  10.671   9.028  1.00  0.00     0.092 A 
BRANCH  14  17
ATOM     17  O   UNL     1       3.290   8.492   8.120  1.00  0.00    -0.508 OA
ATOM     18  H   UNL     1       2.312   8.228   8.155  1.00  0.00     0.293 HD
ENDBRANCH  14  17
BRANCH  15  19
ATOM     19  O   UNL     1       2.290  12.869   9.926  1.00  0.00    -0.508 OA
ATOM     20  H   UNL     1       1.298  12.801   9.731  1.00  0.00     0.293 HD
ENDBRANCH  15  19
ENDBRANCH  10  11
ENDBRANCH   1  10
TORSDOF 6
ENDMDL
MODEL 2
REMARK VINA RESULT:    -6.317      0.072      2.036
REMARK INTER + INTRA:          -8.538
REMARK INTER:                  -7.979
REMARK INTRA:                  -0.559
REMARK UNBOUND:                -0.559
REMARK SMILES Oc1cc(O)cc(CCc2ccccc2O)c1
REMARK SMILES IDX 9 1 10 2 12 3 13 4 11 5 14 6 15 7 16 8 8 10 7 11 6 12 17 13
REMARK SMILES IDX 4 14 2 15 3 16 5 17 1 19
REMARK H PARENT 16 9 5 18 1 20
REMARK Flexibility Score: inf
ROOT
ATOM      1  C   UNL     1       7.638  10.789   7.641  1.00  0.00     0.044 C 
ENDROOT
BRANCH   1   2
ATOM      2  C   UNL     1       8.065  11.419   6.338  1.00  0.00    -0.006 A 
ATOM      3  C   UNL     1       9.537  12.929   5.128  1.00  0.00     0.001 A 
ATOM      4  C   UNL     1       8.844  12.666   3.945  1.00  0.00     0.004 A 
ATOM      5  C   UNL     1       9.148  12.315   6.320  1.00  0.00     0.007 A 
ATOM      6  C   UNL     1       7.756  11.790   3.952  1.00  0.00     0.046 A 
ATOM      7  C   UNL     1       7.357  11.167   5.145  1.00  0.00     0.118 A 
BRANCH   7   8
ATOM      8  O   UNL     1       6.261  10.305   5.148  1.00  0.00    -0.508 OA
ATOM      9  H   UNL     1       5.723  10.126   4.307  1.00  0.00     0.293 HD
ENDBRANCH   7   8
ENDBRANCH   1   2
BRANCH   1  10
ATOM     10  C   UNL     1       6.906  11.810   8.518  1.00  0.00     0.040 C 
BRANCH  10  11
ATOM     11  C   UNL     1       5.458  11.430   8.674  1.00  0.00    -0.040 A 
ATOM     12  C   UNL     1       4.544  12.340   9.229  1.00  0.00     0.050 A 
ATOM     13  C   UNL     1       5.023  10.142   8.322  1.00  0.00     0.050 A 
ATOM     14  C   UNL     1       3.202  11.976   9.406  1.00  0.00     0.119 A 
ATOM     15  C   UNL     1       3.684   9.776   8.498  1.00  0.00     0.119 A 
ATOM     16  C   UNL     1       2.774  10.696   9.037  1.00  0.00     0.092 A 
BRANCH  14  17
ATOM     17  O   UNL     1       2.288  12.875   9.948  1.00  0.00    -0.508 OA
ATOM     18  H   UNL     1       2.112  12.916  10.946  1.00  0.00     0.293 HD
ENDBRANCH  14  17
BRANCH  15  19
ATOM     19  O   UNL     1       3.269   8.497   8.136  1.00  0.00    -0.508 OA
ATOM     20  H   UNL     1       2.897   7.848   8.820  1.00  0.00     0.293 HD
ENDBRANCH  15  19
ENDBRANCH  10  11
ENDBRANCH   1  10
TORSDOF 6
ENDMDL
MODEL 3
REMARK VINA RESULT:    -6.282      1.532      2.249
REMARK INTER + INTRA:          -8.494
REMARK INTER:                  -7.917
REMARK INTRA:                  -0.577
REMARK UNBOUND:                -0.559
REMARK SMILES Oc1cc(O)cc(CCc2ccccc2O)c1
REMARK SMILES IDX 9 1 10 2 12 3 13 4 11 5 14 6 15 7 16 8 8 10 7 11 6 12 17 13
REMARK SMILES IDX 4 14 2 15 3 16 5 17 1 19
REMARK H PARENT 16 9 5 18 1 20
REMARK Flexibility Score: inf
ROOT
ATOM      1  C   UNL     1       6.712  10.484   4.886  1.00  0.00     0.044 C 
ENDROOT
BRANCH   1   2
ATOM      2  C   UNL     1       7.892  11.422   4.815  1.00  0.00    -0.006 A 
ATOM      3  C   UNL     1       9.211  13.033   3.560  1.00  0.00     0.001 A 
ATOM      4  C   UNL     1      10.117  13.125   4.620  1.00  0.00     0.004 A 
ATOM      5  C   UNL     1       8.108  12.183   3.653  1.00  0.00     0.007 A 
ATOM      6  C   UNL     1       9.921  12.363   5.774  1.00  0.00     0.046 A 
ATOM      7  C   UNL     1       8.816  11.506   5.877  1.00  0.00     0.118 A 
BRANCH   7   8
ATOM      8  O   UNL     1       8.635  10.736   7.027  1.00  0.00    -0.508 OA
ATOM      9  H   UNL     1       9.416  10.292   7.496  1.00  0.00     0.293 HD
ENDBRANCH   7   8
ENDBRANCH   1   2
BRANCH   1  10
ATOM     10  C   UNL     1       5.436  11.251   5.249  1.00  0.00     0.040 C 
BRANCH  10  11
ATOM     11  C   UNL     1       5.082  11.032   6.695  1.00  0.00    -0.040 A 
ATOM     12  C   UNL     1       4.214   9.991   7.062  1.00  0.00     0.050 A 
ATOM     13  C   UNL     1       5.568  11.904   7.683  1.00  0.00     0.050 A 
ATOM     14  C   UNL     1       3.857   9.807   8.404  1.00  0.00     0.119 A 
ATOM     15  C   UNL     1       5.213  11.723   9.024  1.00  0.00     0.119 A 
ATOM     16  C   UNL     1       4.359  10.672   9.383  1.00  0.00     0.092 A 
BRANCH  14  17
ATOM     17  O   UNL     1       3.003   8.772   8.776  1.00  0.00    -0.508 OA
ATOM     18  H   UNL     1       2.004   8.823   8.610  1.00  0.00     0.293 HD
ENDBRANCH  14  17
BRANCH  15  19
ATOM     19  O   UNL     1       5.711  12.593   9.989  1.00  0.00    -0.508 OA
ATOM     20  H   UNL     1       6.364  12.280  10.699  1.00  0.00     0.293 HD
ENDBRANCH  15  19
ENDBRANCH  10  11
ENDBRANCH   1  10
TORSDOF 6
ENDMDL
MODEL 4
REMARK VINA RESULT:    -6.266      1.563      2.803
REMARK INTER + INTRA:          -8.473
REMARK INTER:                  -7.915
REMARK INTRA:                  -0.558
REMARK UNBOUND:                -0.559
REMARK SMILES Oc1cc(O)cc(CCc2ccccc2O)c1
REMARK SMILES IDX 9 1 10 2 12 3 13 4 11 5 14 6 15 7 16 8 8 10 7 11 6 12 17 13
REMARK SMILES IDX 4 14 2 15 3 16 5 17 1 19
REMARK H PARENT 16 9 5 18 1 20
REMARK Flexibility Score: inf
ROOT
ATOM      1  C   UNL     1       6.714  10.495   4.983  1.00  0.00     0.044 C 
ENDROOT
BRANCH   1   2
ATOM      2  C   UNL     1       7.897  11.426   4.885  1.00  0.00    -0.006 A 
ATOM      3  C   UNL     1       9.190  13.038   3.602  1.00  0.00     0.001 A 
ATOM      4  C   UNL     1      10.125  13.118   4.636  1.00  0.00     0.004 A 
ATOM      5  C   UNL     1       8.084  12.193   3.721  1.00  0.00     0.007 A 
ATOM      6  C   UNL     1       9.958  12.350   5.791  1.00  0.00     0.046 A 
ATOM      7  C   UNL     1       8.851  11.499   5.921  1.00  0.00     0.118 A 
BRANCH   7   8
ATOM      8  O   UNL     1       8.698  10.724   7.070  1.00  0.00    -0.508 OA
ATOM      9  H   UNL     1       8.394   9.758   7.024  1.00  0.00     0.293 HD
ENDBRANCH   7   8
ENDBRANCH   1   2
BRANCH   1  10
ATOM     10  C   UNL     1       5.434  11.280   5.286  1.00  0.00     0.040 C 
BRANCH  10  11
ATOM     11  C   UNL     1       5.083  11.175   6.745  1.00  0.00    -0.040 A 
ATOM     12  C   UNL     1       5.681  12.034   7.682  1.00  0.00     0.050 A 
ATOM     13  C   UNL     1       4.198  10.179   7.190  1.00  0.00     0.050 A 
ATOM     14  C   UNL     1       5.379  11.914   9.045  1.00  0.00     0.119 A 
ATOM     15  C   UNL     1       3.896  10.058   8.551  1.00  0.00     0.119 A 
ATOM     16  C   UNL     1       4.485  10.929   9.476  1.00  0.00     0.092 A 
BRANCH  14  17
ATOM     17  O   UNL     1       5.963  12.767   9.978  1.00  0.00    -0.508 OA
ATOM     18  H   UNL     1       6.057  13.761   9.803  1.00  0.00     0.293 HD
ENDBRANCH  14  17
BRANCH  15  19
ATOM     19  O   UNL     1       3.011   9.068   8.971  1.00  0.00    -0.508 OA
ATOM     20  H   UNL     1       2.009   9.169   8.856  1.00  0.00     0.293 HD
ENDBRANCH  15  19
ENDBRANCH  10  11
ENDBRANCH   1  10
TORSDOF 6
ENDMDL
MODEL 5
REMARK VINA RESULT:    -6.145      1.724      5.937
REMARK INTER + INTRA:          -8.320
REMARK INTER:                  -7.803
REMARK INTRA:                  -0.517
REMARK UNBOUND:                -0.559
REMARK SMILES Oc1cc(O)cc(CCc2ccccc2O)c1
REMARK SMILES IDX 9 1 10 2 12 3 13 4 11 5 14 6 15 7 16 8 8 10 7 11 6 12 17 13
REMARK SMILES IDX 4 14 2 15 3 16 5 17 1 19
REMARK H PARENT 16 9 5 18 1 20
REMARK Flexibility Score: inf
ROOT
ATOM      1  C   UNL     1       6.395  11.941   8.894  1.00  0.00     0.044 C 
ENDROOT
BRANCH   1   2
ATOM      2  C   UNL     1       4.949  11.607   9.164  1.00  0.00    -0.006 A 
ATOM      3  C   UNL     1       2.671  12.352   9.578  1.00  0.00     0.001 A 
ATOM      4  C   UNL     1       2.260  11.027   9.737  1.00  0.00     0.004 A 
ATOM      5  C   UNL     1       4.008  12.643   9.299  1.00  0.00     0.007 A 
ATOM      6  C   UNL     1       3.188   9.989   9.620  1.00  0.00     0.046 A 
ATOM      7  C   UNL     1       4.534  10.270   9.340  1.00  0.00     0.118 A 
BRANCH   7   8
ATOM      8  O   UNL     1       5.457   9.230   9.240  1.00  0.00    -0.508 OA
ATOM      9  H   UNL     1       6.311   9.327   8.704  1.00  0.00     0.293 HD
ENDBRANCH   7   8
ENDBRANCH   1   2
BRANCH   1  10
ATOM     10  C   UNL     1       6.503  13.125   7.929  1.00  0.00     0.040 C 
BRANCH  10  11
ATOM     11  C   UNL     1       6.905  12.654   6.557  1.00  0.00    -0.040 A 
ATOM     12  C   UNL     1       6.034  11.854   5.800  1.00  0.00     0.050 A 
ATOM     13  C   UNL     1       8.177  12.961   6.049  1.00  0.00     0.050 A 
ATOM     14  C   UNL     1       6.421  11.388   4.536  1.00  0.00     0.119 A 
ATOM     15  C   UNL     1       8.566  12.496   4.787  1.00  0.00     0.119 A 
ATOM     16  C   UNL     1       7.685  11.712   4.031  1.00  0.00     0.092 A 
BRANCH  14  17
ATOM     17  O   UNL     1       5.560  10.600   3.776  1.00  0.00    -0.508 OA
ATOM     18  H   UNL     1       5.876   9.746   3.331  1.00  0.00     0.293 HD
ENDBRANCH  14  17
BRANCH  15  19
ATOM     19  O   UNL     1       9.829  12.817   4.297  1.00  0.00    -0.508 OA
ATOM     20  H   UNL     1      10.630  12.219   4.465  1.00  0.00     0.293 HD
ENDBRANCH  15  19
ENDBRANCH  10  11
ENDBRANCH   1  10
TORSDOF 6
ENDMDL
MODEL 6
REMARK VINA RESULT:    -6.113      1.734      6.052
REMARK INTER + INTRA:          -8.280
REMARK INTER:                  -7.758
REMARK INTRA:                  -0.523
REMARK UNBOUND:                -0.559
REMARK SMILES Oc1cc(O)cc(CCc2ccccc2O)c1
REMARK SMILES IDX 9 1 10 2 12 3 13 4 11 5 14 6 15 7 16 8 8 10 7 11 6 12 17 13
REMARK SMILES IDX 4 14 2 15 3 16 5 17 1 19
REMARK H PARENT 16 9 5 18 1 20
REMARK Flexibility Score: inf
ROOT
ATOM      1  C   UNL     1       6.322  11.966   8.924  1.00  0.00     0.044 C 
ENDROOT
BRANCH   1   2
ATOM      2  C   UNL     1       4.875  11.639   9.195  1.00  0.00    -0.006 A 
ATOM      3  C   UNL     1       2.598  12.396   9.593  1.00  0.00     0.001 A 
ATOM      4  C   UNL     1       2.184  11.074   9.769  1.00  0.00     0.004 A 
ATOM      5  C   UNL     1       3.937  12.680   9.314  1.00  0.00     0.007 A 
ATOM      6  C   UNL     1       3.109  10.033   9.669  1.00  0.00     0.046 A 
ATOM      7  C   UNL     1       4.456  10.307   9.388  1.00  0.00     0.118 A 
BRANCH   7   8
ATOM      8  O   UNL     1       5.376   9.263   9.304  1.00  0.00    -0.508 OA
ATOM      9  H   UNL     1       6.155   9.187   9.949  1.00  0.00     0.293 HD
ENDBRANCH   7   8
ENDBRANCH   1   2
BRANCH   1  10
ATOM     10  C   UNL     1       6.435  13.125   7.929  1.00  0.00     0.040 C 
BRANCH  10  11
ATOM     11  C   UNL     1       6.866  12.621   6.577  1.00  0.00    -0.040 A 
ATOM     12  C   UNL     1       8.127  12.965   6.063  1.00  0.00     0.050 A 
ATOM     13  C   UNL     1       5.987  11.854   5.796  1.00  0.00     0.050 A 
ATOM     14  C   UNL     1       8.515  12.524   4.791  1.00  0.00     0.119 A 
ATOM     15  C   UNL     1       6.373  11.413   4.525  1.00  0.00     0.119 A 
ATOM     16  C   UNL     1       7.639  11.747   4.025  1.00  0.00     0.092 A 
BRANCH  14  17
ATOM     17  O   UNL     1       9.767  12.853   4.277  1.00  0.00    -0.508 OA
ATOM     18  H   UNL     1       9.926  12.932   3.279  1.00  0.00     0.293 HD
ENDBRANCH  14  17
BRANCH  15  19
ATOM     19  O   UNL     1       5.490  10.648   3.767  1.00  0.00    -0.508 OA
ATOM     20  H   UNL     1       4.808  11.078   3.153  1.00  0.00     0.293 HD
ENDBRANCH  15  19
ENDBRANCH  10  11
ENDBRANCH   1  10
TORSDOF 6
ENDMDL
MODEL 7
REMARK VINA RESULT:    -5.991      1.779      6.230
REMARK INTER + INTRA:          -8.125
REMARK INTER:                  -7.585
REMARK INTRA:                  -0.541
REMARK UNBOUND:                -0.559
REMARK SMILES Oc1cc(O)cc(CCc2ccccc2O)c1
REMARK SMILES IDX 9 1 10 2 12 3 13 4 11 5 14 6 15 7 16 8 8 10 7 11 6 12 17 13
REMARK SMILES IDX 4 14 2 15 3 16 5 17 1 19
REMARK H PARENT 16 9 5 18 1 20
REMARK Flexibility Score: inf
ROOT
ATOM      1  C   UNL     1       5.635  10.208   7.087  1.00  0.00     0.044 C 
ENDROOT
BRANCH   1   2
ATOM      2  C   UNL     1       4.618  10.922   7.942  1.00  0.00    -0.006 A 
ATOM      3  C   UNL     1       4.003  12.848   9.293  1.00  0.00     0.001 A 
ATOM      4  C   UNL     1       2.778  12.250   9.597  1.00  0.00     0.004 A 
ATOM      5  C   UNL     1       4.922  12.187   8.475  1.00  0.00     0.007 A 
ATOM      6  C   UNL     1       2.471  10.987   9.087  1.00  0.00     0.046 A 
ATOM      7  C   UNL     1       3.387  10.314   8.264  1.00  0.00     0.118 A 
BRANCH   7   8
ATOM      8  O   UNL     1       3.080   9.046   7.771  1.00  0.00    -0.508 OA
ATOM      9  H   UNL     1       3.340   8.204   8.271  1.00  0.00     0.293 HD
ENDBRANCH   7   8
ENDBRANCH   1   2
BRANCH   1  10
ATOM     10  C   UNL     1       5.741  10.871   5.710  1.00  0.00     0.040 C 
BRANCH  10  11
ATOM     11  C   UNL     1       7.108  11.470   5.515  1.00  0.00    -0.040 A 
ATOM     12  C   UNL     1       7.986  11.600   6.604  1.00  0.00     0.050 A 
ATOM     13  C   UNL     1       7.494  11.956   4.256  1.00  0.00     0.050 A 
ATOM     14  C   UNL     1       9.246  12.187   6.430  1.00  0.00     0.119 A 
ATOM     15  C   UNL     1       8.752  12.544   4.080  1.00  0.00     0.119 A 
ATOM     16  C   UNL     1       9.628  12.655   5.168  1.00  0.00     0.092 A 
BRANCH  14  17
ATOM     17  O   UNL     1      10.125  12.313   7.503  1.00  0.00    -0.508 OA
ATOM     18  H   UNL     1      11.107  12.081   7.414  1.00  0.00     0.293 HD
ENDBRANCH  14  17
BRANCH  15  19
ATOM     19  O   UNL     1       9.120  13.014   2.822  1.00  0.00    -0.508 OA
ATOM     20  H   UNL     1      10.011  12.770   2.405  1.00  0.00     0.293 HD
ENDBRANCH  15  19
ENDBRANCH  10  11
ENDBRANCH   1  10
TORSDOF 6
ENDMDL
MODEL 8
REMARK VINA RESULT:    -5.959      1.782      6.154
REMARK INTER + INTRA:          -8.085
REMARK INTER:                  -7.518
REMARK INTRA:                  -0.567
REMARK UNBOUND:                -0.559
REMARK SMILES Oc1cc(O)cc(CCc2ccccc2O)c1
REMARK SMILES IDX 9 1 10 2 12 3 13 4 11 5 14 6 15 7 16 8 8 10 7 11 6 12 17 13
REMARK SMILES IDX 4 14 2 15 3 16 5 17 1 19
REMARK H PARENT 16 9 5 18 1 20
REMARK Flexibility Score: inf
ROOT
ATOM      1  C   UNL     1       5.601  10.269   7.309  1.00  0.00     0.044 C 
ENDROOT
BRANCH   1   2
ATOM      2  C   UNL     1       4.549  11.019   8.089  1.00  0.00    -0.006 A 
ATOM      3  C   UNL     1       3.900  12.975   9.379  1.00  0.00     0.001 A 
ATOM      4  C   UNL     1       2.642  12.414   9.607  1.00  0.00     0.004 A 
ATOM      5  C   UNL     1       4.852  12.281   8.630  1.00  0.00     0.007 A 
ATOM      6  C   UNL     1       2.334  11.154   9.088  1.00  0.00     0.046 A 
ATOM      7  C   UNL     1       3.283  10.448   8.333  1.00  0.00     0.118 A 
BRANCH   7   8
ATOM      8  O   UNL     1       2.974   9.184   7.831  1.00  0.00    -0.508 OA
ATOM      9  H   UNL     1       3.557   8.731   7.137  1.00  0.00     0.293 HD
ENDBRANCH   7   8
ENDBRANCH   1   2
BRANCH   1  10
ATOM     10  C   UNL     1       5.699  10.810   5.880  1.00  0.00     0.040 C 
BRANCH  10  11
ATOM     11  C   UNL     1       7.037  11.461   5.652  1.00  0.00    -0.040 A 
ATOM     12  C   UNL     1       7.404  11.894   4.367  1.00  0.00     0.050 A 
ATOM     13  C   UNL     1       7.952  11.586   6.710  1.00  0.00     0.050 A 
ATOM     14  C   UNL     1       8.662  12.470   4.148  1.00  0.00     0.119 A 
ATOM     15  C   UNL     1       9.209  12.160   6.493  1.00  0.00     0.119 A 
ATOM     16  C   UNL     1       9.562  12.604   5.212  1.00  0.00     0.092 A 
BRANCH  14  17
ATOM     17  O   UNL     1       9.031  12.909   2.879  1.00  0.00    -0.508 OA
ATOM     18  H   UNL     1       9.960  13.267   2.690  1.00  0.00     0.293 HD
ENDBRANCH  14  17
BRANCH  15  19
ATOM     19  O   UNL     1      10.101  12.282   7.556  1.00  0.00    -0.508 OA
ATOM     20  H   UNL     1      10.749  11.539   7.791  1.00  0.00     0.293 HD
ENDBRANCH  15  19
ENDBRANCH  10  11
ENDBRANCH   1  10
TORSDOF 6
ENDMDL
MODEL 9
REMARK VINA RESULT:    -5.738      2.046      2.708
REMARK INTER + INTRA:          -7.806
REMARK INTER:                  -7.323
REMARK INTRA:                  -0.483
REMARK UNBOUND:                -0.559
REMARK SMILES Oc1cc(O)cc(CCc2ccccc2O)c1
REMARK SMILES IDX 9 1 10 2 12 3 13 4 11 5 14 6 15 7 16 8 8 10 7 11 6 12 17 13
REMARK SMILES IDX 4 14 2 15 3 16 5 17 1 19
REMARK H PARENT 16 9 5 18 1 20
REMARK Flexibility Score: inf
ROOT
ATOM      1  C   UNL     1       6.236  12.433   5.124  1.00  0.00     0.044 C 
ENDROOT
BRANCH   1   2
ATOM      2  C   UNL     1       7.603  12.615   5.736  1.00  0.00    -0.006 A 
ATOM      3  C   UNL     1       8.975  13.066   7.692  1.00  0.00     0.001 A 
ATOM      4  C   UNL     1      10.125  13.030   6.900  1.00  0.00     0.004 A 
ATOM      5  C   UNL     1       7.720  12.866   7.115  1.00  0.00     0.007 A 
ATOM      6  C   UNL     1      10.021  12.797   5.527  1.00  0.00     0.046 A 
ATOM      7  C   UNL     1       8.764  12.595   4.937  1.00  0.00     0.118 A 
BRANCH   7   8
ATOM      8  O   UNL     1       8.667  12.378   3.563  1.00  0.00    -0.508 OA
ATOM      9  H   UNL     1       8.052  12.934   2.979  1.00  0.00     0.293 HD
ENDBRANCH   7   8
ENDBRANCH   1   2
BRANCH   1  10
ATOM     10  C   UNL     1       5.880  10.946   5.036  1.00  0.00     0.040 C 
BRANCH  10  11
ATOM     11  C   UNL     1       5.103  10.516   6.252  1.00  0.00    -0.040 A 
ATOM     12  C   UNL     1       5.769   9.974   7.362  1.00  0.00     0.050 A 
ATOM     13  C   UNL     1       3.701  10.600   6.261  1.00  0.00     0.050 A 
ATOM     14  C   UNL     1       5.043   9.543   8.481  1.00  0.00     0.119 A 
ATOM     15  C   UNL     1       2.974  10.170   7.377  1.00  0.00     0.119 A 
ATOM     16  C   UNL     1       3.648   9.644   8.487  1.00  0.00     0.092 A 
BRANCH  14  17
ATOM     17  O   UNL     1       5.697   9.011   9.590  1.00  0.00    -0.508 OA
ATOM     18  H   UNL     1       6.664   8.711   9.541  1.00  0.00     0.293 HD
ENDBRANCH  14  17
BRANCH  15  19
ATOM     19  O   UNL     1       1.585  10.266   7.370  1.00  0.00    -0.508 OA
ATOM     20  H   UNL     1       1.112  11.073   6.980  1.00  0.00     0.293 HD
ENDBRANCH  15  19
ENDBRANCH  10  11
ENDBRANCH   1  10
TORSDOF 6
ENDMDL
