MODEL 1
REMARK VINA RESULT:    -4.936      0.000      0.000
REMARK INTER + INTRA:          -5.492
REMARK INTER:                  -5.369
REMARK INTRA:                  -0.123
REMARK UNBOUND:                -0.123
REMARK SMILES Cc1ccc(C(C)C)cc1O
REMARK SMILES IDX 1 1 2 2 10 3 9 4 5 5 4 6 3 7 11 8 6 10 7 11 8 12
REMARK H PARENT 11 9
REMARK Flexibility Score: inf
ROOT
ATOM      1  C   UNL     1      10.519 -14.194 -23.835  1.00  0.00     0.048 C 
ATOM      2  C   UNL     1      10.991 -13.388 -25.012  1.00  0.00    -0.009 A 
ATOM      3  C   UNL     1      11.306 -12.017 -24.881  1.00  0.00     0.118 A 
ATOM      4  C   UNL     1      11.742 -11.294 -25.997  1.00  0.00     0.050 A 
ATOM      5  C   UNL     1      11.874 -11.912 -27.254  1.00  0.00    -0.042 A 
ATOM      6  C   UNL     1      11.559 -13.275 -27.375  1.00  0.00     0.004 A 
ATOM      7  C   UNL     1      11.123 -14.004 -26.268  1.00  0.00     0.007 A 
ENDROOT
BRANCH   3   8
ATOM      8  O   UNL     1      11.195 -11.347 -23.661  1.00  0.00    -0.508 OA
ATOM      9  H   UNL     1      10.320 -10.981 -23.309  1.00  0.00     0.293 HD
ENDBRANCH   3   8
BRANCH   5  10
ATOM     10  C   UNL     1      12.347 -11.133 -28.466  1.00  0.00     0.013 C 
ATOM     11  C   UNL     1      12.369  -9.625 -28.181  1.00  0.00     0.012 C 
ATOM     12  C   UNL     1      11.488 -11.448 -29.697  1.00  0.00     0.012 C 
ENDBRANCH   5  10
TORSDOF 2
ENDMDL
MODEL 2
REMARK VINA RESULT:    -4.927      2.528      3.324
REMARK INTER + INTRA:          -5.482
REMARK INTER:                  -5.359
REMARK INTRA:                  -0.123
REMARK UNBOUND:                -0.123
REMARK SMILES Cc1ccc(C(C)C)cc1O
REMARK SMILES IDX 1 1 2 2 10 3 9 4 5 5 4 6 3 7 11 8 6 10 7 11 8 12
REMARK H PARENT 11 9
REMARK Flexibility Score: inf
ROOT
ATOM      1  C   UNL     1      10.077 -15.125 -28.434  1.00  0.00     0.048 C 
ATOM      2  C   UNL     1      10.904 -13.939 -28.021  1.00  0.00    -0.009 A 
ATOM      3  C   UNL     1      10.772 -12.693 -28.673  1.00  0.00     0.118 A 
ATOM      4  C   UNL     1      11.557 -11.608 -28.265  1.00  0.00     0.050 A 
ATOM      5  C   UNL     1      12.479 -11.738 -27.211  1.00  0.00    -0.042 A 
ATOM      6  C   UNL     1      12.603 -12.980 -26.568  1.00  0.00     0.004 A 
ATOM      7  C   UNL     1      11.825 -14.067 -26.968  1.00  0.00     0.007 A 
ENDROOT
BRANCH   3   8
ATOM      8  O   UNL     1       9.875 -12.502 -29.726  1.00  0.00    -0.508 OA
ATOM      9  H   UNL     1       9.473 -13.265 -30.255  1.00  0.00     0.293 HD
ENDBRANCH   3   8
BRANCH   5  10
ATOM     10  C   UNL     1      13.331 -10.565 -26.765  1.00  0.00     0.013 C 
ATOM     11  C   UNL     1      13.289  -9.427 -27.793  1.00  0.00     0.012 C 
ATOM     12  C   UNL     1      14.774 -11.004 -26.487  1.00  0.00     0.012 C 
ENDBRANCH   5  10
TORSDOF 2
ENDMDL
MODEL 3
REMARK VINA RESULT:    -4.762      1.538      2.085
REMARK INTER + INTRA:          -5.302
REMARK INTER:                  -5.177
REMARK INTRA:                  -0.126
REMARK UNBOUND:                -0.123
REMARK SMILES Cc1ccc(C(C)C)cc1O
REMARK SMILES IDX 1 1 2 2 10 3 9 4 5 5 4 6 3 7 11 8 6 10 7 11 8 12
REMARK H PARENT 11 9
REMARK Flexibility Score: inf
ROOT
ATOM      1  C   UNL     1      10.581 -14.272 -24.065  1.00  0.00     0.048 C 
ATOM      2  C   UNL     1      11.061 -13.436 -25.217  1.00  0.00    -0.009 A 
ATOM      3  C   UNL     1      10.801 -13.812 -26.554  1.00  0.00     0.118 A 
ATOM      4  C   UNL     1      11.263 -13.011 -27.605  1.00  0.00     0.050 A 
ATOM      5  C   UNL     1      11.985 -11.831 -27.351  1.00  0.00    -0.042 A 
ATOM      6  C   UNL     1      12.238 -11.464 -26.020  1.00  0.00     0.004 A 
ATOM      7  C   UNL     1      11.782 -12.256 -24.966  1.00  0.00     0.007 A 
ENDROOT
BRANCH   3   8
ATOM      8  O   UNL     1      10.091 -14.973 -26.869  1.00  0.00    -0.508 OA
ATOM      9  H   UNL     1      10.147 -15.821 -26.320  1.00  0.00     0.293 HD
ENDBRANCH   3   8
BRANCH   5  10
ATOM     10  C   UNL     1      12.486 -10.959 -28.487  1.00  0.00     0.013 C 
ATOM     11  C   UNL     1      12.521  -9.481 -28.078  1.00  0.00     0.012 C 
ATOM     12  C   UNL     1      11.642 -11.161 -29.752  1.00  0.00     0.012 C 
ENDBRANCH   5  10
TORSDOF 2
ENDMDL
MODEL 4
REMARK VINA RESULT:    -4.653      2.683      3.956
REMARK INTER + INTRA:          -5.184
REMARK INTER:                  -5.057
REMARK INTRA:                  -0.127
REMARK UNBOUND:                -0.123
REMARK SMILES Cc1ccc(C(C)C)cc1O
REMARK SMILES IDX 1 1 2 2 10 3 9 4 5 5 4 6 3 7 11 8 6 10 7 11 8 12
REMARK H PARENT 11 9
REMARK Flexibility Score: inf
ROOT
ATOM      1  C   UNL     1       9.518 -12.976 -29.718  1.00  0.00     0.048 C 
ATOM      2  C   UNL     1      10.757 -12.843 -28.878  1.00  0.00    -0.009 A 
ATOM      3  C   UNL     1      11.183 -13.890 -28.031  1.00  0.00     0.118 A 
ATOM      4  C   UNL     1      12.341 -13.736 -27.260  1.00  0.00     0.050 A 
ATOM      5  C   UNL     1      13.093 -12.548 -27.316  1.00  0.00    -0.042 A 
ATOM      6  C   UNL     1      12.663 -11.513 -28.161  1.00  0.00     0.004 A 
ATOM      7  C   UNL     1      11.510 -11.659 -28.933  1.00  0.00     0.007 A 
ENDROOT
BRANCH   3   8
ATOM      8  O   UNL     1      10.478 -15.092 -27.932  1.00  0.00    -0.508 OA
ATOM      9  H   UNL     1      10.698 -15.807 -27.249  1.00  0.00     0.293 HD
ENDBRANCH   3   8
BRANCH   5  10
ATOM     10  C   UNL     1      14.349 -12.376 -26.484  1.00  0.00     0.013 C 
ATOM     11  C   UNL     1      14.694 -10.893 -26.300  1.00  0.00     0.012 C 
ATOM     12  C   UNL     1      15.528 -13.144 -27.097  1.00  0.00     0.012 C 
ENDBRANCH   5  10
TORSDOF 2
ENDMDL
MODEL 5
REMARK VINA RESULT:    -4.593      2.506      3.636
REMARK INTER + INTRA:          -5.119
REMARK INTER:                  -4.991
REMARK INTRA:                  -0.127
REMARK UNBOUND:                -0.123
REMARK SMILES Cc1ccc(C(C)C)cc1O
REMARK SMILES IDX 1 1 2 2 10 3 9 4 5 5 4 6 3 7 11 8 6 10 7 11 8 12
REMARK H PARENT 11 9
REMARK Flexibility Score: inf
ROOT
ATOM      1  C   UNL     1      15.582 -11.003 -26.114  1.00  0.00     0.048 C 
ATOM      2  C   UNL     1      14.275 -11.524 -26.645  1.00  0.00    -0.009 A 
ATOM      3  C   UNL     1      13.308 -10.653 -27.193  1.00  0.00     0.118 A 
ATOM      4  C   UNL     1      12.101 -11.169 -27.679  1.00  0.00     0.050 A 
ATOM      5  C   UNL     1      11.834 -12.549 -27.630  1.00  0.00    -0.042 A 
ATOM      6  C   UNL     1      12.801 -13.408 -27.085  1.00  0.00     0.004 A 
ATOM      7  C   UNL     1      14.007 -12.902 -26.598  1.00  0.00     0.007 A 
ENDROOT
BRANCH   3   8
ATOM      8  O   UNL     1      13.516  -9.273 -27.269  1.00  0.00    -0.508 OA
ATOM      9  H   UNL     1      13.591  -8.773 -28.145  1.00  0.00     0.293 HD
ENDBRANCH   3   8
BRANCH   5  10
ATOM     10  C   UNL     1      10.528 -13.113 -28.156  1.00  0.00     0.013 C 
ATOM     11  C   UNL     1      10.546 -14.647 -28.155  1.00  0.00     0.012 C 
ATOM     12  C   UNL     1      10.213 -12.568 -29.555  1.00  0.00     0.012 C 
ENDBRANCH   5  10
TORSDOF 2
ENDMDL
MODEL 6
REMARK VINA RESULT:    -4.488      2.744      3.978
REMARK INTER + INTRA:          -5.004
REMARK INTER:                  -4.895
REMARK INTRA:                  -0.109
REMARK UNBOUND:                -0.123
REMARK SMILES Cc1ccc(C(C)C)cc1O
REMARK SMILES IDX 1 1 2 2 10 3 9 4 5 5 4 6 3 7 11 8 6 10 7 11 8 12
REMARK H PARENT 11 9
REMARK Flexibility Score: inf
ROOT
ATOM      1  C   UNL     1      15.617 -10.882 -26.014  1.00  0.00     0.048 C 
ATOM      2  C   UNL     1      14.342 -11.467 -26.554  1.00  0.00    -0.009 A 
ATOM      3  C   UNL     1      14.303 -12.778 -27.078  1.00  0.00     0.118 A 
ATOM      4  C   UNL     1      13.100 -13.293 -27.575  1.00  0.00     0.050 A 
ATOM      5  C   UNL     1      11.923 -12.522 -27.560  1.00  0.00    -0.042 A 
ATOM      6  C   UNL     1      11.971 -11.221 -27.037  1.00  0.00     0.004 A 
ATOM      7  C   UNL     1      13.166 -10.699 -26.540  1.00  0.00     0.007 A 
ENDROOT
BRANCH   3   8
ATOM      8  O   UNL     1      15.438 -13.591 -27.120  1.00  0.00    -0.508 OA
ATOM      9  H   UNL     1      15.499 -14.426 -27.689  1.00  0.00     0.293 HD
ENDBRANCH   3   8
BRANCH   5  10
ATOM     10  C   UNL     1      10.616 -13.077 -28.096  1.00  0.00     0.013 C 
ATOM     11  C   UNL     1      10.655 -14.608 -28.175  1.00  0.00     0.012 C 
ATOM     12  C   UNL     1      10.274 -12.463 -29.460  1.00  0.00     0.012 C 
ENDBRANCH   5  10
TORSDOF 2
ENDMDL
MODEL 7
REMARK VINA RESULT:    -4.148      1.869      4.344
REMARK INTER + INTRA:          -4.635
REMARK INTER:                  -4.507
REMARK INTRA:                  -0.128
REMARK UNBOUND:                -0.123
REMARK SMILES Cc1ccc(C(C)C)cc1O
REMARK SMILES IDX 1 1 2 2 10 3 9 4 5 5 4 6 3 7 11 8 6 10 7 11 8 12
REMARK H PARENT 11 9
REMARK Flexibility Score: inf
ROOT
ATOM      1  C   UNL     1      11.484 -11.407 -30.533  1.00  0.00     0.048 C 
ATOM      2  C   UNL     1      11.533 -11.637 -29.049  1.00  0.00    -0.009 A 
ATOM      3  C   UNL     1      12.153 -10.708 -28.184  1.00  0.00     0.118 A 
ATOM      4  C   UNL     1      12.182 -10.951 -26.806  1.00  0.00     0.050 A 
ATOM      5  C   UNL     1      11.600 -12.111 -26.265  1.00  0.00    -0.042 A 
ATOM      6  C   UNL     1      10.985 -13.029 -27.130  1.00  0.00     0.004 A 
ATOM      7  C   UNL     1      10.952 -12.795 -28.506  1.00  0.00     0.007 A 
ENDROOT
BRANCH   3   8
ATOM      8  O   UNL     1      12.748  -9.538 -28.662  1.00  0.00    -0.508 OA
ATOM      9  H   UNL     1      13.704  -9.499 -28.992  1.00  0.00     0.293 HD
ENDBRANCH   3   8
BRANCH   5  10
ATOM     10  C   UNL     1      11.628 -12.378 -24.771  1.00  0.00     0.013 C 
ATOM     11  C   UNL     1      10.905 -13.687 -24.429  1.00  0.00     0.012 C 
ATOM     12  C   UNL     1      11.036 -11.200 -23.988  1.00  0.00     0.012 C 
ENDBRANCH   5  10
TORSDOF 2
ENDMDL
MODEL 8
REMARK VINA RESULT:    -3.956      2.071      4.611
REMARK INTER + INTRA:          -4.426
REMARK INTER:                  -4.316
REMARK INTRA:                  -0.110
REMARK UNBOUND:                -0.123
REMARK SMILES Cc1ccc(C(C)C)cc1O
REMARK SMILES IDX 1 1 2 2 10 3 9 4 5 5 4 6 3 7 11 8 6 10 7 11 8 12
REMARK H PARENT 11 9
REMARK Flexibility Score: inf
ROOT
ATOM      1  C   UNL     1      11.593 -11.287 -30.657  1.00  0.00     0.048 C 
ATOM      2  C   UNL     1      11.595 -11.564 -29.179  1.00  0.00    -0.009 A 
ATOM      3  C   UNL     1      10.700 -12.495 -28.608  1.00  0.00     0.118 A 
ATOM      4  C   UNL     1      10.726 -12.730 -27.228  1.00  0.00     0.050 A 
ATOM      5  C   UNL     1      11.635 -12.051 -26.397  1.00  0.00    -0.042 A 
ATOM      6  C   UNL     1      12.521 -11.127 -26.973  1.00  0.00     0.004 A 
ATOM      7  C   UNL     1      12.502 -10.887 -28.347  1.00  0.00     0.007 A 
ENDROOT
BRANCH   3   8
ATOM      8  O   UNL     1       9.774 -13.200 -29.381  1.00  0.00    -0.508 OA
ATOM      9  H   UNL     1       8.929 -13.604 -28.999  1.00  0.00     0.293 HD
ENDBRANCH   3   8
BRANCH   5  10
ATOM     10  C   UNL     1      11.668 -12.303 -24.901  1.00  0.00     0.013 C 
ATOM     11  C   UNL     1      10.952 -13.611 -24.544  1.00  0.00     0.012 C 
ATOM     12  C   UNL     1      11.072 -11.119 -24.128  1.00  0.00     0.012 C 
ENDBRANCH   5  10
TORSDOF 2
ENDMDL
MODEL 9
REMARK VINA RESULT:    -3.943      2.398      3.569
REMARK INTER + INTRA:          -4.412
REMARK INTER:                  -4.284
REMARK INTRA:                  -0.128
REMARK UNBOUND:                -0.123
REMARK SMILES Cc1ccc(C(C)C)cc1O
REMARK SMILES IDX 1 1 2 2 10 3 9 4 5 5 4 6 3 7 11 8 6 10 7 11 8 12
REMARK H PARENT 11 9
REMARK Flexibility Score: inf
ROOT
ATOM      1  C   UNL     1      10.258  -9.788 -25.051  1.00  0.00     0.048 C 
ATOM      2  C   UNL     1      11.257 -10.775 -25.588  1.00  0.00    -0.009 A 
ATOM      3  C   UNL     1      12.129 -10.433 -26.645  1.00  0.00     0.118 A 
ATOM      4  C   UNL     1      13.047 -11.375 -27.123  1.00  0.00     0.050 A 
ATOM      5  C   UNL     1      13.117 -12.664 -26.563  1.00  0.00    -0.042 A 
ATOM      6  C   UNL     1      12.248 -12.995 -25.513  1.00  0.00     0.004 A 
ATOM      7  C   UNL     1      11.329 -12.062 -25.030  1.00  0.00     0.007 A 
ENDROOT
BRANCH   3   8
ATOM      8  O   UNL     1      12.106  -9.170 -27.241  1.00  0.00    -0.508 OA
ATOM      9  H   UNL     1      11.386  -8.877 -27.889  1.00  0.00     0.293 HD
ENDBRANCH   3   8
BRANCH   5  10
ATOM     10  C   UNL     1      14.112 -13.688 -27.077  1.00  0.00     0.013 C 
ATOM     11  C   UNL     1      14.096 -14.957 -26.215  1.00  0.00     0.012 C 
ATOM     12  C   UNL     1      15.524 -13.094 -27.158  1.00  0.00     0.012 C 
ENDBRANCH   5  10
TORSDOF 2
ENDMDL
