MODEL 1
REMARK VINA RESULT:    -3.078      0.000      0.000
REMARK INTER + INTRA:          -3.718
REMARK INTER:                  -3.707
REMARK INTRA:                  -0.011
REMARK UNBOUND:                -0.011
REMARK SMILES OCC(O)CO
REMARK SMILES IDX 3 1 5 2 6 3 2 5 1 6 4 8
REMARK H PARENT 6 4 1 7 4 9
REMARK Flexibility Score: inf
ROOT
ATOM      1  C   UNL     1     -36.535  40.574  12.890  1.00  0.00     0.165 C 
ENDROOT
BRANCH   1   2
ATOM      2  C   UNL     1     -36.482  40.761  11.368  1.00  0.00     0.190 C 
BRANCH   2   3
ATOM      3  O   UNL     1     -36.372  39.518  10.726  1.00  0.00    -0.394 OA
ATOM      4  H   UNL     1     -35.418  39.252  10.778  1.00  0.00     0.210 HD
ENDBRANCH   2   3
ENDBRANCH   1   2
BRANCH   1   5
ATOM      5  C   UNL     1     -36.326  39.103  13.276  1.00  0.00     0.190 C 
BRANCH   5   6
ATOM      6  O   UNL     1     -36.547  38.921  14.648  1.00  0.00    -0.394 OA
ATOM      7  H   UNL     1     -35.771  38.403  14.986  1.00  0.00     0.210 HD
ENDBRANCH   5   6
ENDBRANCH   1   5
BRANCH   1   8
ATOM      8  O   UNL     1     -35.551  41.373  13.495  1.00  0.00    -0.388 OA
ATOM      9  H   UNL     1     -35.892  42.305  13.485  1.00  0.00     0.211 HD
ENDBRANCH   1   8
TORSDOF 5
ENDMDL
MODEL 2
REMARK VINA RESULT:    -3.064      1.288      3.155
REMARK INTER + INTRA:          -3.702
REMARK INTER:                  -3.485
REMARK INTRA:                  -0.216
REMARK UNBOUND:                -0.011
REMARK SMILES OCC(O)CO
REMARK SMILES IDX 3 1 5 2 6 3 2 5 1 6 4 8
REMARK H PARENT 6 4 1 7 4 9
REMARK Flexibility Score: inf
ROOT
ATOM      1  C   UNL     1     -36.707  39.431  13.125  1.00  0.00     0.165 C 
ENDROOT
BRANCH   1   2
ATOM      2  C   UNL     1     -36.352  39.432  14.618  1.00  0.00     0.190 C 
BRANCH   2   3
ATOM      3  O   UNL     1     -37.238  40.256  15.330  1.00  0.00    -0.394 OA
ATOM      4  H   UNL     1     -37.895  40.604  14.673  1.00  0.00     0.210 HD
ENDBRANCH   2   3
ENDBRANCH   1   2
BRANCH   1   5
ATOM      5  C   UNL     1     -36.240  40.723  12.442  1.00  0.00     0.190 C 
BRANCH   5   6
ATOM      6  O   UNL     1     -35.675  41.596  13.382  1.00  0.00    -0.394 OA
ATOM      7  H   UNL     1     -36.094  42.482  13.223  1.00  0.00     0.210 HD
ENDBRANCH   5   6
ENDBRANCH   1   5
BRANCH   1   8
ATOM      8  O   UNL     1     -36.116  38.318  12.503  1.00  0.00    -0.388 OA
ATOM      9  H   UNL     1     -36.853  37.781  12.114  1.00  0.00     0.211 HD
ENDBRANCH   1   8
TORSDOF 5
ENDMDL
MODEL 3
REMARK VINA RESULT:    -3.050      3.939      4.947
REMARK INTER + INTRA:          -3.685
REMARK INTER:                  -3.463
REMARK INTRA:                  -0.222
REMARK UNBOUND:                -0.011
REMARK SMILES OCC(O)CO
REMARK SMILES IDX 3 1 5 2 6 3 2 5 1 6 4 8
REMARK H PARENT 6 4 1 7 4 9
REMARK Flexibility Score: inf
ROOT
ATOM      1  C   UNL     1     -36.077  36.532   9.563  1.00  0.00     0.165 C 
ENDROOT
BRANCH   1   2
ATOM      2  C   UNL     1     -35.934  37.864  10.312  1.00  0.00     0.190 C 
BRANCH   2   3
ATOM      3  O   UNL     1     -35.992  37.653  11.698  1.00  0.00    -0.394 OA
ATOM      4  H   UNL     1     -35.457  36.839  11.886  1.00  0.00     0.210 HD
ENDBRANCH   2   3
ENDBRANCH   1   2
BRANCH   1   5
ATOM      5  C   UNL     1     -34.786  35.705   9.650  1.00  0.00     0.190 C 
BRANCH   5   6
ATOM      6  O   UNL     1     -33.784  36.432  10.306  1.00  0.00    -0.394 OA
ATOM      7  H   UNL     1     -33.936  37.385  10.073  1.00  0.00     0.210 HD
ENDBRANCH   5   6
ENDBRANCH   1   5
BRANCH   1   8
ATOM      8  O   UNL     1     -37.150  35.804  10.101  1.00  0.00    -0.388 OA
ATOM      9  H   UNL     1     -37.932  36.415  10.118  1.00  0.00     0.211 HD
ENDBRANCH   1   8
TORSDOF 5
ENDMDL
MODEL 4
REMARK VINA RESULT:    -3.037      3.930      4.673
REMARK INTER + INTRA:          -3.669
REMARK INTER:                  -3.450
REMARK INTRA:                  -0.219
REMARK UNBOUND:                -0.011
REMARK SMILES OCC(O)CO
REMARK SMILES IDX 3 1 5 2 6 3 2 5 1 6 4 8
REMARK H PARENT 6 4 1 7 4 9
REMARK Flexibility Score: inf
ROOT
ATOM      1  C   UNL     1     -35.089  36.782   9.651  1.00  0.00     0.165 C 
ENDROOT
BRANCH   1   2
ATOM      2  C   UNL     1     -35.925  35.502   9.513  1.00  0.00     0.190 C 
BRANCH   2   3
ATOM      3  O   UNL     1     -37.161  35.654  10.160  1.00  0.00    -0.394 OA
ATOM      4  H   UNL     1     -36.964  35.926  11.094  1.00  0.00     0.210 HD
ENDBRANCH   2   3
ENDBRANCH   1   2
BRANCH   1   5
ATOM      5  C   UNL     1     -35.885  37.893  10.348  1.00  0.00     0.190 C 
BRANCH   5   6
ATOM      6  O   UNL     1     -35.904  37.684  11.734  1.00  0.00    -0.394 OA
ATOM      7  H   UNL     1     -35.665  36.731  11.873  1.00  0.00     0.210 HD
ENDBRANCH   5   6
ENDBRANCH   1   5
BRANCH   1   8
ATOM      8  O   UNL     1     -33.919  36.502  10.375  1.00  0.00    -0.388 OA
ATOM      9  H   UNL     1     -33.250  36.169   9.723  1.00  0.00     0.211 HD
ENDBRANCH   1   8
TORSDOF 5
ENDMDL
MODEL 5
REMARK VINA RESULT:    -3.021      1.324      2.395
REMARK INTER + INTRA:          -3.650
REMARK INTER:                  -3.637
REMARK INTRA:                  -0.013
REMARK UNBOUND:                -0.011
REMARK SMILES OCC(O)CO
REMARK SMILES IDX 3 1 5 2 6 3 2 5 1 6 4 8
REMARK H PARENT 6 4 1 7 4 9
REMARK Flexibility Score: inf
ROOT
ATOM      1  C   UNL     1     -36.624  39.746  13.742  1.00  0.00     0.165 C 
ENDROOT
BRANCH   1   2
ATOM      2  C   UNL     1     -36.356  41.233  14.014  1.00  0.00     0.190 C 
BRANCH   2   3
ATOM      3  O   UNL     1     -35.838  41.853  12.867  1.00  0.00    -0.394 OA
ATOM      4  H   UNL     1     -36.484  41.683  12.133  1.00  0.00     0.210 HD
ENDBRANCH   2   3
ENDBRANCH   1   2
BRANCH   1   5
ATOM      5  C   UNL     1     -36.318  39.384  12.283  1.00  0.00     0.190 C 
BRANCH   5   6
ATOM      6  O   UNL     1     -36.103  38.005  12.156  1.00  0.00    -0.394 OA
ATOM      7  H   UNL     1     -36.725  37.693  11.448  1.00  0.00     0.210 HD
ENDBRANCH   5   6
ENDBRANCH   1   5
BRANCH   1   8
ATOM      8  O   UNL     1     -35.841  38.963  14.606  1.00  0.00    -0.388 OA
ATOM      9  H   UNL     1     -34.971  38.819  14.152  1.00  0.00     0.211 HD
ENDBRANCH   1   8
TORSDOF 5
ENDMDL
MODEL 6
REMARK VINA RESULT:    -3.018      4.180      4.576
REMARK INTER + INTRA:          -3.647
REMARK INTER:                  -3.430
REMARK INTRA:                  -0.217
REMARK UNBOUND:                -0.011
REMARK SMILES OCC(O)CO
REMARK SMILES IDX 3 1 5 2 6 3 2 5 1 6 4 8
REMARK H PARENT 6 4 1 7 4 9
REMARK Flexibility Score: inf
ROOT
ATOM      1  C   UNL     1     -35.514  36.910  10.375  1.00  0.00     0.165 C 
ENDROOT
BRANCH   1   2
ATOM      2  C   UNL     1     -35.818  38.286   9.764  1.00  0.00     0.190 C 
BRANCH   2   3
ATOM      3  O   UNL     1     -36.962  38.219   8.955  1.00  0.00    -0.394 OA
ATOM      4  H   UNL     1     -37.732  38.477   9.525  1.00  0.00     0.210 HD
ENDBRANCH   2   3
ENDBRANCH   1   2
BRANCH   1   5
ATOM      5  C   UNL     1     -36.229  35.791   9.605  1.00  0.00     0.190 C 
BRANCH   5   6
ATOM      6  O   UNL     1     -37.467  35.505  10.196  1.00  0.00    -0.394 OA
ATOM      7  H   UNL     1     -37.269  35.211  11.123  1.00  0.00     0.210 HD
ENDBRANCH   5   6
ENDBRANCH   1   5
BRANCH   1   8
ATOM      8  O   UNL     1     -34.127  36.690  10.365  1.00  0.00    -0.388 OA
ATOM      9  H   UNL     1     -33.905  36.220  11.211  1.00  0.00     0.211 HD
ENDBRANCH   1   8
TORSDOF 5
ENDMDL
MODEL 7
REMARK VINA RESULT:    -2.994      7.544      7.833
REMARK INTER + INTRA:          -3.617
REMARK INTER:                  -3.597
REMARK INTRA:                  -0.020
REMARK UNBOUND:                -0.011
REMARK SMILES OCC(O)CO
REMARK SMILES IDX 3 1 5 2 6 3 2 5 1 6 4 8
REMARK H PARENT 6 4 1 7 4 9
REMARK Flexibility Score: inf
ROOT
ATOM      1  C   UNL     1     -32.677  39.775   6.107  1.00  0.00     0.165 C 
ENDROOT
BRANCH   1   2
ATOM      2  C   UNL     1     -34.082  39.675   5.498  1.00  0.00     0.190 C 
BRANCH   2   3
ATOM      3  O   UNL     1     -34.398  38.337   5.217  1.00  0.00    -0.394 OA
ATOM      4  H   UNL     1     -34.600  38.288   4.247  1.00  0.00     0.210 HD
ENDBRANCH   2   3
ENDBRANCH   1   2
BRANCH   1   5
ATOM      5  C   UNL     1     -32.425  38.642   7.112  1.00  0.00     0.190 C 
BRANCH   5   6
ATOM      6  O   UNL     1     -31.088  38.225   7.053  1.00  0.00    -0.394 OA
ATOM      7  H   UNL     1     -31.004  37.477   7.700  1.00  0.00     0.210 HD
ENDBRANCH   5   6
ENDBRANCH   1   5
BRANCH   1   8
ATOM      8  O   UNL     1     -31.717  39.730   5.082  1.00  0.00    -0.388 OA
ATOM      9  H   UNL     1     -31.830  38.858   4.621  1.00  0.00     0.211 HD
ENDBRANCH   1   8
TORSDOF 5
ENDMDL
MODEL 8
REMARK VINA RESULT:    -2.971      4.977      6.018
REMARK INTER + INTRA:          -3.590
REMARK INTER:                  -3.373
REMARK INTRA:                  -0.217
REMARK UNBOUND:                -0.011
REMARK SMILES OCC(O)CO
REMARK SMILES IDX 3 1 5 2 6 3 2 5 1 6 4 8
REMARK H PARENT 6 4 1 7 4 9
REMARK Flexibility Score: inf
ROOT
ATOM      1  C   UNL     1     -34.936  35.816   9.604  1.00  0.00     0.165 C 
ENDROOT
BRANCH   1   2
ATOM      2  C   UNL     1     -36.266  36.480   9.989  1.00  0.00     0.190 C 
BRANCH   2   3
ATOM      3  O   UNL     1     -37.299  35.530  10.006  1.00  0.00    -0.394 OA
ATOM      4  H   UNL     1     -36.956  34.743  10.504  1.00  0.00     0.210 HD
ENDBRANCH   2   3
ENDBRANCH   1   2
BRANCH   1   5
ATOM      5  C   UNL     1     -34.706  35.875   8.087  1.00  0.00     0.190 C 
BRANCH   5   6
ATOM      6  O   UNL     1     -35.764  35.257   7.408  1.00  0.00    -0.394 OA
ATOM      7  H   UNL     1     -36.301  34.789   8.099  1.00  0.00     0.210 HD
ENDBRANCH   5   6
ENDBRANCH   1   5
BRANCH   1   8
ATOM      8  O   UNL     1     -33.882  36.456  10.275  1.00  0.00    -0.388 OA
ATOM      9  H   UNL     1     -34.080  36.395  11.245  1.00  0.00     0.211 HD
ENDBRANCH   1   8
TORSDOF 5
ENDMDL
MODEL 9
REMARK VINA RESULT:    -2.901      4.579      5.315
REMARK INTER + INTRA:          -3.506
REMARK INTER:                  -3.282
REMARK INTRA:                  -0.224
REMARK UNBOUND:                -0.011
REMARK SMILES OCC(O)CO
REMARK SMILES IDX 3 1 5 2 6 3 2 5 1 6 4 8
REMARK H PARENT 6 4 1 7 4 9
REMARK Flexibility Score: inf
ROOT
ATOM      1  C   UNL     1     -34.746  37.145   9.347  1.00  0.00     0.165 C 
ENDROOT
BRANCH   1   2
ATOM      2  C   UNL     1     -34.362  36.465   8.025  1.00  0.00     0.190 C 
BRANCH   2   3
ATOM      3  O   UNL     1     -35.145  36.964   6.973  1.00  0.00    -0.394 OA
ATOM      4  H   UNL     1     -35.295  37.927   7.160  1.00  0.00     0.210 HD
ENDBRANCH   2   3
ENDBRANCH   1   2
BRANCH   1   5
ATOM      5  C   UNL     1     -36.259  37.059   9.595  1.00  0.00     0.190 C 
BRANCH   5   6
ATOM      6  O   UNL     1     -36.916  38.134   8.982  1.00  0.00    -0.394 OA
ATOM      7  H   UNL     1     -37.085  37.856   8.044  1.00  0.00     0.210 HD
ENDBRANCH   5   6
ENDBRANCH   1   5
BRANCH   1   8
ATOM      8  O   UNL     1     -34.051  36.538  10.405  1.00  0.00    -0.388 OA
ATOM      9  H   UNL     1     -34.536  35.701  10.626  1.00  0.00     0.211 HD
ENDBRANCH   1   8
TORSDOF 5
ENDMDL
