MODEL 1
REMARK VINA RESULT:    -3.071      0.000      0.000
REMARK INTER + INTRA:          -4.125
REMARK INTER:                  -3.879
REMARK INTRA:                  -0.245
REMARK UNBOUND:                -0.245
REMARK SMILES CCCCC[C@H](C)O
REMARK SMILES IDX 4 1 3 2 2 3 1 4 5 5 6 6 7 7 8 8
REMARK H PARENT 8 9
REMARK Flexibility Score: inf
ROOT
ATOM      1  C   UNL     1     160.356 170.989 170.645  1.00  0.00     0.003 C 
ENDROOT
BRANCH   1   2
ATOM      2  C   UNL     1     161.579 171.901 170.479  1.00  0.00    -0.000 C 
BRANCH   2   3
ATOM      3  C   UNL     1     162.738 171.208 169.746  1.00  0.00    -0.003 C 
ATOM      4  C   UNL     1     163.172 171.954 168.484  1.00  0.00     0.004 C 
ENDBRANCH   2   3
ENDBRANCH   1   2
BRANCH   1   5
ATOM      5  C   UNL     1     159.092 171.657 170.083  1.00  0.00     0.031 C 
BRANCH   5   6
ATOM      6  C   UNL     1     159.233 171.970 168.585  1.00  0.00     0.111 C 
ATOM      7  C   UNL     1     158.769 173.399 168.291  1.00  0.00     0.038 C 
BRANCH   6   8
ATOM      8  O   UNL     1     158.461 171.063 167.840  1.00  0.00    -0.393 OA
ATOM      9  H   UNL     1     158.965 170.208 167.816  1.00  0.00     0.210 HD
ENDBRANCH   6   8
ENDBRANCH   5   6
ENDBRANCH   1   5
TORSDOF 5
ENDMDL
MODEL 2
REMARK VINA RESULT:    -3.066     14.882     16.537
REMARK INTER + INTRA:          -4.118
REMARK INTER:                  -3.904
REMARK INTRA:                  -0.214
REMARK UNBOUND:                -0.245
REMARK SMILES CCCCC[C@H](C)O
REMARK SMILES IDX 4 1 3 2 2 3 1 4 5 5 6 6 7 7 8 8
REMARK H PARENT 8 9
REMARK Flexibility Score: inf
ROOT
ATOM      1  C   UNL     1     170.501 160.058 170.549  1.00  0.00     0.003 C 
ENDROOT
BRANCH   1   2
ATOM      2  C   UNL     1     169.454 159.075 170.006  1.00  0.00    -0.000 C 
BRANCH   2   3
ATOM      3  C   UNL     1     168.256 159.786 169.358  1.00  0.00    -0.003 C 
ATOM      4  C   UNL     1     167.910 159.226 167.979  1.00  0.00     0.004 C 
ENDBRANCH   2   3
ENDBRANCH   1   2
BRANCH   1   5
ATOM      5  C   UNL     1     171.918 159.636 170.135  1.00  0.00     0.031 C 
BRANCH   5   6
ATOM      6  C   UNL     1     171.966 159.168 168.672  1.00  0.00     0.111 C 
ATOM      7  C   UNL     1     172.661 157.808 168.567  1.00  0.00     0.038 C 
BRANCH   6   8
ATOM      8  O   UNL     1     172.663 160.112 167.898  1.00  0.00    -0.393 OA
ATOM      9  H   UNL     1     172.012 160.488 167.249  1.00  0.00     0.210 HD
ENDBRANCH   6   8
ENDBRANCH   5   6
ENDBRANCH   1   5
TORSDOF 5
ENDMDL
MODEL 3
REMARK VINA RESULT:    -2.959      0.991      2.014
REMARK INTER + INTRA:          -3.983
REMARK INTER:                  -3.694
REMARK INTRA:                  -0.289
REMARK UNBOUND:                -0.245
REMARK SMILES CCCCC[C@H](C)O
REMARK SMILES IDX 4 1 3 2 2 3 1 4 5 5 6 6 7 7 8 8
REMARK H PARENT 8 9
REMARK Flexibility Score: inf
ROOT
ATOM      1  C   UNL     1     161.023 173.235 169.312  1.00  0.00     0.003 C 
ENDROOT
BRANCH   1   2
ATOM      2  C   UNL     1     162.245 173.331 168.389  1.00  0.00    -0.000 C 
BRANCH   2   3
ATOM      3  C   UNL     1     163.056 172.027 168.343  1.00  0.00    -0.003 C 
ATOM      4  C   UNL     1     163.022 171.263 169.667  1.00  0.00     0.004 C 
ENDBRANCH   2   3
ENDBRANCH   1   2
BRANCH   1   5
ATOM      5  C   UNL     1     159.719 173.237 168.501  1.00  0.00     0.031 C 
BRANCH   5   6
ATOM      6  C   UNL     1     158.779 172.101 168.935  1.00  0.00     0.111 C 
ATOM      7  C   UNL     1     159.351 171.367 170.150  1.00  0.00     0.038 C 
BRANCH   6   8
ATOM      8  O   UNL     1     158.614 171.195 167.874  1.00  0.00    -0.393 OA
ATOM      9  H   UNL     1     158.413 170.311 168.281  1.00  0.00     0.210 HD
ENDBRANCH   6   8
ENDBRANCH   5   6
ENDBRANCH   1   5
TORSDOF 5
ENDMDL
MODEL 4
REMARK VINA RESULT:    -2.948     15.025     16.687
REMARK INTER + INTRA:          -3.969
REMARK INTER:                  -3.665
REMARK INTRA:                  -0.304
REMARK UNBOUND:                -0.245
REMARK SMILES CCCCC[C@H](C)O
REMARK SMILES IDX 4 1 3 2 2 3 1 4 5 5 6 6 7 7 8 8
REMARK H PARENT 8 9
REMARK Flexibility Score: inf
ROOT
ATOM      1  C   UNL     1     170.184 157.881 169.367  1.00  0.00     0.003 C 
ENDROOT
BRANCH   1   2
ATOM      2  C   UNL     1     168.935 157.862 168.476  1.00  0.00    -0.000 C 
BRANCH   2   3
ATOM      3  C   UNL     1     168.229 159.226 168.418  1.00  0.00    -0.003 C 
ATOM      4  C   UNL     1     168.047 159.857 169.798  1.00  0.00     0.004 C 
ENDBRANCH   2   3
ENDBRANCH   1   2
BRANCH   1   5
ATOM      5  C   UNL     1     171.462 157.966 168.520  1.00  0.00     0.031 C 
BRANCH   5   6
ATOM      6  C   UNL     1     172.363 159.129 168.966  1.00  0.00     0.111 C 
ATOM      7  C   UNL     1     171.727 159.879 170.139  1.00  0.00     0.038 C 
BRANCH   6   8
ATOM      8  O   UNL     1     172.555 160.015 167.893  1.00  0.00    -0.393 OA
ATOM      9  H   UNL     1     172.678 160.919 168.285  1.00  0.00     0.210 HD
ENDBRANCH   6   8
ENDBRANCH   5   6
ENDBRANCH   1   5
TORSDOF 5
ENDMDL
MODEL 5
REMARK VINA RESULT:    -2.946      9.316     10.583
REMARK INTER + INTRA:          -3.967
REMARK INTER:                  -3.681
REMARK INTRA:                  -0.286
REMARK UNBOUND:                -0.245
REMARK SMILES CCCCC[C@H](C)O
REMARK SMILES IDX 4 1 3 2 2 3 1 4 5 5 6 6 7 7 8 8
REMARK H PARENT 8 9
REMARK Flexibility Score: inf
ROOT
ATOM      1  C   UNL     1     168.486 167.217 170.283  1.00  0.00     0.003 C 
ENDROOT
BRANCH   1   2
ATOM      2  C   UNL     1     167.619 165.954 170.377  1.00  0.00    -0.000 C 
BRANCH   2   3
ATOM      3  C   UNL     1     166.459 165.957 169.369  1.00  0.00    -0.003 C 
ATOM      4  C   UNL     1     166.728 165.069 168.154  1.00  0.00     0.004 C 
ENDBRANCH   2   3
ENDBRANCH   1   2
BRANCH   1   5
ATOM      5  C   UNL     1     169.932 166.865 169.904  1.00  0.00     0.031 C 
BRANCH   5   6
ATOM      6  C   UNL     1     170.359 167.551 168.597  1.00  0.00     0.111 C 
ATOM      7  C   UNL     1     169.907 166.729 167.388  1.00  0.00     0.038 C 
BRANCH   6   8
ATOM      8  O   UNL     1     171.757 167.689 168.573  1.00  0.00    -0.393 OA
ATOM      9  H   UNL     1     171.994 168.058 167.681  1.00  0.00     0.210 HD
ENDBRANCH   6   8
ENDBRANCH   5   6
ENDBRANCH   1   5
TORSDOF 5
ENDMDL
MODEL 6
REMARK VINA RESULT:    -2.853     15.653     16.790
REMARK INTER + INTRA:          -3.849
REMARK INTER:                  -3.636
REMARK INTRA:                  -0.213
REMARK UNBOUND:                -0.245
REMARK SMILES CCCCC[C@H](C)O
REMARK SMILES IDX 4 1 3 2 2 3 1 4 5 5 6 6 7 7 8 8
REMARK H PARENT 8 9
REMARK Flexibility Score: inf
ROOT
ATOM      1  C   UNL     1     169.745 159.252 170.162  1.00  0.00     0.003 C 
ENDROOT
BRANCH   1   2
ATOM      2  C   UNL     1     168.941 159.147 168.858  1.00  0.00    -0.000 C 
BRANCH   2   3
ATOM      3  C   UNL     1     168.338 157.750 168.646  1.00  0.00    -0.003 C 
ATOM      4  C   UNL     1     167.924 157.498 167.196  1.00  0.00     0.004 C 
ENDBRANCH   2   3
ENDBRANCH   1   2
BRANCH   1   5
ATOM      5  C   UNL     1     171.154 159.801 169.896  1.00  0.00     0.031 C 
BRANCH   5   6
ATOM      6  C   UNL     1     171.805 159.127 168.679  1.00  0.00     0.111 C 
ATOM      7  C   UNL     1     172.680 157.952 169.121  1.00  0.00     0.038 C 
BRANCH   6   8
ATOM      8  O   UNL     1     172.593 160.063 167.987  1.00  0.00    -0.393 OA
ATOM      9  H   UNL     1     172.480 159.873 167.018  1.00  0.00     0.210 HD
ENDBRANCH   6   8
ENDBRANCH   5   6
ENDBRANCH   1   5
TORSDOF 5
ENDMDL
MODEL 7
REMARK VINA RESULT:    -2.829      7.831      8.567
REMARK INTER + INTRA:          -3.818
REMARK INTER:                  -3.705
REMARK INTRA:                  -0.113
REMARK UNBOUND:                -0.245
REMARK SMILES CCCCC[C@H](C)O
REMARK SMILES IDX 4 1 3 2 2 3 1 4 5 5 6 6 7 7 8 8
REMARK H PARENT 8 9
REMARK Flexibility Score: inf
ROOT
ATOM      1  C   UNL     1     161.927 164.040 170.220  1.00  0.00     0.003 C 
ENDROOT
BRANCH   1   2
ATOM      2  C   UNL     1     162.593 164.663 168.986  1.00  0.00    -0.000 C 
BRANCH   2   3
ATOM      3  C   UNL     1     163.959 165.291 169.305  1.00  0.00    -0.003 C 
ATOM      4  C   UNL     1     164.534 166.085 168.132  1.00  0.00     0.004 C 
ENDBRANCH   2   3
ENDBRANCH   1   2
BRANCH   1   5
ATOM      5  C   UNL     1     161.540 162.578 169.957  1.00  0.00     0.031 C 
BRANCH   5   6
ATOM      6  C   UNL     1     160.420 162.467 168.910  1.00  0.00     0.111 C 
ATOM      7  C   UNL     1     159.107 162.042 169.573  1.00  0.00     0.038 C 
BRANCH   6   8
ATOM      8  O   UNL     1     160.779 161.523 167.933  1.00  0.00    -0.393 OA
ATOM      9  H   UNL     1     160.218 160.719 168.091  1.00  0.00     0.210 HD
ENDBRANCH   6   8
ENDBRANCH   5   6
ENDBRANCH   1   5
TORSDOF 5
ENDMDL
MODEL 8
REMARK VINA RESULT:    -2.708     14.888     15.915
REMARK INTER + INTRA:          -3.665
REMARK INTER:                  -3.421
REMARK INTRA:                  -0.244
REMARK UNBOUND:                -0.245
REMARK SMILES CCCCC[C@H](C)O
REMARK SMILES IDX 4 1 3 2 2 3 1 4 5 5 6 6 7 7 8 8
REMARK H PARENT 8 9
REMARK Flexibility Score: inf
ROOT
ATOM      1  C   UNL     1     169.805 158.901 169.986  1.00  0.00     0.003 C 
ENDROOT
BRANCH   1   2
ATOM      2  C   UNL     1     170.838 159.956 170.406  1.00  0.00    -0.000 C 
BRANCH   2   3
ATOM      3  C   UNL     1     172.266 159.590 169.973  1.00  0.00    -0.003 C 
ATOM      4  C   UNL     1     172.368 159.265 168.483  1.00  0.00     0.004 C 
ENDBRANCH   2   3
ENDBRANCH   1   2
BRANCH   1   5
ATOM      5  C   UNL     1     168.707 159.524 169.111  1.00  0.00     0.031 C 
BRANCH   5   6
ATOM      6  C   UNL     1     167.986 158.464 168.264  1.00  0.00     0.111 C 
ATOM      7  C   UNL     1     168.919 157.285 167.974  1.00  0.00     0.038 C 
BRANCH   6   8
ATOM      8  O   UNL     1     167.563 159.036 167.053  1.00  0.00    -0.393 OA
ATOM      9  H   UNL     1     166.591 158.847 166.970  1.00  0.00     0.210 HD
ENDBRANCH   6   8
ENDBRANCH   5   6
ENDBRANCH   1   5
TORSDOF 5
ENDMDL
MODEL 9
REMARK VINA RESULT:    -2.657      2.576      4.008
REMARK INTER + INTRA:          -3.601
REMARK INTER:                  -3.379
REMARK INTRA:                  -0.222
REMARK UNBOUND:                -0.245
REMARK SMILES CCCCC[C@H](C)O
REMARK SMILES IDX 4 1 3 2 2 3 1 4 5 5 6 6 7 7 8 8
REMARK H PARENT 8 9
REMARK Flexibility Score: inf
ROOT
ATOM      1  C   UNL     1     161.955 171.631 170.065  1.00  0.00     0.003 C 
ENDROOT
BRANCH   1   2
ATOM      2  C   UNL     1     160.562 172.269 170.155  1.00  0.00    -0.000 C 
BRANCH   2   3
ATOM      3  C   UNL     1     159.506 171.502 169.345  1.00  0.00    -0.003 C 
ATOM      4  C   UNL     1     158.694 172.409 168.420  1.00  0.00     0.004 C 
ENDBRANCH   2   3
ENDBRANCH   1   2
BRANCH   1   5
ATOM      5  C   UNL     1     162.629 171.970 168.728  1.00  0.00     0.031 C 
BRANCH   5   6
ATOM      6  C   UNL     1     162.981 173.463 168.633  1.00  0.00     0.111 C 
ATOM      7  C   UNL     1     163.101 173.893 167.169  1.00  0.00     0.038 C 
BRANCH   6   8
ATOM      8  O   UNL     1     164.198 173.704 169.293  1.00  0.00    -0.393 OA
ATOM      9  H   UNL     1     164.507 174.604 169.007  1.00  0.00     0.210 HD
ENDBRANCH   6   8
ENDBRANCH   5   6
ENDBRANCH   1   5
TORSDOF 5
ENDMDL
