MODEL 1
REMARK VINA RESULT:    -5.155      0.000      0.000
REMARK INTER + INTRA:          -7.178
REMARK INTER:                  -6.512
REMARK INTRA:                  -0.666
REMARK UNBOUND:                -0.666
REMARK SMILES Oc1cc(O)cc(CCc2ccccc2O)c1
REMARK SMILES IDX 9 1 10 2 12 3 13 4 11 5 14 6 15 7 16 8 8 10 7 11 6 12 17 13
REMARK SMILES IDX 4 14 2 15 3 16 5 17 1 19
REMARK H PARENT 16 9 5 18 1 20
REMARK Flexibility Score: inf
ROOT
ATOM      1  C   UNL     1     111.998  10.773 -40.604  1.00  0.00     0.044 C 
ENDROOT
BRANCH   1   2
ATOM      2  C   UNL     1     111.806   9.278 -40.654  1.00  0.00    -0.006 A 
ATOM      3  C   UNL     1     111.324   7.189 -39.505  1.00  0.00     0.001 A 
ATOM      4  C   UNL     1     111.509   6.485 -40.695  1.00  0.00     0.004 A 
ATOM      5  C   UNL     1     111.476   8.578 -39.481  1.00  0.00     0.007 A 
ATOM      6  C   UNL     1     111.852   7.167 -41.866  1.00  0.00     0.046 A 
ATOM      7  C   UNL     1     112.007   8.561 -41.852  1.00  0.00     0.118 A 
BRANCH   7   8
ATOM      8  O   UNL     1     112.364   9.233 -43.021  1.00  0.00    -0.508 OA
ATOM      9  H   UNL     1     113.113   8.901 -43.617  1.00  0.00     0.293 HD
ENDBRANCH   7   8
ENDBRANCH   1   2
BRANCH   1  10
ATOM     10  C   UNL     1     112.923  11.158 -39.445  1.00  0.00     0.040 C 
BRANCH  10  11
ATOM     11  C   UNL     1     114.358  11.182 -39.899  1.00  0.00    -0.040 A 
ATOM     12  C   UNL     1     115.262  10.212 -39.436  1.00  0.00     0.050 A 
ATOM     13  C   UNL     1     114.789  12.139 -40.832  1.00  0.00     0.050 A 
ATOM     14  C   UNL     1     116.590  10.214 -39.884  1.00  0.00     0.119 A 
ATOM     15  C   UNL     1     116.115  12.141 -41.281  1.00  0.00     0.119 A 
ATOM     16  C   UNL     1     117.014  11.179 -40.803  1.00  0.00     0.092 A 
BRANCH  14  17
ATOM     17  O   UNL     1     117.495   9.260 -39.425  1.00  0.00    -0.508 OA
ATOM     18  H   UNL     1     117.199   8.318 -39.192  1.00  0.00     0.293 HD
ENDBRANCH  14  17
BRANCH  15  19
ATOM     19  O   UNL     1     116.526  13.103 -42.202  1.00  0.00    -0.508 OA
ATOM     20  H   UNL     1     117.470  13.470 -42.198  1.00  0.00     0.293 HD
ENDBRANCH  15  19
ENDBRANCH  10  11
ENDBRANCH   1  10
TORSDOF 6
ENDMDL
MODEL 2
REMARK VINA RESULT:    -5.126      0.083      2.036
REMARK INTER + INTRA:          -7.140
REMARK INTER:                  -6.463
REMARK INTRA:                  -0.677
REMARK UNBOUND:                -0.666
REMARK SMILES Oc1cc(O)cc(CCc2ccccc2O)c1
REMARK SMILES IDX 9 1 10 2 12 3 13 4 11 5 14 6 15 7 16 8 8 10 7 11 6 12 17 13
REMARK SMILES IDX 4 14 2 15 3 16 5 17 1 19
REMARK H PARENT 16 9 5 18 1 20
REMARK Flexibility Score: inf
ROOT
ATOM      1  C   UNL     1     112.011  10.781 -40.590  1.00  0.00     0.044 C 
ENDROOT
BRANCH   1   2
ATOM      2  C   UNL     1     111.812   9.287 -40.640  1.00  0.00    -0.006 A 
ATOM      3  C   UNL     1     111.310   7.202 -39.493  1.00  0.00     0.001 A 
ATOM      4  C   UNL     1     111.503   6.495 -40.681  1.00  0.00     0.004 A 
ATOM      5  C   UNL     1     111.468   8.590 -39.469  1.00  0.00     0.007 A 
ATOM      6  C   UNL     1     111.861   7.174 -41.849  1.00  0.00     0.046 A 
ATOM      7  C   UNL     1     112.022   8.567 -41.835  1.00  0.00     0.118 A 
BRANCH   7   8
ATOM      8  O   UNL     1     112.394   9.237 -43.001  1.00  0.00    -0.508 OA
ATOM      9  H   UNL     1     112.829  10.152 -42.973  1.00  0.00     0.293 HD
ENDBRANCH   7   8
ENDBRANCH   1   2
BRANCH   1  10
ATOM     10  C   UNL     1     112.978  11.158 -39.464  1.00  0.00     0.040 C 
BRANCH  10  11
ATOM     11  C   UNL     1     114.401  11.116 -39.953  1.00  0.00    -0.040 A 
ATOM     12  C   UNL     1     114.854  12.056 -40.893  1.00  0.00     0.050 A 
ATOM     13  C   UNL     1     115.301  10.172 -39.432  1.00  0.00     0.050 A 
ATOM     14  C   UNL     1     116.187  12.039 -41.324  1.00  0.00     0.119 A 
ATOM     15  C   UNL     1     116.633  10.154 -39.861  1.00  0.00     0.119 A 
ATOM     16  C   UNL     1     117.073  11.086 -40.810  1.00  0.00     0.092 A 
BRANCH  14  17
ATOM     17  O   UNL     1     116.643  12.964 -42.261  1.00  0.00    -0.508 OA
ATOM     18  H   UNL     1     117.228  12.683 -43.040  1.00  0.00     0.293 HD
ENDBRANCH  14  17
BRANCH  15  19
ATOM     19  O   UNL     1     117.510   9.205 -39.338  1.00  0.00    -0.508 OA
ATOM     20  H   UNL     1     118.467   9.134 -39.663  1.00  0.00     0.293 HD
ENDBRANCH  15  19
ENDBRANCH  10  11
ENDBRANCH   1  10
TORSDOF 6
ENDMDL
MODEL 3
REMARK VINA RESULT:    -5.011     14.433     16.500
REMARK INTER + INTRA:          -6.995
REMARK INTER:                  -6.722
REMARK INTRA:                  -0.273
REMARK UNBOUND:                -0.666
REMARK SMILES Oc1cc(O)cc(CCc2ccccc2O)c1
REMARK SMILES IDX 9 1 10 2 12 3 13 4 11 5 14 6 15 7 16 8 8 10 7 11 6 12 17 13
REMARK SMILES IDX 4 14 2 15 3 16 5 17 1 19
REMARK H PARENT 16 9 5 18 1 20
REMARK Flexibility Score: inf
ROOT
ATOM      1  C   UNL     1     112.798   8.072 -26.055  1.00  0.00     0.044 C 
ENDROOT
BRANCH   1   2
ATOM      2  C   UNL     1     113.353   9.089 -25.089  1.00  0.00    -0.006 A 
ATOM      3  C   UNL     1     114.943  10.864 -24.603  1.00  0.00     0.001 A 
ATOM      4  C   UNL     1     114.460  10.945 -23.296  1.00  0.00     0.004 A 
ATOM      5  C   UNL     1     114.397   9.938 -25.495  1.00  0.00     0.007 A 
ATOM      6  C   UNL     1     113.433  10.096 -22.875  1.00  0.00     0.046 A 
ATOM      7  C   UNL     1     112.879   9.163 -23.763  1.00  0.00     0.118 A 
BRANCH   7   8
ATOM      8  O   UNL     1     111.864   8.309 -23.332  1.00  0.00    -0.508 OA
ATOM      9  H   UNL     1     110.895   8.604 -23.308  1.00  0.00     0.293 HD
ENDBRANCH   7   8
ENDBRANCH   1   2
BRANCH   1  10
ATOM     10  C   UNL     1     111.361   8.431 -26.448  1.00  0.00     0.040 C 
BRANCH  10  11
ATOM     11  C   UNL     1     110.550   7.184 -26.679  1.00  0.00    -0.040 A 
ATOM     12  C   UNL     1     110.389   6.676 -27.979  1.00  0.00     0.050 A 
ATOM     13  C   UNL     1     109.996   6.488 -25.592  1.00  0.00     0.050 A 
ATOM     14  C   UNL     1     109.662   5.497 -28.191  1.00  0.00     0.119 A 
ATOM     15  C   UNL     1     109.270   5.310 -25.803  1.00  0.00     0.119 A 
ATOM     16  C   UNL     1     109.102   4.819 -27.104  1.00  0.00     0.092 A 
BRANCH  14  17
ATOM     17  O   UNL     1     109.492   4.990 -29.478  1.00  0.00    -0.508 OA
ATOM     18  H   UNL     1     109.844   5.482 -30.291  1.00  0.00     0.293 HD
ENDBRANCH  14  17
BRANCH  15  19
ATOM     19  O   UNL     1     108.722   4.637 -24.713  1.00  0.00    -0.508 OA
ATOM     20  H   UNL     1     109.308   4.171 -24.030  1.00  0.00     0.293 HD
ENDBRANCH  15  19
ENDBRANCH  10  11
ENDBRANCH   1  10
TORSDOF 6
ENDMDL
MODEL 4
REMARK VINA RESULT:    -4.997      2.192      3.171
REMARK INTER + INTRA:          -6.978
REMARK INTER:                  -6.595
REMARK INTRA:                  -0.383
REMARK UNBOUND:                -0.666
REMARK SMILES Oc1cc(O)cc(CCc2ccccc2O)c1
REMARK SMILES IDX 9 1 10 2 12 3 13 4 11 5 14 6 15 7 16 8 8 10 7 11 6 12 17 13
REMARK SMILES IDX 4 14 2 15 3 16 5 17 1 19
REMARK H PARENT 16 9 5 18 1 20
REMARK Flexibility Score: inf
ROOT
ATOM      1  C   UNL     1     112.284   8.216 -41.877  1.00  0.00     0.044 C 
ENDROOT
BRANCH   1   2
ATOM      2  C   UNL     1     111.254   7.120 -41.757  1.00  0.00    -0.006 A 
ATOM      3  C   UNL     1     109.470   5.805 -42.757  1.00  0.00     0.001 A 
ATOM      4  C   UNL     1     109.279   5.134 -41.548  1.00  0.00     0.004 A 
ATOM      5  C   UNL     1     110.448   6.797 -42.862  1.00  0.00     0.007 A 
ATOM      6  C   UNL     1     110.064   5.457 -40.438  1.00  0.00     0.046 A 
ATOM      7  C   UNL     1     111.048   6.451 -40.532  1.00  0.00     0.118 A 
BRANCH   7   8
ATOM      8  O   UNL     1     111.817   6.779 -39.415  1.00  0.00    -0.508 OA
ATOM      9  H   UNL     1     112.648   6.254 -39.171  1.00  0.00     0.293 HD
ENDBRANCH   7   8
ENDBRANCH   1   2
BRANCH   1  10
ATOM     10  C   UNL     1     111.722   9.542 -41.355  1.00  0.00     0.040 C 
BRANCH  10  11
ATOM     11  C   UNL     1     112.830  10.412 -40.823  1.00  0.00    -0.040 A 
ATOM     12  C   UNL     1     112.581  11.309 -39.771  1.00  0.00     0.050 A 
ATOM     13  C   UNL     1     114.131  10.294 -41.337  1.00  0.00     0.050 A 
ATOM     14  C   UNL     1     113.620  12.095 -39.253  1.00  0.00     0.119 A 
ATOM     15  C   UNL     1     115.169  11.078 -40.820  1.00  0.00     0.119 A 
ATOM     16  C   UNL     1     114.910  11.980 -39.781  1.00  0.00     0.092 A 
BRANCH  14  17
ATOM     17  O   UNL     1     113.380  12.992 -38.214  1.00  0.00    -0.508 OA
ATOM     18  H   UNL     1     114.124  13.560 -37.824  1.00  0.00     0.293 HD
ENDBRANCH  14  17
BRANCH  15  19
ATOM     19  O   UNL     1     116.453  10.951 -41.347  1.00  0.00    -0.508 OA
ATOM     20  H   UNL     1     117.061  10.186 -41.081  1.00  0.00     0.293 HD
ENDBRANCH  15  19
ENDBRANCH  10  11
ENDBRANCH   1  10
TORSDOF 6
ENDMDL
MODEL 5
REMARK VINA RESULT:    -4.985      2.178      3.092
REMARK INTER + INTRA:          -6.963
REMARK INTER:                  -6.593
REMARK INTRA:                  -0.370
REMARK UNBOUND:                -0.666
REMARK SMILES Oc1cc(O)cc(CCc2ccccc2O)c1
REMARK SMILES IDX 9 1 10 2 12 3 13 4 11 5 14 6 15 7 16 8 8 10 7 11 6 12 17 13
REMARK SMILES IDX 4 14 2 15 3 16 5 17 1 19
REMARK H PARENT 16 9 5 18 1 20
REMARK Flexibility Score: inf
ROOT
ATOM      1  C   UNL     1     112.279   8.248 -41.950  1.00  0.00     0.044 C 
ENDROOT
BRANCH   1   2
ATOM      2  C   UNL     1     111.258   7.151 -41.775  1.00  0.00    -0.006 A 
ATOM      3  C   UNL     1     109.465   5.793 -42.699  1.00  0.00     0.001 A 
ATOM      4  C   UNL     1     109.299   5.163 -41.465  1.00  0.00     0.004 A 
ATOM      5  C   UNL     1     110.436   6.786 -42.855  1.00  0.00     0.007 A 
ATOM      6  C   UNL     1     110.100   5.528 -40.380  1.00  0.00     0.046 A 
ATOM      7  C   UNL     1     111.076   6.524 -40.525  1.00  0.00     0.118 A 
BRANCH   7   8
ATOM      8  O   UNL     1     111.862   6.893 -39.433  1.00  0.00    -0.508 OA
ATOM      9  H   UNL     1     111.448   7.166 -38.549  1.00  0.00     0.293 HD
ENDBRANCH   7   8
ENDBRANCH   1   2
BRANCH   1  10
ATOM     10  C   UNL     1     111.745   9.574 -41.400  1.00  0.00     0.040 C 
BRANCH  10  11
ATOM     11  C   UNL     1     112.864  10.390 -40.811  1.00  0.00    -0.040 A 
ATOM     12  C   UNL     1     114.162  10.295 -41.339  1.00  0.00     0.050 A 
ATOM     13  C   UNL     1     112.607  11.294 -39.767  1.00  0.00     0.050 A 
ATOM     14  C   UNL     1     115.198  11.079 -40.812  1.00  0.00     0.119 A 
ATOM     15  C   UNL     1     113.640  12.078 -39.241  1.00  0.00     0.119 A 
ATOM     16  C   UNL     1     114.935  11.966 -39.763  1.00  0.00     0.092 A 
BRANCH  14  17
ATOM     17  O   UNL     1     116.489  10.986 -41.326  1.00  0.00    -0.508 OA
ATOM     18  H   UNL     1     116.752  10.247 -41.967  1.00  0.00     0.293 HD
ENDBRANCH  14  17
BRANCH  15  19
ATOM     19  O   UNL     1     113.368  12.964 -38.200  1.00  0.00    -0.508 OA
ATOM     20  H   UNL     1     113.783  12.847 -37.283  1.00  0.00     0.293 HD
ENDBRANCH  15  19
ENDBRANCH  10  11
ENDBRANCH   1  10
TORSDOF 6
ENDMDL
MODEL 6
REMARK VINA RESULT:    -4.925      3.321      6.747
REMARK INTER + INTRA:          -6.887
REMARK INTER:                  -6.362
REMARK INTRA:                  -0.525
REMARK UNBOUND:                -0.666
REMARK SMILES Oc1cc(O)cc(CCc2ccccc2O)c1
REMARK SMILES IDX 9 1 10 2 12 3 13 4 11 5 14 6 15 7 16 8 8 10 7 11 6 12 17 13
REMARK SMILES IDX 4 14 2 15 3 16 5 17 1 19
REMARK H PARENT 16 9 5 18 1 20
REMARK Flexibility Score: inf
ROOT
ATOM      1  C   UNL     1     111.534   6.969 -41.296  1.00  0.00     0.044 C 
ENDROOT
BRANCH   1   2
ATOM      2  C   UNL     1     111.922   8.323 -40.757  1.00  0.00    -0.006 A 
ATOM      3  C   UNL     1     112.176   9.829 -38.863  1.00  0.00     0.001 A 
ATOM      4  C   UNL     1     112.568  10.854 -39.724  1.00  0.00     0.004 A 
ATOM      5  C   UNL     1     111.850   8.570 -39.375  1.00  0.00     0.007 A 
ATOM      6  C   UNL     1     112.628  10.627 -41.102  1.00  0.00     0.046 A 
ATOM      7  C   UNL     1     112.302   9.367 -41.625  1.00  0.00     0.118 A 
BRANCH   7   8
ATOM      8  O   UNL     1     112.350   9.152 -43.003  1.00  0.00    -0.508 OA
ATOM      9  H   UNL     1     113.230   9.118 -43.504  1.00  0.00     0.293 HD
ENDBRANCH   7   8
ENDBRANCH   1   2
BRANCH   1  10
ATOM     10  C   UNL     1     110.095   6.991 -41.822  1.00  0.00     0.040 C 
BRANCH  10  11
ATOM     11  C   UNL     1     109.117   7.085 -40.681  1.00  0.00    -0.040 A 
ATOM     12  C   UNL     1     108.935   5.995 -39.814  1.00  0.00     0.050 A 
ATOM     13  C   UNL     1     108.423   8.282 -40.442  1.00  0.00     0.050 A 
ATOM     14  C   UNL     1     108.049   6.094 -38.732  1.00  0.00     0.119 A 
ATOM     15  C   UNL     1     107.538   8.382 -39.362  1.00  0.00     0.119 A 
ATOM     16  C   UNL     1     107.351   7.286 -38.510  1.00  0.00     0.092 A 
BRANCH  14  17
ATOM     17  O   UNL     1     107.857   5.016 -37.871  1.00  0.00    -0.508 OA
ATOM     18  H   UNL     1     108.355   4.946 -36.990  1.00  0.00     0.293 HD
ENDBRANCH  14  17
BRANCH  15  19
ATOM     19  O   UNL     1     106.852   9.576 -39.144  1.00  0.00    -0.508 OA
ATOM     20  H   UNL     1     105.876   9.678 -39.393  1.00  0.00     0.293 HD
ENDBRANCH  15  19
ENDBRANCH  10  11
ENDBRANCH   1  10
TORSDOF 6
ENDMDL
MODEL 7
REMARK VINA RESULT:    -4.902      3.308      7.008
REMARK INTER + INTRA:          -6.857
REMARK INTER:                  -6.320
REMARK INTRA:                  -0.537
REMARK UNBOUND:                -0.666
REMARK SMILES Oc1cc(O)cc(CCc2ccccc2O)c1
REMARK SMILES IDX 9 1 10 2 12 3 13 4 11 5 14 6 15 7 16 8 8 10 7 11 6 12 17 13
REMARK SMILES IDX 4 14 2 15 3 16 5 17 1 19
REMARK H PARENT 16 9 5 18 1 20
REMARK Flexibility Score: inf
ROOT
ATOM      1  C   UNL     1     111.580   6.898 -41.291  1.00  0.00     0.044 C 
ENDROOT
BRANCH   1   2
ATOM      2  C   UNL     1     111.989   8.244 -40.748  1.00  0.00    -0.006 A 
ATOM      3  C   UNL     1     112.311   9.724 -38.845  1.00  0.00     0.001 A 
ATOM      4  C   UNL     1     112.677  10.760 -39.705  1.00  0.00     0.004 A 
ATOM      5  C   UNL     1     111.964   8.473 -39.361  1.00  0.00     0.007 A 
ATOM      6  C   UNL     1     112.691  10.550 -41.087  1.00  0.00     0.046 A 
ATOM      7  C   UNL     1     112.343   9.298 -41.615  1.00  0.00     0.118 A 
BRANCH   7   8
ATOM      8  O   UNL     1     112.345   9.100 -42.996  1.00  0.00    -0.508 OA
ATOM      9  H   UNL     1     111.771   9.662 -43.614  1.00  0.00     0.293 HD
ENDBRANCH   7   8
ENDBRANCH   1   2
BRANCH   1  10
ATOM     10  C   UNL     1     110.129   6.933 -41.781  1.00  0.00     0.040 C 
BRANCH  10  11
ATOM     11  C   UNL     1     109.183   7.091 -40.620  1.00  0.00    -0.040 A 
ATOM     12  C   UNL     1     108.470   8.289 -40.447  1.00  0.00     0.050 A 
ATOM     13  C   UNL     1     108.964   6.023 -39.735  1.00  0.00     0.050 A 
ATOM     14  C   UNL     1     107.565   8.425 -39.386  1.00  0.00     0.119 A 
ATOM     15  C   UNL     1     108.060   6.157 -38.675  1.00  0.00     0.119 A 
ATOM     16  C   UNL     1     107.364   7.360 -38.502  1.00  0.00     0.092 A 
BRANCH  14  17
ATOM     17  O   UNL     1     106.859   9.612 -39.203  1.00  0.00    -0.508 OA
ATOM     18  H   UNL     1     107.126  10.282 -38.490  1.00  0.00     0.293 HD
ENDBRANCH  14  17
BRANCH  15  19
ATOM     19  O   UNL     1     107.861   5.089 -37.803  1.00  0.00    -0.508 OA
ATOM     20  H   UNL     1     108.302   5.060 -36.892  1.00  0.00     0.293 HD
ENDBRANCH  15  19
ENDBRANCH  10  11
ENDBRANCH   1  10
TORSDOF 6
ENDMDL
MODEL 8
REMARK VINA RESULT:    -4.845     14.306     16.311
REMARK INTER + INTRA:          -6.786
REMARK INTER:                  -6.303
REMARK INTRA:                  -0.483
REMARK UNBOUND:                -0.666
REMARK SMILES Oc1cc(O)cc(CCc2ccccc2O)c1
REMARK SMILES IDX 9 1 10 2 12 3 13 4 11 5 14 6 15 7 16 8 8 10 7 11 6 12 17 13
REMARK SMILES IDX 4 14 2 15 3 16 5 17 1 19
REMARK H PARENT 16 9 5 18 1 20
REMARK Flexibility Score: inf
ROOT
ATOM      1  C   UNL     1     111.048   9.048 -26.134  1.00  0.00     0.044 C 
ENDROOT
BRANCH   1   2
ATOM      2  C   UNL     1     112.181   9.540 -25.268  1.00  0.00    -0.006 A 
ATOM      3  C   UNL     1     114.215  10.852 -25.027  1.00  0.00     0.001 A 
ATOM      4  C   UNL     1     114.343  10.422 -23.706  1.00  0.00     0.004 A 
ATOM      5  C   UNL     1     113.143  10.411 -25.808  1.00  0.00     0.007 A 
ATOM      6  C   UNL     1     113.401   9.544 -23.162  1.00  0.00     0.046 A 
ATOM      7  C   UNL     1     112.322   9.095 -23.937  1.00  0.00     0.118 A 
BRANCH   7   8
ATOM      8  O   UNL     1     111.395   8.207 -23.392  1.00  0.00    -0.508 OA
ATOM      9  H   UNL     1     110.723   8.503 -22.694  1.00  0.00     0.293 HD
ENDBRANCH   7   8
ENDBRANCH   1   2
BRANCH   1  10
ATOM     10  C   UNL     1     111.516   7.895 -27.027  1.00  0.00     0.040 C 
BRANCH  10  11
ATOM     11  C   UNL     1     110.494   6.789 -27.040  1.00  0.00    -0.040 A 
ATOM     12  C   UNL     1     110.019   6.251 -25.833  1.00  0.00     0.050 A 
ATOM     13  C   UNL     1     109.967   6.327 -28.257  1.00  0.00     0.050 A 
ATOM     14  C   UNL     1     109.043   5.245 -25.844  1.00  0.00     0.119 A 
ATOM     15  C   UNL     1     108.992   5.323 -28.269  1.00  0.00     0.119 A 
ATOM     16  C   UNL     1     108.535   4.781 -27.061  1.00  0.00     0.092 A 
BRANCH  14  17
ATOM     17  O   UNL     1     108.572   4.701 -24.651  1.00  0.00    -0.508 OA
ATOM     18  H   UNL     1     109.061   4.844 -23.774  1.00  0.00     0.293 HD
ENDBRANCH  14  17
BRANCH  15  19
ATOM     19  O   UNL     1     108.486   4.872 -29.487  1.00  0.00    -0.508 OA
ATOM     20  H   UNL     1     107.900   5.462 -30.067  1.00  0.00     0.293 HD
ENDBRANCH  15  19
ENDBRANCH  10  11
ENDBRANCH   1  10
TORSDOF 6
ENDMDL
MODEL 9
REMARK VINA RESULT:    -4.699      2.573      6.265
REMARK INTER + INTRA:          -6.602
REMARK INTER:                  -6.061
REMARK INTRA:                  -0.541
REMARK UNBOUND:                -0.666
REMARK SMILES Oc1cc(O)cc(CCc2ccccc2O)c1
REMARK SMILES IDX 9 1 10 2 12 3 13 4 11 5 14 6 15 7 16 8 8 10 7 11 6 12 17 13
REMARK SMILES IDX 4 14 2 15 3 16 5 17 1 19
REMARK H PARENT 16 9 5 18 1 20
REMARK Flexibility Score: inf
ROOT
ATOM      1  C   UNL     1     112.477  10.493 -41.263  1.00  0.00     0.044 C 
ENDROOT
BRANCH   1   2
ATOM      2  C   UNL     1     113.709  10.666 -40.410  1.00  0.00    -0.006 A 
ATOM      3  C   UNL     1     116.129  10.825 -40.236  1.00  0.00     0.001 A 
ATOM      4  C   UNL     1     116.029  10.915 -38.847  1.00  0.00     0.004 A 
ATOM      5  C   UNL     1     114.977  10.695 -41.015  1.00  0.00     0.007 A 
ATOM      6  C   UNL     1     114.775  10.871 -38.232  1.00  0.00     0.046 A 
ATOM      7  C   UNL     1     113.612  10.741 -39.005  1.00  0.00     0.118 A 
BRANCH   7   8
ATOM      8  O   UNL     1     112.365  10.683 -38.383  1.00  0.00    -0.508 OA
ATOM      9  H   UNL     1     112.218  10.144 -37.538  1.00  0.00     0.293 HD
ENDBRANCH   7   8
ENDBRANCH   1   2
BRANCH   1  10
ATOM     10  C   UNL     1     112.552   9.185 -42.058  1.00  0.00     0.040 C 
BRANCH  10  11
ATOM     11  C   UNL     1     111.459   8.244 -41.630  1.00  0.00    -0.040 A 
ATOM     12  C   UNL     1     110.700   8.518 -40.480  1.00  0.00     0.050 A 
ATOM     13  C   UNL     1     111.152   7.115 -42.407  1.00  0.00     0.050 A 
ATOM     14  C   UNL     1     109.660   7.659 -40.099  1.00  0.00     0.119 A 
ATOM     15  C   UNL     1     110.113   6.257 -42.028  1.00  0.00     0.119 A 
ATOM     16  C   UNL     1     109.371   6.530 -40.872  1.00  0.00     0.092 A 
BRANCH  14  17
ATOM     17  O   UNL     1     108.907   7.919 -38.956  1.00  0.00    -0.508 OA
ATOM     18  H   UNL     1     108.985   8.800 -38.460  1.00  0.00     0.293 HD
ENDBRANCH  14  17
BRANCH  15  19
ATOM     19  O   UNL     1     109.827   5.138 -42.809  1.00  0.00    -0.508 OA
ATOM     20  H   UNL     1     109.220   5.198 -43.617  1.00  0.00     0.293 HD
ENDBRANCH  15  19
ENDBRANCH  10  11
ENDBRANCH   1  10
TORSDOF 6
ENDMDL
