MODEL 1
REMARK VINA RESULT:    -3.220      0.000      0.000
REMARK INTER + INTRA:          -4.100
REMARK INTER:                  -3.879
REMARK INTRA:                  -0.221
REMARK UNBOUND:                -0.221
REMARK SMILES OCC(O)CO
REMARK SMILES IDX 3 1 5 2 6 3 2 5 1 6 4 8
REMARK H PARENT 6 4 1 7 4 9
REMARK Flexibility Score: inf
ROOT
ATOM      1  C   UNL     1      26.222 -34.284  22.005  1.00  0.00     0.165 C 
ENDROOT
BRANCH   1   2
ATOM      2  C   UNL     1      25.450 -33.401  23.000  1.00  0.00     0.190 C 
BRANCH   2   3
ATOM      3  O   UNL     1      25.379 -32.073  22.552  1.00  0.00    -0.394 OA
ATOM      4  H   UNL     1      26.251 -31.652  22.770  1.00  0.00     0.210 HD
ENDBRANCH   2   3
ENDBRANCH   1   2
BRANCH   1   5
ATOM      5  C   UNL     1      25.435 -34.470  20.701  1.00  0.00     0.190 C 
BRANCH   5   6
ATOM      6  O   UNL     1      25.619 -33.364  19.857  1.00  0.00    -0.394 OA
ATOM      7  H   UNL     1      25.254 -32.575  20.337  1.00  0.00     0.210 HD
ENDBRANCH   5   6
ENDBRANCH   1   5
BRANCH   1   8
ATOM      8  O   UNL     1      26.487 -35.540  22.576  1.00  0.00    -0.388 OA
ATOM      9  H   UNL     1      26.435 -36.204  21.841  1.00  0.00     0.211 HD
ENDBRANCH   1   8
TORSDOF 5
ENDMDL
MODEL 2
REMARK VINA RESULT:    -3.156      2.551      3.697
REMARK INTER + INTRA:          -4.022
REMARK INTER:                  -3.800
REMARK INTRA:                  -0.222
REMARK UNBOUND:                -0.221
REMARK SMILES OCC(O)CO
REMARK SMILES IDX 3 1 5 2 6 3 2 5 1 6 4 8
REMARK H PARENT 6 4 1 7 4 9
REMARK Flexibility Score: inf
ROOT
ATOM      1  C   UNL     1      24.401 -31.420  24.295  1.00  0.00     0.165 C 
ENDROOT
BRANCH   1   2
ATOM      2  C   UNL     1      24.676 -30.016  23.728  1.00  0.00     0.190 C 
BRANCH   2   3
ATOM      3  O   UNL     1      25.862 -29.996  22.979  1.00  0.00    -0.394 OA
ATOM      4  H   UNL     1      26.419 -29.262  23.347  1.00  0.00     0.210 HD
ENDBRANCH   2   3
ENDBRANCH   1   2
BRANCH   1   5
ATOM      5  C   UNL     1      25.269 -32.479  23.602  1.00  0.00     0.190 C 
BRANCH   5   6
ATOM      6  O   UNL     1      24.888 -32.619  22.259  1.00  0.00    -0.394 OA
ATOM      7  H   UNL     1      25.709 -32.860  21.754  1.00  0.00     0.210 HD
ENDBRANCH   5   6
ENDBRANCH   1   5
BRANCH   1   8
ATOM      8  O   UNL     1      23.044 -31.748  24.137  1.00  0.00    -0.388 OA
ATOM      9  H   UNL     1      23.009 -32.712  23.903  1.00  0.00     0.211 HD
ENDBRANCH   1   8
TORSDOF 5
ENDMDL
MODEL 3
REMARK VINA RESULT:    -3.129      2.983      3.905
REMARK INTER + INTRA:          -3.990
REMARK INTER:                  -3.979
REMARK INTRA:                  -0.012
REMARK UNBOUND:                -0.221
REMARK SMILES OCC(O)CO
REMARK SMILES IDX 3 1 5 2 6 3 2 5 1 6 4 8
REMARK H PARENT 6 4 1 7 4 9
REMARK Flexibility Score: inf
ROOT
ATOM      1  C   UNL     1      25.007 -31.679  23.754  1.00  0.00     0.165 C 
ENDROOT
BRANCH   1   2
ATOM      2  C   UNL     1      23.773 -32.375  24.352  1.00  0.00     0.190 C 
BRANCH   2   3
ATOM      3  O   UNL     1      22.722 -31.466  24.546  1.00  0.00    -0.394 OA
ATOM      4  H   UNL     1      23.136 -30.569  24.646  1.00  0.00     0.210 HD
ENDBRANCH   2   3
ENDBRANCH   1   2
BRANCH   1   5
ATOM      5  C   UNL     1      24.799 -30.161  23.663  1.00  0.00     0.190 C 
BRANCH   5   6
ATOM      6  O   UNL     1      25.713 -29.596  22.762  1.00  0.00    -0.394 OA
ATOM      7  H   UNL     1      26.588 -30.037  22.929  1.00  0.00     0.210 HD
ENDBRANCH   5   6
ENDBRANCH   1   5
BRANCH   1   8
ATOM      8  O   UNL     1      25.280 -32.193  22.476  1.00  0.00    -0.388 OA
ATOM      9  H   UNL     1      25.285 -33.181  22.560  1.00  0.00     0.211 HD
ENDBRANCH   1   8
TORSDOF 5
ENDMDL
MODEL 4
REMARK VINA RESULT:    -3.054      2.437      4.054
REMARK INTER + INTRA:          -3.900
REMARK INTER:                  -3.687
REMARK INTRA:                  -0.213
REMARK UNBOUND:                -0.221
REMARK SMILES OCC(O)CO
REMARK SMILES IDX 3 1 5 2 6 3 2 5 1 6 4 8
REMARK H PARENT 6 4 1 7 4 9
REMARK Flexibility Score: inf
ROOT
ATOM      1  C   UNL     1      24.208 -31.403  23.694  1.00  0.00     0.165 C 
ENDROOT
BRANCH   1   2
ATOM      2  C   UNL     1      25.326 -32.437  23.474  1.00  0.00     0.190 C 
BRANCH   2   3
ATOM      3  O   UNL     1      25.606 -32.596  22.108  1.00  0.00    -0.394 OA
ATOM      4  H   UNL     1      24.957 -33.261  21.760  1.00  0.00     0.210 HD
ENDBRANCH   2   3
ENDBRANCH   1   2
BRANCH   1   5
ATOM      5  C   UNL     1      24.785 -29.993  23.883  1.00  0.00     0.190 C 
BRANCH   5   6
ATOM      6  O   UNL     1      25.540 -29.621  22.761  1.00  0.00    -0.394 OA
ATOM      7  H   UNL     1      25.631 -28.632  22.793  1.00  0.00     0.210 HD
ENDBRANCH   5   6
ENDBRANCH   1   5
BRANCH   1   8
ATOM      8  O   UNL     1      23.443 -31.751  24.820  1.00  0.00    -0.388 OA
ATOM      9  H   UNL     1      23.092 -32.664  24.655  1.00  0.00     0.211 HD
ENDBRANCH   1   8
TORSDOF 5
ENDMDL
MODEL 5
REMARK VINA RESULT:    -3.007      3.071      4.657
REMARK INTER + INTRA:          -3.842
REMARK INTER:                  -3.636
REMARK INTRA:                  -0.207
REMARK UNBOUND:                -0.221
REMARK SMILES OCC(O)CO
REMARK SMILES IDX 3 1 5 2 6 3 2 5 1 6 4 8
REMARK H PARENT 6 4 1 7 4 9
REMARK Flexibility Score: inf
ROOT
ATOM      1  C   UNL     1      25.294 -30.468  23.797  1.00  0.00     0.165 C 
ENDROOT
BRANCH   1   2
ATOM      2  C   UNL     1      25.240 -31.903  23.244  1.00  0.00     0.190 C 
BRANCH   2   3
ATOM      3  O   UNL     1      25.713 -32.828  24.188  1.00  0.00    -0.394 OA
ATOM      4  H   UNL     1      25.803 -32.338  25.046  1.00  0.00     0.210 HD
ENDBRANCH   2   3
ENDBRANCH   1   2
BRANCH   1   5
ATOM      5  C   UNL     1      24.021 -30.129  24.586  1.00  0.00     0.190 C 
BRANCH   5   6
ATOM      6  O   UNL     1      23.119 -31.203  24.542  1.00  0.00    -0.394 OA
ATOM      7  H   UNL     1      22.427 -31.022  25.231  1.00  0.00     0.210 HD
ENDBRANCH   5   6
ENDBRANCH   1   5
BRANCH   1   8
ATOM      8  O   UNL     1      25.453 -29.550  22.746  1.00  0.00    -0.388 OA
ATOM      9  H   UNL     1      24.878 -28.769  22.960  1.00  0.00     0.211 HD
ENDBRANCH   1   8
TORSDOF 5
ENDMDL
MODEL 6
REMARK VINA RESULT:    -3.004      0.683      2.887
REMARK INTER + INTRA:          -3.839
REMARK INTER:                  -3.837
REMARK INTRA:                  -0.003
REMARK UNBOUND:                -0.221
REMARK SMILES OCC(O)CO
REMARK SMILES IDX 3 1 5 2 6 3 2 5 1 6 4 8
REMARK H PARENT 6 4 1 7 4 9
REMARK Flexibility Score: inf
ROOT
ATOM      1  C   UNL     1      26.025 -33.804  21.924  1.00  0.00     0.165 C 
ENDROOT
BRANCH   1   2
ATOM      2  C   UNL     1      25.607 -34.269  20.519  1.00  0.00     0.190 C 
BRANCH   2   3
ATOM      3  O   UNL     1      25.769 -33.242  19.576  1.00  0.00    -0.394 OA
ATOM      4  H   UNL     1      25.794 -33.676  18.684  1.00  0.00     0.210 HD
ENDBRANCH   2   3
ENDBRANCH   1   2
BRANCH   1   5
ATOM      5  C   UNL     1      25.625 -34.832  22.991  1.00  0.00     0.190 C 
BRANCH   5   6
ATOM      6  O   UNL     1      26.479 -35.944  22.941  1.00  0.00    -0.394 OA
ATOM      7  H   UNL     1      27.123 -35.844  23.691  1.00  0.00     0.210 HD
ENDBRANCH   5   6
ENDBRANCH   1   5
BRANCH   1   8
ATOM      8  O   UNL     1      25.431 -32.566  22.221  1.00  0.00    -0.388 OA
ATOM      9  H   UNL     1      26.158 -31.967  22.531  1.00  0.00     0.211 HD
ENDBRANCH   1   8
TORSDOF 5
ENDMDL
MODEL 7
REMARK VINA RESULT:    -2.995      1.072      2.401
REMARK INTER + INTRA:          -3.828
REMARK INTER:                  -3.610
REMARK INTRA:                  -0.218
REMARK UNBOUND:                -0.221
REMARK SMILES OCC(O)CO
REMARK SMILES IDX 3 1 5 2 6 3 2 5 1 6 4 8
REMARK H PARENT 6 4 1 7 4 9
REMARK Flexibility Score: inf
ROOT
ATOM      1  C   UNL     1      25.213 -33.872  21.825  1.00  0.00     0.165 C 
ENDROOT
BRANCH   1   2
ATOM      2  C   UNL     1      25.232 -32.695  22.814  1.00  0.00     0.190 C 
BRANCH   2   3
ATOM      3  O   UNL     1      25.755 -33.085  24.057  1.00  0.00    -0.394 OA
ATOM      4  H   UNL     1      25.104 -32.790  24.745  1.00  0.00     0.210 HD
ENDBRANCH   2   3
ENDBRANCH   1   2
BRANCH   1   5
ATOM      5  C   UNL     1      26.440 -34.775  22.012  1.00  0.00     0.190 C 
BRANCH   5   6
ATOM      6  O   UNL     1      26.211 -35.705  23.035  1.00  0.00    -0.394 OA
ATOM      7  H   UNL     1      26.492 -35.272  23.884  1.00  0.00     0.210 HD
ENDBRANCH   5   6
ENDBRANCH   1   5
BRANCH   1   8
ATOM      8  O   UNL     1      25.179 -33.394  20.504  1.00  0.00    -0.388 OA
ATOM      9  H   UNL     1      24.252 -33.083  20.337  1.00  0.00     0.211 HD
ENDBRANCH   1   8
TORSDOF 5
ENDMDL
MODEL 8
REMARK VINA RESULT:    -2.990      1.051      3.030
REMARK INTER + INTRA:          -3.822
REMARK INTER:                  -3.603
REMARK INTRA:                  -0.219
REMARK UNBOUND:                -0.221
REMARK SMILES OCC(O)CO
REMARK SMILES IDX 3 1 5 2 6 3 2 5 1 6 4 8
REMARK H PARENT 6 4 1 7 4 9
REMARK Flexibility Score: inf
ROOT
ATOM      1  C   UNL     1      25.800 -33.753  21.731  1.00  0.00     0.165 C 
ENDROOT
BRANCH   1   2
ATOM      2  C   UNL     1      25.518 -35.245  21.977  1.00  0.00     0.190 C 
BRANCH   2   3
ATOM      3  O   UNL     1      26.413 -35.782  22.916  1.00  0.00    -0.394 OA
ATOM      4  H   UNL     1      27.305 -35.401  22.708  1.00  0.00     0.210 HD
ENDBRANCH   2   3
ENDBRANCH   1   2
BRANCH   1   5
ATOM      5  C   UNL     1      25.133 -32.878  22.802  1.00  0.00     0.190 C 
BRANCH   5   6
ATOM      6  O   UNL     1      25.761 -33.062  24.043  1.00  0.00    -0.394 OA
ATOM      7  H   UNL     1      25.511 -33.971  24.357  1.00  0.00     0.210 HD
ENDBRANCH   5   6
ENDBRANCH   1   5
BRANCH   1   8
ATOM      8  O   UNL     1      25.334 -33.375  20.461  1.00  0.00    -0.388 OA
ATOM      9  H   UNL     1      24.474 -33.849  20.320  1.00  0.00     0.211 HD
ENDBRANCH   1   8
TORSDOF 5
ENDMDL
MODEL 9
REMARK VINA RESULT:    -2.987      2.912      4.246
REMARK INTER + INTRA:          -3.819
REMARK INTER:                  -3.816
REMARK INTRA:                  -0.003
REMARK UNBOUND:                -0.221
REMARK SMILES OCC(O)CO
REMARK SMILES IDX 3 1 5 2 6 3 2 5 1 6 4 8
REMARK H PARENT 6 4 1 7 4 9
REMARK Flexibility Score: inf
ROOT
ATOM      1  C   UNL     1      24.654 -30.653  23.552  1.00  0.00     0.165 C 
ENDROOT
BRANCH   1   2
ATOM      2  C   UNL     1      24.098 -30.255  24.930  1.00  0.00     0.190 C 
BRANCH   2   3
ATOM      3  O   UNL     1      23.305 -29.100  24.842  1.00  0.00    -0.394 OA
ATOM      4  H   UNL     1      22.840 -29.140  23.967  1.00  0.00     0.210 HD
ENDBRANCH   2   3
ENDBRANCH   1   2
BRANCH   1   5
ATOM      5  C   UNL     1      25.323 -32.033  23.601  1.00  0.00     0.190 C 
BRANCH   5   6
ATOM      6  O   UNL     1      25.487 -32.542  22.304  1.00  0.00    -0.394 OA
ATOM      7  H   UNL     1      26.398 -32.278  22.007  1.00  0.00     0.210 HD
ENDBRANCH   5   6
ENDBRANCH   1   5
BRANCH   1   8
ATOM      8  O   UNL     1      25.584 -29.696  23.111  1.00  0.00    -0.388 OA
ATOM      9  H   UNL     1      25.350 -28.842  23.559  1.00  0.00     0.211 HD
ENDBRANCH   1   8
TORSDOF 5
ENDMDL
