MODEL 1
REMARK VINA RESULT:    -7.928      0.000      0.000
REMARK INTER + INTRA:         -12.770
REMARK INTER:                 -11.636
REMARK INTRA:                  -1.134
REMARK UNBOUND:                -1.134
REMARK SMILES O=c1c(O[C@H]2O[C@H](CO)[C@H](O)[C@@H](O)[C@@H]2O)c(-c2ccc(O)c(O)c2)oc2cc(O)cc(O)c12
REMARK SMILES IDX 4 1 3 2 16 3 25 4 2 5 26 6 1 7 33 8 27 9 31 10 28 11 30 12
REMARK SMILES IDX 17 13 18 14 19 15 20 16 24 17 22 18 21 19 23 21 32 23 29 25
REMARK SMILES IDX 5 27 14 28 6 29 12 30 7 31 10 32 15 33 13 35 8 37 9 38 11 40
REMARK H PARENT 21 20 23 22 32 24 29 26 15 34 13 36 9 39 11 41
REMARK Flexibility Score: inf
ROOT
ATOM      1  O   UNL     1     -14.024  41.457  31.517  1.00  0.00    -0.454 OA
ENDROOT
BRANCH   1   2
ATOM      2  C   UNL     1     -14.611  40.502  30.679  1.00  0.00     0.214 A 
ATOM      3  C   UNL     1     -15.998  40.520  30.444  1.00  0.00     0.180 A 
ATOM      4  O   UNL     1     -16.537  39.640  29.605  1.00  0.00    -0.452 OA
ATOM      5  C   UNL     1     -13.827  39.524  30.052  1.00  0.00     0.239 A 
ATOM      6  C   UNL     1     -15.831  38.705  28.978  1.00  0.00     0.146 A 
ATOM      7  O   UNL     1     -12.588  39.479  30.286  1.00  0.00    -0.285 OA
ATOM      8  C   UNL     1     -14.435  38.600  29.178  1.00  0.00     0.111 A 
ATOM      9  C   UNL     1     -16.488  37.818  28.118  1.00  0.00     0.094 A 
ATOM     10  C   UNL     1     -13.715  37.585  28.502  1.00  0.00     0.134 A 
ATOM     11  C   UNL     1     -15.775  36.818  27.455  1.00  0.00     0.123 A 
ATOM     12  C   UNL     1     -14.393  36.703  27.647  1.00  0.00     0.093 A 
BRANCH   3  13
ATOM     13  C   UNL     1     -16.885  41.522  31.075  1.00  0.00     0.025 A 
ATOM     14  C   UNL     1     -17.751  41.177  32.129  1.00  0.00     0.016 A 
ATOM     15  C   UNL     1     -18.577  42.141  32.710  1.00  0.00     0.051 A 
ATOM     16  C   UNL     1     -18.563  43.460  32.238  1.00  0.00     0.157 A 
ATOM     17  C   UNL     1     -16.893  42.841  30.591  1.00  0.00     0.062 A 
ATOM     18  C   UNL     1     -17.723  43.810  31.174  1.00  0.00     0.158 A 
BRANCH  16  19
ATOM     19  O   UNL     1     -19.384  44.426  32.818  1.00  0.00    -0.504 OA
ATOM     20  H   UNL     1     -19.972  45.029  32.255  1.00  0.00     0.293 HD
ENDBRANCH  16  19
BRANCH  18  21
ATOM     21  O   UNL     1     -17.716  45.121  30.701  1.00  0.00    -0.504 OA
ATOM     22  H   UNL     1     -18.109  45.363  29.799  1.00  0.00     0.293 HD
ENDBRANCH  18  21
ENDBRANCH   3  13
BRANCH  10  23
ATOM     23  O   UNL     1     -12.337  37.446  28.674  1.00  0.00    -0.507 OA
ATOM     24  H   UNL     1     -11.698  38.209  28.490  1.00  0.00     0.293 HD
ENDBRANCH  10  23
BRANCH  11  25
ATOM     25  O   UNL     1     -16.449  35.942  26.607  1.00  0.00    -0.508 OA
ATOM     26  H   UNL     1     -16.076  35.026  26.387  1.00  0.00     0.293 HD
ENDBRANCH  11  25
ENDBRANCH   1   2
BRANCH   1  27
ATOM     27  C   UNL     1     -12.912  42.248  31.109  1.00  0.00     0.339 C 
ATOM     28  C   UNL     1     -12.026  42.507  32.337  1.00  0.00     0.214 C 
ATOM     29  O   UNL     1     -13.401  43.466  30.568  1.00  0.00    -0.332 OA
ATOM     30  C   UNL     1     -10.844  43.406  31.946  1.00  0.00     0.180 C 
ATOM     31  C   UNL     1     -12.358  44.314  30.106  1.00  0.00     0.179 C 
ATOM     32  C   UNL     1     -11.367  44.671  31.243  1.00  0.00     0.177 C 
BRANCH  28  33
ATOM     33  O   UNL     1     -11.554  41.279  32.830  1.00  0.00    -0.384 OA
ATOM     34  H   UNL     1     -10.576  41.260  32.662  1.00  0.00     0.211 HD
ENDBRANCH  28  33
BRANCH  30  35
ATOM     35  O   UNL     1     -10.137  43.762  33.106  1.00  0.00    -0.387 OA
ATOM     36  H   UNL     1      -9.826  42.918  33.527  1.00  0.00     0.211 HD
ENDBRANCH  30  35
BRANCH  31  37
ATOM     37  C   UNL     1     -11.695  43.766  28.818  1.00  0.00     0.191 C 
BRANCH  37  38
ATOM     38  O   UNL     1     -10.917  44.753  28.195  1.00  0.00    -0.394 OA
ATOM     39  H   UNL     1      -9.985  44.625  28.512  1.00  0.00     0.210 HD
ENDBRANCH  37  38
ENDBRANCH  31  37
BRANCH  32  40
ATOM     40  O   UNL     1     -10.297  45.427  30.735  1.00  0.00    -0.387 OA
ATOM     41  H   UNL     1     -10.471  46.375  30.974  1.00  0.00     0.211 HD
ENDBRANCH  32  40
ENDBRANCH   1  27
TORSDOF 12
ENDMDL
MODEL 2
REMARK VINA RESULT:    -7.833      2.055      6.875
REMARK INTER + INTRA:         -12.630
REMARK INTER:                 -11.047
REMARK INTRA:                  -1.583
REMARK UNBOUND:                -1.134
REMARK SMILES O=c1c(O[C@H]2O[C@H](CO)[C@H](O)[C@@H](O)[C@@H]2O)c(-c2ccc(O)c(O)c2)oc2cc(O)cc(O)c12
REMARK SMILES IDX 4 1 3 2 16 3 25 4 2 5 26 6 1 7 33 8 27 9 31 10 28 11 30 12
REMARK SMILES IDX 17 13 18 14 19 15 20 16 24 17 22 18 21 19 23 21 32 23 29 25
REMARK SMILES IDX 5 27 14 28 6 29 12 30 7 31 10 32 15 33 13 35 8 37 9 38 11 40
REMARK H PARENT 21 20 23 22 32 24 29 26 15 34 13 36 9 39 11 41
REMARK Flexibility Score: inf
ROOT
ATOM      1  O   UNL     1     -14.292  41.058  30.996  1.00  0.00    -0.454 OA
ENDROOT
BRANCH   1   2
ATOM      2  C   UNL     1     -15.161  41.965  31.613  1.00  0.00     0.214 A 
ATOM      3  C   UNL     1     -14.748  43.287  31.862  1.00  0.00     0.180 A 
ATOM      4  O   UNL     1     -15.601  44.154  32.401  1.00  0.00    -0.452 OA
ATOM      5  C   UNL     1     -16.456  41.575  31.981  1.00  0.00     0.239 A 
ATOM      6  C   UNL     1     -16.841  43.833  32.753  1.00  0.00     0.146 A 
ATOM      7  O   UNL     1     -16.821  40.382  31.794  1.00  0.00    -0.285 OA
ATOM      8  C   UNL     1     -17.327  42.519  32.562  1.00  0.00     0.111 A 
ATOM      9  C   UNL     1     -17.663  44.812  33.320  1.00  0.00     0.094 A 
ATOM     10  C   UNL     1     -18.652  42.209  32.957  1.00  0.00     0.134 A 
ATOM     11  C   UNL     1     -18.967  44.502  33.709  1.00  0.00     0.123 A 
ATOM     12  C   UNL     1     -19.458  43.204  33.527  1.00  0.00     0.093 A 
BRANCH   3  13
ATOM     13  C   UNL     1     -13.394  43.764  31.503  1.00  0.00     0.025 A 
ATOM     14  C   UNL     1     -13.144  44.410  30.278  1.00  0.00     0.016 A 
ATOM     15  C   UNL     1     -11.857  44.853  29.963  1.00  0.00     0.051 A 
ATOM     16  C   UNL     1     -10.800  44.645  30.858  1.00  0.00     0.157 A 
ATOM     17  C   UNL     1     -12.326  43.538  32.385  1.00  0.00     0.062 A 
ATOM     18  C   UNL     1     -11.033  43.983  32.069  1.00  0.00     0.158 A 
BRANCH  16  19
ATOM     19  O   UNL     1      -9.516  45.089  30.548  1.00  0.00    -0.504 OA
ATOM     20  H   UNL     1      -9.307  45.525  29.658  1.00  0.00     0.293 HD
ENDBRANCH  16  19
BRANCH  18  21
ATOM     21  O   UNL     1      -9.978  43.770  32.955  1.00  0.00    -0.504 OA
ATOM     22  H   UNL     1      -9.039  43.581  32.627  1.00  0.00     0.293 HD
ENDBRANCH  18  21
ENDBRANCH   3  13
BRANCH  10  23
ATOM     23  O   UNL     1     -19.169  40.924  32.788  1.00  0.00    -0.507 OA
ATOM     24  H   UNL     1     -19.784  40.693  32.017  1.00  0.00     0.293 HD
ENDBRANCH  10  23
BRANCH  11  25
ATOM     25  O   UNL     1     -19.767  45.491  34.278  1.00  0.00    -0.508 OA
ATOM     26  H   UNL     1     -19.893  45.559  35.281  1.00  0.00     0.293 HD
ENDBRANCH  11  25
ENDBRANCH   1   2
BRANCH   1  27
ATOM     27  C   UNL     1     -14.480  40.613  29.656  1.00  0.00     0.339 C 
ATOM     28  C   UNL     1     -14.249  39.095  29.613  1.00  0.00     0.214 C 
ATOM     29  O   UNL     1     -13.556  41.293  28.821  1.00  0.00    -0.332 OA
ATOM     30  C   UNL     1     -14.390  38.587  28.171  1.00  0.00     0.180 C 
ATOM     31  C   UNL     1     -13.690  40.931  27.453  1.00  0.00     0.179 C 
ATOM     32  C   UNL     1     -13.481  39.411  27.242  1.00  0.00     0.177 C 
BRANCH  28  33
ATOM     33  O   UNL     1     -15.193  38.463  30.440  1.00  0.00    -0.384 OA
ATOM     34  H   UNL     1     -14.694  37.809  30.996  1.00  0.00     0.211 HD
ENDBRANCH  28  33
BRANCH  30  35
ATOM     35  O   UNL     1     -14.020  37.233  28.124  1.00  0.00    -0.387 OA
ATOM     36  H   UNL     1     -14.019  36.900  29.059  1.00  0.00     0.211 HD
ENDBRANCH  30  35
BRANCH  31  37
ATOM     37  C   UNL     1     -14.989  41.499  26.829  1.00  0.00     0.191 C 
BRANCH  37  38
ATOM     38  O   UNL     1     -14.919  41.490  25.429  1.00  0.00    -0.394 OA
ATOM     39  H   UNL     1     -14.142  40.922  25.185  1.00  0.00     0.210 HD
ENDBRANCH  37  38
ENDBRANCH  31  37
BRANCH  32  40
ATOM     40  O   UNL     1     -13.715  39.070  25.899  1.00  0.00    -0.387 OA
ATOM     41  H   UNL     1     -14.204  39.829  25.486  1.00  0.00     0.211 HD
ENDBRANCH  32  40
ENDBRANCH   1  27
TORSDOF 12
ENDMDL
MODEL 3
REMARK VINA RESULT:    -7.739      1.735      5.425
REMARK INTER + INTRA:         -12.493
REMARK INTER:                 -11.144
REMARK INTRA:                  -1.349
REMARK UNBOUND:                -1.134
REMARK SMILES O=c1c(O[C@H]2O[C@H](CO)[C@H](O)[C@@H](O)[C@@H]2O)c(-c2ccc(O)c(O)c2)oc2cc(O)cc(O)c12
REMARK SMILES IDX 4 1 3 2 16 3 25 4 2 5 26 6 1 7 33 8 27 9 31 10 28 11 30 12
REMARK SMILES IDX 17 13 18 14 19 15 20 16 24 17 22 18 21 19 23 21 32 23 29 25
REMARK SMILES IDX 5 27 14 28 6 29 12 30 7 31 10 32 15 33 13 35 8 37 9 38 11 40
REMARK H PARENT 21 20 23 22 32 24 29 26 15 34 13 36 9 39 11 41
REMARK Flexibility Score: inf
ROOT
ATOM      1  O   UNL     1     -15.504  40.330  31.835  1.00  0.00    -0.454 OA
ENDROOT
BRANCH   1   2
ATOM      2  C   UNL     1     -15.145  39.965  30.533  1.00  0.00     0.214 A 
ATOM      3  C   UNL     1     -13.955  40.452  29.962  1.00  0.00     0.180 A 
ATOM      4  O   UNL     1     -13.598  40.057  28.743  1.00  0.00    -0.452 OA
ATOM      5  C   UNL     1     -15.956  39.102  29.784  1.00  0.00     0.239 A 
ATOM      6  C   UNL     1     -14.328  39.230  28.002  1.00  0.00     0.146 A 
ATOM      7  O   UNL     1     -17.042  38.690  30.276  1.00  0.00    -0.285 OA
ATOM      8  C   UNL     1     -15.551  38.715  28.490  1.00  0.00     0.111 A 
ATOM      9  C   UNL     1     -13.874  38.877  26.727  1.00  0.00     0.094 A 
ATOM     10  C   UNL     1     -16.309  37.843  27.670  1.00  0.00     0.134 A 
ATOM     11  C   UNL     1     -14.624  38.019  25.922  1.00  0.00     0.123 A 
ATOM     12  C   UNL     1     -15.837  37.505  26.394  1.00  0.00     0.093 A 
BRANCH   3  13
ATOM     13  C   UNL     1     -13.054  41.369  30.695  1.00  0.00     0.025 A 
ATOM     14  C   UNL     1     -13.182  42.766  30.587  1.00  0.00     0.016 A 
ATOM     15  C   UNL     1     -12.320  43.611  31.291  1.00  0.00     0.051 A 
ATOM     16  C   UNL     1     -11.309  43.074  32.099  1.00  0.00     0.157 A 
ATOM     17  C   UNL     1     -12.024  40.838  31.488  1.00  0.00     0.062 A 
ATOM     18  C   UNL     1     -11.157  41.686  32.194  1.00  0.00     0.158 A 
BRANCH  16  19
ATOM     19  O   UNL     1     -10.450  43.915  32.805  1.00  0.00    -0.504 OA
ATOM     20  H   UNL     1     -10.773  44.789  33.201  1.00  0.00     0.293 HD
ENDBRANCH  16  19
BRANCH  18  21
ATOM     21  O   UNL     1     -10.147  41.155  32.993  1.00  0.00    -0.504 OA
ATOM     22  H   UNL     1     -10.325  40.399  33.643  1.00  0.00     0.293 HD
ENDBRANCH  18  21
ENDBRANCH   3  13
BRANCH  10  23
ATOM     23  O   UNL     1     -17.522  37.315  28.113  1.00  0.00    -0.507 OA
ATOM     24  H   UNL     1     -18.063  37.761  28.845  1.00  0.00     0.293 HD
ENDBRANCH  10  23
BRANCH  11  25
ATOM     25  O   UNL     1     -14.156  37.684  24.653  1.00  0.00    -0.508 OA
ATOM     26  H   UNL     1     -14.499  36.868  24.160  1.00  0.00     0.293 HD
ENDBRANCH  11  25
ENDBRANCH   1   2
BRANCH   1  27
ATOM     27  C   UNL     1     -16.253  41.507  32.118  1.00  0.00     0.339 C 
ATOM     28  C   UNL     1     -17.317  41.164  33.171  1.00  0.00     0.214 C 
ATOM     29  O   UNL     1     -16.855  41.959  30.914  1.00  0.00    -0.332 OA
ATOM     30  C   UNL     1     -18.182  42.399  33.461  1.00  0.00     0.180 C 
ATOM     31  C   UNL     1     -17.604  43.153  31.094  1.00  0.00     0.179 C 
ATOM     32  C   UNL     1     -18.732  42.966  32.140  1.00  0.00     0.177 C 
BRANCH  28  33
ATOM     33  O   UNL     1     -16.679  40.736  34.347  1.00  0.00    -0.384 OA
ATOM     34  H   UNL     1     -17.146  41.179  35.103  1.00  0.00     0.211 HD
ENDBRANCH  28  33
BRANCH  30  35
ATOM     35  O   UNL     1     -19.245  42.027  34.300  1.00  0.00    -0.387 OA
ATOM     36  H   UNL     1     -19.765  42.850  34.492  1.00  0.00     0.211 HD
ENDBRANCH  30  35
BRANCH  31  37
ATOM     37  C   UNL     1     -16.689  44.378  31.341  1.00  0.00     0.191 C 
BRANCH  37  38
ATOM     38  O   UNL     1     -17.229  45.533  30.757  1.00  0.00    -0.394 OA
ATOM     39  H   UNL     1     -18.106  45.692  31.194  1.00  0.00     0.210 HD
ENDBRANCH  37  38
ENDBRANCH  31  37
BRANCH  32  40
ATOM     40  O   UNL     1     -19.391  44.186  32.367  1.00  0.00    -0.387 OA
ATOM     41  H   UNL     1     -19.306  44.723  31.536  1.00  0.00     0.211 HD
ENDBRANCH  32  40
ENDBRANCH   1  27
TORSDOF 12
ENDMDL
MODEL 4
REMARK VINA RESULT:    -7.630      2.635      6.085
REMARK INTER + INTRA:         -12.333
REMARK INTER:                 -11.043
REMARK INTRA:                  -1.290
REMARK UNBOUND:                -1.134
REMARK SMILES O=c1c(O[C@H]2O[C@H](CO)[C@H](O)[C@@H](O)[C@@H]2O)c(-c2ccc(O)c(O)c2)oc2cc(O)cc(O)c12
REMARK SMILES IDX 4 1 3 2 16 3 25 4 2 5 26 6 1 7 33 8 27 9 31 10 28 11 30 12
REMARK SMILES IDX 17 13 18 14 19 15 20 16 24 17 22 18 21 19 23 21 32 23 29 25
REMARK SMILES IDX 5 27 14 28 6 29 12 30 7 31 10 32 15 33 13 35 8 37 9 38 11 40
REMARK H PARENT 21 20 23 22 32 24 29 26 15 34 13 36 9 39 11 41
REMARK Flexibility Score: inf
ROOT
ATOM      1  O   UNL     1     -14.922  43.204  29.226  1.00  0.00    -0.454 OA
ENDROOT
BRANCH   1   2
ATOM      2  C   UNL     1     -14.227  42.346  28.367  1.00  0.00     0.214 A 
ATOM      3  C   UNL     1     -12.897  41.981  28.649  1.00  0.00     0.180 A 
ATOM      4  O   UNL     1     -12.265  41.124  27.853  1.00  0.00    -0.452 OA
ATOM      5  C   UNL     1     -14.846  41.829  27.220  1.00  0.00     0.239 A 
ATOM      6  C   UNL     1     -12.816  40.598  26.764  1.00  0.00     0.146 A 
ATOM      7  O   UNL     1     -16.024  42.180  26.941  1.00  0.00    -0.285 OA
ATOM      8  C   UNL     1     -14.139  40.932  26.393  1.00  0.00     0.111 A 
ATOM      9  C   UNL     1     -12.068  39.710  25.984  1.00  0.00     0.094 A 
ATOM     10  C   UNL     1     -14.692  40.361  25.221  1.00  0.00     0.134 A 
ATOM     11  C   UNL     1     -12.617  39.150  24.829  1.00  0.00     0.123 A 
ATOM     12  C   UNL     1     -13.924  39.475  24.450  1.00  0.00     0.093 A 
BRANCH   3  13
ATOM     13  C   UNL     1     -12.182  42.492  29.840  1.00  0.00     0.025 A 
ATOM     14  C   UNL     1     -11.841  43.851  29.964  1.00  0.00     0.016 A 
ATOM     15  C   UNL     1     -11.168  44.310  31.098  1.00  0.00     0.051 A 
ATOM     16  C   UNL     1     -10.812  43.417  32.118  1.00  0.00     0.157 A 
ATOM     17  C   UNL     1     -11.803  41.598  30.855  1.00  0.00     0.062 A 
ATOM     18  C   UNL     1     -11.126  42.059  31.994  1.00  0.00     0.158 A 
BRANCH  16  19
ATOM     19  O   UNL     1     -10.144  43.873  33.253  1.00  0.00    -0.504 OA
ATOM     20  H   UNL     1      -9.867  43.240  33.994  1.00  0.00     0.293 HD
ENDBRANCH  16  19
BRANCH  18  21
ATOM     21  O   UNL     1     -10.766  41.171  33.006  1.00  0.00    -0.504 OA
ATOM     22  H   UNL     1      -9.859  40.720  33.019  1.00  0.00     0.293 HD
ENDBRANCH  18  21
ENDBRANCH   3  13
BRANCH  10  23
ATOM     23  O   UNL     1     -15.992  40.667  24.818  1.00  0.00    -0.507 OA
ATOM     24  H   UNL     1     -16.631  41.176  25.418  1.00  0.00     0.293 HD
ENDBRANCH  10  23
BRANCH  11  25
ATOM     25  O   UNL     1     -11.853  38.272  24.063  1.00  0.00    -0.508 OA
ATOM     26  H   UNL     1     -11.163  37.662  24.485  1.00  0.00     0.293 HD
ENDBRANCH  11  25
ENDBRANCH   1   2
BRANCH   1  27
ATOM     27  C   UNL     1     -15.950  42.742  30.096  1.00  0.00     0.339 C 
ATOM     28  C   UNL     1     -16.759  43.956  30.577  1.00  0.00     0.214 C 
ATOM     29  O   UNL     1     -15.347  42.066  31.189  1.00  0.00    -0.332 OA
ATOM     30  C   UNL     1     -17.845  43.502  31.563  1.00  0.00     0.180 C 
ATOM     31  C   UNL     1     -16.303  41.543  32.101  1.00  0.00     0.179 C 
ATOM     32  C   UNL     1     -17.207  42.659  32.681  1.00  0.00     0.177 C 
BRANCH  28  33
ATOM     33  O   UNL     1     -17.349  44.584  29.468  1.00  0.00    -0.384 OA
ATOM     34  H   UNL     1     -16.712  44.490  28.712  1.00  0.00     0.211 HD
ENDBRANCH  28  33
BRANCH  30  35
ATOM     35  O   UNL     1     -18.467  44.634  32.113  1.00  0.00    -0.387 OA
ATOM     36  H   UNL     1     -19.276  44.815  31.567  1.00  0.00     0.211 HD
ENDBRANCH  30  35
BRANCH  31  37
ATOM     37  C   UNL     1     -17.068  40.334  31.506  1.00  0.00     0.191 C 
BRANCH  37  38
ATOM     38  O   UNL     1     -17.570  39.509  32.523  1.00  0.00    -0.394 OA
ATOM     39  H   UNL     1     -18.542  39.697  32.590  1.00  0.00     0.210 HD
ENDBRANCH  37  38
ENDBRANCH  31  37
BRANCH  32  40
ATOM     40  O   UNL     1     -18.202  42.100  33.502  1.00  0.00    -0.387 OA
ATOM     41  H   UNL     1     -18.044  41.120  33.526  1.00  0.00     0.211 HD
ENDBRANCH  32  40
ENDBRANCH   1  27
TORSDOF 12
ENDMDL
MODEL 5
REMARK VINA RESULT:    -7.629      1.697      6.043
REMARK INTER + INTRA:         -12.332
REMARK INTER:                 -11.129
REMARK INTRA:                  -1.202
REMARK UNBOUND:                -1.134
REMARK SMILES O=c1c(O[C@H]2O[C@H](CO)[C@H](O)[C@@H](O)[C@@H]2O)c(-c2ccc(O)c(O)c2)oc2cc(O)cc(O)c12
REMARK SMILES IDX 4 1 3 2 16 3 25 4 2 5 26 6 1 7 33 8 27 9 31 10 28 11 30 12
REMARK SMILES IDX 17 13 18 14 19 15 20 16 24 17 22 18 21 19 23 21 32 23 29 25
REMARK SMILES IDX 5 27 14 28 6 29 12 30 7 31 10 32 15 33 13 35 8 37 9 38 11 40
REMARK H PARENT 21 20 23 22 32 24 29 26 15 34 13 36 9 39 11 41
REMARK Flexibility Score: inf
ROOT
ATOM      1  O   UNL     1     -14.552  42.314  28.653  1.00  0.00    -0.454 OA
ENDROOT
BRANCH   1   2
ATOM      2  C   UNL     1     -15.529  42.075  29.625  1.00  0.00     0.214 A 
ATOM      3  C   UNL     1     -15.816  40.760  30.036  1.00  0.00     0.180 A 
ATOM      4  O   UNL     1     -16.710  40.549  30.998  1.00  0.00    -0.452 OA
ATOM      5  C   UNL     1     -16.226  43.139  30.214  1.00  0.00     0.239 A 
ATOM      6  C   UNL     1     -17.384  41.527  31.593  1.00  0.00     0.146 A 
ATOM      7  O   UNL     1     -16.000  44.318  29.826  1.00  0.00    -0.285 OA
ATOM      8  C   UNL     1     -17.175  42.876  31.222  1.00  0.00     0.111 A 
ATOM      9  C   UNL     1     -18.310  41.206  32.591  1.00  0.00     0.094 A 
ATOM     10  C   UNL     1     -17.918  43.893  31.870  1.00  0.00     0.134 A 
ATOM     11  C   UNL     1     -19.041  42.211  33.226  1.00  0.00     0.123 A 
ATOM     12  C   UNL     1     -18.845  43.549  32.866  1.00  0.00     0.093 A 
BRANCH   3  13
ATOM     13  C   UNL     1     -15.121  39.590  29.454  1.00  0.00     0.025 A 
ATOM     14  C   UNL     1     -15.504  39.050  28.213  1.00  0.00     0.016 A 
ATOM     15  C   UNL     1     -14.831  37.946  27.684  1.00  0.00     0.051 A 
ATOM     16  C   UNL     1     -13.777  37.357  28.393  1.00  0.00     0.157 A 
ATOM     17  C   UNL     1     -14.078  38.980  30.171  1.00  0.00     0.062 A 
ATOM     18  C   UNL     1     -13.402  37.871  29.640  1.00  0.00     0.158 A 
BRANCH  16  19
ATOM     19  O   UNL     1     -13.100  36.258  27.867  1.00  0.00    -0.504 OA
ATOM     20  H   UNL     1     -13.598  35.454  27.503  1.00  0.00     0.293 HD
ENDBRANCH  16  19
BRANCH  18  21
ATOM     21  O   UNL     1     -12.358  37.278  30.347  1.00  0.00    -0.504 OA
ATOM     22  H   UNL     1     -11.890  36.446  30.007  1.00  0.00     0.293 HD
ENDBRANCH  18  21
ENDBRANCH   3  13
BRANCH  10  23
ATOM     23  O   UNL     1     -17.744  45.235  31.532  1.00  0.00    -0.507 OA
ATOM     24  H   UNL     1     -16.882  45.728  31.734  1.00  0.00     0.293 HD
ENDBRANCH  10  23
BRANCH  11  25
ATOM     25  O   UNL     1     -19.963  41.870  34.214  1.00  0.00    -0.508 OA
ATOM     26  H   UNL     1     -20.873  41.491  33.981  1.00  0.00     0.293 HD
ENDBRANCH  11  25
ENDBRANCH   1   2
BRANCH   1  27
ATOM     27  C   UNL     1     -13.238  42.751  28.985  1.00  0.00     0.339 C 
ATOM     28  C   UNL     1     -12.235  41.962  28.130  1.00  0.00     0.214 C 
ATOM     29  O   UNL     1     -13.021  42.520  30.368  1.00  0.00    -0.332 OA
ATOM     30  C   UNL     1     -10.801  42.368  28.500  1.00  0.00     0.180 C 
ATOM     31  C   UNL     1     -11.738  42.954  30.798  1.00  0.00     0.179 C 
ATOM     32  C   UNL     1     -10.604  42.240  30.021  1.00  0.00     0.177 C 
BRANCH  28  33
ATOM     33  O   UNL     1     -12.476  42.231  26.772  1.00  0.00    -0.384 OA
ATOM     34  H   UNL     1     -12.102  41.468  26.258  1.00  0.00     0.211 HD
ENDBRANCH  28  33
BRANCH  30  35
ATOM     35  O   UNL     1      -9.899  41.528  27.829  1.00  0.00    -0.387 OA
ATOM     36  H   UNL     1     -10.263  41.379  26.917  1.00  0.00     0.211 HD
ENDBRANCH  30  35
BRANCH  31  37
ATOM     37  C   UNL     1     -11.629  44.499  30.827  1.00  0.00     0.191 C 
BRANCH  37  38
ATOM     38  O   UNL     1     -12.638  45.058  31.626  1.00  0.00    -0.394 OA
ATOM     39  H   UNL     1     -13.012  45.825  31.119  1.00  0.00     0.210 HD
ENDBRANCH  37  38
ENDBRANCH  31  37
BRANCH  32  40
ATOM     40  O   UNL     1      -9.354  42.759  30.399  1.00  0.00    -0.387 OA
ATOM     41  H   UNL     1      -9.391  43.741  30.259  1.00  0.00     0.211 HD
ENDBRANCH  32  40
ENDBRANCH   1  27
TORSDOF 12
ENDMDL
MODEL 6
REMARK VINA RESULT:    -7.629      2.615      5.493
REMARK INTER + INTRA:         -12.331
REMARK INTER:                 -11.007
REMARK INTRA:                  -1.325
REMARK UNBOUND:                -1.134
REMARK SMILES O=c1c(O[C@H]2O[C@H](CO)[C@H](O)[C@@H](O)[C@@H]2O)c(-c2ccc(O)c(O)c2)oc2cc(O)cc(O)c12
REMARK SMILES IDX 4 1 3 2 16 3 25 4 2 5 26 6 1 7 33 8 27 9 31 10 28 11 30 12
REMARK SMILES IDX 17 13 18 14 19 15 20 16 24 17 22 18 21 19 23 21 32 23 29 25
REMARK SMILES IDX 5 27 14 28 6 29 12 30 7 31 10 32 15 33 13 35 8 37 9 38 11 40
REMARK H PARENT 21 20 23 22 32 24 29 26 15 34 13 36 9 39 11 41
REMARK Flexibility Score: inf
ROOT
ATOM      1  O   UNL     1     -14.704  40.822  30.475  1.00  0.00    -0.454 OA
ENDROOT
BRANCH   1   2
ATOM      2  C   UNL     1     -14.110  40.777  29.209  1.00  0.00     0.214 A 
ATOM      3  C   UNL     1     -12.829  41.324  29.005  1.00  0.00     0.180 A 
ATOM      4  O   UNL     1     -12.254  41.228  27.810  1.00  0.00    -0.452 OA
ATOM      5  C   UNL     1     -14.774  40.176  28.130  1.00  0.00     0.239 A 
ATOM      6  C   UNL     1     -12.839  40.656  26.763  1.00  0.00     0.146 A 
ATOM      7  O   UNL     1     -15.936  39.716  28.297  1.00  0.00    -0.285 OA
ATOM      8  C   UNL     1     -14.137  40.105  26.874  1.00  0.00     0.111 A 
ATOM      9  C   UNL     1     -12.157  40.610  25.543  1.00  0.00     0.094 A 
ATOM     10  C   UNL     1     -14.735  39.511  25.736  1.00  0.00     0.134 A 
ATOM     11  C   UNL     1     -12.750  40.025  24.423  1.00  0.00     0.123 A 
ATOM     12  C   UNL     1     -14.035  39.478  24.521  1.00  0.00     0.093 A 
BRANCH   3  13
ATOM     13  C   UNL     1     -12.074  41.975  30.098  1.00  0.00     0.025 A 
ATOM     14  C   UNL     1     -12.025  43.375  30.224  1.00  0.00     0.016 A 
ATOM     15  C   UNL     1     -11.307  43.966  31.266  1.00  0.00     0.051 A 
ATOM     16  C   UNL     1     -10.614  43.169  32.187  1.00  0.00     0.157 A 
ATOM     17  C   UNL     1     -11.358  41.182  31.011  1.00  0.00     0.062 A 
ATOM     18  C   UNL     1     -10.636  41.775  32.057  1.00  0.00     0.158 A 
BRANCH  16  19
ATOM     19  O   UNL     1      -9.900  43.756  33.230  1.00  0.00    -0.504 OA
ATOM     20  H   UNL     1     -10.348  44.369  33.900  1.00  0.00     0.293 HD
ENDBRANCH  16  19
BRANCH  18  21
ATOM     21  O   UNL     1      -9.941  40.985  32.970  1.00  0.00    -0.504 OA
ATOM     22  H   UNL     1     -10.147  40.000  33.086  1.00  0.00     0.293 HD
ENDBRANCH  18  21
ENDBRANCH   3  13
BRANCH  10  23
ATOM     23  O   UNL     1     -16.014  38.958  25.804  1.00  0.00    -0.507 OA
ATOM     24  H   UNL     1     -16.347  38.485  26.635  1.00  0.00     0.293 HD
ENDBRANCH  10  23
BRANCH  11  25
ATOM     25  O   UNL     1     -12.056  39.994  23.215  1.00  0.00    -0.508 OA
ATOM     26  H   UNL     1     -11.253  40.589  23.050  1.00  0.00     0.293 HD
ENDBRANCH  11  25
ENDBRANCH   1   2
BRANCH   1  27
ATOM     27  C   UNL     1     -15.242  42.022  31.022  1.00  0.00     0.339 C 
ATOM     28  C   UNL     1     -15.251  41.895  32.552  1.00  0.00     0.214 C 
ATOM     29  O   UNL     1     -16.557  42.197  30.517  1.00  0.00    -0.332 OA
ATOM     30  C   UNL     1     -15.877  43.150  33.176  1.00  0.00     0.180 C 
ATOM     31  C   UNL     1     -17.167  43.391  30.990  1.00  0.00     0.179 C 
ATOM     32  C   UNL     1     -17.252  43.414  32.536  1.00  0.00     0.177 C 
BRANCH  28  33
ATOM     33  O   UNL     1     -13.932  41.738  33.009  1.00  0.00    -0.384 OA
ATOM     34  H   UNL     1     -13.351  41.705  32.203  1.00  0.00     0.211 HD
ENDBRANCH  28  33
BRANCH  30  35
ATOM     35  O   UNL     1     -16.024  42.951  34.558  1.00  0.00    -0.387 OA
ATOM     36  H   UNL     1     -15.135  42.681  34.909  1.00  0.00     0.211 HD
ENDBRANCH  30  35
BRANCH  31  37
ATOM     37  C   UNL     1     -16.532  44.654  30.356  1.00  0.00     0.191 C 
BRANCH  37  38
ATOM     38  O   UNL     1     -17.497  45.651  30.151  1.00  0.00    -0.394 OA
ATOM     39  H   UNL     1     -18.080  45.655  30.954  1.00  0.00     0.210 HD
ENDBRANCH  37  38
ENDBRANCH  31  37
BRANCH  32  40
ATOM     40  O   UNL     1     -17.768  44.645  32.976  1.00  0.00    -0.387 OA
ATOM     41  H   UNL     1     -18.393  44.449  33.723  1.00  0.00     0.211 HD
ENDBRANCH  32  40
ENDBRANCH   1  27
TORSDOF 12
ENDMDL
MODEL 7
REMARK VINA RESULT:    -7.561      1.926      5.688
REMARK INTER + INTRA:         -12.232
REMARK INTER:                 -10.971
REMARK INTRA:                  -1.261
REMARK UNBOUND:                -1.134
REMARK SMILES O=c1c(O[C@H]2O[C@H](CO)[C@H](O)[C@@H](O)[C@@H]2O)c(-c2ccc(O)c(O)c2)oc2cc(O)cc(O)c12
REMARK SMILES IDX 4 1 3 2 16 3 25 4 2 5 26 6 1 7 33 8 27 9 31 10 28 11 30 12
REMARK SMILES IDX 17 13 18 14 19 15 20 16 24 17 22 18 21 19 23 21 32 23 29 25
REMARK SMILES IDX 5 27 14 28 6 29 12 30 7 31 10 32 15 33 13 35 8 37 9 38 11 40
REMARK H PARENT 21 20 23 22 32 24 29 26 15 34 13 36 9 39 11 41
REMARK Flexibility Score: inf
ROOT
ATOM      1  O   UNL     1     -13.659  41.201  31.359  1.00  0.00    -0.454 OA
ENDROOT
BRANCH   1   2
ATOM      2  C   UNL     1     -14.903  41.782  31.625  1.00  0.00     0.214 A 
ATOM      3  C   UNL     1     -16.063  41.299  30.990  1.00  0.00     0.180 A 
ATOM      4  O   UNL     1     -17.247  41.825  31.290  1.00  0.00    -0.452 OA
ATOM      5  C   UNL     1     -15.017  42.842  32.535  1.00  0.00     0.239 A 
ATOM      6  C   UNL     1     -17.404  42.821  32.156  1.00  0.00     0.146 A 
ATOM      7  O   UNL     1     -13.978  43.304  33.081  1.00  0.00    -0.285 OA
ATOM      8  C   UNL     1     -16.288  43.382  32.818  1.00  0.00     0.111 A 
ATOM      9  C   UNL     1     -18.690  43.313  32.401  1.00  0.00     0.094 A 
ATOM     10  C   UNL     1     -16.490  44.449  33.727  1.00  0.00     0.134 A 
ATOM     11  C   UNL     1     -18.885  44.365  33.297  1.00  0.00     0.123 A 
ATOM     12  C   UNL     1     -17.787  44.930  33.957  1.00  0.00     0.093 A 
BRANCH   3  13
ATOM     13  C   UNL     1     -16.015  40.186  30.016  1.00  0.00     0.025 A 
ATOM     14  C   UNL     1     -16.156  38.847  30.425  1.00  0.00     0.016 A 
ATOM     15  C   UNL     1     -16.109  37.813  29.486  1.00  0.00     0.051 A 
ATOM     16  C   UNL     1     -15.906  38.100  28.130  1.00  0.00     0.157 A 
ATOM     17  C   UNL     1     -15.789  40.465  28.658  1.00  0.00     0.062 A 
ATOM     18  C   UNL     1     -15.741  39.427  27.715  1.00  0.00     0.158 A 
BRANCH  16  19
ATOM     19  O   UNL     1     -15.863  37.071  27.191  1.00  0.00    -0.504 OA
ATOM     20  H   UNL     1     -15.413  37.193  26.292  1.00  0.00     0.293 HD
ENDBRANCH  16  19
BRANCH  18  21
ATOM     21  O   UNL     1     -15.533  39.709  26.367  1.00  0.00    -0.504 OA
ATOM     22  H   UNL     1     -14.709  40.205  26.049  1.00  0.00     0.293 HD
ENDBRANCH  18  21
ENDBRANCH   3  13
BRANCH  10  23
ATOM     23  O   UNL     1     -15.415  45.032  34.400  1.00  0.00    -0.507 OA
ATOM     24  H   UNL     1     -14.507  45.137  33.964  1.00  0.00     0.293 HD
ENDBRANCH  10  23
BRANCH  11  25
ATOM     25  O   UNL     1     -20.173  44.845  33.524  1.00  0.00    -0.508 OA
ATOM     26  H   UNL     1     -20.872  44.853  32.790  1.00  0.00     0.293 HD
ENDBRANCH  11  25
ENDBRANCH   1   2
BRANCH   1  27
ATOM     27  C   UNL     1     -12.746  41.753  30.415  1.00  0.00     0.339 C 
ATOM     28  C   UNL     1     -11.595  42.417  31.184  1.00  0.00     0.214 C 
ATOM     29  O   UNL     1     -13.440  42.701  29.618  1.00  0.00    -0.332 OA
ATOM     30  C   UNL     1     -10.618  43.072  30.197  1.00  0.00     0.180 C 
ATOM     31  C   UNL     1     -12.612  43.286  28.622  1.00  0.00     0.179 C 
ATOM     32  C   UNL     1     -11.390  44.005  29.248  1.00  0.00     0.177 C 
BRANCH  28  33
ATOM     33  O   UNL     1     -10.929  41.442  31.946  1.00  0.00    -0.384 OA
ATOM     34  H   UNL     1     -10.054  41.282  31.504  1.00  0.00     0.211 HD
ENDBRANCH  28  33
BRANCH  30  35
ATOM     35  O   UNL     1      -9.663  43.807  30.918  1.00  0.00    -0.387 OA
ATOM     36  H   UNL     1      -9.225  44.423  30.275  1.00  0.00     0.211 HD
ENDBRANCH  30  35
BRANCH  31  37
ATOM     37  C   UNL     1     -12.265  42.282  27.495  1.00  0.00     0.191 C 
BRANCH  37  38
ATOM     38  O   UNL     1     -13.401  41.973  26.732  1.00  0.00    -0.394 OA
ATOM     39  H   UNL     1     -13.499  42.696  26.059  1.00  0.00     0.210 HD
ENDBRANCH  37  38
ENDBRANCH  31  37
BRANCH  32  40
ATOM     40  O   UNL     1     -10.541  44.488  28.238  1.00  0.00    -0.387 OA
ATOM     41  H   UNL     1     -10.736  43.964  27.417  1.00  0.00     0.211 HD
ENDBRANCH  32  40
ENDBRANCH   1  27
TORSDOF 12
ENDMDL
MODEL 8
REMARK VINA RESULT:    -7.475      1.732      6.010
REMARK INTER + INTRA:         -12.105
REMARK INTER:                 -10.327
REMARK INTRA:                  -1.778
REMARK UNBOUND:                -1.134
REMARK SMILES O=c1c(O[C@H]2O[C@H](CO)[C@H](O)[C@@H](O)[C@@H]2O)c(-c2ccc(O)c(O)c2)oc2cc(O)cc(O)c12
REMARK SMILES IDX 4 1 3 2 16 3 25 4 2 5 26 6 1 7 33 8 27 9 31 10 28 11 30 12
REMARK SMILES IDX 17 13 18 14 19 15 20 16 24 17 22 18 21 19 23 21 32 23 29 25
REMARK SMILES IDX 5 27 14 28 6 29 12 30 7 31 10 32 15 33 13 35 8 37 9 38 11 40
REMARK H PARENT 21 20 23 22 32 24 29 26 15 34 13 36 9 39 11 41
REMARK Flexibility Score: inf
ROOT
ATOM      1  O   UNL     1     -14.447  42.921  29.524  1.00  0.00    -0.454 OA
ENDROOT
BRANCH   1   2
ATOM      2  C   UNL     1     -15.511  42.548  30.352  1.00  0.00     0.214 A 
ATOM      3  C   UNL     1     -15.889  41.196  30.457  1.00  0.00     0.180 A 
ATOM      4  O   UNL     1     -16.868  40.847  31.287  1.00  0.00    -0.452 OA
ATOM      5  C   UNL     1     -16.207  43.509  31.097  1.00  0.00     0.239 A 
ATOM      6  C   UNL     1     -17.546  41.722  32.022  1.00  0.00     0.146 A 
ATOM      7  O   UNL     1     -15.898  44.726  30.981  1.00  0.00    -0.285 OA
ATOM      8  C   UNL     1     -17.248  43.103  31.957  1.00  0.00     0.111 A 
ATOM      9  C   UNL     1     -18.565  41.260  32.862  1.00  0.00     0.094 A 
ATOM     10  C   UNL     1     -17.997  44.009  32.747  1.00  0.00     0.134 A 
ATOM     11  C   UNL     1     -19.302  42.156  33.638  1.00  0.00     0.123 A 
ATOM     12  C   UNL     1     -19.017  43.525  33.579  1.00  0.00     0.093 A 
BRANCH   3  13
ATOM     13  C   UNL     1     -15.199  40.130  29.697  1.00  0.00     0.025 A 
ATOM     14  C   UNL     1     -15.512  39.869  28.351  1.00  0.00     0.016 A 
ATOM     15  C   UNL     1     -14.845  38.858  27.654  1.00  0.00     0.051 A 
ATOM     16  C   UNL     1     -13.869  38.084  28.295  1.00  0.00     0.157 A 
ATOM     17  C   UNL     1     -14.236  39.335  30.340  1.00  0.00     0.062 A 
ATOM     18  C   UNL     1     -13.567  38.319  29.641  1.00  0.00     0.158 A 
BRANCH  16  19
ATOM     19  O   UNL     1     -13.200  37.077  27.601  1.00  0.00    -0.504 OA
ATOM     20  H   UNL     1     -12.233  37.182  27.318  1.00  0.00     0.293 HD
ENDBRANCH  16  19
BRANCH  18  21
ATOM     21  O   UNL     1     -12.601  37.544  30.278  1.00  0.00    -0.504 OA
ATOM     22  H   UNL     1     -12.785  37.087  31.163  1.00  0.00     0.293 HD
ENDBRANCH  18  21
ENDBRANCH   3  13
BRANCH  10  23
ATOM     23  O   UNL     1     -17.736  45.379  32.710  1.00  0.00    -0.507 OA
ATOM     24  H   UNL     1     -17.955  45.985  33.491  1.00  0.00     0.293 HD
ENDBRANCH  10  23
BRANCH  11  25
ATOM     25  O   UNL     1     -20.316  41.676  34.463  1.00  0.00    -0.508 OA
ATOM     26  H   UNL     1     -21.294  41.826  34.243  1.00  0.00     0.293 HD
ENDBRANCH  11  25
ENDBRANCH   1   2
BRANCH   1  27
ATOM     27  C   UNL     1     -13.095  42.923  29.974  1.00  0.00     0.339 C 
ATOM     28  C   UNL     1     -12.527  44.339  29.795  1.00  0.00     0.214 C 
ATOM     29  O   UNL     1     -12.363  41.980  29.207  1.00  0.00    -0.332 OA
ATOM     30  C   UNL     1     -11.052  44.367  30.219  1.00  0.00     0.180 C 
ATOM     31  C   UNL     1     -11.002  41.892  29.606  1.00  0.00     0.179 C 
ATOM     32  C   UNL     1     -10.282  43.257  29.481  1.00  0.00     0.177 C 
BRANCH  28  33
ATOM     33  O   UNL     1     -13.270  45.235  30.581  1.00  0.00    -0.384 OA
ATOM     34  H   UNL     1     -13.684  45.889  29.957  1.00  0.00     0.211 HD
ENDBRANCH  28  33
BRANCH  30  35
ATOM     35  O   UNL     1     -10.507  45.621  29.899  1.00  0.00    -0.387 OA
ATOM     36  H   UNL     1      -9.623  45.455  29.479  1.00  0.00     0.211 HD
ENDBRANCH  30  35
BRANCH  31  37
ATOM     37  C   UNL     1     -10.847  41.203  30.985  1.00  0.00     0.191 C 
BRANCH  37  38
ATOM     38  O   UNL     1     -10.654  39.821  30.836  1.00  0.00    -0.394 OA
ATOM     39  H   UNL     1      -9.976  39.703  30.122  1.00  0.00     0.210 HD
ENDBRANCH  37  38
ENDBRANCH  31  37
BRANCH  32  40
ATOM     40  O   UNL     1      -8.969  43.161  29.973  1.00  0.00    -0.387 OA
ATOM     41  H   UNL     1      -9.034  42.886  30.925  1.00  0.00     0.211 HD
ENDBRANCH  32  40
ENDBRANCH   1  27
TORSDOF 12
ENDMDL
MODEL 9
REMARK VINA RESULT:    -7.370      2.285      5.096
REMARK INTER + INTRA:         -11.951
REMARK INTER:                 -10.820
REMARK INTRA:                  -1.130
REMARK UNBOUND:                -1.134
REMARK SMILES O=c1c(O[C@H]2O[C@H](CO)[C@H](O)[C@@H](O)[C@@H]2O)c(-c2ccc(O)c(O)c2)oc2cc(O)cc(O)c12
REMARK SMILES IDX 4 1 3 2 16 3 25 4 2 5 26 6 1 7 33 8 27 9 31 10 28 11 30 12
REMARK SMILES IDX 17 13 18 14 19 15 20 16 24 17 22 18 21 19 23 21 32 23 29 25
REMARK SMILES IDX 5 27 14 28 6 29 12 30 7 31 10 32 15 33 13 35 8 37 9 38 11 40
REMARK H PARENT 21 20 23 22 32 24 29 26 15 34 13 36 9 39 11 41
REMARK Flexibility Score: inf
ROOT
ATOM      1  O   UNL     1     -14.174  42.986  28.796  1.00  0.00    -0.454 OA
ENDROOT
BRANCH   1   2
ATOM      2  C   UNL     1     -14.450  41.652  28.481  1.00  0.00     0.214 A 
ATOM      3  C   UNL     1     -13.739  40.612  29.110  1.00  0.00     0.180 A 
ATOM      4  O   UNL     1     -14.045  39.346  28.840  1.00  0.00    -0.452 OA
ATOM      5  C   UNL     1     -15.444  41.329  27.547  1.00  0.00     0.239 A 
ATOM      6  C   UNL     1     -14.988  38.993  27.973  1.00  0.00     0.146 A 
ATOM      7  O   UNL     1     -16.060  42.255  26.953  1.00  0.00    -0.285 OA
ATOM      8  C   UNL     1     -15.732  39.975  27.278  1.00  0.00     0.111 A 
ATOM      9  C   UNL     1     -15.235  37.635  27.751  1.00  0.00     0.094 A 
ATOM     10  C   UNL     1     -16.723  39.564  26.354  1.00  0.00     0.134 A 
ATOM     11  C   UNL     1     -16.211  37.234  26.838  1.00  0.00     0.123 A 
ATOM     12  C   UNL     1     -16.952  38.196  26.142  1.00  0.00     0.093 A 
BRANCH   3  13
ATOM     13  C   UNL     1     -12.675  40.881  30.103  1.00  0.00     0.025 A 
ATOM     14  C   UNL     1     -12.927  40.816  31.485  1.00  0.00     0.016 A 
ATOM     15  C   UNL     1     -11.905  41.072  32.402  1.00  0.00     0.051 A 
ATOM     16  C   UNL     1     -10.623  41.413  31.954  1.00  0.00     0.157 A 
ATOM     17  C   UNL     1     -11.393  41.246  29.659  1.00  0.00     0.062 A 
ATOM     18  C   UNL     1     -10.366  41.504  30.581  1.00  0.00     0.158 A 
BRANCH  16  19
ATOM     19  O   UNL     1      -9.600  41.666  32.867  1.00  0.00    -0.504 OA
ATOM     20  H   UNL     1      -8.961  42.441  32.744  1.00  0.00     0.293 HD
ENDBRANCH  16  19
BRANCH  18  21
ATOM     21  O   UNL     1      -9.092  41.850  30.137  1.00  0.00    -0.504 OA
ATOM     22  H   UNL     1      -8.832  41.782  29.160  1.00  0.00     0.293 HD
ENDBRANCH  18  21
ENDBRANCH   3  13
BRANCH  10  23
ATOM     23  O   UNL     1     -17.477  40.501  25.646  1.00  0.00    -0.507 OA
ATOM     24  H   UNL     1     -18.473  40.607  25.797  1.00  0.00     0.293 HD
ENDBRANCH  10  23
BRANCH  11  25
ATOM     25  O   UNL     1     -16.437  35.875  26.626  1.00  0.00    -0.508 OA
ATOM     26  H   UNL     1     -17.302  35.431  26.911  1.00  0.00     0.293 HD
ENDBRANCH  11  25
ENDBRANCH   1   2
BRANCH   1  27
ATOM     27  C   UNL     1     -14.805  43.659  29.881  1.00  0.00     0.339 C 
ATOM     28  C   UNL     1     -13.714  44.186  30.825  1.00  0.00     0.214 C 
ATOM     29  O   UNL     1     -15.655  42.740  30.549  1.00  0.00    -0.332 OA
ATOM     30  C   UNL     1     -14.359  44.871  32.038  1.00  0.00     0.180 C 
ATOM     31  C   UNL     1     -16.353  43.334  31.636  1.00  0.00     0.179 C 
ATOM     32  C   UNL     1     -15.378  43.918  32.688  1.00  0.00     0.177 C 
BRANCH  28  33
ATOM     33  O   UNL     1     -12.906  45.101  30.129  1.00  0.00    -0.384 OA
ATOM     34  H   UNL     1     -11.964  44.836  30.296  1.00  0.00     0.211 HD
ENDBRANCH  28  33
BRANCH  30  35
ATOM     35  O   UNL     1     -13.356  45.202  32.964  1.00  0.00    -0.387 OA
ATOM     36  H   UNL     1     -13.773  45.177  33.865  1.00  0.00     0.211 HD
ENDBRANCH  30  35
BRANCH  31  37
ATOM     37  C   UNL     1     -17.449  44.316  31.152  1.00  0.00     0.191 C 
BRANCH  37  38
ATOM     38  O   UNL     1     -18.692  43.674  31.060  1.00  0.00    -0.394 OA
ATOM     39  H   UNL     1     -19.351  44.365  30.786  1.00  0.00     0.210 HD
ENDBRANCH  37  38
ENDBRANCH  31  37
BRANCH  32  40
ATOM     40  O   UNL     1     -16.094  44.582  33.698  1.00  0.00    -0.387 OA
ATOM     41  H   UNL     1     -16.539  45.363  33.276  1.00  0.00     0.211 HD
ENDBRANCH  32  40
ENDBRANCH   1  27
TORSDOF 12
ENDMDL
