MODEL 1
REMARK VINA RESULT:     1.652      0.000      0.000
REMARK INTER + INTRA:           3.613
REMARK INTER:                   3.004
REMARK INTRA:                   0.609
REMARK UNBOUND:                 0.609
REMARK SMILES CCCCCCCCCCCCCCCC(=O)[O-]
REMARK SMILES IDX 9 1 10 2 11 3 12 4 13 5 14 6 15 7 16 8 17 9 18 10 8 11 7 12
REMARK SMILES IDX 6 13 5 14 4 15 3 16 2 17 1 18
REMARK H PARENT
REMARK Flexibility Score: inf
ROOT
ATOM      1  C   UNL     1     -16.635  33.542 -19.221  1.00  0.00     0.000 C 
ENDROOT
BRANCH   1   2
ATOM      2  C   UNL     1     -16.790  34.705 -20.217  1.00  0.00     0.000 C 
BRANCH   2   3
ATOM      3  C   UNL     1     -18.030  34.554 -21.114  1.00  0.00     0.000 C 
BRANCH   3   4
ATOM      4  C   UNL     1     -19.127  35.578 -20.789  1.00  0.00     0.000 C 
BRANCH   4   5
ATOM      5  C   UNL     1     -20.433  34.878 -20.395  1.00  0.00     0.000 C 
BRANCH   5   6
ATOM      6  C   UNL     1     -20.818  35.206 -18.944  1.00  0.00     0.006 C 
BRANCH   6   7
ATOM      7  C   UNL     1     -19.794  36.124 -18.265  1.00  0.00     0.053 C 
BRANCH   7   8
ATOM      8  C   UNL     1     -19.216  35.495 -17.033  1.00  0.00     0.041 C 
ATOM      9  O   UNL     1     -18.377  34.561 -17.132  1.00  0.00    -0.550 OA
ATOM     10  O   UNL     1     -19.628  35.920 -15.777  1.00  0.00    -0.550 OA
ENDBRANCH   7   8
ENDBRANCH   6   7
ENDBRANCH   5   6
ENDBRANCH   4   5
ENDBRANCH   3   4
ENDBRANCH   2   3
ENDBRANCH   1   2
BRANCH   1  11
ATOM     11  C   UNL     1     -15.326  32.761 -19.426  1.00  0.00     0.000 C 
BRANCH  11  12
ATOM     12  C   UNL     1     -14.203  33.237 -18.487  1.00  0.00    -0.000 C 
BRANCH  12  13
ATOM     13  C   UNL     1     -13.794  34.696 -18.749  1.00  0.00    -0.000 C 
BRANCH  13  14
ATOM     14  C   UNL     1     -14.816  35.706 -18.198  1.00  0.00    -0.000 C 
BRANCH  14  15
ATOM     15  C   UNL     1     -14.516  36.121 -16.748  1.00  0.00    -0.000 C 
BRANCH  15  16
ATOM     16  C   UNL     1     -13.673  35.075 -15.998  1.00  0.00    -0.000 C 
BRANCH  16  17
ATOM     17  C   UNL     1     -12.991  35.656 -14.749  1.00  0.00    -0.003 C 
ATOM     18  C   UNL     1     -12.873  34.641 -13.611  1.00  0.00     0.004 C 
ENDBRANCH  16  17
ENDBRANCH  15  16
ENDBRANCH  14  15
ENDBRANCH  13  14
ENDBRANCH  12  13
ENDBRANCH  11  12
ENDBRANCH   1  11
TORSDOF 14
ENDMDL
MODEL 2
REMARK VINA RESULT:     2.120      2.382      6.024
REMARK INTER + INTRA:           4.465
REMARK INTER:                   4.544
REMARK INTRA:                  -0.080
REMARK UNBOUND:                 0.609
REMARK SMILES CCCCCCCCCCCCCCCC(=O)[O-]
REMARK SMILES IDX 9 1 10 2 11 3 12 4 13 5 14 6 15 7 16 8 17 9 18 10 8 11 7 12
REMARK SMILES IDX 6 13 5 14 4 15 3 16 2 17 1 18
REMARK H PARENT
REMARK Flexibility Score: inf
ROOT
ATOM      1  C   UNL     1     -16.819  35.793 -19.427  1.00  0.00     0.000 C 
ENDROOT
BRANCH   1   2
ATOM      2  C   UNL     1     -17.025  34.962 -18.148  1.00  0.00     0.000 C 
BRANCH   2   3
ATOM      3  C   UNL     1     -15.939  33.890 -17.960  1.00  0.00     0.000 C 
BRANCH   3   4
ATOM      4  C   UNL     1     -14.655  34.200 -18.745  1.00  0.00     0.000 C 
BRANCH   4   5
ATOM      5  C   UNL     1     -13.816  35.262 -18.026  1.00  0.00     0.000 C 
BRANCH   5   6
ATOM      6  C   UNL     1     -14.277  35.438 -16.571  1.00  0.00     0.006 C 
BRANCH   6   7
ATOM      7  C   UNL     1     -13.211  36.119 -15.702  1.00  0.00     0.053 C 
BRANCH   7   8
ATOM      8  C   UNL     1     -13.042  35.424 -14.385  1.00  0.00     0.041 C 
ATOM      9  O   UNL     1     -13.362  34.213 -14.261  1.00  0.00    -0.550 OA
ATOM     10  O   UNL     1     -12.561  36.124 -13.287  1.00  0.00    -0.550 OA
ENDBRANCH   7   8
ENDBRANCH   6   7
ENDBRANCH   5   6
ENDBRANCH   4   5
ENDBRANCH   3   4
ENDBRANCH   2   3
ENDBRANCH   1   2
BRANCH   1  11
ATOM     11  C   UNL     1     -16.799  34.924 -20.697  1.00  0.00     0.000 C 
BRANCH  11  12
ATOM     12  C   UNL     1     -18.106  34.135 -20.893  1.00  0.00    -0.000 C 
BRANCH  12  13
ATOM     13  C   UNL     1     -19.325  35.053 -21.080  1.00  0.00    -0.000 C 
BRANCH  13  14
ATOM     14  C   UNL     1     -20.461  34.739 -20.091  1.00  0.00    -0.000 C 
BRANCH  14  15
ATOM     15  C   UNL     1     -21.090  36.006 -19.489  1.00  0.00    -0.000 C 
BRANCH  15  16
ATOM     16  C   UNL     1     -21.124  35.973 -17.951  1.00  0.00    -0.000 C 
BRANCH  16  17
ATOM     17  C   UNL     1     -19.723  36.082 -17.329  1.00  0.00    -0.003 C 
ATOM     18  C   UNL     1     -19.750  36.067 -15.800  1.00  0.00     0.004 C 
ENDBRANCH  16  17
ENDBRANCH  15  16
ENDBRANCH  14  15
ENDBRANCH  13  14
ENDBRANCH  12  13
ENDBRANCH  11  12
ENDBRANCH   1  11
TORSDOF 14
ENDMDL
MODEL 3
REMARK VINA RESULT:     2.230      2.117      3.700
REMARK INTER + INTRA:           4.664
REMARK INTER:                   3.997
REMARK INTRA:                   0.667
REMARK UNBOUND:                 0.609
REMARK SMILES CCCCCCCCCCCCCCCC(=O)[O-]
REMARK SMILES IDX 9 1 10 2 11 3 12 4 13 5 14 6 15 7 16 8 17 9 18 10 8 11 7 12
REMARK SMILES IDX 6 13 5 14 4 15 3 16 2 17 1 18
REMARK H PARENT
REMARK Flexibility Score: inf
ROOT
ATOM      1  C   UNL     1     -14.732  32.745 -18.834  1.00  0.00     0.000 C 
ENDROOT
BRANCH   1   2
ATOM      2  C   UNL     1     -15.539  32.616 -20.138  1.00  0.00     0.000 C 
BRANCH   2   3
ATOM      3  C   UNL     1     -16.959  33.194 -20.013  1.00  0.00     0.000 C 
BRANCH   3   4
ATOM      4  C   UNL     1     -17.134  34.512 -20.782  1.00  0.00     0.000 C 
BRANCH   4   5
ATOM      5  C   UNL     1     -18.608  34.756 -21.125  1.00  0.00     0.000 C 
BRANCH   5   6
ATOM      6  C   UNL     1     -19.244  35.755 -20.147  1.00  0.00     0.006 C 
BRANCH   6   7
ATOM      7  C   UNL     1     -20.739  35.486 -19.931  1.00  0.00     0.053 C 
BRANCH   7   8
ATOM      8  C   UNL     1     -20.970  34.205 -19.188  1.00  0.00     0.041 C 
ATOM      9  O   UNL     1     -21.086  33.120 -19.815  1.00  0.00    -0.550 OA
ATOM     10  O   UNL     1     -21.091  34.217 -17.804  1.00  0.00    -0.550 OA
ENDBRANCH   7   8
ENDBRANCH   6   7
ENDBRANCH   5   6
ENDBRANCH   4   5
ENDBRANCH   3   4
ENDBRANCH   2   3
ENDBRANCH   1   2
BRANCH   1  11
ATOM     11  C   UNL     1     -13.951  34.068 -18.754  1.00  0.00     0.000 C 
BRANCH  11  12
ATOM     12  C   UNL     1     -14.825  35.291 -19.085  1.00  0.00    -0.000 C 
BRANCH  12  13
ATOM     13  C   UNL     1     -15.534  35.860 -17.845  1.00  0.00    -0.000 C 
BRANCH  13  14
ATOM     14  C   UNL     1     -17.053  36.004 -18.044  1.00  0.00    -0.000 C 
BRANCH  14  15
ATOM     15  C   UNL     1     -17.864  35.218 -17.002  1.00  0.00    -0.000 C 
BRANCH  15  16
ATOM     16  C   UNL     1     -18.918  36.088 -16.295  1.00  0.00    -0.000 C 
BRANCH  16  17
ATOM     17  C   UNL     1     -19.874  35.261 -15.421  1.00  0.00    -0.003 C 
ATOM     18  C   UNL     1     -21.092  36.059 -14.955  1.00  0.00     0.004 C 
ENDBRANCH  16  17
ENDBRANCH  15  16
ENDBRANCH  14  15
ENDBRANCH  13  14
ENDBRANCH  12  13
ENDBRANCH  11  12
ENDBRANCH   1  11
TORSDOF 14
ENDMDL
MODEL 4
REMARK VINA RESULT:     3.028      1.784      2.952
REMARK INTER + INTRA:           6.115
REMARK INTER:                   6.018
REMARK INTRA:                   0.097
REMARK UNBOUND:                 0.609
REMARK SMILES CCCCCCCCCCCCCCCC(=O)[O-]
REMARK SMILES IDX 9 1 10 2 11 3 12 4 13 5 14 6 15 7 16 8 17 9 18 10 8 11 7 12
REMARK SMILES IDX 6 13 5 14 4 15 3 16 2 17 1 18
REMARK H PARENT
REMARK Flexibility Score: inf
ROOT
ATOM      1  C   UNL     1     -17.210  35.997 -19.289  1.00  0.00     0.000 C 
ENDROOT
BRANCH   1   2
ATOM      2  C   UNL     1     -17.031  35.248 -20.622  1.00  0.00     0.000 C 
BRANCH   2   3
ATOM      3  C   UNL     1     -18.310  34.516 -21.063  1.00  0.00     0.000 C 
BRANCH   3   4
ATOM      4  C   UNL     1     -19.589  35.181 -20.533  1.00  0.00     0.000 C 
BRANCH   4   5
ATOM      5  C   UNL     1     -20.480  34.162 -19.815  1.00  0.00     0.000 C 
BRANCH   5   6
ATOM      6  C   UNL     1     -21.076  34.758 -18.531  1.00  0.00     0.006 C 
BRANCH   6   7
ATOM      7  C   UNL     1     -20.308  35.998 -18.055  1.00  0.00     0.053 C 
BRANCH   7   8
ATOM      8  C   UNL     1     -20.059  35.963 -16.578  1.00  0.00     0.041 C 
ATOM      9  O   UNL     1     -18.894  36.122 -16.127  1.00  0.00    -0.550 OA
ATOM     10  O   UNL     1     -21.109  35.722 -15.701  1.00  0.00    -0.550 OA
ENDBRANCH   7   8
ENDBRANCH   6   7
ENDBRANCH   5   6
ENDBRANCH   4   5
ENDBRANCH   3   4
ENDBRANCH   2   3
ENDBRANCH   1   2
BRANCH   1  11
ATOM     11  C   UNL     1     -16.645  35.214 -18.092  1.00  0.00     0.000 C 
BRANCH  11  12
ATOM     12  C   UNL     1     -15.399  35.883 -17.485  1.00  0.00    -0.000 C 
BRANCH  12  13
ATOM     13  C   UNL     1     -14.142  35.677 -18.345  1.00  0.00    -0.000 C 
BRANCH  13  14
ATOM     14  C   UNL     1     -13.828  34.191 -18.591  1.00  0.00    -0.000 C 
BRANCH  14  15
ATOM     15  C   UNL     1     -14.851  33.515 -19.518  1.00  0.00    -0.000 C 
BRANCH  15  16
ATOM     16  C   UNL     1     -15.425  32.219 -18.917  1.00  0.00    -0.000 C 
BRANCH  16  17
ATOM     17  C   UNL     1     -14.549  30.993 -19.217  1.00  0.00    -0.003 C 
ATOM     18  C   UNL     1     -14.004  30.330 -17.952  1.00  0.00     0.004 C 
ENDBRANCH  16  17
ENDBRANCH  15  16
ENDBRANCH  14  15
ENDBRANCH  13  14
ENDBRANCH  12  13
ENDBRANCH  11  12
ENDBRANCH   1  11
TORSDOF 14
ENDMDL
MODEL 5
REMARK VINA RESULT:     3.560      1.918      2.861
REMARK INTER + INTRA:           7.083
REMARK INTER:                   7.838
REMARK INTRA:                  -0.755
REMARK UNBOUND:                 0.609
REMARK SMILES CCCCCCCCCCCCCCCC(=O)[O-]
REMARK SMILES IDX 9 1 10 2 11 3 12 4 13 5 14 6 15 7 16 8 17 9 18 10 8 11 7 12
REMARK SMILES IDX 6 13 5 14 4 15 3 16 2 17 1 18
REMARK H PARENT
REMARK Flexibility Score: inf
ROOT
ATOM      1  C   UNL     1     -15.132  33.716 -18.992  1.00  0.00     0.000 C 
ENDROOT
BRANCH   1   2
ATOM      2  C   UNL     1     -15.835  33.855 -20.353  1.00  0.00     0.000 C 
BRANCH   2   3
ATOM      3  C   UNL     1     -17.173  34.607 -20.252  1.00  0.00     0.000 C 
BRANCH   3   4
ATOM      4  C   UNL     1     -17.754  34.596 -18.830  1.00  0.00     0.000 C 
BRANCH   4   5
ATOM      5  C   UNL     1     -18.528  35.889 -18.544  1.00  0.00     0.000 C 
BRANCH   5   6
ATOM      6  C   UNL     1     -19.740  35.617 -17.640  1.00  0.00     0.006 C 
BRANCH   6   7
ATOM      7  C   UNL     1     -21.066  35.692 -18.409  1.00  0.00     0.053 C 
BRANCH   7   8
ATOM      8  C   UNL     1     -21.067  34.786 -19.603  1.00  0.00     0.041 C 
ATOM      9  O   UNL     1     -21.118  35.269 -20.765  1.00  0.00    -0.550 OA
ATOM     10  O   UNL     1     -21.044  33.409 -19.431  1.00  0.00    -0.550 OA
ENDBRANCH   7   8
ENDBRANCH   6   7
ENDBRANCH   5   6
ENDBRANCH   4   5
ENDBRANCH   3   4
ENDBRANCH   2   3
ENDBRANCH   1   2
BRANCH   1  11
ATOM     11  C   UNL     1     -14.239  34.925 -18.663  1.00  0.00     0.000 C 
BRANCH  11  12
ATOM     12  C   UNL     1     -14.787  35.762 -17.494  1.00  0.00    -0.000 C 
BRANCH  12  13
ATOM     13  C   UNL     1     -13.742  35.988 -16.390  1.00  0.00    -0.000 C 
BRANCH  13  14
ATOM     14  C   UNL     1     -13.646  34.803 -15.413  1.00  0.00    -0.000 C 
BRANCH  14  15
ATOM     15  C   UNL     1     -13.181  35.227 -14.010  1.00  0.00    -0.000 C 
BRANCH  15  16
ATOM     16  C   UNL     1     -11.761  35.818 -14.013  1.00  0.00    -0.000 C 
BRANCH  16  17
ATOM     17  C   UNL     1     -10.672  34.733 -14.035  1.00  0.00    -0.003 C 
ATOM     18  C   UNL     1      -9.377  35.178 -13.355  1.00  0.00     0.004 C 
ENDBRANCH  16  17
ENDBRANCH  15  16
ENDBRANCH  14  15
ENDBRANCH  13  14
ENDBRANCH  12  13
ENDBRANCH  11  12
ENDBRANCH   1  11
TORSDOF 14
ENDMDL
MODEL 6
REMARK VINA RESULT:     3.820      1.346      1.688
REMARK INTER + INTRA:           7.556
REMARK INTER:                   7.768
REMARK INTRA:                  -0.212
REMARK UNBOUND:                 0.609
REMARK SMILES CCCCCCCCCCCCCCCC(=O)[O-]
REMARK SMILES IDX 9 1 10 2 11 3 12 4 13 5 14 6 15 7 16 8 17 9 18 10 8 11 7 12
REMARK SMILES IDX 6 13 5 14 4 15 3 16 2 17 1 18
REMARK H PARENT
REMARK Flexibility Score: inf
ROOT
ATOM      1  C   UNL     1     -16.173  32.855 -18.975  1.00  0.00     0.000 C 
ENDROOT
BRANCH   1   2
ATOM      2  C   UNL     1     -17.253  33.891 -19.334  1.00  0.00     0.000 C 
BRANCH   2   3
ATOM      3  C   UNL     1     -17.261  34.241 -20.832  1.00  0.00     0.000 C 
BRANCH   3   4
ATOM      4  C   UNL     1     -17.474  35.740 -21.091  1.00  0.00     0.000 C 
BRANCH   4   5
ATOM      5  C   UNL     1     -18.968  36.084 -21.125  1.00  0.00     0.000 C 
BRANCH   5   6
ATOM      6  C   UNL     1     -19.591  35.975 -19.725  1.00  0.00     0.006 C 
BRANCH   6   7
ATOM      7  C   UNL     1     -20.972  35.306 -19.755  1.00  0.00     0.053 C 
BRANCH   7   8
ATOM      8  C   UNL     1     -21.038  34.130 -18.828  1.00  0.00     0.041 C 
ATOM      9  O   UNL     1     -21.123  32.962 -19.291  1.00  0.00    -0.550 OA
ATOM     10  O   UNL     1     -21.039  34.326 -17.454  1.00  0.00    -0.550 OA
ENDBRANCH   7   8
ENDBRANCH   6   7
ENDBRANCH   5   6
ENDBRANCH   4   5
ENDBRANCH   3   4
ENDBRANCH   2   3
ENDBRANCH   1   2
BRANCH   1  11
ATOM     11  C   UNL     1     -14.797  33.210 -19.566  1.00  0.00     0.000 C 
BRANCH  11  12
ATOM     12  C   UNL     1     -13.956  34.082 -18.617  1.00  0.00    -0.000 C 
BRANCH  12  13
ATOM     13  C   UNL     1     -14.212  35.584 -18.816  1.00  0.00    -0.000 C 
BRANCH  13  14
ATOM     14  C   UNL     1     -15.319  36.125 -17.894  1.00  0.00    -0.000 C 
BRANCH  14  15
ATOM     15  C   UNL     1     -14.934  36.067 -16.407  1.00  0.00    -0.000 C 
BRANCH  15  16
ATOM     16  C   UNL     1     -13.482  35.605 -16.192  1.00  0.00    -0.000 C 
BRANCH  16  17
ATOM     17  C   UNL     1     -12.945  35.983 -14.802  1.00  0.00    -0.003 C 
ATOM     18  C   UNL     1     -12.950  34.808 -13.824  1.00  0.00     0.004 C 
ENDBRANCH  16  17
ENDBRANCH  15  16
ENDBRANCH  14  15
ENDBRANCH  13  14
ENDBRANCH  12  13
ENDBRANCH  11  12
ENDBRANCH   1  11
TORSDOF 14
ENDMDL
MODEL 7
REMARK VINA RESULT:     4.424      2.101      3.206
REMARK INTER + INTRA:           8.654
REMARK INTER:                   8.983
REMARK INTRA:                  -0.329
REMARK UNBOUND:                 0.609
REMARK SMILES CCCCCCCCCCCCCCCC(=O)[O-]
REMARK SMILES IDX 9 1 10 2 11 3 12 4 13 5 14 6 15 7 16 8 17 9 18 10 8 11 7 12
REMARK SMILES IDX 6 13 5 14 4 15 3 16 2 17 1 18
REMARK H PARENT
REMARK Flexibility Score: inf
ROOT
ATOM      1  C   UNL     1     -16.510  35.584 -19.028  1.00  0.00     0.000 C 
ENDROOT
BRANCH   1   2
ATOM      2  C   UNL     1     -16.850  35.433 -20.521  1.00  0.00     0.000 C 
BRANCH   2   3
ATOM      3  C   UNL     1     -18.355  35.243 -20.768  1.00  0.00     0.000 C 
BRANCH   3   4
ATOM      4  C   UNL     1     -18.938  34.050 -19.996  1.00  0.00     0.000 C 
BRANCH   4   5
ATOM      5  C   UNL     1     -20.295  34.406 -19.377  1.00  0.00     0.000 C 
BRANCH   5   6
ATOM      6  C   UNL     1     -20.359  35.896 -19.010  1.00  0.00     0.006 C 
BRANCH   6   7
ATOM      7  C   UNL     1     -20.951  36.125 -17.613  1.00  0.00     0.053 C 
BRANCH   7   8
ATOM      8  C   UNL     1     -19.905  36.021 -16.544  1.00  0.00     0.041 C 
ATOM      9  O   UNL     1     -18.688  35.929 -16.854  1.00  0.00    -0.550 OA
ATOM     10  O   UNL     1     -20.279  35.991 -15.207  1.00  0.00    -0.550 OA
ENDBRANCH   7   8
ENDBRANCH   6   7
ENDBRANCH   5   6
ENDBRANCH   4   5
ENDBRANCH   3   4
ENDBRANCH   2   3
ENDBRANCH   1   2
BRANCH   1  11
ATOM     11  C   UNL     1     -15.044  35.235 -18.719  1.00  0.00     0.000 C 
BRANCH  11  12
ATOM     12  C   UNL     1     -14.594  33.928 -19.396  1.00  0.00    -0.000 C 
BRANCH  12  13
ATOM     13  C   UNL     1     -15.730  32.897 -19.498  1.00  0.00    -0.000 C 
BRANCH  13  14
ATOM     14  C   UNL     1     -15.264  31.467 -19.170  1.00  0.00    -0.000 C 
BRANCH  14  15
ATOM     15  C   UNL     1     -14.190  31.431 -18.070  1.00  0.00    -0.000 C 
BRANCH  15  16
ATOM     16  C   UNL     1     -13.630  30.017 -17.839  1.00  0.00    -0.000 C 
BRANCH  16  17
ATOM     17  C   UNL     1     -14.024  29.445 -16.468  1.00  0.00    -0.003 C 
ATOM     18  C   UNL     1     -12.850  28.792 -15.737  1.00  0.00     0.004 C 
ENDBRANCH  16  17
ENDBRANCH  15  16
ENDBRANCH  14  15
ENDBRANCH  13  14
ENDBRANCH  12  13
ENDBRANCH  11  12
ENDBRANCH   1  11
TORSDOF 14
ENDMDL
MODEL 8
REMARK VINA RESULT:     4.645      2.340      3.377
REMARK INTER + INTRA:           9.056
REMARK INTER:                   8.912
REMARK INTRA:                   0.144
REMARK UNBOUND:                 0.609
REMARK SMILES CCCCCCCCCCCCCCCC(=O)[O-]
REMARK SMILES IDX 9 1 10 2 11 3 12 4 13 5 14 6 15 7 16 8 17 9 18 10 8 11 7 12
REMARK SMILES IDX 6 13 5 14 4 15 3 16 2 17 1 18
REMARK H PARENT
REMARK Flexibility Score: inf
ROOT
ATOM      1  C   UNL     1     -16.707  34.268 -18.675  1.00  0.00     0.000 C 
ENDROOT
BRANCH   1   2
ATOM      2  C   UNL     1     -17.322  33.940 -20.047  1.00  0.00     0.000 C 
BRANCH   2   3
ATOM      3  C   UNL     1     -17.151  35.085 -21.059  1.00  0.00     0.000 C 
BRANCH   3   4
ATOM      4  C   UNL     1     -18.370  36.019 -21.112  1.00  0.00     0.000 C 
BRANCH   4   5
ATOM      5  C   UNL     1     -19.676  35.217 -21.124  1.00  0.00     0.000 C 
BRANCH   5   6
ATOM      6  C   UNL     1     -20.871  36.103 -20.740  1.00  0.00     0.006 C 
BRANCH   6   7
ATOM      7  C   UNL     1     -21.114  36.125 -19.225  1.00  0.00     0.053 C 
BRANCH   7   8
ATOM      8  C   UNL     1     -20.816  34.798 -18.596  1.00  0.00     0.041 C 
ATOM      9  O   UNL     1     -20.562  33.797 -19.316  1.00  0.00    -0.550 OA
ATOM     10  O   UNL     1     -20.852  34.660 -17.215  1.00  0.00    -0.550 OA
ENDBRANCH   7   8
ENDBRANCH   6   7
ENDBRANCH   5   6
ENDBRANCH   4   5
ENDBRANCH   3   4
ENDBRANCH   2   3
ENDBRANCH   1   2
BRANCH   1  11
ATOM     11  C   UNL     1     -15.456  35.157 -18.787  1.00  0.00     0.000 C 
BRANCH  11  12
ATOM     12  C   UNL     1     -14.161  34.337 -18.926  1.00  0.00    -0.000 C 
BRANCH  12  13
ATOM     13  C   UNL     1     -14.225  33.002 -18.167  1.00  0.00    -0.000 C 
BRANCH  13  14
ATOM     14  C   UNL     1     -14.492  31.804 -19.096  1.00  0.00    -0.000 C 
BRANCH  14  15
ATOM     15  C   UNL     1     -13.830  30.509 -18.598  1.00  0.00    -0.000 C 
BRANCH  15  16
ATOM     16  C   UNL     1     -14.028  30.288 -17.088  1.00  0.00    -0.000 C 
BRANCH  16  17
ATOM     17  C   UNL     1     -13.486  28.930 -16.617  1.00  0.00    -0.003 C 
ATOM     18  C   UNL     1     -13.553  28.759 -15.099  1.00  0.00     0.004 C 
ENDBRANCH  16  17
ENDBRANCH  15  16
ENDBRANCH  14  15
ENDBRANCH  13  14
ENDBRANCH  12  13
ENDBRANCH  11  12
ENDBRANCH   1  11
TORSDOF 14
ENDMDL
