MODEL 1
REMARK VINA RESULT:    -6.673      0.000      0.000
REMARK INTER + INTRA:         -11.678
REMARK INTER:                 -10.184
REMARK INTRA:                  -1.494
REMARK UNBOUND:                -1.494
REMARK SMILES CC(=O)CCC=C(C)CCC=C(C)CCC=C(C)C
REMARK SMILES IDX 10 1 11 2 12 3 13 4 14 5 15 6 16 7 18 8 17 9 19 10 9 11 7 12
REMARK SMILES IDX 6 13 8 14 5 15 4 16 2 17 3 18 1 19
REMARK H PARENT
REMARK Flexibility Score: inf
ROOT
ATOM      1  C   UNL     1     120.654 180.092 125.858  1.00  0.00     0.032 C 
ENDROOT
BRANCH   1   2
ATOM      2  C   UNL     1     120.861 179.382 127.173  1.00  0.00    -0.028 C 
ATOM      3  C   UNL     1     122.070 179.064 127.689  1.00  0.00    -0.077 C 
ATOM      4  C   UNL     1     123.353 179.336 126.939  1.00  0.00     0.039 C 
BRANCH   3   5
ATOM      5  C   UNL     1     122.130 178.372 129.034  1.00  0.00     0.034 C 
BRANCH   5   6
ATOM      6  C   UNL     1     121.688 176.907 128.921  1.00  0.00     0.032 C 
BRANCH   6   7
ATOM      7  C   UNL     1     120.424 176.676 129.709  1.00  0.00    -0.028 C 
ATOM      8  C   UNL     1     119.000 176.474 127.658  1.00  0.00     0.039 C 
ATOM      9  C   UNL     1     119.213 176.445 129.155  1.00  0.00    -0.080 C 
ATOM     10  C   UNL     1     118.045 176.170 130.065  1.00  0.00     0.039 C 
ENDBRANCH   6   7
ENDBRANCH   5   6
ENDBRANCH   3   5
ENDBRANCH   1   2
BRANCH   1  11
ATOM     11  C   UNL     1     119.960 179.177 124.843  1.00  0.00     0.034 C 
BRANCH  11  12
ATOM     12  C   UNL     1     120.922 178.775 123.747  1.00  0.00    -0.077 C 
ATOM     13  C   UNL     1     121.893 177.878 124.026  1.00  0.00    -0.028 C 
ATOM     14  C   UNL     1     120.770 179.384 122.375  1.00  0.00     0.039 C 
BRANCH  13  15
ATOM     15  C   UNL     1     122.984 177.471 123.065  1.00  0.00     0.035 C 
BRANCH  15  16
ATOM     16  C   UNL     1     124.232 176.977 123.811  1.00  0.00     0.079 C 
BRANCH  16  17
ATOM     17  C   UNL     1     125.499 177.348 123.081  1.00  0.00     0.130 C 
ATOM     18  O   UNL     1     126.265 178.164 123.578  1.00  0.00    -0.300 OA
ATOM     19  C   UNL     1     125.838 176.740 121.751  1.00  0.00     0.087 C 
ENDBRANCH  16  17
ENDBRANCH  15  16
ENDBRANCH  13  15
ENDBRANCH  11  12
ENDBRANCH   1  11
TORSDOF 9
ENDMDL
MODEL 2
REMARK VINA RESULT:    -6.516      2.481      5.894
REMARK INTER + INTRA:         -11.439
REMARK INTER:                  -9.672
REMARK INTRA:                  -1.767
REMARK UNBOUND:                -1.494
REMARK SMILES CC(=O)CCC=C(C)CCC=C(C)CCC=C(C)C
REMARK SMILES IDX 10 1 11 2 12 3 13 4 14 5 15 6 16 7 18 8 17 9 19 10 9 11 7 12
REMARK SMILES IDX 6 13 8 14 5 15 4 16 2 17 3 18 1 19
REMARK H PARENT
REMARK Flexibility Score: inf
ROOT
ATOM      1  C   UNL     1     123.275 178.907 130.029  1.00  0.00     0.032 C 
ENDROOT
BRANCH   1   2
ATOM      2  C   UNL     1     123.526 178.881 128.542  1.00  0.00    -0.028 C 
ATOM      3  C   UNL     1     122.560 178.969 127.600  1.00  0.00    -0.077 C 
ATOM      4  C   UNL     1     121.095 179.030 127.966  1.00  0.00     0.039 C 
BRANCH   3   5
ATOM      5  C   UNL     1     122.959 178.955 126.141  1.00  0.00     0.034 C 
BRANCH   5   6
ATOM      6  C   UNL     1     122.180 177.883 125.366  1.00  0.00     0.032 C 
BRANCH   6   7
ATOM      7  C   UNL     1     121.936 178.331 123.948  1.00  0.00    -0.028 C 
ATOM      8  C   UNL     1     119.743 179.407 124.504  1.00  0.00     0.039 C 
ATOM      9  C   UNL     1     120.861 179.048 123.551  1.00  0.00    -0.080 C 
ATOM     10  C   UNL     1     120.775 179.480 122.111  1.00  0.00     0.039 C 
ENDBRANCH   6   7
ENDBRANCH   5   6
ENDBRANCH   3   5
ENDBRANCH   1   2
BRANCH   1  11
ATOM     11  C   UNL     1     123.532 177.532 130.654  1.00  0.00     0.034 C 
BRANCH  11  12
ATOM     12  C   UNL     1     122.408 176.578 130.317  1.00  0.00    -0.077 C 
ATOM     13  C   UNL     1     122.577 175.699 129.304  1.00  0.00    -0.028 C 
ATOM     14  C   UNL     1     121.132 176.630 131.121  1.00  0.00     0.039 C 
BRANCH  13  15
ATOM     15  C   UNL     1     121.505 174.769 128.790  1.00  0.00     0.035 C 
BRANCH  15  16
ATOM     16  C   UNL     1     120.952 175.245 127.440  1.00  0.00     0.079 C 
BRANCH  16  17
ATOM     17  C   UNL     1     121.333 174.307 126.321  1.00  0.00     0.130 C 
ATOM     18  O   UNL     1     122.415 174.439 125.765  1.00  0.00    -0.300 OA
ATOM     19  C   UNL     1     120.404 173.217 125.870  1.00  0.00     0.087 C 
ENDBRANCH  16  17
ENDBRANCH  15  16
ENDBRANCH  13  15
ENDBRANCH  11  12
ENDBRANCH   1  11
TORSDOF 9
ENDMDL
MODEL 3
REMARK VINA RESULT:    -6.457      3.053      6.679
REMARK INTER + INTRA:         -11.348
REMARK INTER:                  -9.872
REMARK INTRA:                  -1.476
REMARK UNBOUND:                -1.494
REMARK SMILES CC(=O)CCC=C(C)CCC=C(C)CCC=C(C)C
REMARK SMILES IDX 10 1 11 2 12 3 13 4 14 5 15 6 16 7 18 8 17 9 19 10 9 11 7 12
REMARK SMILES IDX 6 13 8 14 5 15 4 16 2 17 3 18 1 19
REMARK H PARENT
REMARK Flexibility Score: inf
ROOT
ATOM      1  C   UNL     1     123.724 179.456 127.976  1.00  0.00     0.032 C 
ENDROOT
BRANCH   1   2
ATOM      2  C   UNL     1     123.082 178.980 126.697  1.00  0.00    -0.028 C 
ATOM      3  C   UNL     1     121.748 178.916 126.487  1.00  0.00    -0.077 C 
ATOM      4  C   UNL     1     120.754 179.258 127.573  1.00  0.00     0.039 C 
BRANCH   3   5
ATOM      5  C   UNL     1     121.242 178.443 125.142  1.00  0.00     0.034 C 
BRANCH   5   6
ATOM      6  C   UNL     1     120.583 179.590 124.366  1.00  0.00     0.032 C 
BRANCH   6   7
ATOM      7  C   UNL     1     119.399 179.085 123.581  1.00  0.00    -0.028 C 
ATOM      8  C   UNL     1     117.749 179.777 125.335  1.00  0.00     0.039 C 
ATOM      9  C   UNL     1     118.115 179.193 123.988  1.00  0.00    -0.080 C 
ATOM     10  C   UNL     1     117.026 178.697 123.074  1.00  0.00     0.039 C 
ENDBRANCH   6   7
ENDBRANCH   5   6
ENDBRANCH   3   5
ENDBRANCH   1   2
BRANCH   1  11
ATOM     11  C   UNL     1     124.121 178.272 128.866  1.00  0.00     0.034 C 
BRANCH  11  12
ATOM     12  C   UNL     1     123.131 178.104 129.998  1.00  0.00    -0.077 C 
ATOM     13  C   UNL     1     122.387 176.978 130.054  1.00  0.00    -0.028 C 
ATOM     14  C   UNL     1     123.005 179.195 131.032  1.00  0.00     0.039 C 
BRANCH  13  15
ATOM     15  C   UNL     1     121.289 176.728 131.060  1.00  0.00     0.035 C 
BRANCH  15  16
ATOM     16  C   UNL     1     120.466 175.485 130.691  1.00  0.00     0.079 C 
BRANCH  16  17
ATOM     17  C   UNL     1     119.355 175.820 129.727  1.00  0.00     0.130 C 
ATOM     18  O   UNL     1     119.543 175.696 128.524  1.00  0.00    -0.300 OA
ATOM     19  C   UNL     1     118.022 176.310 130.214  1.00  0.00     0.087 C 
ENDBRANCH  16  17
ENDBRANCH  15  16
ENDBRANCH  13  15
ENDBRANCH  11  12
ENDBRANCH   1  11
TORSDOF 9
ENDMDL
MODEL 4
REMARK VINA RESULT:    -6.412      2.928      4.976
REMARK INTER + INTRA:         -11.280
REMARK INTER:                  -8.960
REMARK INTRA:                  -2.320
REMARK UNBOUND:                -1.494
REMARK SMILES CC(=O)CCC=C(C)CCC=C(C)CCC=C(C)C
REMARK SMILES IDX 10 1 11 2 12 3 13 4 14 5 15 6 16 7 18 8 17 9 19 10 9 11 7 12
REMARK SMILES IDX 6 13 8 14 5 15 4 16 2 17 3 18 1 19
REMARK H PARENT
REMARK Flexibility Score: inf
ROOT
ATOM      1  C   UNL     1     120.483 180.091 125.524  1.00  0.00     0.032 C 
ENDROOT
BRANCH   1   2
ATOM      2  C   UNL     1     121.741 179.722 126.270  1.00  0.00    -0.028 C 
ATOM      3  C   UNL     1     122.478 178.615 126.027  1.00  0.00    -0.077 C 
ATOM      4  C   UNL     1     122.056 177.585 125.005  1.00  0.00     0.039 C 
BRANCH   3   5
ATOM      5  C   UNL     1     123.735 178.382 126.838  1.00  0.00     0.034 C 
BRANCH   5   6
ATOM      6  C   UNL     1     123.543 178.830 128.292  1.00  0.00     0.032 C 
BRANCH   6   7
ATOM      7  C   UNL     1     122.758 177.800 129.063  1.00  0.00    -0.028 C 
ATOM      8  C   UNL     1     122.600 179.231 131.113  1.00  0.00     0.039 C 
ATOM      9  C   UNL     1     122.296 177.979 130.321  1.00  0.00    -0.080 C 
ATOM     10  C   UNL     1     121.472 176.886 130.948  1.00  0.00     0.039 C 
ENDBRANCH   6   7
ENDBRANCH   5   6
ENDBRANCH   3   5
ENDBRANCH   1   2
BRANCH   1  11
ATOM     11  C   UNL     1     119.254 179.990 126.434  1.00  0.00     0.034 C 
BRANCH  11  12
ATOM     12  C   UNL     1     118.853 178.544 126.624  1.00  0.00    -0.077 C 
ATOM     13  C   UNL     1     119.228 177.904 127.753  1.00  0.00    -0.028 C 
ATOM     14  C   UNL     1     118.044 177.858 125.551  1.00  0.00     0.039 C 
BRANCH  13  15
ATOM     15  C   UNL     1     118.993 176.438 128.024  1.00  0.00     0.035 C 
BRANCH  15  16
ATOM     16  C   UNL     1     120.210 175.592 127.621  1.00  0.00     0.079 C 
BRANCH  16  17
ATOM     17  C   UNL     1     120.078 174.166 128.096  1.00  0.00     0.130 C 
ATOM     18  O   UNL     1     120.116 173.253 127.282  1.00  0.00    -0.300 OA
ATOM     19  C   UNL     1     119.892 173.844 129.551  1.00  0.00     0.087 C 
ENDBRANCH  16  17
ENDBRANCH  15  16
ENDBRANCH  13  15
ENDBRANCH  11  12
ENDBRANCH   1  11
TORSDOF 9
ENDMDL
MODEL 5
REMARK VINA RESULT:    -6.392      1.491      3.082
REMARK INTER + INTRA:         -11.249
REMARK INTER:                  -9.078
REMARK INTRA:                  -2.171
REMARK UNBOUND:                -1.494
REMARK SMILES CC(=O)CCC=C(C)CCC=C(C)CCC=C(C)C
REMARK SMILES IDX 10 1 11 2 12 3 13 4 14 5 15 6 16 7 18 8 17 9 19 10 9 11 7 12
REMARK SMILES IDX 6 13 8 14 5 15 4 16 2 17 3 18 1 19
REMARK H PARENT
REMARK Flexibility Score: inf
ROOT
ATOM      1  C   UNL     1     119.910 178.714 126.433  1.00  0.00     0.032 C 
ENDROOT
BRANCH   1   2
ATOM      2  C   UNL     1     119.351 178.119 127.701  1.00  0.00    -0.028 C 
ATOM      3  C   UNL     1     119.262 176.794 127.951  1.00  0.00    -0.077 C 
ATOM      4  C   UNL     1     119.659 175.761 126.922  1.00  0.00     0.039 C 
BRANCH   3   5
ATOM      5  C   UNL     1     118.702 176.337 129.281  1.00  0.00     0.034 C 
BRANCH   5   6
ATOM      6  C   UNL     1     119.777 175.634 130.120  1.00  0.00     0.032 C 
BRANCH   6   7
ATOM      7  C   UNL     1     120.737 176.643 130.698  1.00  0.00    -0.028 C 
ATOM      8  C   UNL     1     122.623 175.925 129.214  1.00  0.00     0.039 C 
ATOM      9  C   UNL     1     122.010 176.809 130.278  1.00  0.00    -0.080 C 
ATOM     10  C   UNL     1     122.840 177.898 130.906  1.00  0.00     0.039 C 
ENDBRANCH   6   7
ENDBRANCH   5   6
ENDBRANCH   3   5
ENDBRANCH   1   2
BRANCH   1  11
ATOM     11  C   UNL     1     121.268 179.378 126.688  1.00  0.00     0.034 C 
BRANCH  11  12
ATOM     12  C   UNL     1     122.387 178.526 126.132  1.00  0.00    -0.077 C 
ATOM     13  C   UNL     1     122.159 177.791 125.022  1.00  0.00    -0.028 C 
ATOM     14  C   UNL     1     123.726 178.525 126.828  1.00  0.00     0.039 C 
BRANCH  13  15
ATOM     15  C   UNL     1     123.145 176.817 124.423  1.00  0.00     0.035 C 
BRANCH  15  16
ATOM     16  C   UNL     1     123.526 177.215 122.990  1.00  0.00     0.079 C 
BRANCH  16  17
ATOM     17  C   UNL     1     125.022 177.223 122.793  1.00  0.00     0.130 C 
ATOM     18  O   UNL     1     125.493 176.850 121.727  1.00  0.00    -0.300 OA
ATOM     19  C   UNL     1     125.947 177.676 123.886  1.00  0.00     0.087 C 
ENDBRANCH  16  17
ENDBRANCH  15  16
ENDBRANCH  13  15
ENDBRANCH  11  12
ENDBRANCH   1  11
TORSDOF 9
ENDMDL
MODEL 6
REMARK VINA RESULT:    -6.381      2.910      5.255
REMARK INTER + INTRA:         -11.233
REMARK INTER:                  -8.904
REMARK INTRA:                  -2.329
REMARK UNBOUND:                -1.494
REMARK SMILES CC(=O)CCC=C(C)CCC=C(C)CCC=C(C)C
REMARK SMILES IDX 10 1 11 2 12 3 13 4 14 5 15 6 16 7 18 8 17 9 19 10 9 11 7 12
REMARK SMILES IDX 6 13 8 14 5 15 4 16 2 17 3 18 1 19
REMARK H PARENT
REMARK Flexibility Score: inf
ROOT
ATOM      1  C   UNL     1     121.016 174.889 128.741  1.00  0.00     0.032 C 
ENDROOT
BRANCH   1   2
ATOM      2  C   UNL     1     122.291 175.610 129.101  1.00  0.00    -0.028 C 
ATOM      3  C   UNL     1     122.440 176.408 130.183  1.00  0.00    -0.077 C 
ATOM      4  C   UNL     1     121.288 176.714 131.112  1.00  0.00     0.039 C 
BRANCH   3   5
ATOM      5  C   UNL     1     123.787 177.050 130.437  1.00  0.00     0.034 C 
BRANCH   5   6
ATOM      6  C   UNL     1     123.795 178.514 129.979  1.00  0.00     0.032 C 
BRANCH   6   7
ATOM      7  C   UNL     1     123.815 178.596 128.474  1.00  0.00    -0.028 C 
ATOM      8  C   UNL     1     121.413 179.293 128.328  1.00  0.00     0.039 C 
ATOM      9  C   UNL     1     122.762 178.978 127.719  1.00  0.00    -0.080 C 
ATOM     10  C   UNL     1     122.941 179.073 126.227  1.00  0.00     0.039 C 
ENDBRANCH   6   7
ENDBRANCH   5   6
ENDBRANCH   3   5
ENDBRANCH   1   2
BRANCH   1  11
ATOM     11  C   UNL     1     120.567 175.244 127.319  1.00  0.00     0.034 C 
BRANCH  11  12
ATOM     12  C   UNL     1     119.542 176.357 127.349  1.00  0.00    -0.077 C 
ATOM     13  C   UNL     1     119.427 177.169 126.276  1.00  0.00    -0.028 C 
ATOM     14  C   UNL     1     118.677 176.526 128.573  1.00  0.00     0.039 C 
BRANCH  13  15
ATOM     15  C   UNL     1     118.529 178.380 126.212  1.00  0.00     0.035 C 
BRANCH  15  16
ATOM     16  C   UNL     1     119.192 179.529 125.438  1.00  0.00     0.079 C 
BRANCH  16  17
ATOM     17  C   UNL     1     119.292 179.221 123.964  1.00  0.00     0.130 C 
ATOM     18  O   UNL     1     118.279 178.943 123.335  1.00  0.00    -0.300 OA
ATOM     19  C   UNL     1     120.614 179.243 123.253  1.00  0.00     0.087 C 
ENDBRANCH  16  17
ENDBRANCH  15  16
ENDBRANCH  13  15
ENDBRANCH  11  12
ENDBRANCH   1  11
TORSDOF 9
ENDMDL
MODEL 7
REMARK VINA RESULT:    -6.372      2.397      5.768
REMARK INTER + INTRA:         -11.218
REMARK INTER:                  -9.256
REMARK INTRA:                  -1.963
REMARK UNBOUND:                -1.494
REMARK SMILES CC(=O)CCC=C(C)CCC=C(C)CCC=C(C)C
REMARK SMILES IDX 10 1 11 2 12 3 13 4 14 5 15 6 16 7 18 8 17 9 19 10 9 11 7 12
REMARK SMILES IDX 6 13 8 14 5 15 4 16 2 17 3 18 1 19
REMARK H PARENT
REMARK Flexibility Score: inf
ROOT
ATOM      1  C   UNL     1     121.184 176.781 130.784  1.00  0.00     0.032 C 
ENDROOT
BRANCH   1   2
ATOM      2  C   UNL     1     121.789 177.828 129.882  1.00  0.00    -0.028 C 
ATOM      3  C   UNL     1     123.115 177.983 129.669  1.00  0.00    -0.077 C 
ATOM      4  C   UNL     1     124.141 177.142 130.393  1.00  0.00     0.039 C 
BRANCH   3   5
ATOM      5  C   UNL     1     123.581 179.061 128.716  1.00  0.00     0.034 C 
BRANCH   5   6
ATOM      6  C   UNL     1     122.768 179.037 127.415  1.00  0.00     0.032 C 
BRANCH   6   7
ATOM      7  C   UNL     1     123.659 178.720 126.242  1.00  0.00    -0.028 C 
ATOM      8  C   UNL     1     122.768 176.391 125.998  1.00  0.00     0.039 C 
ATOM      9  C   UNL     1     123.646 177.547 125.572  1.00  0.00    -0.080 C 
ATOM     10  C   UNL     1     124.551 177.389 124.378  1.00  0.00     0.039 C 
ENDBRANCH   6   7
ENDBRANCH   5   6
ENDBRANCH   3   5
ENDBRANCH   1   2
BRANCH   1  11
ATOM     11  C   UNL     1     120.638 175.603 129.969  1.00  0.00     0.034 C 
BRANCH  11  12
ATOM     12  C   UNL     1     119.509 176.058 129.072  1.00  0.00    -0.077 C 
ATOM     13  C   UNL     1     119.756 176.255 127.758  1.00  0.00    -0.028 C 
ATOM     14  C   UNL     1     118.139 176.275 129.665  1.00  0.00     0.039 C 
BRANCH  13  15
ATOM     15  C   UNL     1     118.757 176.811 126.773  1.00  0.00     0.035 C 
BRANCH  15  16
ATOM     16  C   UNL     1     118.915 178.330 126.612  1.00  0.00     0.079 C 
BRANCH  16  17
ATOM     17  C   UNL     1     119.026 178.726 125.160  1.00  0.00     0.130 C 
ATOM     18  O   UNL     1     118.011 178.843 124.487  1.00  0.00    -0.300 OA
ATOM     19  C   UNL     1     120.362 178.975 124.522  1.00  0.00     0.087 C 
ENDBRANCH  16  17
ENDBRANCH  15  16
ENDBRANCH  13  15
ENDBRANCH  11  12
ENDBRANCH   1  11
TORSDOF 9
ENDMDL
MODEL 8
REMARK VINA RESULT:    -6.360      3.538      7.471
REMARK INTER + INTRA:         -11.200
REMARK INTER:                  -9.691
REMARK INTRA:                  -1.509
REMARK UNBOUND:                -1.494
REMARK SMILES CC(=O)CCC=C(C)CCC=C(C)CCC=C(C)C
REMARK SMILES IDX 10 1 11 2 12 3 13 4 14 5 15 6 16 7 18 8 17 9 19 10 9 11 7 12
REMARK SMILES IDX 6 13 8 14 5 15 4 16 2 17 3 18 1 19
REMARK H PARENT
REMARK Flexibility Score: inf
ROOT
ATOM      1  C   UNL     1     121.721 176.816 129.377  1.00  0.00     0.032 C 
ENDROOT
BRANCH   1   2
ATOM      2  C   UNL     1     121.098 177.966 128.627  1.00  0.00    -0.028 C 
ATOM      3  C   UNL     1     120.298 177.831 127.545  1.00  0.00    -0.077 C 
ATOM      4  C   UNL     1     120.008 176.480 126.933  1.00  0.00     0.039 C 
BRANCH   3   5
ATOM      5  C   UNL     1     119.720 179.074 126.905  1.00  0.00     0.034 C 
BRANCH   5   6
ATOM      6  C   UNL     1     120.797 179.852 126.139  1.00  0.00     0.032 C 
BRANCH   6   7
ATOM      7  C   UNL     1     120.447 179.935 124.675  1.00  0.00    -0.028 C 
ATOM      8  C   UNL     1     121.946 178.026 124.052  1.00  0.00     0.039 C 
ATOM      9  C   UNL     1     120.929 179.098 123.729  1.00  0.00    -0.080 C 
ATOM     10  C   UNL     1     120.446 179.259 122.311  1.00  0.00     0.039 C 
ENDBRANCH   6   7
ENDBRANCH   5   6
ENDBRANCH   3   5
ENDBRANCH   1   2
BRANCH   1  11
ATOM     11  C   UNL     1     120.935 176.502 130.655  1.00  0.00     0.034 C 
BRANCH  11  12
ATOM     12  C   UNL     1     119.781 175.572 130.353  1.00  0.00    -0.077 C 
ATOM     13  C   UNL     1     120.040 174.273 130.089  1.00  0.00    -0.028 C 
ATOM     14  C   UNL     1     118.375 176.120 130.357  1.00  0.00     0.039 C 
BRANCH  13  15
ATOM     15  C   UNL     1     119.001 173.262 129.666  1.00  0.00     0.035 C 
BRANCH  15  16
ATOM     16  C   UNL     1     119.203 171.919 130.382  1.00  0.00     0.079 C 
BRANCH  16  17
ATOM     17  C   UNL     1     119.301 170.776 129.402  1.00  0.00     0.130 C 
ATOM     18  O   UNL     1     120.257 170.715 128.640  1.00  0.00    -0.300 OA
ATOM     19  C   UNL     1     118.244 169.712 129.339  1.00  0.00     0.087 C 
ENDBRANCH  16  17
ENDBRANCH  15  16
ENDBRANCH  13  15
ENDBRANCH  11  12
ENDBRANCH   1  11
TORSDOF 9
ENDMDL
MODEL 9
REMARK VINA RESULT:    -6.333      2.142      6.011
REMARK INTER + INTRA:         -11.160
REMARK INTER:                  -9.378
REMARK INTRA:                  -1.782
REMARK UNBOUND:                -1.494
REMARK SMILES CC(=O)CCC=C(C)CCC=C(C)CCC=C(C)C
REMARK SMILES IDX 10 1 11 2 12 3 13 4 14 5 15 6 16 7 18 8 17 9 19 10 9 11 7 12
REMARK SMILES IDX 6 13 8 14 5 15 4 16 2 17 3 18 1 19
REMARK H PARENT
REMARK Flexibility Score: inf
ROOT
ATOM      1  C   UNL     1     118.936 178.358 127.048  1.00  0.00     0.032 C 
ENDROOT
BRANCH   1   2
ATOM      2  C   UNL     1     120.355 178.828 127.248  1.00  0.00    -0.028 C 
ATOM      3  C   UNL     1     121.163 179.268 126.257  1.00  0.00    -0.077 C 
ATOM      4  C   UNL     1     120.726 179.260 124.811  1.00  0.00     0.039 C 
BRANCH   3   5
ATOM      5  C   UNL     1     122.560 179.734 126.607  1.00  0.00     0.034 C 
BRANCH   5   6
ATOM      6  C   UNL     1     123.492 178.542 126.859  1.00  0.00     0.032 C 
BRANCH   6   7
ATOM      7  C   UNL     1     124.145 178.102 125.574  1.00  0.00    -0.028 C 
ATOM      8  C   UNL     1     122.694 176.071 125.353  1.00  0.00     0.039 C 
ATOM      9  C   UNL     1     123.774 177.012 124.866  1.00  0.00    -0.080 C 
ATOM     10  C   UNL     1     124.476 176.724 123.565  1.00  0.00     0.039 C 
ENDBRANCH   6   7
ENDBRANCH   5   6
ENDBRANCH   3   5
ENDBRANCH   1   2
BRANCH   1  11
ATOM     11  C   UNL     1     118.834 176.836 127.198  1.00  0.00     0.034 C 
BRANCH  11  12
ATOM     12  C   UNL     1     119.248 176.412 128.590  1.00  0.00    -0.077 C 
ATOM     13  C   UNL     1     120.551 176.149 128.832  1.00  0.00    -0.028 C 
ATOM     14  C   UNL     1     118.199 176.297 129.667  1.00  0.00     0.039 C 
BRANCH  13  15
ATOM     15  C   UNL     1     121.088 175.613 130.137  1.00  0.00     0.035 C 
BRANCH  15  16
ATOM     16  C   UNL     1     121.442 176.750 131.106  1.00  0.00     0.079 C 
BRANCH  16  17
ATOM     17  C   UNL     1     122.641 177.533 130.631  1.00  0.00     0.130 C 
ATOM     18  O   UNL     1     123.694 176.949 130.411  1.00  0.00    -0.300 OA
ATOM     19  C   UNL     1     122.569 179.018 130.428  1.00  0.00     0.087 C 
ENDBRANCH  16  17
ENDBRANCH  15  16
ENDBRANCH  13  15
ENDBRANCH  11  12
ENDBRANCH   1  11
TORSDOF 9
ENDMDL
