MODEL 1
REMARK VINA RESULT:    -7.040      0.000      0.000
REMARK INTER + INTRA:         -14.640
REMARK INTER:                 -13.624
REMARK INTRA:                  -1.016
REMARK UNBOUND:                -1.016
REMARK SMILES CCCCCCCCCCCCCCCCCC(=O)[O-]
REMARK SMILES IDX 10 1 11 2 12 3 13 4 14 5 15 6 16 7 17 8 18 9 19 10 20 11
REMARK SMILES IDX 9 12 8 13 7 14 6 15 5 16 4 17 3 18 2 19 1 20
REMARK H PARENT
REMARK Flexibility Score: inf
ROOT
ATOM      1  C   UNL     1     -22.013 -20.492  30.643  1.00  0.00     0.000 C 
ENDROOT
BRANCH   1   2
ATOM      2  C   UNL     1     -21.649 -21.880  31.200  1.00  0.00     0.000 C 
BRANCH   2   3
ATOM      3  C   UNL     1     -22.885 -22.742  31.513  1.00  0.00     0.000 C 
BRANCH   3   4
ATOM      4  C   UNL     1     -22.871 -24.153  30.898  1.00  0.00     0.000 C 
BRANCH   4   5
ATOM      5  C   UNL     1     -22.258 -24.188  29.491  1.00  0.00     0.000 C 
BRANCH   5   6
ATOM      6  C   UNL     1     -23.135 -24.999  28.529  1.00  0.00     0.000 C 
BRANCH   6   7
ATOM      7  C   UNL     1     -24.474 -25.364  29.180  1.00  0.00     0.006 C 
BRANCH   7   8
ATOM      8  C   UNL     1     -24.750 -26.867  29.065  1.00  0.00     0.053 C 
BRANCH   8   9
ATOM      9  C   UNL     1     -25.427 -27.372  30.299  1.00  0.00     0.041 C 
ATOM     10  O   UNL     1     -25.282 -26.768  31.394  1.00  0.00    -0.550 OA
ATOM     11  O   UNL     1     -26.179 -28.539  30.250  1.00  0.00    -0.550 OA
ENDBRANCH   8   9
ENDBRANCH   7   8
ENDBRANCH   6   7
ENDBRANCH   5   6
ENDBRANCH   4   5
ENDBRANCH   3   4
ENDBRANCH   2   3
ENDBRANCH   1   2
BRANCH   1  12
ATOM     12  C   UNL     1     -21.688 -20.355  29.146  1.00  0.00     0.000 C 
BRANCH  12  13
ATOM     13  C   UNL     1     -20.754 -19.168  28.852  1.00  0.00    -0.000 C 
BRANCH  13  14
ATOM     14  C   UNL     1     -19.983 -18.700  30.097  1.00  0.00    -0.000 C 
BRANCH  14  15
ATOM     15  C   UNL     1     -19.329 -17.323  29.910  1.00  0.00    -0.000 C 
BRANCH  15  16
ATOM     16  C   UNL     1     -19.243 -16.954  28.420  1.00  0.00    -0.000 C 
BRANCH  16  17
ATOM     17  C   UNL     1     -18.122 -15.946  28.124  1.00  0.00    -0.000 C 
BRANCH  17  18
ATOM     18  C   UNL     1     -17.291 -16.331  26.887  1.00  0.00    -0.000 C 
BRANCH  18  19
ATOM     19  C   UNL     1     -17.496 -15.358  25.715  1.00  0.00    -0.003 C 
ATOM     20  C   UNL     1     -16.338 -15.382  24.719  1.00  0.00     0.004 C 
ENDBRANCH  18  19
ENDBRANCH  17  18
ENDBRANCH  16  17
ENDBRANCH  15  16
ENDBRANCH  14  15
ENDBRANCH  13  14
ENDBRANCH  12  13
ENDBRANCH   1  12
TORSDOF 16
ENDMDL
MODEL 2
REMARK VINA RESULT:    -7.038      4.626     10.665
REMARK INTER + INTRA:         -14.637
REMARK INTER:                 -13.729
REMARK INTRA:                  -0.908
REMARK UNBOUND:                -1.016
REMARK SMILES CCCCCCCCCCCCCCCCCC(=O)[O-]
REMARK SMILES IDX 10 1 11 2 12 3 13 4 14 5 15 6 16 7 17 8 18 9 19 10 20 11
REMARK SMILES IDX 9 12 8 13 7 14 6 15 5 16 4 17 3 18 2 19 1 20
REMARK H PARENT
REMARK Flexibility Score: inf
ROOT
ATOM      1  C   UNL     1     -22.266 -23.228  30.718  1.00  0.00     0.000 C 
ENDROOT
BRANCH   1   2
ATOM      2  C   UNL     1     -21.622 -21.995  31.377  1.00  0.00     0.000 C 
BRANCH   2   3
ATOM      3  C   UNL     1     -22.021 -20.674  30.695  1.00  0.00     0.000 C 
BRANCH   3   4
ATOM      4  C   UNL     1     -22.176 -20.749  29.165  1.00  0.00     0.000 C 
BRANCH   4   5
ATOM      5  C   UNL     1     -21.292 -19.737  28.422  1.00  0.00     0.000 C 
BRANCH   5   6
ATOM      6  C   UNL     1     -20.832 -18.615  29.361  1.00  0.00     0.000 C 
BRANCH   6   7
ATOM      7  C   UNL     1     -19.313 -18.420  29.283  1.00  0.00     0.006 C 
BRANCH   7   8
ATOM      8  C   UNL     1     -18.963 -17.113  28.566  1.00  0.00     0.053 C 
BRANCH   8   9
ATOM      9  C   UNL     1     -18.207 -16.201  29.479  1.00  0.00     0.041 C 
ATOM     10  O   UNL     1     -17.501 -15.272  29.005  1.00  0.00    -0.550 OA
ATOM     11  O   UNL     1     -18.242 -16.407  30.852  1.00  0.00    -0.550 OA
ENDBRANCH   8   9
ENDBRANCH   7   8
ENDBRANCH   6   7
ENDBRANCH   5   6
ENDBRANCH   4   5
ENDBRANCH   3   4
ENDBRANCH   2   3
ENDBRANCH   1   2
BRANCH   1  12
ATOM     12  C   UNL     1     -23.447 -23.780  31.532  1.00  0.00     0.000 C 
BRANCH  12  13
ATOM     13  C   UNL     1     -23.982 -25.108  30.968  1.00  0.00    -0.000 C 
BRANCH  13  14
ATOM     14  C   UNL     1     -23.621 -25.309  29.487  1.00  0.00    -0.000 C 
BRANCH  14  15
ATOM     15  C   UNL     1     -23.876 -26.744  29.002  1.00  0.00    -0.000 C 
BRANCH  15  16
ATOM     16  C   UNL     1     -25.267 -26.869  28.363  1.00  0.00    -0.000 C 
BRANCH  16  17
ATOM     17  C   UNL     1     -26.066 -28.062  28.912  1.00  0.00    -0.000 C 
BRANCH  17  18
ATOM     18  C   UNL     1     -26.862 -28.795  27.818  1.00  0.00    -0.000 C 
BRANCH  18  19
ATOM     19  C   UNL     1     -26.466 -28.347  26.403  1.00  0.00    -0.003 C 
ATOM     20  C   UNL     1     -27.310 -29.012  25.316  1.00  0.00     0.004 C 
ENDBRANCH  18  19
ENDBRANCH  17  18
ENDBRANCH  16  17
ENDBRANCH  15  16
ENDBRANCH  14  15
ENDBRANCH  13  14
ENDBRANCH  12  13
ENDBRANCH   1  12
TORSDOF 16
ENDMDL
MODEL 3
REMARK VINA RESULT:    -7.033      0.997      1.371
REMARK INTER + INTRA:         -14.627
REMARK INTER:                 -13.591
REMARK INTRA:                  -1.035
REMARK UNBOUND:                -1.016
REMARK SMILES CCCCCCCCCCCCCCCCCC(=O)[O-]
REMARK SMILES IDX 10 1 11 2 12 3 13 4 14 5 15 6 16 7 17 8 18 9 19 10 20 11
REMARK SMILES IDX 9 12 8 13 7 14 6 15 5 16 4 17 3 18 2 19 1 20
REMARK H PARENT
REMARK Flexibility Score: inf
ROOT
ATOM      1  C   UNL     1     -22.010 -20.803  29.174  1.00  0.00     0.000 C 
ENDROOT
BRANCH   1   2
ATOM      2  C   UNL     1     -22.029 -20.844  30.712  1.00  0.00     0.000 C 
BRANCH   2   3
ATOM      3  C   UNL     1     -21.887 -22.270  31.275  1.00  0.00     0.000 C 
BRANCH   3   4
ATOM      4  C   UNL     1     -23.186 -22.891  31.818  1.00  0.00     0.000 C 
BRANCH   4   5
ATOM      5  C   UNL     1     -23.475 -24.283  31.239  1.00  0.00     0.000 C 
BRANCH   5   6
ATOM      6  C   UNL     1     -22.589 -24.566  30.020  1.00  0.00     0.000 C 
BRANCH   6   7
ATOM      7  C   UNL     1     -23.426 -25.053  28.831  1.00  0.00     0.006 C 
BRANCH   7   8
ATOM      8  C   UNL     1     -23.800 -26.530  28.992  1.00  0.00     0.053 C 
BRANCH   8   9
ATOM      9  C   UNL     1     -25.287 -26.695  29.008  1.00  0.00     0.041 C 
ATOM     10  O   UNL     1     -26.036 -25.721  28.735  1.00  0.00    -0.550 OA
ATOM     11  O   UNL     1     -25.847 -27.913  29.374  1.00  0.00    -0.550 OA
ENDBRANCH   8   9
ENDBRANCH   7   8
ENDBRANCH   6   7
ENDBRANCH   5   6
ENDBRANCH   4   5
ENDBRANCH   3   4
ENDBRANCH   2   3
ENDBRANCH   1   2
BRANCH   1  12
ATOM     12  C   UNL     1     -21.222 -19.601  28.627  1.00  0.00     0.000 C 
BRANCH  12  13
ATOM     13  C   UNL     1     -20.790 -18.626  29.737  1.00  0.00    -0.000 C 
BRANCH  13  14
ATOM     14  C   UNL     1     -19.274 -18.373  29.745  1.00  0.00    -0.000 C 
BRANCH  14  15
ATOM     15  C   UNL     1     -18.883 -17.128  30.554  1.00  0.00    -0.000 C 
BRANCH  15  16
ATOM     16  C   UNL     1     -18.199 -16.084  29.658  1.00  0.00    -0.000 C 
BRANCH  16  17
ATOM     17  C   UNL     1     -18.364 -16.390  28.161  1.00  0.00    -0.000 C 
BRANCH  17  18
ATOM     18  C   UNL     1     -17.316 -15.673  27.291  1.00  0.00    -0.000 C 
BRANCH  18  19
ATOM     19  C   UNL     1     -17.650 -15.742  25.793  1.00  0.00    -0.003 C 
ATOM     20  C   UNL     1     -16.709 -14.893  24.939  1.00  0.00     0.004 C 
ENDBRANCH  18  19
ENDBRANCH  17  18
ENDBRANCH  16  17
ENDBRANCH  15  16
ENDBRANCH  14  15
ENDBRANCH  13  14
ENDBRANCH  12  13
ENDBRANCH   1  12
TORSDOF 16
ENDMDL
MODEL 4
REMARK VINA RESULT:    -6.909      4.510     10.488
REMARK INTER + INTRA:         -14.387
REMARK INTER:                 -13.314
REMARK INTRA:                  -1.073
REMARK UNBOUND:                -1.016
REMARK SMILES CCCCCCCCCCCCCCCCCC(=O)[O-]
REMARK SMILES IDX 10 1 11 2 12 3 13 4 14 5 15 6 16 7 17 8 18 9 19 10 20 11
REMARK SMILES IDX 9 12 8 13 7 14 6 15 5 16 4 17 3 18 2 19 1 20
REMARK H PARENT
REMARK Flexibility Score: inf
ROOT
ATOM      1  C   UNL     1     -23.070 -24.462  28.660  1.00  0.00     0.000 C 
ENDROOT
BRANCH   1   2
ATOM      2  C   UNL     1     -21.939 -23.480  29.015  1.00  0.00     0.000 C 
BRANCH   2   3
ATOM      3  C   UNL     1     -22.126 -22.094  28.373  1.00  0.00     0.000 C 
BRANCH   3   4
ATOM      4  C   UNL     1     -22.439 -20.953  29.358  1.00  0.00     0.000 C 
BRANCH   4   5
ATOM      5  C   UNL     1     -22.134 -21.321  30.818  1.00  0.00     0.000 C 
BRANCH   5   6
ATOM      6  C   UNL     1     -21.024 -20.430  31.389  1.00  0.00     0.000 C 
BRANCH   6   7
ATOM      7  C   UNL     1     -20.884 -19.137  30.577  1.00  0.00     0.006 C 
BRANCH   7   8
ATOM      8  C   UNL     1     -19.725 -18.282  31.101  1.00  0.00     0.053 C 
BRANCH   8   9
ATOM      9  C   UNL     1     -19.367 -17.220  30.109  1.00  0.00     0.041 C 
ATOM     10  O   UNL     1     -19.899 -17.213  28.968  1.00  0.00    -0.550 OA
ATOM     11  O   UNL     1     -18.409 -16.266  30.429  1.00  0.00    -0.550 OA
ENDBRANCH   8   9
ENDBRANCH   7   8
ENDBRANCH   6   7
ENDBRANCH   5   6
ENDBRANCH   4   5
ENDBRANCH   3   4
ENDBRANCH   2   3
ENDBRANCH   1   2
BRANCH   1  12
ATOM     12  C   UNL     1     -23.306 -25.510  29.760  1.00  0.00     0.000 C 
BRANCH  12  13
ATOM     13  C   UNL     1     -24.213 -24.988  30.888  1.00  0.00    -0.000 C 
BRANCH  13  14
ATOM     14  C   UNL     1     -25.381 -25.939  31.195  1.00  0.00    -0.000 C 
BRANCH  14  15
ATOM     15  C   UNL     1     -25.083 -27.393  30.801  1.00  0.00    -0.000 C 
BRANCH  15  16
ATOM     16  C   UNL     1     -26.171 -27.942  29.865  1.00  0.00    -0.000 C 
BRANCH  16  17
ATOM     17  C   UNL     1     -25.819 -27.766  28.380  1.00  0.00    -0.000 C 
BRANCH  17  18
ATOM     18  C   UNL     1     -26.550 -28.773  27.474  1.00  0.00    -0.000 C 
BRANCH  18  19
ATOM     19  C   UNL     1     -27.023 -28.142  26.155  1.00  0.00    -0.003 C 
ATOM     20  C   UNL     1     -27.197 -29.170  25.039  1.00  0.00     0.004 C 
ENDBRANCH  18  19
ENDBRANCH  17  18
ENDBRANCH  16  17
ENDBRANCH  15  16
ENDBRANCH  14  15
ENDBRANCH  13  14
ENDBRANCH  12  13
ENDBRANCH   1  12
TORSDOF 16
ENDMDL
MODEL 5
REMARK VINA RESULT:    -6.875      1.298      1.836
REMARK INTER + INTRA:         -14.322
REMARK INTER:                 -13.501
REMARK INTRA:                  -0.821
REMARK UNBOUND:                -1.016
REMARK SMILES CCCCCCCCCCCCCCCCCC(=O)[O-]
REMARK SMILES IDX 10 1 11 2 12 3 13 4 14 5 15 6 16 7 17 8 18 9 19 10 20 11
REMARK SMILES IDX 9 12 8 13 7 14 6 15 5 16 4 17 3 18 2 19 1 20
REMARK H PARENT
REMARK Flexibility Score: inf
ROOT
ATOM      1  C   UNL     1     -22.688 -21.252  30.406  1.00  0.00     0.000 C 
ENDROOT
BRANCH   1   2
ATOM      2  C   UNL     1     -21.977 -22.504  30.951  1.00  0.00     0.000 C 
BRANCH   2   3
ATOM      3  C   UNL     1     -22.726 -23.808  30.623  1.00  0.00     0.000 C 
BRANCH   3   4
ATOM      4  C   UNL     1     -22.715 -24.212  29.138  1.00  0.00     0.000 C 
BRANCH   4   5
ATOM      5  C   UNL     1     -23.454 -25.532  28.870  1.00  0.00     0.000 C 
BRANCH   5   6
ATOM      6  C   UNL     1     -24.170 -26.028  30.132  1.00  0.00     0.000 C 
BRANCH   6   7
ATOM      7  C   UNL     1     -25.374 -26.906  29.772  1.00  0.00     0.006 C 
BRANCH   7   8
ATOM      8  C   UNL     1     -25.368 -27.263  28.282  1.00  0.00     0.053 C 
BRANCH   8   9
ATOM      9  C   UNL     1     -26.385 -28.321  27.993  1.00  0.00     0.041 C 
ATOM     10  O   UNL     1     -26.843 -28.459  26.829  1.00  0.00    -0.550 OA
ATOM     11  O   UNL     1     -26.863 -29.125  29.021  1.00  0.00    -0.550 OA
ENDBRANCH   8   9
ENDBRANCH   7   8
ENDBRANCH   6   7
ENDBRANCH   5   6
ENDBRANCH   4   5
ENDBRANCH   3   4
ENDBRANCH   2   3
ENDBRANCH   1   2
BRANCH   1  12
ATOM     12  C   UNL     1     -21.700 -20.189  29.898  1.00  0.00     0.000 C 
BRANCH  12  13
ATOM     13  C   UNL     1     -20.789 -19.649  31.015  1.00  0.00    -0.000 C 
BRANCH  13  14
ATOM     14  C   UNL     1     -19.820 -18.566  30.516  1.00  0.00    -0.000 C 
BRANCH  14  15
ATOM     15  C   UNL     1     -20.382 -17.765  29.331  1.00  0.00    -0.000 C 
BRANCH  15  16
ATOM     16  C   UNL     1     -19.260 -17.348  28.369  1.00  0.00    -0.000 C 
BRANCH  16  17
ATOM     17  C   UNL     1     -18.324 -16.290  28.975  1.00  0.00    -0.000 C 
BRANCH  17  18
ATOM     18  C   UNL     1     -17.451 -15.594  27.916  1.00  0.00    -0.000 C 
BRANCH  18  19
ATOM     19  C   UNL     1     -17.908 -15.905  26.482  1.00  0.00    -0.003 C 
ATOM     20  C   UNL     1     -17.039 -15.225  25.425  1.00  0.00     0.004 C 
ENDBRANCH  18  19
ENDBRANCH  17  18
ENDBRANCH  16  17
ENDBRANCH  15  16
ENDBRANCH  14  15
ENDBRANCH  13  14
ENDBRANCH  12  13
ENDBRANCH   1  12
TORSDOF 16
ENDMDL
MODEL 6
REMARK VINA RESULT:    -6.757      2.432      3.991
REMARK INTER + INTRA:         -14.093
REMARK INTER:                 -13.365
REMARK INTRA:                  -0.728
REMARK UNBOUND:                -1.016
REMARK SMILES CCCCCCCCCCCCCCCCCC(=O)[O-]
REMARK SMILES IDX 10 1 11 2 12 3 13 4 14 5 15 6 16 7 17 8 18 9 19 10 20 11
REMARK SMILES IDX 9 12 8 13 7 14 6 15 5 16 4 17 3 18 2 19 1 20
REMARK H PARENT
REMARK Flexibility Score: inf
ROOT
ATOM      1  C   UNL     1     -21.972 -23.365  29.364  1.00  0.00     0.000 C 
ENDROOT
BRANCH   1   2
ATOM      2  C   UNL     1     -22.934 -24.318  28.634  1.00  0.00     0.000 C 
BRANCH   2   3
ATOM      3  C   UNL     1     -23.585 -25.348  29.574  1.00  0.00     0.000 C 
BRANCH   3   4
ATOM      4  C   UNL     1     -24.664 -26.234  28.926  1.00  0.00     0.000 C 
BRANCH   4   5
ATOM      5  C   UNL     1     -25.152 -27.359  29.850  1.00  0.00     0.000 C 
BRANCH   5   6
ATOM      6  C   UNL     1     -26.257 -28.183  29.179  1.00  0.00     0.000 C 
BRANCH   6   7
ATOM      7  C   UNL     1     -26.093 -28.184  27.654  1.00  0.00     0.006 C 
BRANCH   7   8
ATOM      8  C   UNL     1     -27.286 -28.865  26.974  1.00  0.00     0.053 C 
BRANCH   8   9
ATOM      9  C   UNL     1     -27.122 -28.845  25.487  1.00  0.00     0.041 C 
ATOM     10  O   UNL     1     -28.133 -28.793  24.739  1.00  0.00    -0.550 OA
ATOM     11  O   UNL     1     -25.854 -28.935  24.926  1.00  0.00    -0.550 OA
ENDBRANCH   8   9
ENDBRANCH   7   8
ENDBRANCH   6   7
ENDBRANCH   5   6
ENDBRANCH   4   5
ENDBRANCH   3   4
ENDBRANCH   2   3
ENDBRANCH   1   2
BRANCH   1  12
ATOM     12  C   UNL     1     -22.315 -23.211  30.855  1.00  0.00     0.000 C 
BRANCH  12  13
ATOM     13  C   UNL     1     -21.962 -21.815  31.400  1.00  0.00    -0.000 C 
BRANCH  13  14
ATOM     14  C   UNL     1     -22.229 -20.698  30.379  1.00  0.00    -0.000 C 
BRANCH  14  15
ATOM     15  C   UNL     1     -21.068 -19.697  30.274  1.00  0.00    -0.000 C 
BRANCH  15  16
ATOM     16  C   UNL     1     -20.860 -19.248  28.820  1.00  0.00    -0.000 C 
BRANCH  16  17
ATOM     17  C   UNL     1     -20.352 -17.802  28.714  1.00  0.00    -0.000 C 
BRANCH  17  18
ATOM     18  C   UNL     1     -18.820 -17.703  28.822  1.00  0.00    -0.000 C 
BRANCH  18  19
ATOM     19  C   UNL     1     -18.333 -16.254  28.980  1.00  0.00    -0.003 C 
ATOM     20  C   UNL     1     -17.573 -15.749  27.755  1.00  0.00     0.004 C 
ENDBRANCH  18  19
ENDBRANCH  17  18
ENDBRANCH  16  17
ENDBRANCH  15  16
ENDBRANCH  14  15
ENDBRANCH  13  14
ENDBRANCH  12  13
ENDBRANCH   1  12
TORSDOF 16
ENDMDL
MODEL 7
REMARK VINA RESULT:    -6.596      5.111     10.930
REMARK INTER + INTRA:         -13.781
REMARK INTER:                 -13.189
REMARK INTRA:                  -0.592
REMARK UNBOUND:                -1.016
REMARK SMILES CCCCCCCCCCCCCCCCCC(=O)[O-]
REMARK SMILES IDX 10 1 11 2 12 3 13 4 14 5 15 6 16 7 17 8 18 9 19 10 20 11
REMARK SMILES IDX 9 12 8 13 7 14 6 15 5 16 4 17 3 18 2 19 1 20
REMARK H PARENT
REMARK Flexibility Score: inf
ROOT
ATOM      1  C   UNL     1     -21.759 -20.505  30.379  1.00  0.00     0.000 C 
ENDROOT
BRANCH   1   2
ATOM      2  C   UNL     1     -21.280 -19.171  30.979  1.00  0.00     0.000 C 
BRANCH   2   3
ATOM      3  C   UNL     1     -19.748 -19.023  30.964  1.00  0.00     0.000 C 
BRANCH   3   4
ATOM      4  C   UNL     1     -19.230 -17.610  30.640  1.00  0.00     0.000 C 
BRANCH   4   5
ATOM      5  C   UNL     1     -19.507 -17.188  29.190  1.00  0.00     0.000 C 
BRANCH   5   6
ATOM      6  C   UNL     1     -18.198 -17.007  28.411  1.00  0.00     0.000 C 
BRANCH   6   7
ATOM      7  C   UNL     1     -18.357 -15.955  27.306  1.00  0.00     0.006 C 
BRANCH   7   8
ATOM      8  C   UNL     1     -17.003 -15.612  26.676  1.00  0.00     0.053 C 
BRANCH   8   9
ATOM      9  C   UNL     1     -17.126 -15.515  25.188  1.00  0.00     0.041 C 
ATOM     10  O   UNL     1     -18.214 -15.160  24.665  1.00  0.00    -0.550 OA
ATOM     11  O   UNL     1     -16.053 -15.866  24.378  1.00  0.00    -0.550 OA
ENDBRANCH   8   9
ENDBRANCH   7   8
ENDBRANCH   6   7
ENDBRANCH   5   6
ENDBRANCH   4   5
ENDBRANCH   3   4
ENDBRANCH   2   3
ENDBRANCH   1   2
BRANCH   1  12
ATOM     12  C   UNL     1     -21.535 -21.692  31.330  1.00  0.00     0.000 C 
BRANCH  12  13
ATOM     13  C   UNL     1     -22.378 -22.921  30.946  1.00  0.00    -0.000 C 
BRANCH  13  14
ATOM     14  C   UNL     1     -21.949 -23.536  29.605  1.00  0.00    -0.000 C 
BRANCH  14  15
ATOM     15  C   UNL     1     -23.072 -24.339  28.931  1.00  0.00    -0.000 C 
BRANCH  15  16
ATOM     16  C   UNL     1     -23.756 -25.277  29.938  1.00  0.00    -0.000 C 
BRANCH  16  17
ATOM     17  C   UNL     1     -25.072 -25.862  29.403  1.00  0.00    -0.000 C 
BRANCH  17  18
ATOM     18  C   UNL     1     -24.875 -27.213  28.693  1.00  0.00    -0.000 C 
BRANCH  18  19
ATOM     19  C   UNL     1     -26.088 -27.612  27.839  1.00  0.00    -0.003 C 
ATOM     20  C   UNL     1     -26.824 -28.831  28.391  1.00  0.00     0.004 C 
ENDBRANCH  18  19
ENDBRANCH  17  18
ENDBRANCH  16  17
ENDBRANCH  15  16
ENDBRANCH  14  15
ENDBRANCH  13  14
ENDBRANCH  12  13
ENDBRANCH   1  12
TORSDOF 16
ENDMDL
MODEL 8
REMARK VINA RESULT:    -6.518      4.918     10.725
REMARK INTER + INTRA:         -13.630
REMARK INTER:                 -12.795
REMARK INTRA:                  -0.835
REMARK UNBOUND:                -1.016
REMARK SMILES CCCCCCCCCCCCCCCCCC(=O)[O-]
REMARK SMILES IDX 10 1 11 2 12 3 13 4 14 5 15 6 16 7 17 8 18 9 19 10 20 11
REMARK SMILES IDX 9 12 8 13 7 14 6 15 5 16 4 17 3 18 2 19 1 20
REMARK H PARENT
REMARK Flexibility Score: inf
ROOT
ATOM      1  C   UNL     1     -22.377 -22.321  28.273  1.00  0.00     0.000 C 
ENDROOT
BRANCH   1   2
ATOM      2  C   UNL     1     -21.645 -21.113  28.884  1.00  0.00     0.000 C 
BRANCH   2   3
ATOM      3  C   UNL     1     -22.045 -20.847  30.347  1.00  0.00     0.000 C 
BRANCH   3   4
ATOM      4  C   UNL     1     -21.147 -19.849  31.099  1.00  0.00     0.000 C 
BRANCH   4   5
ATOM      5  C   UNL     1     -20.297 -18.981  30.160  1.00  0.00     0.000 C 
BRANCH   5   6
ATOM      6  C   UNL     1     -20.047 -17.595  30.768  1.00  0.00     0.000 C 
BRANCH   6   7
ATOM      7  C   UNL     1     -18.774 -16.963  30.192  1.00  0.00     0.006 C 
BRANCH   7   8
ATOM      8  C   UNL     1     -18.757 -17.059  28.663  1.00  0.00     0.053 C 
BRANCH   8   9
ATOM      9  C   UNL     1     -17.895 -15.984  28.080  1.00  0.00     0.041 C 
ATOM     10  O   UNL     1     -17.240 -15.218  28.834  1.00  0.00    -0.550 OA
ATOM     11  O   UNL     1     -17.854 -15.797  26.704  1.00  0.00    -0.550 OA
ENDBRANCH   8   9
ENDBRANCH   7   8
ENDBRANCH   6   7
ENDBRANCH   5   6
ENDBRANCH   4   5
ENDBRANCH   3   4
ENDBRANCH   2   3
ENDBRANCH   1   2
BRANCH   1  12
ATOM     12  C   UNL     1     -22.389 -23.538  29.212  1.00  0.00     0.000 C 
BRANCH  12  13
ATOM     13  C   UNL     1     -22.973 -24.794  28.541  1.00  0.00    -0.000 C 
BRANCH  13  14
ATOM     14  C   UNL     1     -23.540 -25.798  29.557  1.00  0.00    -0.000 C 
BRANCH  14  15
ATOM     15  C   UNL     1     -24.469 -25.139  30.589  1.00  0.00    -0.000 C 
BRANCH  15  16
ATOM     16  C   UNL     1     -25.565 -26.116  31.043  1.00  0.00    -0.000 C 
BRANCH  16  17
ATOM     17  C   UNL     1     -25.241 -27.576  30.688  1.00  0.00    -0.000 C 
BRANCH  17  18
ATOM     18  C   UNL     1     -26.278 -28.198  29.737  1.00  0.00    -0.000 C 
BRANCH  18  19
ATOM     19  C   UNL     1     -26.008 -27.853  28.265  1.00  0.00    -0.003 C 
ATOM     20  C   UNL     1     -26.833 -28.702  27.298  1.00  0.00     0.004 C 
ENDBRANCH  18  19
ENDBRANCH  17  18
ENDBRANCH  16  17
ENDBRANCH  15  16
ENDBRANCH  14  15
ENDBRANCH  13  14
ENDBRANCH  12  13
ENDBRANCH   1  12
TORSDOF 16
ENDMDL
MODEL 9
REMARK VINA RESULT:    -6.293      1.426      2.000
REMARK INTER + INTRA:         -13.194
REMARK INTER:                 -12.252
REMARK INTRA:                  -0.942
REMARK UNBOUND:                -1.016
REMARK SMILES CCCCCCCCCCCCCCCCCC(=O)[O-]
REMARK SMILES IDX 10 1 11 2 12 3 13 4 14 5 15 6 16 7 17 8 18 9 19 10 20 11
REMARK SMILES IDX 9 12 8 13 7 14 6 15 5 16 4 17 3 18 2 19 1 20
REMARK H PARENT
REMARK Flexibility Score: inf
ROOT
ATOM      1  C   UNL     1     -21.649 -20.193  29.935  1.00  0.00     0.000 C 
ENDROOT
BRANCH   1   2
ATOM      2  C   UNL     1     -22.577 -21.419  29.994  1.00  0.00     0.000 C 
BRANCH   2   3
ATOM      3  C   UNL     1     -22.083 -22.497  30.975  1.00  0.00     0.000 C 
BRANCH   3   4
ATOM      4  C   UNL     1     -22.320 -23.949  30.523  1.00  0.00     0.000 C 
BRANCH   4   5
ATOM      5  C   UNL     1     -23.324 -24.062  29.367  1.00  0.00     0.000 C 
BRANCH   5   6
ATOM      6  C   UNL     1     -22.965 -25.227  28.438  1.00  0.00     0.000 C 
BRANCH   6   7
ATOM      7  C   UNL     1     -23.836 -26.455  28.733  1.00  0.00     0.006 C 
BRANCH   7   8
ATOM      8  C   UNL     1     -25.243 -26.037  29.171  1.00  0.00     0.053 C 
BRANCH   8   9
ATOM      9  C   UNL     1     -25.524 -26.519  30.559  1.00  0.00     0.041 C 
ATOM     10  O   UNL     1     -25.836 -25.701  31.463  1.00  0.00    -0.550 OA
ATOM     11  O   UNL     1     -25.394 -27.868  30.865  1.00  0.00    -0.550 OA
ENDBRANCH   8   9
ENDBRANCH   7   8
ENDBRANCH   6   7
ENDBRANCH   5   6
ENDBRANCH   4   5
ENDBRANCH   3   4
ENDBRANCH   2   3
ENDBRANCH   1   2
BRANCH   1  12
ATOM     12  C   UNL     1     -20.904 -19.953  31.258  1.00  0.00     0.000 C 
BRANCH  12  13
ATOM     13  C   UNL     1     -20.302 -18.540  31.348  1.00  0.00    -0.000 C 
BRANCH  13  14
ATOM     14  C   UNL     1     -18.852 -18.482  30.840  1.00  0.00    -0.000 C 
BRANCH  14  15
ATOM     15  C   UNL     1     -18.760 -18.425  29.308  1.00  0.00    -0.000 C 
BRANCH  15  16
ATOM     16  C   UNL     1     -19.453 -17.166  28.763  1.00  0.00    -0.000 C 
BRANCH  16  17
ATOM     17  C   UNL     1     -18.599 -16.425  27.722  1.00  0.00    -0.000 C 
BRANCH  17  18
ATOM     18  C   UNL     1     -17.463 -15.607  28.362  1.00  0.00    -0.000 C 
BRANCH  18  19
ATOM     19  C   UNL     1     -17.833 -15.078  29.757  1.00  0.00    -0.003 C 
ATOM     20  C   UNL     1     -17.822 -13.552  29.831  1.00  0.00     0.004 C 
ENDBRANCH  18  19
ENDBRANCH  17  18
ENDBRANCH  16  17
ENDBRANCH  15  16
ENDBRANCH  14  15
ENDBRANCH  13  14
ENDBRANCH  12  13
ENDBRANCH   1  12
TORSDOF 16
ENDMDL
