MODEL 1
REMARK VINA RESULT:    -4.187      0.000      0.000
REMARK INTER + INTRA:          -5.439
REMARK INTER:                  -5.044
REMARK INTRA:                  -0.394
REMARK UNBOUND:                -0.394
REMARK SMILES O=c1c(O)c(-c2ccc(O)cc2O)oc2cc(O)cc(O)c12
REMARK SMILES IDX 5 1 3 2 2 3 1 4 22 5 20 6 19 7 17 8 16 9 15 10 14 11 6 12
REMARK SMILES IDX 8 13 7 14 9 15 11 16 12 17 10 18 13 20 4 22 21 24 18 26
REMARK H PARENT 10 19 13 21 4 23 21 25 18 27
REMARK Flexibility Score: inf
ROOT
ATOM      1  C   UNL     1       1.088  32.062   5.870  1.00  0.00     0.184 A 
ATOM      2  C   UNL     1       0.247  31.312   6.705  1.00  0.00     0.208 A 
ATOM      3  C   UNL     1       0.802  30.650   7.811  1.00  0.00     0.238 A 
ATOM      4  O   UNL     1       0.052  29.930   8.521  1.00  0.00    -0.285 OA
ATOM      5  C   UNL     1       2.186  30.771   8.083  1.00  0.00     0.111 A 
ATOM      6  C   UNL     1       2.848  30.177   9.199  1.00  0.00     0.134 A 
ATOM      7  C   UNL     1       4.242  30.262   9.300  1.00  0.00     0.093 A 
ATOM      8  C   UNL     1       4.991  30.976   8.360  1.00  0.00     0.123 A 
ATOM      9  C   UNL     1       4.348  31.609   7.300  1.00  0.00     0.094 A 
ATOM     10  C   UNL     1       2.963  31.510   7.151  1.00  0.00     0.146 A 
ATOM     11  O   UNL     1       2.391  32.117   6.118  1.00  0.00    -0.451 OA
ENDROOT
BRANCH   1  12
ATOM     12  C   UNL     1       0.557  32.800   4.703  1.00  0.00     0.063 A 
ATOM     13  C   UNL     1      -0.120  32.793   2.365  1.00  0.00     0.047 A 
ATOM     14  C   UNL     1       0.428  32.137   3.469  1.00  0.00     0.020 A 
ATOM     15  C   UNL     1      -0.556  34.117   2.480  1.00  0.00     0.119 A 
ATOM     16  C   UNL     1      -0.435  34.785   3.701  1.00  0.00     0.093 A 
ATOM     17  C   UNL     1       0.124  34.142   4.813  1.00  0.00     0.130 A 
BRANCH  15  18
ATOM     18  O   UNL     1      -1.111  34.779   1.386  1.00  0.00    -0.508 OA
ATOM     19  H   UNL     1      -1.173  35.790   1.355  1.00  0.00     0.293 HD
ENDBRANCH  15  18
BRANCH  17  20
ATOM     20  O   UNL     1       0.256  34.869   5.998  1.00  0.00    -0.507 OA
ATOM     21  H   UNL     1      -0.229  35.741   6.168  1.00  0.00     0.293 HD
ENDBRANCH  17  20
ENDBRANCH   1  12
BRANCH   2  22
ATOM     22  O   UNL     1      -1.116  31.213   6.414  1.00  0.00    -0.502 OA
ATOM     23  H   UNL     1      -1.751  30.654   6.971  1.00  0.00     0.293 HD
ENDBRANCH   2  22
BRANCH   6  24
ATOM     24  O   UNL     1       2.187  29.519  10.241  1.00  0.00    -0.507 OA
ATOM     25  H   UNL     1       1.230  29.204  10.206  1.00  0.00     0.293 HD
ENDBRANCH   6  24
BRANCH   8  26
ATOM     26  O   UNL     1       6.376  31.069   8.478  1.00  0.00    -0.508 OA
ATOM     27  H   UNL     1       6.879  31.894   8.171  1.00  0.00     0.293 HD
ENDBRANCH   8  26
TORSDOF 6
ENDMDL
MODEL 2
REMARK VINA RESULT:    -3.921      2.955      6.550
REMARK INTER + INTRA:          -5.117
REMARK INTER:                  -4.914
REMARK INTRA:                  -0.203
REMARK UNBOUND:                -0.394
REMARK SMILES O=c1c(O)c(-c2ccc(O)cc2O)oc2cc(O)cc(O)c12
REMARK SMILES IDX 5 1 3 2 2 3 1 4 22 5 20 6 19 7 17 8 16 9 15 10 14 11 6 12
REMARK SMILES IDX 8 13 7 14 9 15 11 16 12 17 10 18 13 20 4 22 21 24 18 26
REMARK H PARENT 10 19 13 21 4 23 21 25 18 27
REMARK Flexibility Score: inf
ROOT
ATOM      1  C   UNL     1       1.476  33.166   7.762  1.00  0.00     0.184 A 
ATOM      2  C   UNL     1       1.651  31.811   7.445  1.00  0.00     0.208 A 
ATOM      3  C   UNL     1       1.255  31.351   6.180  1.00  0.00     0.238 A 
ATOM      4  O   UNL     1       1.359  30.122   5.925  1.00  0.00    -0.285 OA
ATOM      5  C   UNL     1       0.716  32.260   5.237  1.00  0.00     0.111 A 
ATOM      6  C   UNL     1       0.319  31.912   3.911  1.00  0.00     0.134 A 
ATOM      7  C   UNL     1      -0.315  32.868   3.108  1.00  0.00     0.093 A 
ATOM      8  C   UNL     1      -0.508  34.176   3.560  1.00  0.00     0.123 A 
ATOM      9  C   UNL     1      -0.070  34.541   4.830  1.00  0.00     0.094 A 
ATOM     10  C   UNL     1       0.531  33.600   5.669  1.00  0.00     0.146 A 
ATOM     11  O   UNL     1       0.921  33.987   6.878  1.00  0.00    -0.451 OA
ENDROOT
BRANCH   1  12
ATOM     12  C   UNL     1       1.895  33.712   9.070  1.00  0.00     0.063 A 
ATOM     13  C   UNL     1       1.288  34.750  11.187  1.00  0.00     0.047 A 
ATOM     14  C   UNL     1       0.929  34.276   9.923  1.00  0.00     0.020 A 
ATOM     15  C   UNL     1       2.615  34.661  11.620  1.00  0.00     0.119 A 
ATOM     16  C   UNL     1       3.583  34.101  10.782  1.00  0.00     0.093 A 
ATOM     17  C   UNL     1       3.238  33.632   9.508  1.00  0.00     0.130 A 
BRANCH  15  18
ATOM     18  O   UNL     1       2.983  35.125  12.882  1.00  0.00    -0.508 OA
ATOM     19  H   UNL     1       3.718  34.678  13.416  1.00  0.00     0.293 HD
ENDBRANCH  15  18
BRANCH  17  20
ATOM     20  O   UNL     1       4.253  33.117   8.698  1.00  0.00    -0.507 OA
ATOM     21  H   UNL     1       4.598  33.592   7.874  1.00  0.00     0.293 HD
ENDBRANCH  17  20
ENDBRANCH   1  12
BRANCH   2  22
ATOM     22  O   UNL     1       2.190  30.937   8.394  1.00  0.00    -0.502 OA
ATOM     23  H   UNL     1       3.074  31.114   8.855  1.00  0.00     0.293 HD
ENDBRANCH   2  22
BRANCH   6  24
ATOM     24  O   UNL     1       0.545  30.661   3.330  1.00  0.00    -0.507 OA
ATOM     25  H   UNL     1       1.455  30.269   3.144  1.00  0.00     0.293 HD
ENDBRANCH   6  24
BRANCH   8  26
ATOM     26  O   UNL     1      -1.125  35.125   2.747  1.00  0.00    -0.508 OA
ATOM     27  H   UNL     1      -0.898  35.207   1.762  1.00  0.00     0.293 HD
ENDBRANCH   8  26
TORSDOF 6
ENDMDL
MODEL 3
REMARK VINA RESULT:    -3.799      1.758      2.226
REMARK INTER + INTRA:          -4.971
REMARK INTER:                  -4.975
REMARK INTRA:                   0.005
REMARK UNBOUND:                -0.394
REMARK SMILES O=c1c(O)c(-c2ccc(O)cc2O)oc2cc(O)cc(O)c12
REMARK SMILES IDX 5 1 3 2 2 3 1 4 22 5 20 6 19 7 17 8 16 9 15 10 14 11 6 12
REMARK SMILES IDX 8 13 7 14 9 15 11 16 12 17 10 18 13 20 4 22 21 24 18 26
REMARK H PARENT 10 19 13 21 4 23 21 25 18 27
REMARK Flexibility Score: inf
ROOT
ATOM      1  C   UNL     1       0.826  33.121   6.285  1.00  0.00     0.184 A 
ATOM      2  C   UNL     1       0.248  33.619   7.462  1.00  0.00     0.208 A 
ATOM      3  C   UNL     1       0.820  33.282   8.698  1.00  0.00     0.238 A 
ATOM      4  O   UNL     1       0.261  33.682   9.752  1.00  0.00    -0.285 OA
ATOM      5  C   UNL     1       1.983  32.474   8.737  1.00  0.00     0.111 A 
ATOM      6  C   UNL     1       2.672  32.103   9.932  1.00  0.00     0.134 A 
ATOM      7  C   UNL     1       3.740  31.200   9.859  1.00  0.00     0.093 A 
ATOM      8  C   UNL     1       4.184  30.705   8.630  1.00  0.00     0.123 A 
ATOM      9  C   UNL     1       3.555  31.107   7.455  1.00  0.00     0.094 A 
ATOM     10  C   UNL     1       2.464  31.978   7.497  1.00  0.00     0.146 A 
ATOM     11  O   UNL     1       1.885  32.324   6.353  1.00  0.00    -0.451 OA
ENDROOT
BRANCH   1  12
ATOM     12  C   UNL     1       0.279  33.462   4.954  1.00  0.00     0.063 A 
ATOM     13  C   UNL     1      -0.679  35.125   3.458  1.00  0.00     0.047 A 
ATOM     14  C   UNL     1      -0.208  34.760   4.721  1.00  0.00     0.020 A 
ATOM     15  C   UNL     1      -0.663  34.201   2.408  1.00  0.00     0.119 A 
ATOM     16  C   UNL     1      -0.179  32.908   2.628  1.00  0.00     0.093 A 
ATOM     17  C   UNL     1       0.286  32.527   3.892  1.00  0.00     0.130 A 
BRANCH  15  18
ATOM     18  O   UNL     1      -1.125  34.556   1.142  1.00  0.00    -0.508 OA
ATOM     19  H   UNL     1      -0.751  34.129   0.303  1.00  0.00     0.293 HD
ENDBRANCH  15  18
BRANCH  17  20
ATOM     20  O   UNL     1       0.724  31.212   4.064  1.00  0.00    -0.507 OA
ATOM     21  H   UNL     1       1.648  30.976   4.402  1.00  0.00     0.293 HD
ENDBRANCH  17  20
ENDBRANCH   1  12
BRANCH   2  22
ATOM     22  O   UNL     1      -0.898  34.417   7.392  1.00  0.00    -0.502 OA
ATOM     23  H   UNL     1      -0.890  35.400   7.635  1.00  0.00     0.293 HD
ENDBRANCH   2  22
BRANCH   6  24
ATOM     24  O   UNL     1       2.368  32.608  11.199  1.00  0.00    -0.507 OA
ATOM     25  H   UNL     1       1.454  32.581  11.625  1.00  0.00     0.293 HD
ENDBRANCH   6  24
BRANCH   8  26
ATOM     26  O   UNL     1       5.258  29.820   8.567  1.00  0.00    -0.508 OA
ATOM     27  H   UNL     1       5.839  29.633   9.376  1.00  0.00     0.293 HD
ENDBRANCH   8  26
TORSDOF 6
ENDMDL
MODEL 4
REMARK VINA RESULT:    -3.612      2.178      2.278
REMARK INTER + INTRA:          -4.745
REMARK INTER:                  -4.917
REMARK INTRA:                   0.172
REMARK UNBOUND:                -0.394
REMARK SMILES O=c1c(O)c(-c2ccc(O)cc2O)oc2cc(O)cc(O)c12
REMARK SMILES IDX 5 1 3 2 2 3 1 4 22 5 20 6 19 7 17 8 16 9 15 10 14 11 6 12
REMARK SMILES IDX 8 13 7 14 9 15 11 16 12 17 10 18 13 20 4 22 21 24 18 26
REMARK H PARENT 10 19 13 21 4 23 21 25 18 27
REMARK Flexibility Score: inf
ROOT
ATOM      1  C   UNL     1       1.168  32.583   6.399  1.00  0.00     0.184 A 
ATOM      2  C   UNL     1       1.383  31.229   6.695  1.00  0.00     0.208 A 
ATOM      3  C   UNL     1       1.903  30.881   7.951  1.00  0.00     0.238 A 
ATOM      4  O   UNL     1       2.150  29.670   8.188  1.00  0.00    -0.285 OA
ATOM      5  C   UNL     1       2.173  31.892   8.906  1.00  0.00     0.111 A 
ATOM      6  C   UNL     1       2.663  31.651  10.225  1.00  0.00     0.134 A 
ATOM      7  C   UNL     1       3.011  32.736  11.040  1.00  0.00     0.093 A 
ATOM      8  C   UNL     1       2.825  34.052  10.608  1.00  0.00     0.123 A 
ATOM      9  C   UNL     1       2.292  34.296   9.345  1.00  0.00     0.094 A 
ATOM     10  C   UNL     1       1.971  33.236   8.495  1.00  0.00     0.146 A 
ATOM     11  O   UNL     1       1.479  33.515   7.293  1.00  0.00    -0.451 OA
ENDROOT
BRANCH   1  12
ATOM     12  C   UNL     1       0.602  33.008   5.101  1.00  0.00     0.063 A 
ATOM     13  C   UNL     1       0.272  32.574   2.729  1.00  0.00     0.047 A 
ATOM     14  C   UNL     1       0.840  32.226   3.956  1.00  0.00     0.020 A 
ATOM     15  C   UNL     1      -0.548  33.702   2.628  1.00  0.00     0.119 A 
ATOM     16  C   UNL     1      -0.794  34.485   3.760  1.00  0.00     0.093 A 
ATOM     17  C   UNL     1      -0.221  34.154   4.994  1.00  0.00     0.130 A 
BRANCH  15  18
ATOM     18  O   UNL     1      -1.125  34.055   1.410  1.00  0.00    -0.508 OA
ATOM     19  H   UNL     1      -0.676  33.835   0.528  1.00  0.00     0.293 HD
ENDBRANCH  15  18
BRANCH  17  20
ATOM     20  O   UNL     1      -0.470  34.993   6.083  1.00  0.00    -0.507 OA
ATOM     21  H   UNL     1       0.208  35.167   6.813  1.00  0.00     0.293 HD
ENDBRANCH  17  20
ENDBRANCH   1  12
BRANCH   2  22
ATOM     22  O   UNL     1       1.103  30.253   5.735  1.00  0.00    -0.502 OA
ATOM     23  H   UNL     1       1.454  29.306   5.806  1.00  0.00     0.293 HD
ENDBRANCH   2  22
BRANCH   6  24
ATOM     24  O   UNL     1       2.802  30.379  10.787  1.00  0.00    -0.507 OA
ATOM     25  H   UNL     1       2.107  29.924  11.358  1.00  0.00     0.293 HD
ENDBRANCH   6  24
BRANCH   8  26
ATOM     26  O   UNL     1       3.158  35.124  11.432  1.00  0.00    -0.508 OA
ATOM     27  H   UNL     1       3.796  35.851  11.126  1.00  0.00     0.293 HD
ENDBRANCH   8  26
TORSDOF 6
ENDMDL
MODEL 5
REMARK VINA RESULT:    -1.988      2.465      3.091
REMARK INTER + INTRA:          -2.790
REMARK INTER:                  -3.253
REMARK INTRA:                   0.464
REMARK UNBOUND:                -0.394
REMARK SMILES O=c1c(O)c(-c2ccc(O)cc2O)oc2cc(O)cc(O)c12
REMARK SMILES IDX 5 1 3 2 2 3 1 4 22 5 20 6 19 7 17 8 16 9 15 10 14 11 6 12
REMARK SMILES IDX 8 13 7 14 9 15 11 16 12 17 10 18 13 20 4 22 21 24 18 26
REMARK H PARENT 10 19 13 21 4 23 21 25 18 27
REMARK Flexibility Score: inf
ROOT
ATOM      1  C   UNL     1       0.478  33.273   7.057  1.00  0.00     0.184 A 
ATOM      2  C   UNL     1      -0.034  34.236   7.938  1.00  0.00     0.208 A 
ATOM      3  C   UNL     1       0.440  34.271   9.259  1.00  0.00     0.238 A 
ATOM      4  O   UNL     1      -0.068  35.098  10.061  1.00  0.00    -0.285 OA
ATOM      5  C   UNL     1       1.443  33.360   9.670  1.00  0.00     0.111 A 
ATOM      6  C   UNL     1       2.027  33.332  10.973  1.00  0.00     0.134 A 
ATOM      7  C   UNL     1       2.922  32.308  11.305  1.00  0.00     0.093 A 
ATOM      8  C   UNL     1       3.305  31.350  10.362  1.00  0.00     0.123 A 
ATOM      9  C   UNL     1       2.786  31.405   9.071  1.00  0.00     0.094 A 
ATOM     10  C   UNL     1       1.862  32.391   8.721  1.00  0.00     0.146 A 
ATOM     11  O   UNL     1       1.381  32.398   7.483  1.00  0.00    -0.451 OA
ENDROOT
BRANCH   1  12
ATOM     12  C   UNL     1       0.033  33.203   5.648  1.00  0.00     0.063 A 
ATOM     13  C   UNL     1      -1.085  34.258   3.761  1.00  0.00     0.047 A 
ATOM     14  C   UNL     1      -0.699  34.274   5.103  1.00  0.00     0.020 A 
ATOM     15  C   UNL     1      -0.739  33.178   2.942  1.00  0.00     0.119 A 
ATOM     16  C   UNL     1      -0.010  32.110   3.473  1.00  0.00     0.093 A 
ATOM     17  C   UNL     1       0.374  32.108   4.820  1.00  0.00     0.130 A 
BRANCH  15  18
ATOM     18  O   UNL     1      -1.114  33.156   1.600  1.00  0.00    -0.508 OA
ATOM     19  H   UNL     1      -0.435  33.003   0.864  1.00  0.00     0.293 HD
ENDBRANCH  15  18
BRANCH  17  20
ATOM     20  O   UNL     1       1.068  30.998   5.306  1.00  0.00    -0.507 OA
ATOM     21  H   UNL     1       1.066  30.098   4.843  1.00  0.00     0.293 HD
ENDBRANCH  17  20
ENDBRANCH   1  12
BRANCH   2  22
ATOM     22  O   UNL     1      -1.021  35.125   7.503  1.00  0.00    -0.502 OA
ATOM     23  H   UNL     1      -1.787  35.419   8.097  1.00  0.00     0.293 HD
ENDBRANCH   2  22
BRANCH   6  24
ATOM     24  O   UNL     1       1.783  34.290  11.960  1.00  0.00    -0.507 OA
ATOM     25  H   UNL     1       1.458  35.228  11.783  1.00  0.00     0.293 HD
ENDBRANCH   6  24
BRANCH   8  26
ATOM     26  O   UNL     1       4.210  30.345  10.696  1.00  0.00    -0.508 OA
ATOM     27  H   UNL     1       4.293  30.002  11.647  1.00  0.00     0.293 HD
ENDBRANCH   8  26
TORSDOF 6
ENDMDL
