MODEL 1
REMARK VINA RESULT:    -4.136      0.000      0.000
REMARK INTER + INTRA:         -10.769
REMARK INTER:                  -7.762
REMARK INTRA:                  -3.006
REMARK UNBOUND:                -3.006
REMARK SMILES CCCCCCCCC=CCCCCCCCC(=O)[O-]
REMARK SMILES IDX 10 1 9 2 11 3 12 4 13 5 14 6 15 7 16 8 17 9 18 10 19 11
REMARK SMILES IDX 20 12 8 13 7 14 6 15 5 16 4 17 3 18 2 19 1 20
REMARK H PARENT
REMARK Flexibility Score: inf
ROOT
ATOM      1  C   UNL     1       3.387  13.854   4.203  1.00  0.00    -0.031 C 
ATOM      2  C   UNL     1       2.630  14.819   4.756  1.00  0.00    -0.031 C 
ENDROOT
BRANCH   1   3
ATOM      3  C   UNL     1       3.959  13.938   2.809  1.00  0.00     0.027 C 
BRANCH   3   4
ATOM      4  C   UNL     1       5.429  14.380   2.841  1.00  0.00     0.004 C 
BRANCH   4   5
ATOM      5  C   UNL     1       5.815  15.261   1.639  1.00  0.00     0.000 C 
BRANCH   5   6
ATOM      6  C   UNL     1       4.692  15.479   0.605  1.00  0.00     0.000 C 
BRANCH   6   7
ATOM      7  C   UNL     1       4.117  16.908   0.555  1.00  0.00     0.000 C 
BRANCH   7   8
ATOM      8  C   UNL     1       2.579  16.990   0.486  1.00  0.00     0.006 C 
BRANCH   8   9
ATOM      9  C   UNL     1       1.872  15.626   0.480  1.00  0.00     0.053 C 
BRANCH   9  10
ATOM     10  C   UNL     1       0.512  15.704  -0.145  1.00  0.00     0.041 C 
ATOM     11  O   UNL     1       0.057  16.810  -0.539  1.00  0.00    -0.550 OA
ATOM     12  O   UNL     1      -0.266  14.559  -0.259  1.00  0.00    -0.550 OA
ENDBRANCH   9  10
ENDBRANCH   8   9
ENDBRANCH   7   8
ENDBRANCH   6   7
ENDBRANCH   5   6
ENDBRANCH   4   5
ENDBRANCH   3   4
ENDBRANCH   1   3
BRANCH   2  13
ATOM     13  C   UNL     1       2.295  16.129   4.085  1.00  0.00     0.027 C 
BRANCH  13  14
ATOM     14  C   UNL     1       2.884  17.330   4.840  1.00  0.00     0.004 C 
BRANCH  14  15
ATOM     15  C   UNL     1       3.878  18.126   3.977  1.00  0.00     0.000 C 
BRANCH  15  16
ATOM     16  C   UNL     1       5.344  17.739   4.244  1.00  0.00     0.000 C 
BRANCH  16  17
ATOM     17  C   UNL     1       5.664  17.367   5.705  1.00  0.00    -0.000 C 
BRANCH  17  18
ATOM     18  C   UNL     1       6.384  16.016   5.894  1.00  0.00    -0.000 C 
BRANCH  18  19
ATOM     19  C   UNL     1       7.918  16.109   5.983  1.00  0.00    -0.003 C 
ATOM     20  C   UNL     1       8.629  15.120   5.060  1.00  0.00     0.004 C 
ENDBRANCH  18  19
ENDBRANCH  17  18
ENDBRANCH  16  17
ENDBRANCH  15  16
ENDBRANCH  14  15
ENDBRANCH  13  14
ENDBRANCH   2  13
TORSDOF 15
ENDMDL
MODEL 2
REMARK VINA RESULT:    -4.134      3.600      6.496
REMARK INTER + INTRA:         -10.765
REMARK INTER:                  -8.050
REMARK INTRA:                  -2.714
REMARK UNBOUND:                -3.006
REMARK SMILES CCCCCCCCC=CCCCCCCCC(=O)[O-]
REMARK SMILES IDX 10 1 9 2 11 3 12 4 13 5 14 6 15 7 16 8 17 9 18 10 19 11
REMARK SMILES IDX 20 12 8 13 7 14 6 15 5 16 4 17 3 18 2 19 1 20
REMARK H PARENT
REMARK Flexibility Score: inf
ROOT
ATOM      1  C   UNL     1       4.857  19.504   3.301  1.00  0.00    -0.031 C 
ATOM      2  C   UNL     1       4.087  19.104   2.272  1.00  0.00    -0.031 C 
ENDROOT
BRANCH   1   3
ATOM      3  C   UNL     1       5.358  18.573   4.379  1.00  0.00     0.027 C 
BRANCH   3   4
ATOM      4  C   UNL     1       4.485  18.668   5.638  1.00  0.00     0.004 C 
BRANCH   4   5
ATOM      5  C   UNL     1       3.850  17.320   6.027  1.00  0.00     0.000 C 
BRANCH   5   6
ATOM      6  C   UNL     1       4.652  16.494   7.051  1.00  0.00     0.000 C 
BRANCH   6   7
ATOM      7  C   UNL     1       5.771  15.618   6.453  1.00  0.00     0.000 C 
BRANCH   7   8
ATOM      8  C   UNL     1       7.206  16.074   6.787  1.00  0.00     0.006 C 
BRANCH   8   9
ATOM      9  C   UNL     1       8.120  16.233   5.562  1.00  0.00     0.053 C 
BRANCH   9  10
ATOM     10  C   UNL     1       8.818  14.953   5.215  1.00  0.00     0.041 C 
ATOM     11  O   UNL     1       9.597  14.411   6.042  1.00  0.00    -0.550 OA
ATOM     12  O   UNL     1       8.633  14.379   3.964  1.00  0.00    -0.550 OA
ENDBRANCH   9  10
ENDBRANCH   8   9
ENDBRANCH   7   8
ENDBRANCH   6   7
ENDBRANCH   5   6
ENDBRANCH   4   5
ENDBRANCH   3   4
ENDBRANCH   1   3
BRANCH   2  13
ATOM     13  C   UNL     1       3.665  17.675   2.029  1.00  0.00     0.027 C 
BRANCH  13  14
ATOM     14  C   UNL     1       4.201  17.136   0.694  1.00  0.00     0.004 C 
BRANCH  14  15
ATOM     15  C   UNL     1       4.812  15.732   0.841  1.00  0.00     0.000 C 
BRANCH  15  16
ATOM     16  C   UNL     1       5.689  15.590   2.098  1.00  0.00     0.000 C 
BRANCH  16  17
ATOM     17  C   UNL     1       5.301  14.433   3.037  1.00  0.00    -0.000 C 
BRANCH  17  18
ATOM     18  C   UNL     1       3.839  13.955   2.920  1.00  0.00    -0.000 C 
BRANCH  18  19
ATOM     19  C   UNL     1       2.886  14.525   3.986  1.00  0.00    -0.003 C 
ATOM     20  C   UNL     1       2.731  13.609   5.198  1.00  0.00     0.004 C 
ENDBRANCH  18  19
ENDBRANCH  17  18
ENDBRANCH  16  17
ENDBRANCH  15  16
ENDBRANCH  14  15
ENDBRANCH  13  14
ENDBRANCH   2  13
TORSDOF 15
ENDMDL
MODEL 3
REMARK VINA RESULT:    -4.130      3.526      6.510
REMARK INTER + INTRA:         -10.758
REMARK INTER:                  -7.579
REMARK INTRA:                  -3.179
REMARK UNBOUND:                -3.006
REMARK SMILES CCCCCCCCC=CCCCCCCCC(=O)[O-]
REMARK SMILES IDX 10 1 9 2 11 3 12 4 13 5 14 6 15 7 16 8 17 9 18 10 19 11
REMARK SMILES IDX 20 12 8 13 7 14 6 15 5 16 4 17 3 18 2 19 1 20
REMARK H PARENT
REMARK Flexibility Score: inf
ROOT
ATOM      1  C   UNL     1       2.471  14.942   4.861  1.00  0.00    -0.031 C 
ATOM      2  C   UNL     1       3.355  13.992   4.505  1.00  0.00    -0.031 C 
ENDROOT
BRANCH   1   3
ATOM      3  C   UNL     1       2.044  16.067   3.949  1.00  0.00     0.027 C 
BRANCH   3   4
ATOM      4  C   UNL     1       2.591  17.413   4.441  1.00  0.00     0.004 C 
BRANCH   4   5
ATOM      5  C   UNL     1       3.797  17.905   3.620  1.00  0.00     0.000 C 
BRANCH   5   6
ATOM      6  C   UNL     1       5.148  17.867   4.361  1.00  0.00     0.000 C 
BRANCH   6   7
ATOM      7  C   UNL     1       5.067  17.477   5.850  1.00  0.00     0.000 C 
BRANCH   7   8
ATOM      8  C   UNL     1       6.150  16.487   6.324  1.00  0.00     0.006 C 
BRANCH   8   9
ATOM      9  C   UNL     1       7.394  16.429   5.424  1.00  0.00     0.053 C 
BRANCH   9  10
ATOM     10  C   UNL     1       8.328  15.331   5.830  1.00  0.00     0.041 C 
ATOM     11  O   UNL     1       9.055  14.765   4.972  1.00  0.00    -0.550 OA
ATOM     12  O   UNL     1       8.369  14.909   7.153  1.00  0.00    -0.550 OA
ENDBRANCH   9  10
ENDBRANCH   8   9
ENDBRANCH   7   8
ENDBRANCH   6   7
ENDBRANCH   5   6
ENDBRANCH   4   5
ENDBRANCH   3   4
ENDBRANCH   1   3
BRANCH   2  13
ATOM     13  C   UNL     1       3.996  13.891   3.142  1.00  0.00     0.027 C 
BRANCH  13  14
ATOM     14  C   UNL     1       5.435  14.428   3.142  1.00  0.00     0.004 C 
BRANCH  14  15
ATOM     15  C   UNL     1       5.769  15.190   1.847  1.00  0.00     0.000 C 
BRANCH  15  16
ATOM     16  C   UNL     1       4.677  15.046   0.772  1.00  0.00     0.000 C 
BRANCH  16  17
ATOM     17  C   UNL     1       4.035  16.370   0.313  1.00  0.00    -0.000 C 
BRANCH  17  18
ATOM     18  C   UNL     1       2.504  16.447   0.478  1.00  0.00    -0.000 C 
BRANCH  18  19
ATOM     19  C   UNL     1       1.775  15.096   0.379  1.00  0.00    -0.003 C 
ATOM     20  C   UNL     1       0.302  15.240  -0.002  1.00  0.00     0.004 C 
ENDBRANCH  18  19
ENDBRANCH  17  18
ENDBRANCH  16  17
ENDBRANCH  15  16
ENDBRANCH  14  15
ENDBRANCH  13  14
ENDBRANCH   2  13
TORSDOF 15
ENDMDL
MODEL 4
REMARK VINA RESULT:    -3.987     10.295     12.693
REMARK INTER + INTRA:         -10.489
REMARK INTER:                  -8.609
REMARK INTRA:                  -1.879
REMARK UNBOUND:                -3.006
REMARK SMILES CCCCCCCCC=CCCCCCCCC(=O)[O-]
REMARK SMILES IDX 10 1 9 2 11 3 12 4 13 5 14 6 15 7 16 8 17 9 18 10 19 11
REMARK SMILES IDX 20 12 8 13 7 14 6 15 5 16 4 17 3 18 2 19 1 20
REMARK H PARENT
REMARK Flexibility Score: inf
ROOT
ATOM      1  C   UNL     1      10.126  12.131  -5.100  1.00  0.00    -0.031 C 
ATOM      2  C   UNL     1       9.821  10.980  -4.472  1.00  0.00    -0.031 C 
ENDROOT
BRANCH   1   3
ATOM      3  C   UNL     1      10.424  13.421  -4.376  1.00  0.00     0.027 C 
BRANCH   3   4
ATOM      4  C   UNL     1      11.358  14.315  -5.204  1.00  0.00     0.004 C 
BRANCH   4   5
ATOM      5  C   UNL     1      12.800  14.333  -4.667  1.00  0.00     0.000 C 
BRANCH   5   6
ATOM      6  C   UNL     1      13.603  13.041  -4.914  1.00  0.00     0.000 C 
BRANCH   6   7
ATOM      7  C   UNL     1      13.657  12.065  -3.721  1.00  0.00     0.000 C 
BRANCH   7   8
ATOM      8  C   UNL     1      14.057  12.703  -2.375  1.00  0.00     0.006 C 
BRANCH   8   9
ATOM      9  C   UNL     1      12.927  12.747  -1.334  1.00  0.00     0.053 C 
BRANCH   9  10
ATOM     10  C   UNL     1      13.213  11.860  -0.161  1.00  0.00     0.041 C 
ATOM     11  O   UNL     1      14.380  11.437   0.046  1.00  0.00    -0.550 OA
ATOM     12  O   UNL     1      12.180  11.473   0.683  1.00  0.00    -0.550 OA
ENDBRANCH   9  10
ENDBRANCH   8   9
ENDBRANCH   7   8
ENDBRANCH   6   7
ENDBRANCH   5   6
ENDBRANCH   4   5
ENDBRANCH   3   4
ENDBRANCH   1   3
BRANCH   2  13
ATOM     13  C   UNL     1       9.787  10.810  -2.973  1.00  0.00     0.027 C 
BRANCH  13  14
ATOM     14  C   UNL     1      10.890   9.864  -2.476  1.00  0.00     0.004 C 
BRANCH  14  15
ATOM     15  C   UNL     1      10.846   8.500  -3.185  1.00  0.00     0.000 C 
BRANCH  15  16
ATOM     16  C   UNL     1       9.606   7.670  -2.807  1.00  0.00     0.000 C 
BRANCH  16  17
ATOM     17  C   UNL     1       9.249   6.543  -3.795  1.00  0.00    -0.000 C 
BRANCH  17  18
ATOM     18  C   UNL     1       8.900   5.188  -3.146  1.00  0.00    -0.000 C 
BRANCH  18  19
ATOM     19  C   UNL     1       9.948   4.081  -3.361  1.00  0.00    -0.003 C 
ATOM     20  C   UNL     1      11.108   4.524  -4.251  1.00  0.00     0.004 C 
ENDBRANCH  18  19
ENDBRANCH  17  18
ENDBRANCH  16  17
ENDBRANCH  15  16
ENDBRANCH  14  15
ENDBRANCH  13  14
ENDBRANCH   2  13
TORSDOF 15
ENDMDL
MODEL 5
REMARK VINA RESULT:    -3.960      9.665     11.980
REMARK INTER + INTRA:         -10.439
REMARK INTER:                  -7.978
REMARK INTRA:                  -2.460
REMARK UNBOUND:                -3.006
REMARK SMILES CCCCCCCCC=CCCCCCCCC(=O)[O-]
REMARK SMILES IDX 10 1 9 2 11 3 12 4 13 5 14 6 15 7 16 8 17 9 18 10 19 11
REMARK SMILES IDX 20 12 8 13 7 14 6 15 5 16 4 17 3 18 2 19 1 20
REMARK H PARENT
REMARK Flexibility Score: inf
ROOT
ATOM      1  C   UNL     1      13.783  14.720  -0.700  1.00  0.00    -0.031 C 
ATOM      2  C   UNL     1      14.692  15.070  -1.629  1.00  0.00    -0.031 C 
ENDROOT
BRANCH   1   3
ATOM      3  C   UNL     1      14.034  13.675   0.359  1.00  0.00     0.027 C 
BRANCH   3   4
ATOM      4  C   UNL     1      12.818  12.751   0.522  1.00  0.00     0.004 C 
BRANCH   4   5
ATOM      5  C   UNL     1      12.212  12.318  -0.826  1.00  0.00     0.000 C 
BRANCH   5   6
ATOM      6  C   UNL     1      13.130  11.440  -1.699  1.00  0.00     0.000 C 
BRANCH   6   7
ATOM      7  C   UNL     1      12.407  10.611  -2.780  1.00  0.00     0.000 C 
BRANCH   7   8
ATOM      8  C   UNL     1      11.136   9.881  -2.301  1.00  0.00     0.006 C 
BRANCH   8   9
ATOM      9  C   UNL     1      10.128   9.566  -3.417  1.00  0.00     0.053 C 
BRANCH   9  10
ATOM     10  C   UNL     1       9.289  10.757  -3.766  1.00  0.00     0.041 C 
ATOM     11  O   UNL     1       8.904  10.938  -4.950  1.00  0.00    -0.550 OA
ATOM     12  O   UNL     1       8.962  11.686  -2.786  1.00  0.00    -0.550 OA
ENDBRANCH   9  10
ENDBRANCH   8   9
ENDBRANCH   7   8
ENDBRANCH   6   7
ENDBRANCH   5   6
ENDBRANCH   4   5
ENDBRANCH   3   4
ENDBRANCH   1   3
BRANCH   2  13
ATOM     13  C   UNL     1      16.091  14.508  -1.708  1.00  0.00     0.027 C 
BRANCH  13  14
ATOM     14  C   UNL     1      16.127  13.151  -2.426  1.00  0.00     0.004 C 
BRANCH  14  15
ATOM     15  C   UNL     1      16.258  13.307  -3.951  1.00  0.00     0.000 C 
BRANCH  15  16
ATOM     16  C   UNL     1      14.919  13.126  -4.687  1.00  0.00     0.000 C 
BRANCH  16  17
ATOM     17  C   UNL     1      14.482  14.324  -5.552  1.00  0.00    -0.000 C 
BRANCH  17  18
ATOM     18  C   UNL     1      13.004  14.740  -5.397  1.00  0.00    -0.000 C 
BRANCH  18  19
ATOM     19  C   UNL     1      12.250  14.031  -4.258  1.00  0.00    -0.003 C 
ATOM     20  C   UNL     1      10.734  14.046  -4.448  1.00  0.00     0.004 C 
ENDBRANCH  18  19
ENDBRANCH  17  18
ENDBRANCH  16  17
ENDBRANCH  15  16
ENDBRANCH  14  15
ENDBRANCH  13  14
ENDBRANCH   2  13
TORSDOF 15
ENDMDL
MODEL 6
REMARK VINA RESULT:    -3.957      5.320      8.134
REMARK INTER + INTRA:         -10.433
REMARK INTER:                  -8.117
REMARK INTRA:                  -2.316
REMARK UNBOUND:                -3.006
REMARK SMILES CCCCCCCCC=CCCCCCCCC(=O)[O-]
REMARK SMILES IDX 10 1 9 2 11 3 12 4 13 5 14 6 15 7 16 8 17 9 18 10 19 11
REMARK SMILES IDX 20 12 8 13 7 14 6 15 5 16 4 17 3 18 2 19 1 20
REMARK H PARENT
REMARK Flexibility Score: inf
ROOT
ATOM      1  C   UNL     1       6.128  17.008   4.761  1.00  0.00    -0.031 C 
ATOM      2  C   UNL     1       4.817  16.846   5.021  1.00  0.00    -0.031 C 
ENDROOT
BRANCH   1   3
ATOM      3  C   UNL     1       7.145  15.900   4.886  1.00  0.00     0.027 C 
BRANCH   3   4
ATOM      4  C   UNL     1       8.214  16.248   5.931  1.00  0.00     0.004 C 
BRANCH   4   5
ATOM      5  C   UNL     1       8.124  15.372   7.194  1.00  0.00     0.000 C 
BRANCH   5   6
ATOM      6  C   UNL     1       7.030  15.788   8.197  1.00  0.00     0.000 C 
BRANCH   6   7
ATOM      7  C   UNL     1       6.135  14.638   8.702  1.00  0.00     0.000 C 
BRANCH   7   8
ATOM      8  C   UNL     1       6.892  13.450   9.330  1.00  0.00     0.006 C 
BRANCH   8   9
ATOM      9  C   UNL     1       6.981  13.496  10.864  1.00  0.00     0.053 C 
BRANCH   9  10
ATOM     10  C   UNL     1       8.337  13.929  11.332  1.00  0.00     0.041 C 
ATOM     11  O   UNL     1       8.540  14.169  12.551  1.00  0.00    -0.550 OA
ATOM     12  O   UNL     1       9.366  14.102  10.416  1.00  0.00    -0.550 OA
ENDBRANCH   9  10
ENDBRANCH   8   9
ENDBRANCH   7   8
ENDBRANCH   6   7
ENDBRANCH   5   6
ENDBRANCH   4   5
ENDBRANCH   3   4
ENDBRANCH   1   3
BRANCH   2  13
ATOM     13  C   UNL     1       4.182  15.536   5.419  1.00  0.00     0.027 C 
BRANCH  13  14
ATOM     14  C   UNL     1       3.159  15.053   4.381  1.00  0.00     0.004 C 
BRANCH  14  15
ATOM     15  C   UNL     1       3.623  13.774   3.662  1.00  0.00     0.000 C 
BRANCH  15  16
ATOM     16  C   UNL     1       4.756  14.034   2.653  1.00  0.00     0.000 C 
BRANCH  16  17
ATOM     17  C   UNL     1       4.349  14.847   1.409  1.00  0.00    -0.000 C 
BRANCH  17  18
ATOM     18  C   UNL     1       5.046  16.216   1.264  1.00  0.00    -0.000 C 
BRANCH  18  19
ATOM     19  C   UNL     1       4.118  17.371   0.848  1.00  0.00    -0.003 C 
ATOM     20  C   UNL     1       4.198  18.569   1.793  1.00  0.00     0.004 C 
ENDBRANCH  18  19
ENDBRANCH  17  18
ENDBRANCH  16  17
ENDBRANCH  15  16
ENDBRANCH  14  15
ENDBRANCH  13  14
ENDBRANCH   2  13
TORSDOF 15
ENDMDL
MODEL 7
REMARK VINA RESULT:    -3.917      9.842     11.884
REMARK INTER + INTRA:         -10.358
REMARK INTER:                  -8.231
REMARK INTRA:                  -2.127
REMARK UNBOUND:                -3.006
REMARK SMILES CCCCCCCCC=CCCCCCCCC(=O)[O-]
REMARK SMILES IDX 10 1 9 2 11 3 12 4 13 5 14 6 15 7 16 8 17 9 18 10 19 11
REMARK SMILES IDX 20 12 8 13 7 14 6 15 5 16 4 17 3 18 2 19 1 20
REMARK H PARENT
REMARK Flexibility Score: inf
ROOT
ATOM      1  C   UNL     1      10.920  14.710  -5.945  1.00  0.00    -0.031 C 
ATOM      2  C   UNL     1      12.198  15.059  -5.709  1.00  0.00    -0.031 C 
ENDROOT
BRANCH   1   3
ATOM      3  C   UNL     1      10.205  13.609  -5.200  1.00  0.00     0.027 C 
BRANCH   3   4
ATOM      4  C   UNL     1      10.415  12.252  -5.886  1.00  0.00     0.004 C 
BRANCH   4   5
ATOM      5  C   UNL     1       9.443  11.171  -5.381  1.00  0.00     0.000 C 
BRANCH   5   6
ATOM      6  C   UNL     1       9.426  10.975  -3.852  1.00  0.00     0.000 C 
BRANCH   6   7
ATOM      7  C   UNL     1      10.125   9.697  -3.347  1.00  0.00     0.000 C 
BRANCH   7   8
ATOM      8  C   UNL     1      11.464   9.930  -2.619  1.00  0.00     0.006 C 
BRANCH   8   9
ATOM      9  C   UNL     1      11.882  11.406  -2.519  1.00  0.00     0.053 C 
BRANCH   9  10
ATOM     10  C   UNL     1      11.444  12.025  -1.226  1.00  0.00     0.041 C 
ATOM     11  O   UNL     1      11.615  11.412  -0.140  1.00  0.00    -0.550 OA
ATOM     12  O   UNL     1      10.815  13.263  -1.227  1.00  0.00    -0.550 OA
ENDBRANCH   9  10
ENDBRANCH   8   9
ENDBRANCH   7   8
ENDBRANCH   6   7
ENDBRANCH   5   6
ENDBRANCH   4   5
ENDBRANCH   3   4
ENDBRANCH   1   3
BRANCH   2  13
ATOM     13  C   UNL     1      13.068  14.439  -4.642  1.00  0.00     0.027 C 
BRANCH  13  14
ATOM     14  C   UNL     1      13.986  13.347  -5.210  1.00  0.00     0.004 C 
BRANCH  14  15
ATOM     15  C   UNL     1      15.401  13.410  -4.610  1.00  0.00     0.000 C 
BRANCH  15  16
ATOM     16  C   UNL     1      15.487  12.767  -3.215  1.00  0.00     0.000 C 
BRANCH  16  17
ATOM     17  C   UNL     1      16.180  13.627  -2.141  1.00  0.00    -0.000 C 
BRANCH  17  18
ATOM     18  C   UNL     1      15.453  14.940  -1.783  1.00  0.00    -0.000 C 
BRANCH  18  19
ATOM     19  C   UNL     1      14.100  14.756  -1.073  1.00  0.00    -0.003 C 
ATOM     20  C   UNL     1      14.223  14.024   0.262  1.00  0.00     0.004 C 
ENDBRANCH  18  19
ENDBRANCH  17  18
ENDBRANCH  16  17
ENDBRANCH  15  16
ENDBRANCH  14  15
ENDBRANCH  13  14
ENDBRANCH   2  13
TORSDOF 15
ENDMDL
MODEL 8
REMARK VINA RESULT:    -3.851      3.883      6.532
REMARK INTER + INTRA:         -10.234
REMARK INTER:                  -7.367
REMARK INTRA:                  -2.867
REMARK UNBOUND:                -3.006
REMARK SMILES CCCCCCCCC=CCCCCCCCC(=O)[O-]
REMARK SMILES IDX 10 1 9 2 11 3 12 4 13 5 14 6 15 7 16 8 17 9 18 10 19 11
REMARK SMILES IDX 20 12 8 13 7 14 6 15 5 16 4 17 3 18 2 19 1 20
REMARK H PARENT
REMARK Flexibility Score: inf
ROOT
ATOM      1  C   UNL     1       3.721  18.025   0.487  1.00  0.00    -0.031 C 
ATOM      2  C   UNL     1       3.901  16.711   0.263  1.00  0.00    -0.031 C 
ENDROOT
BRANCH   1   3
ATOM      3  C   UNL     1       3.327  18.596   1.828  1.00  0.00     0.027 C 
BRANCH   3   4
ATOM      4  C   UNL     1       4.522  19.272   2.512  1.00  0.00     0.004 C 
BRANCH   4   5
ATOM      5  C   UNL     1       4.210  19.725   3.950  1.00  0.00     0.000 C 
BRANCH   5   6
ATOM      6  C   UNL     1       4.901  18.902   5.056  1.00  0.00     0.000 C 
BRANCH   6   7
ATOM      7  C   UNL     1       5.662  17.655   4.565  1.00  0.00     0.000 C 
BRANCH   7   8
ATOM      8  C   UNL     1       6.098  16.678   5.675  1.00  0.00     0.006 C 
BRANCH   8   9
ATOM      9  C   UNL     1       7.533  16.149   5.525  1.00  0.00     0.053 C 
BRANCH   9  10
ATOM     10  C   UNL     1       8.157  15.842   6.853  1.00  0.00     0.041 C 
ATOM     11  O   UNL     1       8.693  14.722   7.058  1.00  0.00    -0.550 OA
ATOM     12  O   UNL     1       8.114  16.783   7.874  1.00  0.00    -0.550 OA
ENDBRANCH   9  10
ENDBRANCH   8   9
ENDBRANCH   7   8
ENDBRANCH   6   7
ENDBRANCH   5   6
ENDBRANCH   4   5
ENDBRANCH   3   4
ENDBRANCH   1   3
BRANCH   2  13
ATOM     13  C   UNL     1       3.787  15.641   1.322  1.00  0.00     0.027 C 
BRANCH  13  14
ATOM     14  C   UNL     1       5.163  15.132   1.776  1.00  0.00     0.004 C 
BRANCH  14  15
ATOM     15  C   UNL     1       5.076  14.314   3.076  1.00  0.00     0.000 C 
BRANCH  15  16
ATOM     16  C   UNL     1       3.627  14.016   3.499  1.00  0.00     0.000 C 
BRANCH  16  17
ATOM     17  C   UNL     1       3.374  14.036   5.019  1.00  0.00    -0.000 C 
BRANCH  17  18
ATOM     18  C   UNL     1       2.587  15.258   5.537  1.00  0.00    -0.000 C 
BRANCH  18  19
ATOM     19  C   UNL     1       2.159  16.258   4.448  1.00  0.00    -0.003 C 
ATOM     20  C   UNL     1       1.503  17.514   5.019  1.00  0.00     0.004 C 
ENDBRANCH  18  19
ENDBRANCH  17  18
ENDBRANCH  16  17
ENDBRANCH  15  16
ENDBRANCH  14  15
ENDBRANCH  13  14
ENDBRANCH   2  13
TORSDOF 15
ENDMDL
MODEL 9
REMARK VINA RESULT:    -3.733      9.150     11.793
REMARK INTER + INTRA:         -10.013
REMARK INTER:                  -7.397
REMARK INTRA:                  -2.616
REMARK UNBOUND:                -3.006
REMARK SMILES CCCCCCCCC=CCCCCCCCC(=O)[O-]
REMARK SMILES IDX 10 1 9 2 11 3 12 4 13 5 14 6 15 7 16 8 17 9 18 10 19 11
REMARK SMILES IDX 20 12 8 13 7 14 6 15 5 16 4 17 3 18 2 19 1 20
REMARK H PARENT
REMARK Flexibility Score: inf
ROOT
ATOM      1  C   UNL     1      13.809  14.260  -3.996  1.00  0.00    -0.031 C 
ATOM      2  C   UNL     1      12.820  14.344  -4.905  1.00  0.00    -0.031 C 
ENDROOT
BRANCH   1   3
ATOM      3  C   UNL     1      14.394  12.952  -3.519  1.00  0.00     0.027 C 
BRANCH   3   4
ATOM      4  C   UNL     1      14.967  13.089  -2.102  1.00  0.00     0.004 C 
BRANCH   4   5
ATOM      5  C   UNL     1      14.460  14.346  -1.370  1.00  0.00     0.000 C 
BRANCH   5   6
ATOM      6  C   UNL     1      13.694  14.072  -0.061  1.00  0.00     0.000 C 
BRANCH   6   7
ATOM      7  C   UNL     1      14.230  12.895   0.777  1.00  0.00     0.000 C 
BRANCH   7   8
ATOM      8  C   UNL     1      13.160  12.118   1.570  1.00  0.00     0.006 C 
BRANCH   8   9
ATOM      9  C   UNL     1      13.121  12.446   3.071  1.00  0.00     0.053 C 
BRANCH   9  10
ATOM     10  C   UNL     1      12.145  11.581   3.808  1.00  0.00     0.041 C 
ATOM     11  O   UNL     1      10.907  11.756   3.663  1.00  0.00    -0.550 OA
ATOM     12  O   UNL     1      12.605  10.605   4.682  1.00  0.00    -0.550 OA
ENDBRANCH   9  10
ENDBRANCH   8   9
ENDBRANCH   7   8
ENDBRANCH   6   7
ENDBRANCH   5   6
ENDBRANCH   4   5
ENDBRANCH   3   4
ENDBRANCH   1   3
BRANCH   2  13
ATOM     13  C   UNL     1      12.201  13.158  -5.603  1.00  0.00     0.027 C 
BRANCH  13  14
ATOM     14  C   UNL     1      10.669  13.161  -5.493  1.00  0.00     0.004 C 
BRANCH  14  15
ATOM     15  C   UNL     1      10.179  13.925  -4.252  1.00  0.00     0.000 C 
BRANCH  15  16
ATOM     16  C   UNL     1       9.844  12.996  -3.072  1.00  0.00     0.000 C 
BRANCH  16  17
ATOM     17  C   UNL     1      10.926  12.914  -1.978  1.00  0.00    -0.000 C 
BRANCH  17  18
ATOM     18  C   UNL     1      11.415  11.489  -1.644  1.00  0.00    -0.000 C 
BRANCH  18  19
ATOM     19  C   UNL     1      11.652  10.586  -2.867  1.00  0.00    -0.003 C 
ATOM     20  C   UNL     1      10.896   9.260  -2.784  1.00  0.00     0.004 C 
ENDBRANCH  18  19
ENDBRANCH  17  18
ENDBRANCH  16  17
ENDBRANCH  15  16
ENDBRANCH  14  15
ENDBRANCH  13  14
ENDBRANCH   2  13
TORSDOF 15
ENDMDL
