MODEL 1
REMARK VINA RESULT:    13.351      0.000      0.000
REMARK INTER + INTRA:          20.817
REMARK INTER:                  21.155
REMARK INTRA:                  -0.339
REMARK UNBOUND:                -0.339
REMARK SMILES CCCCCCCCCCCC(=O)[O-]
REMARK SMILES IDX 7 1 8 2 9 3 10 4 11 5 12 6 13 7 14 8 6 9 5 10 4 11 3 12 2 13
REMARK SMILES IDX 1 14
REMARK H PARENT
REMARK Flexibility Score: inf
ROOT
ATOM      1  C   UNL     1      -6.519 -12.853  25.265  1.00  0.00     0.000 C 
ENDROOT
BRANCH   1   2
ATOM      2  C   UNL     1      -5.373 -13.856  25.090  1.00  0.00     0.000 C 
BRANCH   2   3
ATOM      3  C   UNL     1      -5.017 -14.523  26.425  1.00  0.00     0.000 C 
BRANCH   3   4
ATOM      4  C   UNL     1      -5.193 -16.044  26.344  1.00  0.00     0.006 C 
BRANCH   4   5
ATOM      5  C   UNL     1      -4.296 -16.644  25.257  1.00  0.00     0.053 C 
BRANCH   5   6
ATOM      6  C   UNL     1      -5.001 -17.760  24.554  1.00  0.00     0.041 C 
ATOM      7  O   UNL     1      -5.415 -18.757  25.203  1.00  0.00    -0.550 OA
ATOM      8  O   UNL     1      -5.158 -17.724  23.174  1.00  0.00    -0.550 OA
ENDBRANCH   5   6
ENDBRANCH   4   5
ENDBRANCH   3   4
ENDBRANCH   2   3
ENDBRANCH   1   2
BRANCH   1   9
ATOM      9  C   UNL     1      -6.364 -11.667  24.300  1.00  0.00     0.000 C 
BRANCH   9  10
ATOM     10  C   UNL     1      -6.155 -10.331  25.030  1.00  0.00    -0.000 C 
BRANCH  10  11
ATOM     11  C   UNL     1      -5.349  -9.322  24.199  1.00  0.00    -0.000 C 
BRANCH  11  12
ATOM     12  C   UNL     1      -4.159  -8.777  25.002  1.00  0.00    -0.000 C 
BRANCH  12  13
ATOM     13  C   UNL     1      -3.002  -8.311  24.102  1.00  0.00    -0.003 C 
ATOM     14  C   UNL     1      -1.643  -8.829  24.570  1.00  0.00     0.004 C 
ENDBRANCH  12  13
ENDBRANCH  11  12
ENDBRANCH  10  11
ENDBRANCH   9  10
ENDBRANCH   1   9
TORSDOF 10
ENDMDL
MODEL 2
REMARK VINA RESULT:    13.875      4.483      7.508
REMARK INTER + INTRA:          21.647
REMARK INTER:                  22.098
REMARK INTRA:                  -0.451
REMARK UNBOUND:                -0.339
REMARK SMILES CCCCCCCCCCCC(=O)[O-]
REMARK SMILES IDX 7 1 8 2 9 3 10 4 11 5 12 6 13 7 14 8 6 9 5 10 4 11 3 12 2 13
REMARK SMILES IDX 1 14
REMARK H PARENT
REMARK Flexibility Score: inf
ROOT
ATOM      1  C   UNL     1      -5.297  -8.968  24.880  1.00  0.00     0.000 C 
ENDROOT
BRANCH   1   2
ATOM      2  C   UNL     1      -3.807  -8.748  25.169  1.00  0.00     0.000 C 
BRANCH   2   3
ATOM      3  C   UNL     1      -3.074  -8.235  23.923  1.00  0.00     0.000 C 
BRANCH   3   4
ATOM      4  C   UNL     1      -1.564  -8.140  24.174  1.00  0.00     0.006 C 
BRANCH   4   5
ATOM      5  C   UNL     1      -1.140  -9.055  25.326  1.00  0.00     0.053 C 
BRANCH   5   6
ATOM      6  C   UNL     1      -0.070  -8.406  26.144  1.00  0.00     0.041 C 
ATOM      7  O   UNL     1       0.264  -7.213  25.919  1.00  0.00    -0.550 OA
ATOM      8  O   UNL     1       0.594  -9.132  27.125  1.00  0.00    -0.550 OA
ENDBRANCH   5   6
ENDBRANCH   4   5
ENDBRANCH   3   4
ENDBRANCH   2   3
ENDBRANCH   1   2
BRANCH   1   9
ATOM      9  C   UNL     1      -5.516 -10.251  24.065  1.00  0.00     0.000 C 
BRANCH   9  10
ATOM     10  C   UNL     1      -6.650 -11.123  24.625  1.00  0.00    -0.000 C 
BRANCH  10  11
ATOM     11  C   UNL     1      -6.415 -12.623  24.389  1.00  0.00    -0.000 C 
BRANCH  11  12
ATOM     12  C   UNL     1      -6.104 -13.343  25.710  1.00  0.00    -0.000 C 
BRANCH  12  13
ATOM     13  C   UNL     1      -4.985 -14.388  25.565  1.00  0.00    -0.003 C 
ATOM     14  C   UNL     1      -5.006 -15.435  26.676  1.00  0.00     0.004 C 
ENDBRANCH  12  13
ENDBRANCH  11  12
ENDBRANCH  10  11
ENDBRANCH   9  10
ENDBRANCH   1   9
TORSDOF 10
ENDMDL
MODEL 3
REMARK VINA RESULT:    14.321      3.882      7.441
REMARK INTER + INTRA:          22.354
REMARK INTER:                  22.789
REMARK INTRA:                  -0.435
REMARK UNBOUND:                -0.339
REMARK SMILES CCCCCCCCCCCC(=O)[O-]
REMARK SMILES IDX 7 1 8 2 9 3 10 4 11 5 12 6 13 7 14 8 6 9 5 10 4 11 3 12 2 13
REMARK SMILES IDX 1 14
REMARK H PARENT
REMARK Flexibility Score: inf
ROOT
ATOM      1  C   UNL     1      -6.761 -12.565  24.256  1.00  0.00     0.000 C 
ENDROOT
BRANCH   1   2
ATOM      2  C   UNL     1      -6.078 -11.275  23.787  1.00  0.00     0.000 C 
BRANCH   2   3
ATOM      3  C   UNL     1      -6.055 -10.225  24.905  1.00  0.00     0.000 C 
BRANCH   3   4
ATOM      4  C   UNL     1      -5.344  -8.947  24.446  1.00  0.00     0.006 C 
BRANCH   4   5
ATOM      5  C   UNL     1      -4.012  -8.765  25.179  1.00  0.00     0.053 C 
BRANCH   5   6
ATOM      6  C   UNL     1      -2.955  -8.287  24.235  1.00  0.00     0.041 C 
ATOM      7  O   UNL     1      -1.797  -8.779  24.279  1.00  0.00    -0.550 OA
ATOM      8  O   UNL     1      -3.234  -7.264  23.338  1.00  0.00    -0.550 OA
ENDBRANCH   5   6
ENDBRANCH   4   5
ENDBRANCH   3   4
ENDBRANCH   2   3
ENDBRANCH   1   2
BRANCH   1   9
ATOM      9  C   UNL     1      -6.110 -13.094  25.544  1.00  0.00     0.000 C 
BRANCH   9  10
ATOM     10  C   UNL     1      -5.187 -14.296  25.291  1.00  0.00    -0.000 C 
BRANCH  10  11
ATOM     11  C   UNL     1      -4.890 -15.093  26.571  1.00  0.00    -0.000 C 
BRANCH  11  12
ATOM     12  C   UNL     1      -5.150 -16.592  26.355  1.00  0.00    -0.000 C 
BRANCH  12  13
ATOM     13  C   UNL     1      -4.583 -17.103  25.020  1.00  0.00    -0.003 C 
ATOM     14  C   UNL     1      -5.432 -18.214  24.404  1.00  0.00     0.004 C 
ENDBRANCH  12  13
ENDBRANCH  11  12
ENDBRANCH  10  11
ENDBRANCH   9  10
ENDBRANCH   1   9
TORSDOF 10
ENDMDL
MODEL 4
REMARK VINA RESULT:    14.398      3.672      5.691
REMARK INTER + INTRA:          22.477
REMARK INTER:                  23.089
REMARK INTRA:                  -0.612
REMARK UNBOUND:                -0.339
REMARK SMILES CCCCCCCCCCCC(=O)[O-]
REMARK SMILES IDX 7 1 8 2 9 3 10 4 11 5 12 6 13 7 14 8 6 9 5 10 4 11 3 12 2 13
REMARK SMILES IDX 1 14
REMARK H PARENT
REMARK Flexibility Score: inf
ROOT
ATOM      1  C   UNL     1      -2.576  -9.023  24.695  1.00  0.00     0.000 C 
ENDROOT
BRANCH   1   2
ATOM      2  C   UNL     1      -4.058  -8.755  24.405  1.00  0.00     0.000 C 
BRANCH   2   3
ATOM      3  C   UNL     1      -4.905  -8.911  25.675  1.00  0.00     0.000 C 
BRANCH   3   4
ATOM      4  C   UNL     1      -6.052  -9.904  25.451  1.00  0.00     0.006 C 
BRANCH   4   5
ATOM      5  C   UNL     1      -6.005 -10.489  24.037  1.00  0.00     0.053 C 
BRANCH   5   6
ATOM      6  C   UNL     1      -6.512 -11.896  24.034  1.00  0.00     0.041 C 
ATOM      7  O   UNL     1      -6.772 -12.474  22.946  1.00  0.00    -0.550 OA
ATOM      8  O   UNL     1      -6.744 -12.554  25.235  1.00  0.00    -0.550 OA
ENDBRANCH   5   6
ENDBRANCH   4   5
ENDBRANCH   3   4
ENDBRANCH   2   3
ENDBRANCH   1   2
BRANCH   1   9
ATOM      9  C   UNL     1      -1.676  -8.162  23.796  1.00  0.00     0.000 C 
BRANCH   9  10
ATOM     10  C   UNL     1      -2.467  -7.131  22.977  1.00  0.00    -0.000 C 
BRANCH  10  11
ATOM     11  C   UNL     1      -2.331  -7.348  21.462  1.00  0.00    -0.000 C 
BRANCH  11  12
ATOM     12  C   UNL     1      -3.616  -6.930  20.732  1.00  0.00    -0.000 C 
BRANCH  12  13
ATOM     13  C   UNL     1      -3.545  -7.188  19.217  1.00  0.00    -0.003 C 
ATOM     14  C   UNL     1      -2.640  -8.366  18.860  1.00  0.00     0.004 C 
ENDBRANCH  12  13
ENDBRANCH  11  12
ENDBRANCH  10  11
ENDBRANCH   9  10
ENDBRANCH   1   9
TORSDOF 10
ENDMDL
MODEL 5
REMARK VINA RESULT:    14.533      3.145      4.869
REMARK INTER + INTRA:          22.690
REMARK INTER:                  23.098
REMARK INTRA:                  -0.407
REMARK UNBOUND:                -0.339
REMARK SMILES CCCCCCCCCCCC(=O)[O-]
REMARK SMILES IDX 7 1 8 2 9 3 10 4 11 5 12 6 13 7 14 8 6 9 5 10 4 11 3 12 2 13
REMARK SMILES IDX 1 14
REMARK H PARENT
REMARK Flexibility Score: inf
ROOT
ATOM      1  C   UNL     1      -6.496 -12.559  24.839  1.00  0.00     0.000 C 
ENDROOT
BRANCH   1   2
ATOM      2  C   UNL     1      -5.668 -13.850  24.835  1.00  0.00     0.000 C 
BRANCH   2   3
ATOM      3  C   UNL     1      -5.199 -14.207  26.251  1.00  0.00     0.000 C 
BRANCH   3   4
ATOM      4  C   UNL     1      -5.027 -15.723  26.407  1.00  0.00     0.006 C 
BRANCH   4   5
ATOM      5  C   UNL     1      -4.370 -16.332  25.165  1.00  0.00     0.053 C 
BRANCH   5   6
ATOM      6  C   UNL     1      -4.955 -17.676  24.868  1.00  0.00     0.041 C 
ATOM      7  O   UNL     1      -5.294 -18.441  25.810  1.00  0.00    -0.550 OA
ATOM      8  O   UNL     1      -5.082 -18.106  23.554  1.00  0.00    -0.550 OA
ENDBRANCH   5   6
ENDBRANCH   4   5
ENDBRANCH   3   4
ENDBRANCH   2   3
ENDBRANCH   1   2
BRANCH   1   9
ATOM      9  C   UNL     1      -6.809 -12.103  23.405  1.00  0.00     0.000 C 
BRANCH   9  10
ATOM     10  C   UNL     1      -7.258 -13.259  22.499  1.00  0.00    -0.000 C 
BRANCH  10  11
ATOM     11  C   UNL     1      -8.350 -12.841  21.502  1.00  0.00    -0.000 C 
BRANCH  11  12
ATOM     12  C   UNL     1      -8.701 -13.999  20.557  1.00  0.00    -0.000 C 
BRANCH  12  13
ATOM     13  C   UNL     1      -8.643 -13.591  19.075  1.00  0.00    -0.003 C 
ATOM     14  C   UNL     1      -9.100 -14.706  18.136  1.00  0.00     0.004 C 
ENDBRANCH  12  13
ENDBRANCH  11  12
ENDBRANCH  10  11
ENDBRANCH   9  10
ENDBRANCH   1   9
TORSDOF 10
ENDMDL
MODEL 6
REMARK VINA RESULT:    14.684      3.764      5.641
REMARK INTER + INTRA:          22.930
REMARK INTER:                  22.805
REMARK INTRA:                   0.125
REMARK UNBOUND:                -0.339
REMARK SMILES CCCCCCCCCCCC(=O)[O-]
REMARK SMILES IDX 7 1 8 2 9 3 10 4 11 5 12 6 13 7 14 8 6 9 5 10 4 11 3 12 2 13
REMARK SMILES IDX 1 14
REMARK H PARENT
REMARK Flexibility Score: inf
ROOT
ATOM      1  C   UNL     1      -3.449  -7.470  23.848  1.00  0.00     0.000 C 
ENDROOT
BRANCH   1   2
ATOM      2  C   UNL     1      -3.847  -8.850  24.386  1.00  0.00     0.000 C 
BRANCH   2   3
ATOM      3  C   UNL     1      -4.920  -8.728  25.475  1.00  0.00     0.000 C 
BRANCH   3   4
ATOM      4  C   UNL     1      -5.926  -9.882  25.387  1.00  0.00     0.006 C 
BRANCH   4   5
ATOM      5  C   UNL     1      -5.942 -10.492  23.983  1.00  0.00     0.053 C 
BRANCH   5   6
ATOM      6  C   UNL     1      -6.633 -11.818  23.995  1.00  0.00     0.041 C 
ATOM      7  O   UNL     1      -6.955 -12.375  22.912  1.00  0.00    -0.550 OA
ATOM      8  O   UNL     1      -6.967 -12.418  25.202  1.00  0.00    -0.550 OA
ENDBRANCH   5   6
ENDBRANCH   4   5
ENDBRANCH   3   4
ENDBRANCH   2   3
ENDBRANCH   1   2
BRANCH   1   9
ATOM      9  C   UNL     1      -2.386  -7.596  22.746  1.00  0.00     0.000 C 
BRANCH   9  10
ATOM     10  C   UNL     1      -1.011  -8.011  23.292  1.00  0.00    -0.000 C 
BRANCH  10  11
ATOM     11  C   UNL     1      -1.057  -8.402  24.777  1.00  0.00    -0.000 C 
BRANCH  11  12
ATOM     12  C   UNL     1      -0.228  -7.427  25.626  1.00  0.00    -0.000 C 
BRANCH  12  13
ATOM     13  C   UNL     1       0.930  -8.122  26.362  1.00  0.00    -0.003 C 
ATOM     14  C   UNL     1       0.483  -9.368  27.125  1.00  0.00     0.004 C 
ENDBRANCH  12  13
ENDBRANCH  11  12
ENDBRANCH  10  11
ENDBRANCH   9  10
ENDBRANCH   1   9
TORSDOF 10
ENDMDL
