MODEL 1
REMARK VINA RESULT:    21.121      0.000      0.000
REMARK INTER + INTRA:          25.697
REMARK INTER:                  26.060
REMARK INTRA:                  -0.362
REMARK UNBOUND:                -0.362
REMARK SMILES O=c1c(O)c(-c2cc(O)c(O)c(O)c2)oc2cc(O)cc(O)c12
REMARK SMILES IDX 5 1 3 2 2 3 1 4 23 5 21 6 20 7 18 8 17 9 16 10 15 11 6 12
REMARK SMILES IDX 7 13 8 14 14 15 10 16 12 17 9 18 11 20 13 22 4 24 22 26
REMARK SMILES IDX 19 28
REMARK H PARENT 9 19 11 21 13 23 4 25 22 27 19 29
REMARK Flexibility Score: inf
ROOT
ATOM      1  C   UNL     1      26.947  29.294   1.141  1.00  0.00     0.180 A 
ATOM      2  C   UNL     1      28.219  29.873   0.962  1.00  0.00     0.208 A 
ATOM      3  C   UNL     1      28.303  31.228   0.608  1.00  0.00     0.238 A 
ATOM      4  O   UNL     1      29.438  31.760   0.456  1.00  0.00    -0.285 OA
ATOM      5  C   UNL     1      27.123  31.974   0.419  1.00  0.00     0.111 A 
ATOM      6  C   UNL     1      27.121  33.343   0.057  1.00  0.00     0.134 A 
ATOM      7  C   UNL     1      25.902  34.014  -0.121  1.00  0.00     0.093 A 
ATOM      8  C   UNL     1      24.686  33.342   0.053  1.00  0.00     0.123 A 
ATOM      9  C   UNL     1      24.683  31.994   0.411  1.00  0.00     0.094 A 
ATOM     10  C   UNL     1      25.887  31.307   0.595  1.00  0.00     0.146 A 
ATOM     11  O   UNL     1      25.854  30.025   0.939  1.00  0.00    -0.452 OA
ENDROOT
BRANCH   1  12
ATOM     12  C   UNL     1      26.776  27.876   1.533  1.00  0.00     0.029 A 
ATOM     13  C   UNL     1      26.682  26.893   0.539  1.00  0.00     0.062 A 
ATOM     14  C   UNL     1      26.500  25.548   0.883  1.00  0.00     0.162 A 
ATOM     15  C   UNL     1      26.648  27.500   2.879  1.00  0.00     0.062 A 
ATOM     16  C   UNL     1      26.395  25.170   2.229  1.00  0.00     0.200 A 
ATOM     17  C   UNL     1      26.462  26.160   3.238  1.00  0.00     0.162 A 
BRANCH  14  18
ATOM     18  O   UNL     1      26.422  24.575  -0.112  1.00  0.00    -0.504 OA
ATOM     19  H   UNL     1      25.678  23.887  -0.126  1.00  0.00     0.293 HD
ENDBRANCH  14  18
BRANCH  16  20
ATOM     20  O   UNL     1      26.222  23.814   2.518  1.00  0.00    -0.502 OA
ATOM     21  H   UNL     1      25.974  23.116   1.832  1.00  0.00     0.293 HD
ENDBRANCH  16  20
BRANCH  17  22
ATOM     22  O   UNL     1      26.344  25.861   4.597  1.00  0.00    -0.504 OA
ATOM     23  H   UNL     1      25.519  26.046   5.148  1.00  0.00     0.293 HD
ENDBRANCH  17  22
ENDBRANCH   1  12
BRANCH   2  24
ATOM     24  O   UNL     1      29.373  29.098   1.108  1.00  0.00    -0.502 OA
ATOM     25  H   UNL     1      29.440  28.347   1.784  1.00  0.00     0.293 HD
ENDBRANCH   2  24
BRANCH   6  26
ATOM     26  O   UNL     1      28.316  34.039  -0.125  1.00  0.00    -0.507 OA
ATOM     27  H   UNL     1      29.216  33.619   0.081  1.00  0.00     0.293 HD
ENDBRANCH   6  26
BRANCH   8  28
ATOM     28  O   UNL     1      23.476  34.008  -0.125  1.00  0.00    -0.508 OA
ATOM     29  H   UNL     1      23.403  34.827  -0.718  1.00  0.00     0.293 HD
ENDBRANCH   8  28
TORSDOF 7
ENDMDL
