MODEL 1
REMARK VINA RESULT:    -4.401      0.000      0.000
REMARK INTER + INTRA:          -5.282
REMARK INTER:                  -5.044
REMARK INTRA:                  -0.238
REMARK UNBOUND:                -0.238
REMARK SMILES COC(=O)c1ccccc1O
REMARK SMILES IDX 5 1 6 2 7 3 8 4 9 5 10 6 3 7 4 8 2 9 1 10 11 11
REMARK H PARENT 11 12
REMARK Flexibility Score: inf
ROOT
ATOM      1  C   UNL     1       8.031 -30.268  17.178  1.00  0.00     0.101 A 
ATOM      2  C   UNL     1       8.692 -29.754  16.045  1.00  0.00     0.019 A 
ATOM      3  C   UNL     1       9.670 -28.766  16.176  1.00  0.00     0.001 A 
ATOM      4  C   UNL     1      10.005 -28.276  17.438  1.00  0.00     0.004 A 
ATOM      5  C   UNL     1       9.361 -28.772  18.573  1.00  0.00     0.047 A 
ATOM      6  C   UNL     1       8.377 -29.765  18.455  1.00  0.00     0.130 A 
ENDROOT
BRANCH   1   7
ATOM      7  C   UNL     1       6.996 -31.318  16.999  1.00  0.00     0.341 C 
ATOM      8  O   UNL     1       5.934 -31.073  16.363  1.00  0.00    -0.246 OA
BRANCH   7   9
ATOM      9  O   UNL     1       7.201 -32.592  17.541  1.00  0.00    -0.465 OA
ATOM     10  C   UNL     1       6.628 -33.768  16.979  1.00  0.00     0.282 C 
ENDBRANCH   7   9
ENDBRANCH   1   7
BRANCH   6  11
ATOM     11  O   UNL     1       7.749 -30.243  19.605  1.00  0.00    -0.507 OA
ATOM     12  H   UNL     1       7.451 -29.621  20.348  1.00  0.00     0.293 HD
ENDBRANCH   6  11
TORSDOF 3
ENDMDL
MODEL 2
REMARK VINA RESULT:    -4.272      2.721      4.203
REMARK INTER + INTRA:          -5.134
REMARK INTER:                  -4.858
REMARK INTRA:                  -0.276
REMARK UNBOUND:                -0.238
REMARK SMILES COC(=O)c1ccccc1O
REMARK SMILES IDX 5 1 6 2 7 3 8 4 9 5 10 6 3 7 4 8 2 9 1 10 11 11
REMARK H PARENT 11 12
REMARK Flexibility Score: inf
ROOT
ATOM      1  C   UNL     1       8.302 -29.726  16.017  1.00  0.00     0.101 A 
ATOM      2  C   UNL     1       8.732 -29.561  17.348  1.00  0.00     0.019 A 
ATOM      3  C   UNL     1       7.808 -29.466  18.390  1.00  0.00     0.001 A 
ATOM      4  C   UNL     1       6.441 -29.534  18.122  1.00  0.00     0.004 A 
ATOM      5  C   UNL     1       5.994 -29.697  16.810  1.00  0.00     0.047 A 
ATOM      6  C   UNL     1       6.912 -29.795  15.753  1.00  0.00     0.130 A 
ENDROOT
BRANCH   1   7
ATOM      7  C   UNL     1       9.314 -29.823  14.934  1.00  0.00     0.341 C 
ATOM      8  O   UNL     1       9.195 -30.681  14.017  1.00  0.00    -0.246 OA
BRANCH   7   9
ATOM      9  O   UNL     1      10.412 -28.954  14.932  1.00  0.00    -0.465 OA
ATOM     10  C   UNL     1      11.353 -28.907  13.866  1.00  0.00     0.282 C 
ENDBRANCH   7   9
ENDBRANCH   1   7
BRANCH   6  11
ATOM     11  O   UNL     1       6.440 -29.957  14.451  1.00  0.00    -0.507 OA
ATOM     12  H   UNL     1       5.740 -29.340  14.057  1.00  0.00     0.293 HD
ENDBRANCH   6  11
TORSDOF 3
ENDMDL
MODEL 3
REMARK VINA RESULT:    -4.270      2.760      3.712
REMARK INTER + INTRA:          -5.132
REMARK INTER:                  -4.804
REMARK INTRA:                  -0.328
REMARK UNBOUND:                -0.238
REMARK SMILES COC(=O)c1ccccc1O
REMARK SMILES IDX 5 1 6 2 7 3 8 4 9 5 10 6 3 7 4 8 2 9 1 10 11 11
REMARK H PARENT 11 12
REMARK Flexibility Score: inf
ROOT
ATOM      1  C   UNL     1       8.901 -29.494  15.944  1.00  0.00     0.101 A 
ATOM      2  C   UNL     1       7.853 -29.910  16.787  1.00  0.00     0.019 A 
ATOM      3  C   UNL     1       7.849 -29.573  18.143  1.00  0.00     0.001 A 
ATOM      4  C   UNL     1       8.890 -28.815  18.678  1.00  0.00     0.004 A 
ATOM      5  C   UNL     1       9.939 -28.393  17.859  1.00  0.00     0.047 A 
ATOM      6  C   UNL     1       9.955 -28.725  16.495  1.00  0.00     0.130 A 
ENDROOT
BRANCH   1   7
ATOM      7  C   UNL     1       8.870 -29.872  14.508  1.00  0.00     0.341 C 
ATOM      8  O   UNL     1       7.803 -29.784  13.843  1.00  0.00    -0.246 OA
BRANCH   7   9
ATOM      9  O   UNL     1      10.038 -30.331  13.887  1.00  0.00    -0.465 OA
ATOM     10  C   UNL     1      10.423 -29.926  12.578  1.00  0.00     0.282 C 
ENDBRANCH   7   9
ENDBRANCH   1   7
BRANCH   6  11
ATOM     11  O   UNL     1      11.014 -28.291  15.699  1.00  0.00    -0.507 OA
ATOM     12  H   UNL     1      11.886 -27.967  16.102  1.00  0.00     0.293 HD
ENDBRANCH   6  11
TORSDOF 3
ENDMDL
MODEL 4
REMARK VINA RESULT:    -4.195      2.219      3.965
REMARK INTER + INTRA:          -5.046
REMARK INTER:                  -4.752
REMARK INTRA:                  -0.295
REMARK UNBOUND:                -0.238
REMARK SMILES COC(=O)c1ccccc1O
REMARK SMILES IDX 5 1 6 2 7 3 8 4 9 5 10 6 3 7 4 8 2 9 1 10 11 11
REMARK H PARENT 11 12
REMARK Flexibility Score: inf
ROOT
ATOM      1  C   UNL     1       7.188 -29.959  16.225  1.00  0.00     0.101 A 
ATOM      2  C   UNL     1       6.066 -30.677  15.767  1.00  0.00     0.019 A 
ATOM      3  C   UNL     1       5.901 -30.954  14.408  1.00  0.00     0.001 A 
ATOM      4  C   UNL     1       6.853 -30.521  13.485  1.00  0.00     0.004 A 
ATOM      5  C   UNL     1       7.972 -29.808  13.919  1.00  0.00     0.047 A 
ATOM      6  C   UNL     1       8.150 -29.523  15.281  1.00  0.00     0.130 A 
ENDROOT
BRANCH   1   7
ATOM      7  C   UNL     1       7.329 -29.683  17.678  1.00  0.00     0.341 C 
ATOM      8  O   UNL     1       6.335 -29.317  18.362  1.00  0.00    -0.246 OA
BRANCH   7   9
ATOM      9  O   UNL     1       8.578 -29.829  18.293  1.00  0.00    -0.465 OA
ATOM     10  C   UNL     1       9.169 -28.805  19.086  1.00  0.00     0.282 C 
ENDBRANCH   7   9
ENDBRANCH   1   7
BRANCH   6  11
ATOM     11  O   UNL     1       9.277 -28.809  15.688  1.00  0.00    -0.507 OA
ATOM     12  H   UNL     1       9.879 -29.142  16.432  1.00  0.00     0.293 HD
ENDBRANCH   6  11
TORSDOF 3
ENDMDL
MODEL 5
REMARK VINA RESULT:    -4.157      2.691      3.759
REMARK INTER + INTRA:          -5.002
REMARK INTER:                  -4.715
REMARK INTRA:                  -0.287
REMARK UNBOUND:                -0.238
REMARK SMILES COC(=O)c1ccccc1O
REMARK SMILES IDX 5 1 6 2 7 3 8 4 9 5 10 6 3 7 4 8 2 9 1 10 11 11
REMARK H PARENT 11 12
REMARK Flexibility Score: inf
ROOT
ATOM      1  C   UNL     1       8.487 -29.772  15.857  1.00  0.00     0.101 A 
ATOM      2  C   UNL     1       7.513 -30.738  16.176  1.00  0.00     0.019 A 
ATOM      3  C   UNL     1       7.108 -30.933  17.499  1.00  0.00     0.001 A 
ATOM      4  C   UNL     1       7.667 -30.168  18.522  1.00  0.00     0.004 A 
ATOM      5  C   UNL     1       8.634 -29.206  18.226  1.00  0.00     0.047 A 
ATOM      6  C   UNL     1       9.050 -28.999  16.902  1.00  0.00     0.130 A 
ENDROOT
BRANCH   1   7
ATOM      7  C   UNL     1       8.893 -29.593  14.439  1.00  0.00     0.341 C 
ATOM      8  O   UNL     1       8.026 -29.528  13.525  1.00  0.00    -0.246 OA
BRANCH   7   9
ATOM      9  O   UNL     1      10.251 -29.497  14.114  1.00  0.00    -0.465 OA
ATOM     10  C   UNL     1      10.837 -30.218  13.036  1.00  0.00     0.282 C 
ENDBRANCH   7   9
ENDBRANCH   1   7
BRANCH   6  11
ATOM     11  O   UNL     1      10.018 -28.032  16.633  1.00  0.00    -0.507 OA
ATOM     12  H   UNL     1      11.008 -28.246  16.659  1.00  0.00     0.293 HD
ENDBRANCH   6  11
TORSDOF 3
ENDMDL
MODEL 6
REMARK VINA RESULT:    -4.109      2.207      4.005
REMARK INTER + INTRA:          -4.947
REMARK INTER:                  -4.678
REMARK INTRA:                  -0.269
REMARK UNBOUND:                -0.238
REMARK SMILES COC(=O)c1ccccc1O
REMARK SMILES IDX 5 1 6 2 7 3 8 4 9 5 10 6 3 7 4 8 2 9 1 10 11 11
REMARK H PARENT 11 12
REMARK Flexibility Score: inf
ROOT
ATOM      1  C   UNL     1       8.408 -29.768  15.356  1.00  0.00     0.101 A 
ATOM      2  C   UNL     1       9.630 -29.563  14.687  1.00  0.00     0.019 A 
ATOM      3  C   UNL     1       9.678 -29.503  13.292  1.00  0.00     0.001 A 
ATOM      4  C   UNL     1       8.510 -29.645  12.544  1.00  0.00     0.004 A 
ATOM      5  C   UNL     1       7.289 -29.849  13.188  1.00  0.00     0.047 A 
ATOM      6  C   UNL     1       7.226 -29.911  14.589  1.00  0.00     0.130 A 
ENDROOT
BRANCH   1   7
ATOM      7  C   UNL     1       8.395 -29.827  16.840  1.00  0.00     0.341 C 
ATOM      8  O   UNL     1       7.631 -30.627  17.445  1.00  0.00    -0.246 OA
BRANCH   7   9
ATOM      9  O   UNL     1       9.239 -28.984  17.574  1.00  0.00    -0.465 OA
ATOM     10  C   UNL     1       9.210 -28.916  18.995  1.00  0.00     0.282 C 
ENDBRANCH   7   9
ENDBRANCH   1   7
BRANCH   6  11
ATOM     11  O   UNL     1       5.993 -30.116  15.208  1.00  0.00    -0.507 OA
ATOM     12  H   UNL     1       5.434 -29.344  15.550  1.00  0.00     0.293 HD
ENDBRANCH   6  11
TORSDOF 3
ENDMDL
MODEL 7
REMARK VINA RESULT:    -4.060      2.986      4.188
REMARK INTER + INTRA:          -4.891
REMARK INTER:                  -4.625
REMARK INTRA:                  -0.267
REMARK UNBOUND:                -0.238
REMARK SMILES COC(=O)c1ccccc1O
REMARK SMILES IDX 5 1 6 2 7 3 8 4 9 5 10 6 3 7 4 8 2 9 1 10 11 11
REMARK H PARENT 11 12
REMARK Flexibility Score: inf
ROOT
ATOM      1  C   UNL     1       8.887 -29.516  15.085  1.00  0.00     0.101 A 
ATOM      2  C   UNL     1       7.739 -29.936  14.385  1.00  0.00     0.019 A 
ATOM      3  C   UNL     1       7.738 -30.000  12.990  1.00  0.00     0.001 A 
ATOM      4  C   UNL     1       8.880 -29.646  12.272  1.00  0.00     0.004 A 
ATOM      5  C   UNL     1      10.027 -29.227  12.947  1.00  0.00     0.047 A 
ATOM      6  C   UNL     1      10.042 -29.159  14.349  1.00  0.00     0.130 A 
ENDROOT
BRANCH   1   7
ATOM      7  C   UNL     1       8.851 -29.461  16.569  1.00  0.00     0.341 C 
ATOM      8  O   UNL     1       9.607 -28.675  17.202  1.00  0.00    -0.246 OA
BRANCH   7   9
ATOM      9  O   UNL     1       7.969 -30.291  17.272  1.00  0.00    -0.465 OA
ATOM     10  C   UNL     1       7.058 -29.793  18.247  1.00  0.00     0.282 C 
ENDBRANCH   7   9
ENDBRANCH   1   7
BRANCH   6  11
ATOM     11  O   UNL     1      11.201 -28.737  14.999  1.00  0.00    -0.507 OA
ATOM     12  H   UNL     1      11.890 -28.154  14.537  1.00  0.00     0.293 HD
ENDBRANCH   6  11
TORSDOF 3
ENDMDL
MODEL 8
REMARK VINA RESULT:    -4.042      2.747      4.073
REMARK INTER + INTRA:          -4.871
REMARK INTER:                  -4.571
REMARK INTRA:                  -0.299
REMARK UNBOUND:                -0.238
REMARK SMILES COC(=O)c1ccccc1O
REMARK SMILES IDX 5 1 6 2 7 3 8 4 9 5 10 6 3 7 4 8 2 9 1 10 11 11
REMARK H PARENT 11 12
REMARK Flexibility Score: inf
ROOT
ATOM      1  C   UNL     1       9.005 -29.739  15.070  1.00  0.00     0.101 A 
ATOM      2  C   UNL     1       8.319 -30.456  14.071  1.00  0.00     0.019 A 
ATOM      3  C   UNL     1       8.853 -30.581  12.787  1.00  0.00     0.001 A 
ATOM      4  C   UNL     1      10.080 -29.993  12.479  1.00  0.00     0.004 A 
ATOM      5  C   UNL     1      10.776 -29.277  13.455  1.00  0.00     0.047 A 
ATOM      6  C   UNL     1      10.250 -29.145  14.750  1.00  0.00     0.130 A 
ENDROOT
BRANCH   1   7
ATOM      7  C   UNL     1       8.405 -29.627  16.424  1.00  0.00     0.341 C 
ATOM      8  O   UNL     1       7.153 -29.598  16.572  1.00  0.00    -0.246 OA
BRANCH   7   9
ATOM      9  O   UNL     1       9.238 -29.553  17.547  1.00  0.00    -0.465 OA
ATOM     10  C   UNL     1       8.866 -28.865  18.736  1.00  0.00     0.282 C 
ENDBRANCH   7   9
ENDBRANCH   1   7
BRANCH   6  11
ATOM     11  O   UNL     1      10.965 -28.425  15.706  1.00  0.00    -0.507 OA
ATOM     12  H   UNL     1      11.915 -28.113  15.539  1.00  0.00     0.293 HD
ENDBRANCH   6  11
TORSDOF 3
ENDMDL
MODEL 9
REMARK VINA RESULT:    -3.852      1.777      3.591
REMARK INTER + INTRA:          -4.653
REMARK INTER:                  -4.296
REMARK INTRA:                  -0.356
REMARK UNBOUND:                -0.238
REMARK SMILES COC(=O)c1ccccc1O
REMARK SMILES IDX 5 1 6 2 7 3 8 4 9 5 10 6 3 7 4 8 2 9 1 10 11 11
REMARK H PARENT 11 12
REMARK Flexibility Score: inf
ROOT
ATOM      1  C   UNL     1       7.319 -30.525  16.691  1.00  0.00     0.101 A 
ATOM      2  C   UNL     1       6.957 -29.898  15.484  1.00  0.00     0.019 A 
ATOM      3  C   UNL     1       7.146 -30.543  14.259  1.00  0.00     0.001 A 
ATOM      4  C   UNL     1       7.697 -31.824  14.221  1.00  0.00     0.004 A 
ATOM      5  C   UNL     1       8.062 -32.463  15.407  1.00  0.00     0.047 A 
ATOM      6  C   UNL     1       7.878 -31.826  16.644  1.00  0.00     0.130 A 
ENDROOT
BRANCH   1   7
ATOM      7  C   UNL     1       7.104 -29.808  17.974  1.00  0.00     0.341 C 
ATOM      8  O   UNL     1       5.982 -29.301  18.247  1.00  0.00    -0.246 OA
BRANCH   7   9
ATOM      9  O   UNL     1       8.157 -29.693  18.889  1.00  0.00    -0.465 OA
ATOM     10  C   UNL     1       9.320 -28.914  18.628  1.00  0.00     0.282 C 
ENDBRANCH   7   9
ENDBRANCH   1   7
BRANCH   6  11
ATOM     11  O   UNL     1       8.251 -32.486  17.814  1.00  0.00    -0.507 OA
ATOM     12  H   UNL     1       9.145 -32.315  18.260  1.00  0.00     0.293 HD
ENDBRANCH   6  11
TORSDOF 3
ENDMDL
