MODEL 1
REMARK VINA RESULT:    -3.403      0.000      0.000
REMARK INTER + INTRA:          -5.211
REMARK INTER:                  -4.995
REMARK INTRA:                  -0.216
REMARK UNBOUND:                -0.216
REMARK SMILES O=C([O-])CCCCCCCC(=O)[O-]
REMARK SMILES IDX 7 1 6 2 5 3 4 4 2 5 1 6 3 7 8 8 9 9 10 10 11 11 12 12 13 13
REMARK H PARENT
REMARK Flexibility Score: inf
ROOT
ATOM      1  C   UNL     1     -43.153 -23.034  28.100  1.00  0.00     0.000 C 
ENDROOT
BRANCH   1   2
ATOM      2  C   UNL     1     -41.986 -22.409  28.894  1.00  0.00     0.000 C 
BRANCH   2   3
ATOM      3  C   UNL     1     -41.139 -21.459  28.035  1.00  0.00     0.006 C 
BRANCH   3   4
ATOM      4  C   UNL     1     -40.121 -20.701  28.892  1.00  0.00     0.053 C 
BRANCH   4   5
ATOM      5  C   UNL     1     -39.018 -20.159  28.039  1.00  0.00     0.041 C 
ATOM      6  O   UNL     1     -39.131 -19.025  27.503  1.00  0.00    -0.550 OA
ATOM      7  O   UNL     1     -37.844 -20.884  27.879  1.00  0.00    -0.550 OA
ENDBRANCH   4   5
ENDBRANCH   3   4
ENDBRANCH   2   3
ENDBRANCH   1   2
BRANCH   1   8
ATOM      8  C   UNL     1     -44.540 -22.509  28.518  1.00  0.00     0.000 C 
BRANCH   8   9
ATOM      9  C   UNL     1     -45.218 -21.585  27.492  1.00  0.00     0.006 C 
BRANCH   9  10
ATOM     10  C   UNL     1     -46.745 -21.733  27.477  1.00  0.00     0.053 C 
BRANCH  10  11
ATOM     11  C   UNL     1     -47.398 -20.408  27.713  1.00  0.00     0.041 C 
ATOM     12  O   UNL     1     -48.277 -20.285  28.606  1.00  0.00    -0.550 OA
ATOM     13  O   UNL     1     -47.001 -19.297  26.981  1.00  0.00    -0.550 OA
ENDBRANCH  10  11
ENDBRANCH   9  10
ENDBRANCH   8   9
ENDBRANCH   1   8
TORSDOF 8
ENDMDL
MODEL 2
REMARK VINA RESULT:    -3.403      0.719      7.101
REMARK INTER + INTRA:          -5.211
REMARK INTER:                  -5.045
REMARK INTRA:                  -0.166
REMARK UNBOUND:                -0.216
REMARK SMILES O=C([O-])CCCCCCCC(=O)[O-]
REMARK SMILES IDX 7 1 6 2 5 3 4 4 2 5 1 6 3 7 8 8 9 9 10 10 11 11 12 12 13 13
REMARK H PARENT
REMARK Flexibility Score: inf
ROOT
ATOM      1  C   UNL     1     -42.984 -22.191  27.803  1.00  0.00     0.000 C 
ENDROOT
BRANCH   1   2
ATOM      2  C   UNL     1     -44.446 -22.259  28.292  1.00  0.00     0.000 C 
BRANCH   2   3
ATOM      3  C   UNL     1     -45.409 -21.510  27.358  1.00  0.00     0.006 C 
BRANCH   3   4
ATOM      4  C   UNL     1     -46.857 -21.650  27.835  1.00  0.00     0.053 C 
BRANCH   4   5
ATOM      5  C   UNL     1     -47.701 -20.548  27.277  1.00  0.00     0.041 C 
ATOM      6  O   UNL     1     -48.826 -20.805  26.772  1.00  0.00    -0.550 OA
ATOM      7  O   UNL     1     -47.268 -19.231  27.360  1.00  0.00    -0.550 OA
ENDBRANCH   4   5
ENDBRANCH   3   4
ENDBRANCH   2   3
ENDBRANCH   1   2
BRANCH   1   8
ATOM      8  C   UNL     1     -41.944 -22.347  28.929  1.00  0.00     0.000 C 
BRANCH   8   9
ATOM      9  C   UNL     1     -40.501 -21.995  28.530  1.00  0.00     0.006 C 
BRANCH   9  10
ATOM     10  C   UNL     1     -40.120 -20.554  28.892  1.00  0.00     0.053 C 
BRANCH  10  11
ATOM     11  C   UNL     1     -39.093 -20.031  27.938  1.00  0.00     0.041 C 
ATOM     12  O   UNL     1     -39.289 -18.949  27.326  1.00  0.00    -0.550 OA
ATOM     13  O   UNL     1     -37.897 -20.714  27.761  1.00  0.00    -0.550 OA
ENDBRANCH  10  11
ENDBRANCH   9  10
ENDBRANCH   8   9
ENDBRANCH   1   8
TORSDOF 8
ENDMDL
MODEL 3
REMARK VINA RESULT:    -3.361      2.123      3.153
REMARK INTER + INTRA:          -5.150
REMARK INTER:                  -4.715
REMARK INTRA:                  -0.434
REMARK UNBOUND:                -0.216
REMARK SMILES O=C([O-])CCCCCCCC(=O)[O-]
REMARK SMILES IDX 7 1 6 2 5 3 4 4 2 5 1 6 3 7 8 8 9 9 10 10 11 11 12 12 13 13
REMARK H PARENT
REMARK Flexibility Score: inf
ROOT
ATOM      1  C   UNL     1     -41.100 -21.623  28.736  1.00  0.00     0.000 C 
ENDROOT
BRANCH   1   2
ATOM      2  C   UNL     1     -40.052 -20.517  28.987  1.00  0.00     0.000 C 
BRANCH   2   3
ATOM      3  C   UNL     1     -38.893 -20.573  27.982  1.00  0.00     0.006 C 
BRANCH   3   4
ATOM      4  C   UNL     1     -37.906 -21.688  28.340  1.00  0.00     0.053 C 
BRANCH   4   5
ATOM      5  C   UNL     1     -37.841 -22.703  27.243  1.00  0.00     0.041 C 
ATOM      6  O   UNL     1     -36.953 -22.618  26.354  1.00  0.00    -0.550 OA
ATOM      7  O   UNL     1     -38.728 -23.771  27.231  1.00  0.00    -0.550 OA
ENDBRANCH   4   5
ENDBRANCH   3   4
ENDBRANCH   2   3
ENDBRANCH   1   2
BRANCH   1   8
ATOM      8  C   UNL     1     -41.662 -21.631  27.302  1.00  0.00     0.000 C 
BRANCH   8   9
ATOM      9  C   UNL     1     -43.183 -21.843  27.205  1.00  0.00     0.006 C 
BRANCH   9  10
ATOM     10  C   UNL     1     -43.780 -22.450  28.482  1.00  0.00     0.053 C 
BRANCH  10  11
ATOM     11  C   UNL     1     -45.267 -22.557  28.360  1.00  0.00     0.041 C 
ATOM     12  O   UNL     1     -45.936 -21.595  27.900  1.00  0.00    -0.550 OA
ATOM     13  O   UNL     1     -45.910 -23.738  28.708  1.00  0.00    -0.550 OA
ENDBRANCH  10  11
ENDBRANCH   9  10
ENDBRANCH   8   9
ENDBRANCH   1   8
TORSDOF 8
ENDMDL
MODEL 4
REMARK VINA RESULT:    -3.350      0.877      6.910
REMARK INTER + INTRA:          -5.133
REMARK INTER:                  -4.921
REMARK INTRA:                  -0.212
REMARK UNBOUND:                -0.216
REMARK SMILES O=C([O-])CCCCCCCC(=O)[O-]
REMARK SMILES IDX 7 1 6 2 5 3 4 4 2 5 1 6 3 7 8 8 9 9 10 10 11 11 12 12 13 13
REMARK H PARENT
REMARK Flexibility Score: inf
ROOT
ATOM      1  C   UNL     1     -42.320 -22.010  27.824  1.00  0.00     0.000 C 
ENDROOT
BRANCH   1   2
ATOM      2  C   UNL     1     -43.740 -22.337  28.333  1.00  0.00     0.000 C 
BRANCH   2   3
ATOM      3  C   UNL     1     -44.833 -21.731  27.441  1.00  0.00     0.006 C 
BRANCH   3   4
ATOM      4  C   UNL     1     -46.226 -22.006  28.013  1.00  0.00     0.053 C 
BRANCH   4   5
ATOM      5  C   UNL     1     -47.118 -20.822  27.814  1.00  0.00     0.041 C 
ATOM      6  O   UNL     1     -48.075 -20.609  28.605  1.00  0.00    -0.550 OA
ATOM      7  O   UNL     1     -46.863 -19.925  26.785  1.00  0.00    -0.550 OA
ENDBRANCH   4   5
ENDBRANCH   3   4
ENDBRANCH   2   3
ENDBRANCH   1   2
BRANCH   1   8
ATOM      8  C   UNL     1     -41.253 -21.980  28.936  1.00  0.00     0.000 C 
BRANCH   8   9
ATOM      9  C   UNL     1     -40.464 -20.664  29.039  1.00  0.00     0.006 C 
BRANCH   9  10
ATOM     10  C   UNL     1     -39.071 -20.756  28.402  1.00  0.00     0.053 C 
BRANCH  10  11
ATOM     11  C   UNL     1     -38.981 -19.849  27.216  1.00  0.00     0.041 C 
ATOM     12  O   UNL     1     -38.378 -20.224  26.176  1.00  0.00    -0.550 OA
ATOM     13  O   UNL     1     -39.605 -18.609  27.240  1.00  0.00    -0.550 OA
ENDBRANCH  10  11
ENDBRANCH   9  10
ENDBRANCH   8   9
ENDBRANCH   1   8
TORSDOF 8
ENDMDL
MODEL 5
REMARK VINA RESULT:    -3.341      0.831      1.527
REMARK INTER + INTRA:          -5.119
REMARK INTER:                  -4.802
REMARK INTRA:                  -0.317
REMARK UNBOUND:                -0.216
REMARK SMILES O=C([O-])CCCCCCCC(=O)[O-]
REMARK SMILES IDX 7 1 6 2 5 3 4 4 2 5 1 6 3 7 8 8 9 9 10 10 11 11 12 12 13 13
REMARK H PARENT
REMARK Flexibility Score: inf
ROOT
ATOM      1  C   UNL     1     -43.764 -22.360  28.202  1.00  0.00     0.000 C 
ENDROOT
BRANCH   1   2
ATOM      2  C   UNL     1     -42.429 -22.344  28.977  1.00  0.00     0.000 C 
BRANCH   2   3
ATOM      3  C   UNL     1     -41.278 -21.764  28.142  1.00  0.00     0.006 C 
BRANCH   3   4
ATOM      4  C   UNL     1     -40.342 -20.918  29.009  1.00  0.00     0.053 C 
BRANCH   4   5
ATOM      5  C   UNL     1     -39.008 -20.767  28.348  1.00  0.00     0.041 C 
ATOM      6  O   UNL     1     -38.064 -21.547  28.643  1.00  0.00    -0.550 OA
ATOM      7  O   UNL     1     -38.823 -19.799  27.370  1.00  0.00    -0.550 OA
ENDBRANCH   4   5
ENDBRANCH   3   4
ENDBRANCH   2   3
ENDBRANCH   1   2
BRANCH   1   8
ATOM      8  C   UNL     1     -43.714 -21.604  26.860  1.00  0.00     0.000 C 
BRANCH   8   9
ATOM      9  C   UNL     1     -44.882 -20.633  26.621  1.00  0.00     0.006 C 
BRANCH   9  10
ATOM     10  C   UNL     1     -46.237 -21.221  27.035  1.00  0.00     0.053 C 
BRANCH  10  11
ATOM     11  C   UNL     1     -47.174 -20.131  27.446  1.00  0.00     0.041 C 
ATOM     12  O   UNL     1     -47.053 -18.975  26.961  1.00  0.00    -0.550 OA
ATOM     13  O   UNL     1     -48.214 -20.401  28.327  1.00  0.00    -0.550 OA
ENDBRANCH  10  11
ENDBRANCH   9  10
ENDBRANCH   8   9
ENDBRANCH   1   8
TORSDOF 8
ENDMDL
MODEL 6
REMARK VINA RESULT:    -3.273      1.689      2.557
REMARK INTER + INTRA:          -5.020
REMARK INTER:                  -4.700
REMARK INTRA:                  -0.320
REMARK UNBOUND:                -0.216
REMARK SMILES O=C([O-])CCCCCCCC(=O)[O-]
REMARK SMILES IDX 7 1 6 2 5 3 4 4 2 5 1 6 3 7 8 8 9 9 10 10 11 11 12 12 13 13
REMARK H PARENT
REMARK Flexibility Score: inf
ROOT
ATOM      1  C   UNL     1     -45.092 -21.543  27.512  1.00  0.00     0.000 C 
ENDROOT
BRANCH   1   2
ATOM      2  C   UNL     1     -44.293 -22.482  28.440  1.00  0.00     0.000 C 
BRANCH   2   3
ATOM      3  C   UNL     1     -42.843 -22.670  27.971  1.00  0.00     0.006 C 
BRANCH   3   4
ATOM      4  C   UNL     1     -41.853 -22.190  29.037  1.00  0.00     0.053 C 
BRANCH   4   5
ATOM      5  C   UNL     1     -40.932 -21.156  28.469  1.00  0.00     0.041 C 
ATOM      6  O   UNL     1     -41.075 -20.765  27.281  1.00  0.00    -0.550 OA
ATOM      7  O   UNL     1     -39.949 -20.589  29.268  1.00  0.00    -0.550 OA
ENDBRANCH   4   5
ENDBRANCH   3   4
ENDBRANCH   2   3
ENDBRANCH   1   2
BRANCH   1   8
ATOM      8  C   UNL     1     -46.613 -21.569  27.761  1.00  0.00     0.000 C 
BRANCH   8   9
ATOM      9  C   UNL     1     -47.308 -20.201  27.654  1.00  0.00     0.006 C 
BRANCH   9  10
ATOM     10  C   UNL     1     -47.042 -19.503  26.314  1.00  0.00     0.053 C 
BRANCH  10  11
ATOM     11  C   UNL     1     -46.326 -18.208  26.536  1.00  0.00     0.041 C 
ATOM     12  O   UNL     1     -46.914 -17.247  27.097  1.00  0.00    -0.550 OA
ATOM     13  O   UNL     1     -44.993 -18.079  26.168  1.00  0.00    -0.550 OA
ENDBRANCH  10  11
ENDBRANCH   9  10
ENDBRANCH   8   9
ENDBRANCH   1   8
TORSDOF 8
ENDMDL
MODEL 7
REMARK VINA RESULT:    -3.265      4.087      5.447
REMARK INTER + INTRA:          -5.008
REMARK INTER:                  -4.631
REMARK INTRA:                  -0.377
REMARK UNBOUND:                -0.216
REMARK SMILES O=C([O-])CCCCCCCC(=O)[O-]
REMARK SMILES IDX 7 1 6 2 5 3 4 4 2 5 1 6 3 7 8 8 9 9 10 10 11 11 12 12 13 13
REMARK H PARENT
REMARK Flexibility Score: inf
ROOT
ATOM      1  C   UNL     1     -46.782 -18.932  26.603  1.00  0.00     0.000 C 
ENDROOT
BRANCH   1   2
ATOM      2  C   UNL     1     -46.861 -17.411  26.856  1.00  0.00     0.000 C 
BRANCH   2   3
ATOM      3  C   UNL     1     -45.490 -16.729  26.743  1.00  0.00     0.006 C 
BRANCH   3   4
ATOM      4  C   UNL     1     -44.531 -17.560  25.886  1.00  0.00     0.053 C 
BRANCH   4   5
ATOM      5  C   UNL     1     -43.618 -16.668  25.106  1.00  0.00     0.041 C 
ATOM      6  O   UNL     1     -43.005 -17.114  24.100  1.00  0.00    -0.550 OA
ATOM      7  O   UNL     1     -43.484 -15.332  25.458  1.00  0.00    -0.550 OA
ENDBRANCH   4   5
ENDBRANCH   3   4
ENDBRANCH   2   3
ENDBRANCH   1   2
BRANCH   1   8
ATOM      8  C   UNL     1     -47.831 -19.748  27.383  1.00  0.00     0.000 C 
BRANCH   8   9
ATOM      9  C   UNL     1     -47.306 -21.059  27.993  1.00  0.00     0.006 C 
BRANCH   9  10
ATOM     10  C   UNL     1     -45.933 -21.462  27.443  1.00  0.00     0.053 C 
BRANCH  10  11
ATOM     11  C   UNL     1     -45.290 -22.474  28.338  1.00  0.00     0.041 C 
ATOM     12  O   UNL     1     -44.088 -22.337  28.689  1.00  0.00    -0.550 OA
ATOM     13  O   UNL     1     -46.032 -23.541  28.828  1.00  0.00    -0.550 OA
ENDBRANCH  10  11
ENDBRANCH   9  10
ENDBRANCH   8   9
ENDBRANCH   1   8
TORSDOF 8
ENDMDL
MODEL 8
REMARK VINA RESULT:    -3.239      3.403      5.810
REMARK INTER + INTRA:          -4.970
REMARK INTER:                  -4.317
REMARK INTRA:                  -0.653
REMARK UNBOUND:                -0.216
REMARK SMILES O=C([O-])CCCCCCCC(=O)[O-]
REMARK SMILES IDX 7 1 6 2 5 3 4 4 2 5 1 6 3 7 8 8 9 9 10 10 11 11 12 12 13 13
REMARK H PARENT
REMARK Flexibility Score: inf
ROOT
ATOM      1  C   UNL     1     -38.224 -20.686  27.746  1.00  0.00     0.000 C 
ENDROOT
BRANCH   1   2
ATOM      2  C   UNL     1     -39.093 -21.721  28.492  1.00  0.00     0.000 C 
BRANCH   2   3
ATOM      3  C   UNL     1     -40.484 -21.172  28.840  1.00  0.00     0.006 C 
BRANCH   3   4
ATOM      4  C   UNL     1     -41.510 -21.554  27.769  1.00  0.00     0.053 C 
BRANCH   4   5
ATOM      5  C   UNL     1     -42.429 -22.619  28.278  1.00  0.00     0.041 C 
ATOM      6  O   UNL     1     -42.068 -23.825  28.267  1.00  0.00    -0.550 OA
ATOM      7  O   UNL     1     -43.663 -22.274  28.813  1.00  0.00    -0.550 OA
ENDBRANCH   4   5
ENDBRANCH   3   4
ENDBRANCH   2   3
ENDBRANCH   1   2
BRANCH   1   8
ATOM      8  C   UNL     1     -38.326 -20.779  26.212  1.00  0.00     0.000 C 
BRANCH   8   9
ATOM      9  C   UNL     1     -39.084 -19.620  25.543  1.00  0.00     0.006 C 
BRANCH   9  10
ATOM     10  C   UNL     1     -39.471 -18.514  26.533  1.00  0.00     0.053 C 
BRANCH  10  11
ATOM     11  C   UNL     1     -40.772 -17.892  26.135  1.00  0.00     0.041 C 
ATOM     12  O   UNL     1     -41.698 -18.604  25.666  1.00  0.00    -0.550 OA
ATOM     13  O   UNL     1     -40.981 -16.532  26.329  1.00  0.00    -0.550 OA
ENDBRANCH  10  11
ENDBRANCH   9  10
ENDBRANCH   8   9
ENDBRANCH   1   8
TORSDOF 8
ENDMDL
MODEL 9
REMARK VINA RESULT:    -3.204      2.500      3.665
REMARK INTER + INTRA:          -4.918
REMARK INTER:                  -4.229
REMARK INTRA:                  -0.690
REMARK UNBOUND:                -0.216
REMARK SMILES O=C([O-])CCCCCCCC(=O)[O-]
REMARK SMILES IDX 7 1 6 2 5 3 4 4 2 5 1 6 3 7 8 8 9 9 10 10 11 11 12 12 13 13
REMARK H PARENT
REMARK Flexibility Score: inf
ROOT
ATOM      1  C   UNL     1     -39.451 -23.177  27.675  1.00  0.00     0.000 C 
ENDROOT
BRANCH   1   2
ATOM      2  C   UNL     1     -38.261 -22.508  28.396  1.00  0.00     0.000 C 
BRANCH   2   3
ATOM      3  C   UNL     1     -37.919 -21.133  27.805  1.00  0.00     0.006 C 
BRANCH   3   4
ATOM      4  C   UNL     1     -38.988 -20.098  28.166  1.00  0.00     0.053 C 
BRANCH   4   5
ATOM      5  C   UNL     1     -39.495 -19.416  26.934  1.00  0.00     0.041 C 
ATOM      6  O   UNL     1     -39.644 -20.067  25.866  1.00  0.00    -0.550 OA
ATOM      7  O   UNL     1     -39.851 -18.075  26.979  1.00  0.00    -0.550 OA
ENDBRANCH   4   5
ENDBRANCH   3   4
ENDBRANCH   2   3
ENDBRANCH   1   2
BRANCH   1   8
ATOM      8  C   UNL     1     -40.553 -23.678  28.628  1.00  0.00     0.000 C 
BRANCH   8   9
ATOM      9  C   UNL     1     -41.640 -22.643  28.961  1.00  0.00     0.006 C 
BRANCH   9  10
ATOM     10  C   UNL     1     -42.175 -21.922  27.717  1.00  0.00     0.053 C 
BRANCH  10  11
ATOM     11  C   UNL     1     -43.652 -22.123  27.594  1.00  0.00     0.041 C 
ATOM     12  O   UNL     1     -44.209 -22.059  26.467  1.00  0.00    -0.550 OA
ATOM     13  O   UNL     1     -44.408 -22.430  28.718  1.00  0.00    -0.550 OA
ENDBRANCH  10  11
ENDBRANCH   9  10
ENDBRANCH   8   9
ENDBRANCH   1   8
TORSDOF 8
ENDMDL
