MODEL 1
REMARK VINA RESULT:    -4.055      0.000      0.000
REMARK INTER + INTRA:          -8.461
REMARK INTER:                  -6.900
REMARK INTRA:                  -1.561
REMARK UNBOUND:                -1.561
REMARK SMILES CCCCCCCCCCCCCC(=O)[O-]
REMARK SMILES IDX 8 1 9 2 10 3 11 4 12 5 13 6 14 7 15 8 16 9 7 10 6 11 5 12
REMARK SMILES IDX 4 13 3 14 2 15 1 16
REMARK H PARENT
REMARK Flexibility Score: inf
ROOT
ATOM      1  C   UNL     1      48.384  -0.936  74.777  1.00  0.00     0.000 C 
ENDROOT
BRANCH   1   2
ATOM      2  C   UNL     1      48.888   0.099  73.750  1.00  0.00     0.000 C 
BRANCH   2   3
ATOM      3  C   UNL     1      48.657  -0.284  72.277  1.00  0.00     0.000 C 
BRANCH   3   4
ATOM      4  C   UNL     1      49.810  -1.110  71.689  1.00  0.00     0.000 C 
BRANCH   4   5
ATOM      5  C   UNL     1      51.162  -0.644  72.251  1.00  0.00     0.006 C 
BRANCH   5   6
ATOM      6  C   UNL     1      52.029  -1.817  72.728  1.00  0.00     0.053 C 
BRANCH   6   7
ATOM      7  C   UNL     1      53.396  -1.783  72.116  1.00  0.00     0.041 C 
ATOM      8  O   UNL     1      53.809  -0.740  71.545  1.00  0.00    -0.550 OA
ATOM      9  O   UNL     1      54.200  -2.915  72.146  1.00  0.00    -0.550 OA
ENDBRANCH   6   7
ENDBRANCH   5   6
ENDBRANCH   4   5
ENDBRANCH   3   4
ENDBRANCH   2   3
ENDBRANCH   1   2
BRANCH   1  10
ATOM     10  C   UNL     1      49.478  -1.834  75.392  1.00  0.00     0.000 C 
BRANCH  10  11
ATOM     11  C   UNL     1      49.425  -3.312  74.967  1.00  0.00    -0.000 C 
BRANCH  11  12
ATOM     12  C   UNL     1      48.180  -3.648  74.131  1.00  0.00    -0.000 C 
BRANCH  12  13
ATOM     13  C   UNL     1      48.531  -4.299  72.782  1.00  0.00    -0.000 C 
BRANCH  13  14
ATOM     14  C   UNL     1      47.593  -5.465  72.422  1.00  0.00    -0.000 C 
BRANCH  14  15
ATOM     15  C   UNL     1      46.582  -5.771  73.537  1.00  0.00    -0.003 C 
ATOM     16  C   UNL     1      46.322  -7.268  73.703  1.00  0.00     0.004 C 
ENDBRANCH  14  15
ENDBRANCH  13  14
ENDBRANCH  12  13
ENDBRANCH  11  12
ENDBRANCH  10  11
ENDBRANCH   1  10
TORSDOF 12
ENDMDL
MODEL 2
REMARK VINA RESULT:    -3.991      8.675      9.987
REMARK INTER + INTRA:          -8.351
REMARK INTER:                  -7.708
REMARK INTRA:                  -0.643
REMARK UNBOUND:                -1.561
REMARK SMILES CCCCCCCCCCCCCC(=O)[O-]
REMARK SMILES IDX 8 1 9 2 10 3 11 4 12 5 13 6 14 7 15 8 16 9 7 10 6 11 5 12
REMARK SMILES IDX 4 13 3 14 2 15 1 16
REMARK H PARENT
REMARK Flexibility Score: inf
ROOT
ATOM      1  C   UNL     1      47.128  -2.397  82.307  1.00  0.00     0.000 C 
ENDROOT
BRANCH   1   2
ATOM      2  C   UNL     1      48.349  -1.607  81.795  1.00  0.00     0.000 C 
BRANCH   2   3
ATOM      3  C   UNL     1      49.019  -2.190  80.538  1.00  0.00     0.000 C 
BRANCH   3   4
ATOM      4  C   UNL     1      48.199  -3.318  79.895  1.00  0.00     0.000 C 
BRANCH   4   5
ATOM      5  C   UNL     1      49.108  -4.287  79.124  1.00  0.00     0.006 C 
BRANCH   5   6
ATOM      6  C   UNL     1      48.308  -5.304  78.299  1.00  0.00     0.053 C 
BRANCH   6   7
ATOM      7  C   UNL     1      48.682  -6.715  78.640  1.00  0.00     0.041 C 
ATOM      8  O   UNL     1      47.793  -7.548  78.954  1.00  0.00    -0.550 OA
ATOM      9  O   UNL     1      50.017  -7.098  78.645  1.00  0.00    -0.550 OA
ENDBRANCH   6   7
ENDBRANCH   5   6
ENDBRANCH   4   5
ENDBRANCH   3   4
ENDBRANCH   2   3
ENDBRANCH   1   2
BRANCH   1  10
ATOM     10  C   UNL     1      47.141  -2.719  83.817  1.00  0.00     0.000 C 
BRANCH  10  11
ATOM     11  C   UNL     1      45.959  -3.569  84.313  1.00  0.00    -0.000 C 
BRANCH  11  12
ATOM     12  C   UNL     1      45.659  -4.767  83.397  1.00  0.00    -0.000 C 
BRANCH  12  13
ATOM     13  C   UNL     1      44.557  -5.680  83.961  1.00  0.00    -0.000 C 
BRANCH  13  14
ATOM     14  C   UNL     1      43.564  -4.927  84.863  1.00  0.00    -0.000 C 
BRANCH  14  15
ATOM     15  C   UNL     1      42.652  -5.876  85.654  1.00  0.00    -0.003 C 
ATOM     16  C   UNL     1      43.006  -7.348  85.440  1.00  0.00     0.004 C 
ENDBRANCH  14  15
ENDBRANCH  13  14
ENDBRANCH  12  13
ENDBRANCH  11  12
ENDBRANCH  10  11
ENDBRANCH   1  10
TORSDOF 12
ENDMDL
MODEL 3
REMARK VINA RESULT:    -3.887      3.502      5.960
REMARK INTER + INTRA:          -8.175
REMARK INTER:                  -6.360
REMARK INTRA:                  -1.816
REMARK UNBOUND:                -1.561
REMARK SMILES CCCCCCCCCCCCCC(=O)[O-]
REMARK SMILES IDX 8 1 9 2 10 3 11 4 12 5 13 6 14 7 15 8 16 9 7 10 6 11 5 12
REMARK SMILES IDX 4 13 3 14 2 15 1 16
REMARK H PARENT
REMARK Flexibility Score: inf
ROOT
ATOM      1  C   UNL     1      49.350  -1.178  75.515  1.00  0.00     0.000 C 
ENDROOT
BRANCH   1   2
ATOM      2  C   UNL     1      49.553  -2.690  75.295  1.00  0.00     0.000 C 
BRANCH   2   3
ATOM      3  C   UNL     1      48.390  -3.405  74.584  1.00  0.00     0.000 C 
BRANCH   3   4
ATOM      4  C   UNL     1      48.866  -4.464  73.580  1.00  0.00     0.000 C 
BRANCH   4   5
ATOM      5  C   UNL     1      47.746  -4.828  72.593  1.00  0.00     0.006 C 
BRANCH   5   6
ATOM      6  C   UNL     1      47.662  -6.338  72.339  1.00  0.00     0.053 C 
BRANCH   6   7
ATOM      7  C   UNL     1      46.621  -6.991  73.197  1.00  0.00     0.041 C 
ATOM      8  O   UNL     1      46.790  -8.166  73.613  1.00  0.00    -0.550 OA
ATOM      9  O   UNL     1      45.450  -6.312  73.506  1.00  0.00    -0.550 OA
ENDBRANCH   6   7
ENDBRANCH   5   6
ENDBRANCH   4   5
ENDBRANCH   3   4
ENDBRANCH   2   3
ENDBRANCH   1   2
BRANCH   1  10
ATOM     10  C   UNL     1      48.301  -0.517  74.596  1.00  0.00     0.000 C 
BRANCH  10  11
ATOM     11  C   UNL     1      48.866   0.126  73.317  1.00  0.00    -0.000 C 
BRANCH  11  12
ATOM     12  C   UNL     1      48.746  -0.787  72.086  1.00  0.00    -0.000 C 
BRANCH  12  13
ATOM     13  C   UNL     1      50.077  -1.463  71.720  1.00  0.00    -0.000 C 
BRANCH  13  14
ATOM     14  C   UNL     1      51.301  -0.696  72.251  1.00  0.00    -0.000 C 
BRANCH  14  15
ATOM     15  C   UNL     1      52.466  -1.627  72.614  1.00  0.00    -0.003 C 
ATOM     16  C   UNL     1      52.066  -3.102  72.611  1.00  0.00     0.004 C 
ENDBRANCH  14  15
ENDBRANCH  13  14
ENDBRANCH  12  13
ENDBRANCH  11  12
ENDBRANCH  10  11
ENDBRANCH   1  10
TORSDOF 12
ENDMDL
MODEL 4
REMARK VINA RESULT:    -3.776      3.799      6.491
REMARK INTER + INTRA:          -7.987
REMARK INTER:                  -6.327
REMARK INTRA:                  -1.660
REMARK UNBOUND:                -1.561
REMARK SMILES CCCCCCCCCCCCCC(=O)[O-]
REMARK SMILES IDX 8 1 9 2 10 3 11 4 12 5 13 6 14 7 15 8 16 9 7 10 6 11 5 12
REMARK SMILES IDX 4 13 3 14 2 15 1 16
REMARK H PARENT
REMARK Flexibility Score: inf
ROOT
ATOM      1  C   UNL     1      50.344  -3.498  74.615  1.00  0.00     0.000 C 
ENDROOT
BRANCH   1   2
ATOM      2  C   UNL     1      48.924  -4.098  74.603  1.00  0.00     0.000 C 
BRANCH   2   3
ATOM      3  C   UNL     1      48.143  -3.890  73.293  1.00  0.00     0.000 C 
BRANCH   3   4
ATOM      4  C   UNL     1      47.676  -5.210  72.662  1.00  0.00     0.000 C 
BRANCH   4   5
ATOM      5  C   UNL     1      47.318  -6.239  73.744  1.00  0.00     0.006 C 
BRANCH   5   6
ATOM      6  C   UNL     1      45.850  -6.676  73.669  1.00  0.00     0.053 C 
BRANCH   6   7
ATOM      7  C   UNL     1      44.943  -5.704  74.361  1.00  0.00     0.041 C 
ATOM      8  O   UNL     1      45.374  -5.006  75.316  1.00  0.00    -0.550 OA
ATOM      9  O   UNL     1      43.614  -5.594  73.973  1.00  0.00    -0.550 OA
ENDBRANCH   6   7
ENDBRANCH   5   6
ENDBRANCH   4   5
ENDBRANCH   3   4
ENDBRANCH   2   3
ENDBRANCH   1   2
BRANCH   1  10
ATOM     10  C   UNL     1      51.313  -4.082  73.566  1.00  0.00     0.000 C 
BRANCH  10  11
ATOM     11  C   UNL     1      51.537  -3.204  72.322  1.00  0.00    -0.000 C 
BRANCH  11  12
ATOM     12  C   UNL     1      52.129  -1.827  72.664  1.00  0.00    -0.000 C 
BRANCH  12  13
ATOM     13  C   UNL     1      51.192  -0.669  72.278  1.00  0.00    -0.000 C 
BRANCH  13  14
ATOM     14  C   UNL     1      49.858  -1.156  71.685  1.00  0.00    -0.000 C 
BRANCH  14  15
ATOM     15  C   UNL     1      48.647  -0.436  72.296  1.00  0.00    -0.003 C 
ATOM     16  C   UNL     1      48.808  -0.176  73.793  1.00  0.00     0.004 C 
ENDBRANCH  14  15
ENDBRANCH  13  14
ENDBRANCH  12  13
ENDBRANCH  11  12
ENDBRANCH  10  11
ENDBRANCH   1  10
TORSDOF 12
ENDMDL
MODEL 5
REMARK VINA RESULT:    -3.753      2.267      3.591
REMARK INTER + INTRA:          -7.947
REMARK INTER:                  -6.309
REMARK INTRA:                  -1.638
REMARK UNBOUND:                -1.561
REMARK SMILES CCCCCCCCCCCCCC(=O)[O-]
REMARK SMILES IDX 8 1 9 2 10 3 11 4 12 5 13 6 14 7 15 8 16 9 7 10 6 11 5 12
REMARK SMILES IDX 4 13 3 14 2 15 1 16
REMARK H PARENT
REMARK Flexibility Score: inf
ROOT
ATOM      1  C   UNL     1      50.378  -1.450  71.857  1.00  0.00     0.000 C 
ENDROOT
BRANCH   1   2
ATOM      2  C   UNL     1      51.736  -0.810  72.208  1.00  0.00     0.000 C 
BRANCH   2   3
ATOM      3  C   UNL     1      52.862  -1.810  72.525  1.00  0.00     0.000 C 
BRANCH   3   4
ATOM      4  C   UNL     1      52.370  -3.263  72.578  1.00  0.00     0.000 C 
BRANCH   4   5
ATOM      5  C   UNL     1      52.485  -3.830  74.002  1.00  0.00     0.006 C 
BRANCH   5   6
ATOM      6  C   UNL     1      52.512  -5.364  74.016  1.00  0.00     0.053 C 
BRANCH   6   7
ATOM      7  C   UNL     1      53.893  -5.893  74.259  1.00  0.00     0.041 C 
ATOM      8  O   UNL     1      54.069  -6.876  75.025  1.00  0.00    -0.550 OA
ATOM      9  O   UNL     1      54.988  -5.279  73.665  1.00  0.00    -0.550 OA
ENDBRANCH   6   7
ENDBRANCH   5   6
ENDBRANCH   4   5
ENDBRANCH   3   4
ENDBRANCH   2   3
ENDBRANCH   1   2
BRANCH   1  10
ATOM     10  C   UNL     1      49.160  -0.849  72.591  1.00  0.00     0.000 C 
BRANCH  10  11
ATOM     11  C   UNL     1      49.340  -0.658  74.107  1.00  0.00    -0.000 C 
BRANCH  11  12
ATOM     12  C   UNL     1      49.444  -1.990  74.868  1.00  0.00    -0.000 C 
BRANCH  12  13
ATOM     13  C   UNL     1      48.289  -2.950  74.539  1.00  0.00    -0.000 C 
BRANCH  13  14
ATOM     14  C   UNL     1      48.770  -4.257  73.883  1.00  0.00    -0.000 C 
BRANCH  14  15
ATOM     15  C   UNL     1      47.995  -4.590  72.601  1.00  0.00    -0.003 C 
ATOM     16  C   UNL     1      47.696  -6.083  72.463  1.00  0.00     0.004 C 
ENDBRANCH  14  15
ENDBRANCH  13  14
ENDBRANCH  12  13
ENDBRANCH  11  12
ENDBRANCH  10  11
ENDBRANCH   1  10
TORSDOF 12
ENDMDL
MODEL 6
REMARK VINA RESULT:    -3.745      2.299      3.511
REMARK INTER + INTRA:          -7.933
REMARK INTER:                  -6.582
REMARK INTRA:                  -1.352
REMARK UNBOUND:                -1.561
REMARK SMILES CCCCCCCCCCCCCC(=O)[O-]
REMARK SMILES IDX 8 1 9 2 10 3 11 4 12 5 13 6 14 7 15 8 16 9 7 10 6 11 5 12
REMARK SMILES IDX 4 13 3 14 2 15 1 16
REMARK H PARENT
REMARK Flexibility Score: inf
ROOT
ATOM      1  C   UNL     1      49.030   0.264  73.991  1.00  0.00     0.000 C 
ENDROOT
BRANCH   1   2
ATOM      2  C   UNL     1      48.572  -0.191  72.590  1.00  0.00     0.000 C 
BRANCH   2   3
ATOM      3  C   UNL     1      49.621  -0.985  71.792  1.00  0.00     0.000 C 
BRANCH   3   4
ATOM      4  C   UNL     1      49.745  -2.444  72.257  1.00  0.00     0.000 C 
BRANCH   4   5
ATOM      5  C   UNL     1      51.210  -2.805  72.547  1.00  0.00     0.006 C 
BRANCH   5   6
ATOM      6  C   UNL     1      52.082  -1.562  72.767  1.00  0.00     0.053 C 
BRANCH   6   7
ATOM      7  C   UNL     1      53.412  -1.689  72.088  1.00  0.00     0.041 C 
ATOM      8  O   UNL     1      54.073  -2.756  72.184  1.00  0.00    -0.550 OA
ATOM      9  O   UNL     1      53.937  -0.616  71.379  1.00  0.00    -0.550 OA
ENDBRANCH   6   7
ENDBRANCH   5   6
ENDBRANCH   4   5
ENDBRANCH   3   4
ENDBRANCH   2   3
ENDBRANCH   1   2
BRANCH   1  10
ATOM     10  C   UNL     1      48.397  -0.505  75.169  1.00  0.00     0.000 C 
BRANCH  10  11
ATOM     11  C   UNL     1      49.394  -1.262  76.065  1.00  0.00    -0.000 C 
BRANCH  11  12
ATOM     12  C   UNL     1      49.296  -2.788  75.911  1.00  0.00    -0.000 C 
BRANCH  12  13
ATOM     13  C   UNL     1      50.479  -3.525  76.561  1.00  0.00    -0.000 C 
BRANCH  13  14
ATOM     14  C   UNL     1      50.720  -3.093  78.019  1.00  0.00    -0.000 C 
BRANCH  14  15
ATOM     15  C   UNL     1      51.125  -4.269  78.920  1.00  0.00    -0.003 C 
ATOM     16  C   UNL     1      50.302  -5.529  78.652  1.00  0.00     0.004 C 
ENDBRANCH  14  15
ENDBRANCH  13  14
ENDBRANCH  12  13
ENDBRANCH  11  12
ENDBRANCH  10  11
ENDBRANCH   1  10
TORSDOF 12
ENDMDL
MODEL 7
REMARK VINA RESULT:    -3.723      3.476      5.996
REMARK INTER + INTRA:          -7.895
REMARK INTER:                  -6.163
REMARK INTRA:                  -1.732
REMARK UNBOUND:                -1.561
REMARK SMILES CCCCCCCCCCCCCC(=O)[O-]
REMARK SMILES IDX 8 1 9 2 10 3 11 4 12 5 13 6 14 7 15 8 16 9 7 10 6 11 5 12
REMARK SMILES IDX 4 13 3 14 2 15 1 16
REMARK H PARENT
REMARK Flexibility Score: inf
ROOT
ATOM      1  C   UNL     1      50.869  -3.202  75.197  1.00  0.00     0.000 C 
ENDROOT
BRANCH   1   2
ATOM      2  C   UNL     1      49.388  -2.824  74.998  1.00  0.00     0.000 C 
BRANCH   2   3
ATOM      3  C   UNL     1      48.434  -4.016  74.802  1.00  0.00     0.000 C 
BRANCH   3   4
ATOM      4  C   UNL     1      47.835  -4.074  73.390  1.00  0.00     0.000 C 
BRANCH   4   5
ATOM      5  C   UNL     1      48.283  -5.346  72.655  1.00  0.00     0.006 C 
BRANCH   5   6
ATOM      6  C   UNL     1      47.114  -6.066  71.972  1.00  0.00     0.053 C 
BRANCH   6   7
ATOM      7  C   UNL     1      47.075  -7.523  72.324  1.00  0.00     0.041 C 
ATOM      8  O   UNL     1      46.736  -7.886  73.480  1.00  0.00    -0.550 OA
ATOM      9  O   UNL     1      47.449  -8.476  71.385  1.00  0.00    -0.550 OA
ENDBRANCH   6   7
ENDBRANCH   5   6
ENDBRANCH   4   5
ENDBRANCH   3   4
ENDBRANCH   2   3
ENDBRANCH   1   2
BRANCH   1  10
ATOM     10  C   UNL     1      51.541  -3.880  73.984  1.00  0.00     0.000 C 
BRANCH  10  11
ATOM     11  C   UNL     1      51.375  -3.139  72.646  1.00  0.00    -0.000 C 
BRANCH  11  12
ATOM     12  C   UNL     1      52.075  -1.771  72.630  1.00  0.00    -0.000 C 
BRANCH  12  13
ATOM     13  C   UNL     1      51.153  -0.641  72.143  1.00  0.00    -0.000 C 
BRANCH  13  14
ATOM     14  C   UNL     1      49.780  -1.154  71.673  1.00  0.00    -0.000 C 
BRANCH  14  15
ATOM     15  C   UNL     1      48.616  -0.379  72.306  1.00  0.00    -0.003 C 
ATOM     16  C   UNL     1      49.074   0.586  73.399  1.00  0.00     0.004 C 
ENDBRANCH  14  15
ENDBRANCH  13  14
ENDBRANCH  12  13
ENDBRANCH  11  12
ENDBRANCH  10  11
ENDBRANCH   1  10
TORSDOF 12
ENDMDL
MODEL 8
REMARK VINA RESULT:    -3.699      3.296      5.796
REMARK INTER + INTRA:          -7.856
REMARK INTER:                  -6.099
REMARK INTRA:                  -1.757
REMARK UNBOUND:                -1.561
REMARK SMILES CCCCCCCCCCCCCC(=O)[O-]
REMARK SMILES IDX 8 1 9 2 10 3 11 4 12 5 13 6 14 7 15 8 16 9 7 10 6 11 5 12
REMARK SMILES IDX 4 13 3 14 2 15 1 16
REMARK H PARENT
REMARK Flexibility Score: inf
ROOT
ATOM      1  C   UNL     1      50.740  -3.332  75.678  1.00  0.00     0.000 C 
ENDROOT
BRANCH   1   2
ATOM      2  C   UNL     1      51.672  -3.183  74.459  1.00  0.00     0.000 C 
BRANCH   2   3
ATOM      3  C   UNL     1      51.546  -4.299  73.406  1.00  0.00     0.000 C 
BRANCH   3   4
ATOM      4  C   UNL     1      50.299  -4.147  72.523  1.00  0.00     0.000 C 
BRANCH   4   5
ATOM      5  C   UNL     1      49.280  -5.259  72.816  1.00  0.00     0.006 C 
BRANCH   5   6
ATOM      6  C   UNL     1      47.833  -4.754  72.748  1.00  0.00     0.053 C 
BRANCH   6   7
ATOM      7  C   UNL     1      46.846  -5.877  72.859  1.00  0.00     0.041 C 
ATOM      8  O   UNL     1      46.980  -6.909  72.152  1.00  0.00    -0.550 OA
ATOM      9  O   UNL     1      45.760  -5.766  73.717  1.00  0.00    -0.550 OA
ENDBRANCH   6   7
ENDBRANCH   5   6
ENDBRANCH   4   5
ENDBRANCH   3   4
ENDBRANCH   2   3
ENDBRANCH   1   2
BRANCH   1  10
ATOM     10  C   UNL     1      49.816  -2.126  75.948  1.00  0.00     0.000 C 
BRANCH  10  11
ATOM     11  C   UNL     1      48.785  -1.832  74.844  1.00  0.00    -0.000 C 
BRANCH  11  12
ATOM     12  C   UNL     1      49.019  -0.478  74.154  1.00  0.00    -0.000 C 
BRANCH  12  13
ATOM     13  C   UNL     1      48.732  -0.527  72.644  1.00  0.00    -0.000 C 
BRANCH  13  14
ATOM     14  C   UNL     1      49.976  -0.888  71.813  1.00  0.00    -0.000 C 
BRANCH  14  15
ATOM     15  C   UNL     1      51.229  -0.128  72.271  1.00  0.00    -0.003 C 
ATOM     16  C   UNL     1      52.520  -0.899  71.998  1.00  0.00     0.004 C 
ENDBRANCH  14  15
ENDBRANCH  13  14
ENDBRANCH  12  13
ENDBRANCH  11  12
ENDBRANCH  10  11
ENDBRANCH   1  10
TORSDOF 12
ENDMDL
MODEL 9
REMARK VINA RESULT:    -3.659      2.741      3.972
REMARK INTER + INTRA:          -7.788
REMARK INTER:                  -6.447
REMARK INTRA:                  -1.341
REMARK UNBOUND:                -1.561
REMARK SMILES CCCCCCCCCCCCCC(=O)[O-]
REMARK SMILES IDX 8 1 9 2 10 3 11 4 12 5 13 6 14 7 15 8 16 9 7 10 6 11 5 12
REMARK SMILES IDX 4 13 3 14 2 15 1 16
REMARK H PARENT
REMARK Flexibility Score: inf
ROOT
ATOM      1  C   UNL     1      49.997  -5.162  74.719  1.00  0.00     0.000 C 
ENDROOT
BRANCH   1   2
ATOM      2  C   UNL     1      49.703  -4.847  73.239  1.00  0.00     0.000 C 
BRANCH   2   3
ATOM      3  C   UNL     1      48.544  -3.861  73.004  1.00  0.00     0.000 C 
BRANCH   3   4
ATOM      4  C   UNL     1      49.027  -2.460  72.601  1.00  0.00     0.000 C 
BRANCH   4   5
ATOM      5  C   UNL     1      50.476  -2.503  72.092  1.00  0.00     0.006 C 
BRANCH   5   6
ATOM      6  C   UNL     1      51.372  -1.481  72.802  1.00  0.00     0.053 C 
BRANCH   6   7
ATOM      7  C   UNL     1      52.823  -1.717  72.511  1.00  0.00     0.041 C 
ATOM      8  O   UNL     1      53.436  -0.973  71.701  1.00  0.00    -0.550 OA
ATOM      9  O   UNL     1      53.489  -2.780  73.108  1.00  0.00    -0.550 OA
ENDBRANCH   6   7
ENDBRANCH   5   6
ENDBRANCH   4   5
ENDBRANCH   3   4
ENDBRANCH   2   3
ENDBRANCH   1   2
BRANCH   1  10
ATOM     10  C   UNL     1      50.896  -4.137  75.442  1.00  0.00     0.000 C 
BRANCH  10  11
ATOM     11  C   UNL     1      50.233  -3.403  76.621  1.00  0.00    -0.000 C 
BRANCH  11  12
ATOM     12  C   UNL     1      51.005  -3.571  77.939  1.00  0.00    -0.000 C 
BRANCH  12  13
ATOM     13  C   UNL     1      50.326  -4.562  78.900  1.00  0.00    -0.000 C 
BRANCH  13  14
ATOM     14  C   UNL     1      50.605  -6.031  78.535  1.00  0.00    -0.000 C 
BRANCH  14  15
ATOM     15  C   UNL     1      49.335  -6.894  78.565  1.00  0.00    -0.003 C 
ATOM     16  C   UNL     1      48.055  -6.060  78.612  1.00  0.00     0.004 C 
ENDBRANCH  14  15
ENDBRANCH  13  14
ENDBRANCH  12  13
ENDBRANCH  11  12
ENDBRANCH  10  11
ENDBRANCH   1  10
TORSDOF 12
ENDMDL
