MODEL 1
REMARK VINA RESULT:    -3.370      0.000      0.000
REMARK INTER + INTRA:          -3.777
REMARK INTER:                  -3.764
REMARK INTRA:                  -0.013
REMARK UNBOUND:                -0.013
REMARK SMILES CCCC(=O)[O-]
REMARK SMILES IDX 3 1 4 2 5 3 6 4 2 5 1 6
REMARK H PARENT
REMARK Flexibility Score: inf
ROOT
ATOM      1  C   UNL     1      16.458  20.777  -0.741  1.00  0.00     0.052 C 
ENDROOT
BRANCH   1   2
ATOM      2  C   UNL     1      16.403  19.951   0.508  1.00  0.00     0.041 C 
ATOM      3  O   UNL     1      16.490  18.696   0.443  1.00  0.00    -0.550 OA
ATOM      4  O   UNL     1      16.291  20.569   1.748  1.00  0.00    -0.550 OA
ENDBRANCH   1   2
BRANCH   1   5
ATOM      5  C   UNL     1      15.127  20.749  -1.501  1.00  0.00     0.003 C 
ATOM      6  C   UNL     1      14.563  22.151  -1.738  1.00  0.00     0.004 C 
ENDBRANCH   1   5
TORSDOF 2
ENDMDL
MODEL 2
REMARK VINA RESULT:    -3.367      2.126      2.967
REMARK INTER + INTRA:          -3.773
REMARK INTER:                  -3.741
REMARK INTRA:                  -0.033
REMARK UNBOUND:                -0.013
REMARK SMILES CCCC(=O)[O-]
REMARK SMILES IDX 3 1 4 2 5 3 6 4 2 5 1 6
REMARK H PARENT
REMARK Flexibility Score: inf
ROOT
ATOM      1  C   UNL     1      15.157  18.785   0.410  1.00  0.00     0.052 C 
ENDROOT
BRANCH   1   2
ATOM      2  C   UNL     1      16.262  19.796   0.396  1.00  0.00     0.041 C 
ATOM      3  O   UNL     1      16.654  20.321   1.472  1.00  0.00    -0.550 OA
ATOM      4  O   UNL     1      16.884  20.133  -0.800  1.00  0.00    -0.550 OA
ENDBRANCH   1   2
BRANCH   1   5
ATOM      5  C   UNL     1      14.343  18.849   1.708  1.00  0.00     0.003 C 
ATOM      6  C   UNL     1      12.942  19.422   1.489  1.00  0.00     0.004 C 
ENDBRANCH   1   5
TORSDOF 2
ENDMDL
MODEL 3
REMARK VINA RESULT:    -3.309      9.070     10.293
REMARK INTER + INTRA:          -3.709
REMARK INTER:                  -3.693
REMARK INTRA:                  -0.015
REMARK UNBOUND:                -0.013
REMARK SMILES CCCC(=O)[O-]
REMARK SMILES IDX 3 1 4 2 5 3 6 4 2 5 1 6
REMARK H PARENT
REMARK Flexibility Score: inf
ROOT
ATOM      1  C   UNL     1      23.288  14.131   3.237  1.00  0.00     0.052 C 
ENDROOT
BRANCH   1   2
ATOM      2  C   UNL     1      22.876  12.761   3.682  1.00  0.00     0.041 C 
ATOM      3  O   UNL     1      23.424  12.228   4.683  1.00  0.00    -0.550 OA
ATOM      4  O   UNL     1      21.862  12.087   3.014  1.00  0.00    -0.550 OA
ENDBRANCH   1   2
BRANCH   1   5
ATOM      5  C   UNL     1      22.141  15.141   3.368  1.00  0.00     0.003 C 
ATOM      6  C   UNL     1      22.095  16.124   2.198  1.00  0.00     0.004 C 
ENDBRANCH   1   5
TORSDOF 2
ENDMDL
MODEL 4
REMARK VINA RESULT:    -3.282     14.039     15.514
REMARK INTER + INTRA:          -3.678
REMARK INTER:                  -3.642
REMARK INTRA:                  -0.037
REMARK UNBOUND:                -0.013
REMARK SMILES CCCC(=O)[O-]
REMARK SMILES IDX 3 1 4 2 5 3 6 4 2 5 1 6
REMARK H PARENT
REMARK Flexibility Score: inf
ROOT
ATOM      1  C   UNL     1      24.368  11.314   8.517  1.00  0.00     0.052 C 
ENDROOT
BRANCH   1   2
ATOM      2  C   UNL     1      23.995  11.240   7.068  1.00  0.00     0.041 C 
ATOM      3  O   UNL     1      23.209  12.092   6.571  1.00  0.00    -0.550 OA
ATOM      4  O   UNL     1      24.541  10.254   6.256  1.00  0.00    -0.550 OA
ENDBRANCH   1   2
BRANCH   1   5
ATOM      5  C   UNL     1      23.721  10.185   9.329  1.00  0.00     0.003 C 
ATOM      6  C   UNL     1      24.743   9.151   9.803  1.00  0.00     0.004 C 
ENDBRANCH   1   5
TORSDOF 2
ENDMDL
MODEL 5
REMARK VINA RESULT:    -3.203     17.670     18.423
REMARK INTER + INTRA:          -3.590
REMARK INTER:                  -3.581
REMARK INTRA:                  -0.009
REMARK UNBOUND:                -0.013
REMARK SMILES CCCC(=O)[O-]
REMARK SMILES IDX 3 1 4 2 5 3 6 4 2 5 1 6
REMARK H PARENT
REMARK Flexibility Score: inf
ROOT
ATOM      1  C   UNL     1      18.745   4.320   9.003  1.00  0.00     0.052 C 
ENDROOT
BRANCH   1   2
ATOM      2  C   UNL     1      17.461   4.742   9.649  1.00  0.00     0.041 C 
ATOM      3  O   UNL     1      16.677   3.877  10.124  1.00  0.00    -0.550 OA
ATOM      4  O   UNL     1      17.146   6.090   9.761  1.00  0.00    -0.550 OA
ENDBRANCH   1   2
BRANCH   1   5
ATOM      5  C   UNL     1      19.441   5.493   8.302  1.00  0.00     0.003 C 
ATOM      6  C   UNL     1      20.630   5.041   7.452  1.00  0.00     0.004 C 
ENDBRANCH   1   5
TORSDOF 2
ENDMDL
MODEL 6
REMARK VINA RESULT:    -3.172      8.668      9.570
REMARK INTER + INTRA:          -3.556
REMARK INTER:                  -3.543
REMARK INTRA:                  -0.013
REMARK UNBOUND:                -0.013
REMARK SMILES CCCC(=O)[O-]
REMARK SMILES IDX 3 1 4 2 5 3 6 4 2 5 1 6
REMARK H PARENT
REMARK Flexibility Score: inf
ROOT
ATOM      1  C   UNL     1      20.458  12.321  -3.028  1.00  0.00     0.052 C 
ENDROOT
BRANCH   1   2
ATOM      2  C   UNL     1      19.829  13.139  -1.943  1.00  0.00     0.041 C 
ATOM      3  O   UNL     1      18.578  13.278  -1.898  1.00  0.00    -0.550 OA
ATOM      4  O   UNL     1      20.620  13.720  -0.959  1.00  0.00    -0.550 OA
ENDBRANCH   1   2
BRANCH   1   5
ATOM      5  C   UNL     1      21.981  12.502  -3.068  1.00  0.00     0.003 C 
ATOM      6  C   UNL     1      22.523  12.558  -4.497  1.00  0.00     0.004 C 
ENDBRANCH   1   5
TORSDOF 2
ENDMDL
MODEL 7
REMARK VINA RESULT:    -3.147      7.938      9.376
REMARK INTER + INTRA:          -3.527
REMARK INTER:                  -3.518
REMARK INTRA:                  -0.009
REMARK UNBOUND:                -0.013
REMARK SMILES CCCC(=O)[O-]
REMARK SMILES IDX 3 1 4 2 5 3 6 4 2 5 1 6
REMARK H PARENT
REMARK Flexibility Score: inf
ROOT
ATOM      1  C   UNL     1      19.873  12.027  -0.317  1.00  0.00     0.052 C 
ENDROOT
BRANCH   1   2
ATOM      2  C   UNL     1      19.020  13.213  -0.647  1.00  0.00     0.041 C 
ATOM      3  O   UNL     1      18.853  14.129   0.202  1.00  0.00    -0.550 OA
ATOM      4  O   UNL     1      18.438  13.326  -1.903  1.00  0.00    -0.550 OA
ENDBRANCH   1   2
BRANCH   1   5
ATOM      5  C   UNL     1      20.914  12.356   0.760  1.00  0.00     0.003 C 
ATOM      6  C   UNL     1      22.049  11.332   0.805  1.00  0.00     0.004 C 
ENDBRANCH   1   5
TORSDOF 2
ENDMDL
MODEL 8
REMARK VINA RESULT:    -3.145      7.883      9.130
REMARK INTER + INTRA:          -3.525
REMARK INTER:                  -3.520
REMARK INTRA:                  -0.006
REMARK UNBOUND:                -0.013
REMARK SMILES CCCC(=O)[O-]
REMARK SMILES IDX 3 1 4 2 5 3 6 4 2 5 1 6
REMARK H PARENT
REMARK Flexibility Score: inf
ROOT
ATOM      1  C   UNL     1      23.313  15.550   1.244  1.00  0.00     0.052 C 
ENDROOT
BRANCH   1   2
ATOM      2  C   UNL     1      21.986  16.047   1.730  1.00  0.00     0.041 C 
ATOM      3  O   UNL     1      21.052  16.266   0.913  1.00  0.00    -0.550 OA
ATOM      4  O   UNL     1      21.768  16.235   3.090  1.00  0.00    -0.550 OA
ENDBRANCH   1   2
BRANCH   1   5
ATOM      5  C   UNL     1      23.207  14.143   0.641  1.00  0.00     0.003 C 
ATOM      6  C   UNL     1      24.487  13.330   0.835  1.00  0.00     0.004 C 
ENDBRANCH   1   5
TORSDOF 2
ENDMDL
