MODEL 1
REMARK VINA RESULT:    17.000      0.000      0.000
REMARK INTER + INTRA:          42.011
REMARK INTER:                  42.838
REMARK INTRA:                  -0.827
REMARK UNBOUND:                -0.827
REMARK SMILES CCCCCCCCCCCCCCCCCCCCCCCCCCCC(=O)[O-]
REMARK SMILES IDX 15 1 16 2 17 3 18 4 19 5 20 6 21 7 22 8 23 9 24 10 25 11
REMARK SMILES IDX 26 12 27 13 28 14 29 15 30 16 14 17 13 18 12 19 11 20 10 21
REMARK SMILES IDX 9 22 8 23 7 24 6 25 5 26 4 27 3 28 2 29 1 30
REMARK H PARENT
REMARK Flexibility Score: inf
ROOT
ATOM      1  C   UNL     1      -7.005  14.554 -14.585  1.00  0.00     0.000 C 
ENDROOT
BRANCH   1   2
ATOM      2  C   UNL     1      -5.718  14.174 -15.338  1.00  0.00     0.000 C 
BRANCH   2   3
ATOM      3  C   UNL     1      -5.952  13.976 -16.845  1.00  0.00     0.000 C 
BRANCH   3   4
ATOM      4  C   UNL     1      -5.195  12.789 -17.473  1.00  0.00     0.000 C 
BRANCH   4   5
ATOM      5  C   UNL     1      -5.895  12.137 -18.677  1.00  0.00     0.000 C 
BRANCH   5   6
ATOM      6  C   UNL     1      -7.259  11.527 -18.310  1.00  0.00     0.000 C 
BRANCH   6   7
ATOM      7  C   UNL     1      -7.590  10.255 -19.110  1.00  0.00     0.000 C 
BRANCH   7   8
ATOM      8  C   UNL     1      -8.112   9.064 -18.278  1.00  0.00     0.000 C 
BRANCH   8   9
ATOM      9  C   UNL     1      -8.139   7.709 -19.010  1.00  0.00     0.000 C 
BRANCH   9  10
ATOM     10  C   UNL     1      -7.146   6.694 -18.426  1.00  0.00     0.000 C 
BRANCH  10  11
ATOM     11  C   UNL     1      -7.136   5.403 -19.252  1.00  0.00     0.000 C 
BRANCH  11  12
ATOM     12  C   UNL     1      -8.517   5.125 -19.858  1.00  0.00     0.006 C 
BRANCH  12  13
ATOM     13  C   UNL     1      -8.432   4.058 -20.954  1.00  0.00     0.053 C 
BRANCH  13  14
ATOM     14  C   UNL     1      -8.504   4.688 -22.308  1.00  0.00     0.041 C 
ATOM     15  O   UNL     1      -7.476   4.749 -23.035  1.00  0.00    -0.550 OA
ATOM     16  O   UNL     1      -9.716   5.167 -22.788  1.00  0.00    -0.550 OA
ENDBRANCH  13  14
ENDBRANCH  12  13
ENDBRANCH  11  12
ENDBRANCH  10  11
ENDBRANCH   9  10
ENDBRANCH   8   9
ENDBRANCH   7   8
ENDBRANCH   6   7
ENDBRANCH   5   6
ENDBRANCH   4   5
ENDBRANCH   3   4
ENDBRANCH   2   3
ENDBRANCH   1   2
BRANCH   1  17
ATOM     17  C   UNL     1      -7.447  16.008 -14.841  1.00  0.00     0.000 C 
BRANCH  17  18
ATOM     18  C   UNL     1      -8.289  16.651 -13.721  1.00  0.00     0.000 C 
BRANCH  18  19
ATOM     19  C   UNL     1      -9.005  17.964 -14.097  1.00  0.00     0.000 C 
BRANCH  19  20
ATOM     20  C   UNL     1     -10.516  17.972 -13.777  1.00  0.00     0.000 C 
BRANCH  20  21
ATOM     21  C   UNL     1     -11.289  19.053 -14.557  1.00  0.00     0.000 C 
BRANCH  21  22
ATOM     22  C   UNL     1     -12.778  19.135 -14.156  1.00  0.00    -0.000 C 
BRANCH  22  23
ATOM     23  C   UNL     1     -13.023  19.616 -12.712  1.00  0.00    -0.000 C 
BRANCH  23  24
ATOM     24  C   UNL     1     -12.996  18.520 -11.629  1.00  0.00    -0.000 C 
BRANCH  24  25
ATOM     25  C   UNL     1     -13.331  19.003 -10.204  1.00  0.00    -0.000 C 
BRANCH  25  26
ATOM     26  C   UNL     1     -12.775  18.074  -9.111  1.00  0.00    -0.000 C 
BRANCH  26  27
ATOM     27  C   UNL     1     -12.426  18.832  -7.819  1.00  0.00    -0.000 C 
BRANCH  27  28
ATOM     28  C   UNL     1     -13.141  20.192  -7.720  1.00  0.00    -0.000 C 
BRANCH  28  29
ATOM     29  C   UNL     1     -12.239  21.367  -8.127  1.00  0.00    -0.003 C 
ATOM     30  C   UNL     1     -10.883  21.341  -7.423  1.00  0.00     0.004 C 
ENDBRANCH  28  29
ENDBRANCH  27  28
ENDBRANCH  26  27
ENDBRANCH  25  26
ENDBRANCH  24  25
ENDBRANCH  23  24
ENDBRANCH  22  23
ENDBRANCH  21  22
ENDBRANCH  20  21
ENDBRANCH  19  20
ENDBRANCH  18  19
ENDBRANCH  17  18
ENDBRANCH   1  17
TORSDOF 26
ENDMDL
MODEL 2
REMARK VINA RESULT:    17.473      5.850     14.888
REMARK INTER + INTRA:          43.205
REMARK INTER:                  44.552
REMARK INTRA:                  -1.346
REMARK UNBOUND:                -0.827
REMARK SMILES CCCCCCCCCCCCCCCCCCCCCCCCCCCC(=O)[O-]
REMARK SMILES IDX 15 1 16 2 17 3 18 4 19 5 20 6 21 7 22 8 23 9 24 10 25 11
REMARK SMILES IDX 26 12 27 13 28 14 29 15 30 16 14 17 13 18 12 19 11 20 10 21
REMARK SMILES IDX 9 22 8 23 7 24 6 25 5 26 4 27 3 28 2 29 1 30
REMARK H PARENT
REMARK Flexibility Score: inf
ROOT
ATOM      1  C   UNL     1      -6.414  14.794 -15.959  1.00  0.00     0.000 C 
ENDROOT
BRANCH   1   2
ATOM      2  C   UNL     1      -7.208  14.162 -14.803  1.00  0.00     0.000 C 
BRANCH   2   3
ATOM      3  C   UNL     1      -8.150  15.165 -14.115  1.00  0.00     0.000 C 
BRANCH   3   4
ATOM      4  C   UNL     1      -7.835  16.648 -14.387  1.00  0.00     0.000 C 
BRANCH   4   5
ATOM      5  C   UNL     1      -8.797  17.648 -13.724  1.00  0.00     0.000 C 
BRANCH   5   6
ATOM      6  C   UNL     1      -9.785  18.271 -14.726  1.00  0.00     0.000 C 
BRANCH   6   7
ATOM      7  C   UNL     1     -10.696  19.339 -14.096  1.00  0.00     0.000 C 
BRANCH   7   8
ATOM      8  C   UNL     1     -12.205  19.179 -14.383  1.00  0.00     0.000 C 
BRANCH   8   9
ATOM      9  C   UNL     1     -13.126  19.278 -13.151  1.00  0.00     0.000 C 
BRANCH   9  10
ATOM     10  C   UNL     1     -12.403  18.947 -11.838  1.00  0.00     0.000 C 
BRANCH  10  11
ATOM     11  C   UNL     1     -13.392  18.910 -10.666  1.00  0.00     0.000 C 
BRANCH  11  12
ATOM     12  C   UNL     1     -12.654  18.862  -9.323  1.00  0.00     0.006 C 
BRANCH  12  13
ATOM     13  C   UNL     1     -13.419  19.640  -8.248  1.00  0.00     0.053 C 
BRANCH  13  14
ATOM     14  C   UNL     1     -12.530  20.649  -7.595  1.00  0.00     0.041 C 
ATOM     15  O   UNL     1     -11.745  21.348  -8.292  1.00  0.00    -0.550 OA
ATOM     16  O   UNL     1     -12.598  20.853  -6.223  1.00  0.00    -0.550 OA
ENDBRANCH  13  14
ENDBRANCH  12  13
ENDBRANCH  11  12
ENDBRANCH  10  11
ENDBRANCH   9  10
ENDBRANCH   8   9
ENDBRANCH   7   8
ENDBRANCH   6   7
ENDBRANCH   5   6
ENDBRANCH   4   5
ENDBRANCH   3   4
ENDBRANCH   2   3
ENDBRANCH   1   2
BRANCH   1  17
ATOM     17  C   UNL     1      -5.109  14.039 -16.278  1.00  0.00     0.000 C 
BRANCH  17  18
ATOM     18  C   UNL     1      -5.249  12.863 -17.265  1.00  0.00     0.000 C 
BRANCH  18  19
ATOM     19  C   UNL     1      -6.380  12.999 -18.304  1.00  0.00     0.000 C 
BRANCH  19  20
ATOM     20  C   UNL     1      -6.877  11.653 -18.875  1.00  0.00     0.000 C 
BRANCH  20  21
ATOM     21  C   UNL     1      -7.414  10.700 -17.790  1.00  0.00     0.000 C 
BRANCH  21  22
ATOM     22  C   UNL     1      -8.407   9.655 -18.343  1.00  0.00    -0.000 C 
BRANCH  22  23
ATOM     23  C   UNL     1      -7.744   8.373 -18.887  1.00  0.00    -0.000 C 
BRANCH  23  24
ATOM     24  C   UNL     1      -7.666   7.192 -17.902  1.00  0.00    -0.000 C 
BRANCH  24  25
ATOM     25  C   UNL     1      -7.292   5.837 -18.536  1.00  0.00    -0.000 C 
BRANCH  25  26
ATOM     26  C   UNL     1      -7.517   5.806 -20.057  1.00  0.00    -0.000 C 
BRANCH  26  27
ATOM     27  C   UNL     1      -8.372   4.606 -20.499  1.00  0.00    -0.000 C 
BRANCH  27  28
ATOM     28  C   UNL     1      -8.047   4.147 -21.933  1.00  0.00    -0.000 C 
BRANCH  28  29
ATOM     29  C   UNL     1      -9.244   4.289 -22.885  1.00  0.00    -0.003 C 
ATOM     30  C   UNL     1      -9.663   5.744 -23.094  1.00  0.00     0.004 C 
ENDBRANCH  28  29
ENDBRANCH  27  28
ENDBRANCH  26  27
ENDBRANCH  25  26
ENDBRANCH  24  25
ENDBRANCH  23  24
ENDBRANCH  22  23
ENDBRANCH  21  22
ENDBRANCH  20  21
ENDBRANCH  19  20
ENDBRANCH  18  19
ENDBRANCH  17  18
ENDBRANCH   1  17
TORSDOF 26
ENDMDL
MODEL 3
REMARK VINA RESULT:    17.485      5.918     15.117
REMARK INTER + INTRA:          43.235
REMARK INTER:                  43.175
REMARK INTRA:                   0.060
REMARK UNBOUND:                -0.827
REMARK SMILES CCCCCCCCCCCCCCCCCCCCCCCCCCCC(=O)[O-]
REMARK SMILES IDX 15 1 16 2 17 3 18 4 19 5 20 6 21 7 22 8 23 9 24 10 25 11
REMARK SMILES IDX 26 12 27 13 28 14 29 15 30 16 14 17 13 18 12 19 11 20 10 21
REMARK SMILES IDX 9 22 8 23 7 24 6 25 5 26 4 27 3 28 2 29 1 30
REMARK H PARENT
REMARK Flexibility Score: inf
ROOT
ATOM      1  C   UNL     1      -6.549  14.238 -15.674  1.00  0.00     0.000 C 
ENDROOT
BRANCH   1   2
ATOM      2  C   UNL     1      -6.910  15.666 -15.233  1.00  0.00     0.000 C 
BRANCH   2   3
ATOM      3  C   UNL     1      -8.099  15.702 -14.258  1.00  0.00     0.000 C 
BRANCH   3   4
ATOM      4  C   UNL     1      -8.496  17.106 -13.764  1.00  0.00     0.000 C 
BRANCH   4   5
ATOM      5  C   UNL     1      -9.986  17.453 -13.925  1.00  0.00     0.000 C 
BRANCH   5   6
ATOM      6  C   UNL     1     -10.221  18.956 -14.155  1.00  0.00     0.000 C 
BRANCH   6   7
ATOM      7  C   UNL     1     -11.652  19.282 -14.619  1.00  0.00     0.000 C 
BRANCH   7   8
ATOM      8  C   UNL     1     -12.772  18.940 -13.612  1.00  0.00     0.000 C 
BRANCH   8   9
ATOM      9  C   UNL     1     -12.458  19.265 -12.140  1.00  0.00     0.000 C 
BRANCH   9  10
ATOM     10  C   UNL     1     -13.533  18.748 -11.172  1.00  0.00     0.000 C 
BRANCH  10  11
ATOM     11  C   UNL     1     -12.931  17.755 -10.171  1.00  0.00     0.000 C 
BRANCH  11  12
ATOM     12  C   UNL     1     -12.507  18.462  -8.878  1.00  0.00     0.006 C 
BRANCH  12  13
ATOM     13  C   UNL     1     -13.164  19.842  -8.766  1.00  0.00     0.053 C 
BRANCH  13  14
ATOM     14  C   UNL     1     -12.592  20.605  -7.614  1.00  0.00     0.041 C 
ATOM     15  O   UNL     1     -12.922  20.314  -6.433  1.00  0.00    -0.550 OA
ATOM     16  O   UNL     1     -11.658  21.608  -7.841  1.00  0.00    -0.550 OA
ENDBRANCH  13  14
ENDBRANCH  12  13
ENDBRANCH  11  12
ENDBRANCH  10  11
ENDBRANCH   9  10
ENDBRANCH   8   9
ENDBRANCH   7   8
ENDBRANCH   6   7
ENDBRANCH   5   6
ENDBRANCH   4   5
ENDBRANCH   3   4
ENDBRANCH   2   3
ENDBRANCH   1   2
BRANCH   1  17
ATOM     17  C   UNL     1      -6.356  14.106 -17.197  1.00  0.00     0.000 C 
BRANCH  17  18
ATOM     18  C   UNL     1      -5.432  12.958 -17.651  1.00  0.00     0.000 C 
BRANCH  18  19
ATOM     19  C   UNL     1      -6.135  11.771 -18.339  1.00  0.00     0.000 C 
BRANCH  19  20
ATOM     20  C   UNL     1      -7.156  11.037 -17.442  1.00  0.00     0.000 C 
BRANCH  20  21
ATOM     21  C   UNL     1      -8.338  10.447 -18.235  1.00  0.00     0.000 C 
BRANCH  21  22
ATOM     22  C   UNL     1      -8.455   8.914 -18.092  1.00  0.00    -0.000 C 
BRANCH  22  23
ATOM     23  C   UNL     1      -7.532   8.114 -19.032  1.00  0.00    -0.000 C 
BRANCH  23  24
ATOM     24  C   UNL     1      -7.006   6.778 -18.475  1.00  0.00    -0.000 C 
BRANCH  24  25
ATOM     25  C   UNL     1      -7.912   5.559 -18.742  1.00  0.00    -0.000 C 
BRANCH  25  26
ATOM     26  C   UNL     1      -7.614   4.875 -20.087  1.00  0.00    -0.000 C 
BRANCH  26  27
ATOM     27  C   UNL     1      -8.876   4.699 -20.949  1.00  0.00    -0.000 C 
BRANCH  27  28
ATOM     28  C   UNL     1      -8.581   4.810 -22.456  1.00  0.00    -0.000 C 
BRANCH  28  29
ATOM     29  C   UNL     1      -7.515   3.809 -22.926  1.00  0.00    -0.003 C 
ATOM     30  C   UNL     1      -6.865   3.051 -21.769  1.00  0.00     0.004 C 
ENDBRANCH  28  29
ENDBRANCH  27  28
ENDBRANCH  26  27
ENDBRANCH  25  26
ENDBRANCH  24  25
ENDBRANCH  23  24
ENDBRANCH  22  23
ENDBRANCH  21  22
ENDBRANCH  20  21
ENDBRANCH  19  20
ENDBRANCH  18  19
ENDBRANCH  17  18
ENDBRANCH   1  17
TORSDOF 26
ENDMDL
MODEL 4
REMARK VINA RESULT:    17.510      0.963      1.713
REMARK INTER + INTRA:          43.298
REMARK INTER:                  44.189
REMARK INTRA:                  -0.891
REMARK UNBOUND:                -0.827
REMARK SMILES CCCCCCCCCCCCCCCCCCCCCCCCCCCC(=O)[O-]
REMARK SMILES IDX 15 1 16 2 17 3 18 4 19 5 20 6 21 7 22 8 23 9 24 10 25 11
REMARK SMILES IDX 26 12 27 13 28 14 29 15 30 16 14 17 13 18 12 19 11 20 10 21
REMARK SMILES IDX 9 22 8 23 7 24 6 25 5 26 4 27 3 28 2 29 1 30
REMARK H PARENT
REMARK Flexibility Score: inf
ROOT
ATOM      1  C   UNL     1      -5.261  14.142 -15.734  1.00  0.00     0.000 C 
ENDROOT
BRANCH   1   2
ATOM      2  C   UNL     1      -4.806  13.120 -16.790  1.00  0.00     0.000 C 
BRANCH   2   3
ATOM      3  C   UNL     1      -5.984  12.371 -17.434  1.00  0.00     0.000 C 
BRANCH   3   4
ATOM      4  C   UNL     1      -5.915  12.241 -18.968  1.00  0.00     0.000 C 
BRANCH   4   5
ATOM      5  C   UNL     1      -6.897  11.228 -19.579  1.00  0.00     0.000 C 
BRANCH   5   6
ATOM      6  C   UNL     1      -7.741  10.506 -18.514  1.00  0.00     0.000 C 
BRANCH   6   7
ATOM      7  C   UNL     1      -8.295   9.153 -18.995  1.00  0.00     0.000 C 
BRANCH   7   8
ATOM      8  C   UNL     1      -7.762   7.912 -18.245  1.00  0.00     0.000 C 
BRANCH   8   9
ATOM      9  C   UNL     1      -7.144   6.817 -19.136  1.00  0.00     0.000 C 
BRANCH   9  10
ATOM     10  C   UNL     1      -7.725   5.423 -18.858  1.00  0.00     0.000 C 
BRANCH  10  11
ATOM     11  C   UNL     1      -8.386   4.848 -20.116  1.00  0.00     0.000 C 
BRANCH  11  12
ATOM     12  C   UNL     1      -7.335   4.433 -21.152  1.00  0.00     0.006 C 
BRANCH  12  13
ATOM     13  C   UNL     1      -7.963   4.279 -22.541  1.00  0.00     0.053 C 
BRANCH  13  14
ATOM     14  C   UNL     1      -9.012   5.321 -22.762  1.00  0.00     0.041 C 
ATOM     15  O   UNL     1     -10.228   5.046 -22.580  1.00  0.00    -0.550 OA
ATOM     16  O   UNL     1      -8.645   6.611 -23.124  1.00  0.00    -0.550 OA
ENDBRANCH  13  14
ENDBRANCH  12  13
ENDBRANCH  11  12
ENDBRANCH  10  11
ENDBRANCH   9  10
ENDBRANCH   8   9
ENDBRANCH   7   8
ENDBRANCH   6   7
ENDBRANCH   5   6
ENDBRANCH   4   5
ENDBRANCH   3   4
ENDBRANCH   2   3
ENDBRANCH   1   2
BRANCH   1  17
ATOM     17  C   UNL     1      -6.691  14.663 -15.975  1.00  0.00     0.000 C 
BRANCH  17  18
ATOM     18  C   UNL     1      -7.496  15.001 -14.703  1.00  0.00     0.000 C 
BRANCH  18  19
ATOM     19  C   UNL     1      -7.797  16.497 -14.486  1.00  0.00     0.000 C 
BRANCH  19  20
ATOM     20  C   UNL     1      -9.134  16.773 -13.762  1.00  0.00     0.000 C 
BRANCH  20  21
ATOM     21  C   UNL     1      -9.518  18.264 -13.758  1.00  0.00     0.000 C 
BRANCH  21  22
ATOM     22  C   UNL     1     -10.953  18.518 -14.270  1.00  0.00    -0.000 C 
BRANCH  22  23
ATOM     23  C   UNL     1     -11.663  19.716 -13.606  1.00  0.00    -0.000 C 
BRANCH  23  24
ATOM     24  C   UNL     1     -12.884  19.368 -12.734  1.00  0.00    -0.000 C 
BRANCH  24  25
ATOM     25  C   UNL     1     -12.635  19.418 -11.213  1.00  0.00    -0.000 C 
BRANCH  25  26
ATOM     26  C   UNL     1     -13.716  18.682 -10.404  1.00  0.00    -0.000 C 
BRANCH  26  27
ATOM     27  C   UNL     1     -13.683  19.048  -8.911  1.00  0.00    -0.000 C 
BRANCH  27  28
ATOM     28  C   UNL     1     -12.250  19.248  -8.384  1.00  0.00    -0.000 C 
BRANCH  28  29
ATOM     29  C   UNL     1     -11.892  20.730  -8.191  1.00  0.00    -0.003 C 
ATOM     30  C   UNL     1     -12.727  21.402  -7.100  1.00  0.00     0.004 C 
ENDBRANCH  28  29
ENDBRANCH  27  28
ENDBRANCH  26  27
ENDBRANCH  25  26
ENDBRANCH  24  25
ENDBRANCH  23  24
ENDBRANCH  22  23
ENDBRANCH  21  22
ENDBRANCH  20  21
ENDBRANCH  19  20
ENDBRANCH  18  19
ENDBRANCH  17  18
ENDBRANCH   1  17
TORSDOF 26
ENDMDL
MODEL 5
REMARK VINA RESULT:    17.776      5.737     15.041
REMARK INTER + INTRA:          43.968
REMARK INTER:                  43.586
REMARK INTRA:                   0.382
REMARK UNBOUND:                -0.827
REMARK SMILES CCCCCCCCCCCCCCCCCCCCCCCCCCCC(=O)[O-]
REMARK SMILES IDX 15 1 16 2 17 3 18 4 19 5 20 6 21 7 22 8 23 9 24 10 25 11
REMARK SMILES IDX 26 12 27 13 28 14 29 15 30 16 14 17 13 18 12 19 11 20 10 21
REMARK SMILES IDX 9 22 8 23 7 24 6 25 5 26 4 27 3 28 2 29 1 30
REMARK H PARENT
REMARK Flexibility Score: inf
ROOT
ATOM      1  C   UNL     1      -5.427  13.935 -15.992  1.00  0.00     0.000 C 
ENDROOT
BRANCH   1   2
ATOM      2  C   UNL     1      -6.714  14.767 -15.865  1.00  0.00     0.000 C 
BRANCH   2   3
ATOM      3  C   UNL     1      -7.084  15.065 -14.402  1.00  0.00     0.000 C 
BRANCH   3   4
ATOM      4  C   UNL     1      -8.528  15.555 -14.181  1.00  0.00     0.000 C 
BRANCH   4   5
ATOM      5  C   UNL     1      -8.665  17.057 -13.880  1.00  0.00     0.000 C 
BRANCH   5   6
ATOM      6  C   UNL     1     -10.106  17.459 -13.521  1.00  0.00     0.000 C 
BRANCH   6   7
ATOM      7  C   UNL     1     -10.577  18.737 -14.238  1.00  0.00     0.000 C 
BRANCH   7   8
ATOM      8  C   UNL     1     -12.092  19.026 -14.157  1.00  0.00     0.000 C 
BRANCH   8   9
ATOM      9  C   UNL     1     -12.551  19.792 -12.902  1.00  0.00     0.000 C 
BRANCH   9  10
ATOM     10  C   UNL     1     -12.328  19.003 -11.604  1.00  0.00     0.000 C 
BRANCH  10  11
ATOM     11  C   UNL     1     -13.470  19.251 -10.612  1.00  0.00     0.000 C 
BRANCH  11  12
ATOM     12  C   UNL     1     -13.480  18.190  -9.505  1.00  0.00     0.006 C 
BRANCH  12  13
ATOM     13  C   UNL     1     -12.550  18.588  -8.354  1.00  0.00     0.053 C 
BRANCH  13  14
ATOM     14  C   UNL     1     -12.738  20.029  -8.001  1.00  0.00     0.041 C 
ATOM     15  O   UNL     1     -12.890  20.890  -8.909  1.00  0.00    -0.550 OA
ATOM     16  O   UNL     1     -12.792  20.417  -6.668  1.00  0.00    -0.550 OA
ENDBRANCH  13  14
ENDBRANCH  12  13
ENDBRANCH  11  12
ENDBRANCH  10  11
ENDBRANCH   9  10
ENDBRANCH   8   9
ENDBRANCH   7   8
ENDBRANCH   6   7
ENDBRANCH   5   6
ENDBRANCH   4   5
ENDBRANCH   3   4
ENDBRANCH   2   3
ENDBRANCH   1   2
BRANCH   1  17
ATOM     17  C   UNL     1      -5.311  13.204 -17.343  1.00  0.00     0.000 C 
BRANCH  17  18
ATOM     18  C   UNL     1      -6.346  12.086 -17.582  1.00  0.00     0.000 C 
BRANCH  18  19
ATOM     19  C   UNL     1      -6.807  11.326 -16.322  1.00  0.00     0.000 C 
BRANCH  19  20
ATOM     20  C   UNL     1      -7.809  10.186 -16.605  1.00  0.00     0.000 C 
BRANCH  20  21
ATOM     21  C   UNL     1      -8.361  10.213 -18.043  1.00  0.00     0.000 C 
BRANCH  21  22
ATOM     22  C   UNL     1      -8.434   8.811 -18.687  1.00  0.00    -0.000 C 
BRANCH  22  23
ATOM     23  C   UNL     1      -7.325   7.842 -18.229  1.00  0.00    -0.000 C 
BRANCH  23  24
ATOM     24  C   UNL     1      -7.591   6.349 -18.498  1.00  0.00    -0.000 C 
BRANCH  24  25
ATOM     25  C   UNL     1      -7.397   5.905 -19.962  1.00  0.00    -0.000 C 
BRANCH  25  26
ATOM     26  C   UNL     1      -7.918   4.483 -20.231  1.00  0.00    -0.000 C 
BRANCH  26  27
ATOM     27  C   UNL     1      -8.819   4.413 -21.475  1.00  0.00    -0.000 C 
BRANCH  27  28
ATOM     28  C   UNL     1      -8.234   3.509 -22.576  1.00  0.00    -0.000 C 
BRANCH  28  29
ATOM     29  C   UNL     1      -6.712   3.663 -22.723  1.00  0.00    -0.003 C 
ATOM     30  C   UNL     1      -6.297   5.084 -23.106  1.00  0.00     0.004 C 
ENDBRANCH  28  29
ENDBRANCH  27  28
ENDBRANCH  26  27
ENDBRANCH  25  26
ENDBRANCH  24  25
ENDBRANCH  23  24
ENDBRANCH  22  23
ENDBRANCH  21  22
ENDBRANCH  20  21
ENDBRANCH  19  20
ENDBRANCH  18  19
ENDBRANCH  17  18
ENDBRANCH   1  17
TORSDOF 26
ENDMDL
MODEL 6
REMARK VINA RESULT:    18.698      1.039      1.779
REMARK INTER + INTRA:          46.291
REMARK INTER:                  46.939
REMARK INTRA:                  -0.648
REMARK UNBOUND:                -0.827
REMARK SMILES CCCCCCCCCCCCCCCCCCCCCCCCCCCC(=O)[O-]
REMARK SMILES IDX 15 1 16 2 17 3 18 4 19 5 20 6 21 7 22 8 23 9 24 10 25 11
REMARK SMILES IDX 26 12 27 13 28 14 29 15 30 16 14 17 13 18 12 19 11 20 10 21
REMARK SMILES IDX 9 22 8 23 7 24 6 25 5 26 4 27 3 28 2 29 1 30
REMARK H PARENT
REMARK Flexibility Score: inf
ROOT
ATOM      1  C   UNL     1      -4.910  14.570 -15.745  1.00  0.00     0.000 C 
ENDROOT
BRANCH   1   2
ATOM      2  C   UNL     1      -4.536  13.594 -16.873  1.00  0.00     0.000 C 
BRANCH   2   3
ATOM      3  C   UNL     1      -5.744  12.792 -17.387  1.00  0.00     0.000 C 
BRANCH   3   4
ATOM      4  C   UNL     1      -6.178  11.619 -16.487  1.00  0.00     0.000 C 
BRANCH   4   5
ATOM      5  C   UNL     1      -7.699  11.430 -16.355  1.00  0.00     0.000 C 
BRANCH   5   6
ATOM      6  C   UNL     1      -8.081  10.018 -15.880  1.00  0.00     0.000 C 
BRANCH   6   7
ATOM      7  C   UNL     1      -8.507   9.085 -17.028  1.00  0.00     0.000 C 
BRANCH   7   8
ATOM      8  C   UNL     1      -7.800   9.330 -18.379  1.00  0.00     0.000 C 
BRANCH   8   9
ATOM      9  C   UNL     1      -7.964   8.208 -19.422  1.00  0.00     0.000 C 
BRANCH   9  10
ATOM     10  C   UNL     1      -7.176   6.939 -19.063  1.00  0.00     0.000 C 
BRANCH  10  11
ATOM     11  C   UNL     1      -8.124   5.813 -18.632  1.00  0.00     0.000 C 
BRANCH  11  12
ATOM     12  C   UNL     1      -8.542   4.955 -19.833  1.00  0.00     0.006 C 
BRANCH  12  13
ATOM     13  C   UNL     1      -7.317   4.440 -20.594  1.00  0.00     0.053 C 
BRANCH  13  14
ATOM     14  C   UNL     1      -7.699   4.002 -21.972  1.00  0.00     0.041 C 
ATOM     15  O   UNL     1      -6.921   3.273 -22.644  1.00  0.00    -0.550 OA
ATOM     16  O   UNL     1      -8.934   4.360 -22.497  1.00  0.00    -0.550 OA
ENDBRANCH  13  14
ENDBRANCH  12  13
ENDBRANCH  11  12
ENDBRANCH  10  11
ENDBRANCH   9  10
ENDBRANCH   8   9
ENDBRANCH   7   8
ENDBRANCH   6   7
ENDBRANCH   5   6
ENDBRANCH   4   5
ENDBRANCH   3   4
ENDBRANCH   2   3
ENDBRANCH   1   2
BRANCH   1  17
ATOM     17  C   UNL     1      -6.390  14.472 -15.328  1.00  0.00     0.000 C 
BRANCH  17  18
ATOM     18  C   UNL     1      -7.165  15.805 -15.321  1.00  0.00     0.000 C 
BRANCH  18  19
ATOM     19  C   UNL     1      -8.274  15.924 -14.255  1.00  0.00     0.000 C 
BRANCH  19  20
ATOM     20  C   UNL     1      -8.634  17.377 -13.878  1.00  0.00     0.000 C 
BRANCH  20  21
ATOM     21  C   UNL     1     -10.140  17.577 -13.625  1.00  0.00     0.000 C 
BRANCH  21  22
ATOM     22  C   UNL     1     -10.739  18.741 -14.444  1.00  0.00    -0.000 C 
BRANCH  22  23
ATOM     23  C   UNL     1     -12.247  18.969 -14.218  1.00  0.00    -0.000 C 
BRANCH  23  24
ATOM     24  C   UNL     1     -12.623  19.709 -12.919  1.00  0.00    -0.000 C 
BRANCH  24  25
ATOM     25  C   UNL     1     -13.153  18.808 -11.786  1.00  0.00    -0.000 C 
BRANCH  25  26
ATOM     26  C   UNL     1     -12.790  19.332 -10.386  1.00  0.00    -0.000 C 
BRANCH  26  27
ATOM     27  C   UNL     1     -12.782  18.217  -9.326  1.00  0.00    -0.000 C 
BRANCH  27  28
ATOM     28  C   UNL     1     -12.698  18.768  -7.891  1.00  0.00    -0.000 C 
BRANCH  28  29
ATOM     29  C   UNL     1     -13.084  20.253  -7.803  1.00  0.00    -0.003 C 
ATOM     30  C   UNL     1     -11.868  21.178  -7.762  1.00  0.00     0.004 C 
ENDBRANCH  28  29
ENDBRANCH  27  28
ENDBRANCH  26  27
ENDBRANCH  25  26
ENDBRANCH  24  25
ENDBRANCH  23  24
ENDBRANCH  22  23
ENDBRANCH  21  22
ENDBRANCH  20  21
ENDBRANCH  19  20
ENDBRANCH  18  19
ENDBRANCH  17  18
ENDBRANCH   1  17
TORSDOF 26
ENDMDL
MODEL 7
REMARK VINA RESULT:    19.639      1.406      2.995
REMARK INTER + INTRA:          48.662
REMARK INTER:                  49.564
REMARK INTRA:                  -0.902
REMARK UNBOUND:                -0.827
REMARK SMILES CCCCCCCCCCCCCCCCCCCCCCCCCCCC(=O)[O-]
REMARK SMILES IDX 15 1 16 2 17 3 18 4 19 5 20 6 21 7 22 8 23 9 24 10 25 11
REMARK SMILES IDX 26 12 27 13 28 14 29 15 30 16 14 17 13 18 12 19 11 20 10 21
REMARK SMILES IDX 9 22 8 23 7 24 6 25 5 26 4 27 3 28 2 29 1 30
REMARK H PARENT
REMARK Flexibility Score: inf
ROOT
ATOM      1  C   UNL     1      -5.179  12.929 -16.925  1.00  0.00     0.000 C 
ENDROOT
BRANCH   1   2
ATOM      2  C   UNL     1      -6.152  13.067 -18.109  1.00  0.00     0.000 C 
BRANCH   2   3
ATOM      3  C   UNL     1      -6.526  11.710 -18.729  1.00  0.00     0.000 C 
BRANCH   3   4
ATOM      4  C   UNL     1      -7.830  11.086 -18.196  1.00  0.00     0.000 C 
BRANCH   4   5
ATOM      5  C   UNL     1      -7.976   9.575 -18.445  1.00  0.00     0.000 C 
BRANCH   5   6
ATOM      6  C   UNL     1      -6.881   8.752 -17.745  1.00  0.00     0.000 C 
BRANCH   6   7
ATOM      7  C   UNL     1      -6.762   7.316 -18.286  1.00  0.00     0.000 C 
BRANCH   7   8
ATOM      8  C   UNL     1      -7.150   6.198 -17.294  1.00  0.00     0.000 C 
BRANCH   8   9
ATOM      9  C   UNL     1      -7.653   4.891 -17.936  1.00  0.00     0.000 C 
BRANCH   9  10
ATOM     10  C   UNL     1      -8.685   5.130 -19.048  1.00  0.00     0.000 C 
BRANCH  10  11
ATOM     11  C   UNL     1      -8.030   5.031 -20.430  1.00  0.00     0.000 C 
BRANCH  11  12
ATOM     12  C   UNL     1      -9.065   4.692 -21.509  1.00  0.00     0.006 C 
BRANCH  12  13
ATOM     13  C   UNL     1      -8.413   3.960 -22.686  1.00  0.00     0.053 C 
BRANCH  13  14
ATOM     14  C   UNL     1      -6.929   4.142 -22.662  1.00  0.00     0.041 C 
ATOM     15  O   UNL     1      -6.182   3.210 -22.261  1.00  0.00    -0.550 OA
ATOM     16  O   UNL     1      -6.366   5.325 -23.125  1.00  0.00    -0.550 OA
ENDBRANCH  13  14
ENDBRANCH  12  13
ENDBRANCH  11  12
ENDBRANCH  10  11
ENDBRANCH   9  10
ENDBRANCH   8   9
ENDBRANCH   7   8
ENDBRANCH   6   7
ENDBRANCH   5   6
ENDBRANCH   4   5
ENDBRANCH   3   4
ENDBRANCH   2   3
ENDBRANCH   1   2
BRANCH   1  17
ATOM     17  C   UNL     1      -5.232  14.127 -15.958  1.00  0.00     0.000 C 
BRANCH  17  18
ATOM     18  C   UNL     1      -6.600  14.829 -15.848  1.00  0.00     0.000 C 
BRANCH  18  19
ATOM     19  C   UNL     1      -7.184  14.930 -14.424  1.00  0.00     0.000 C 
BRANCH  19  20
ATOM     20  C   UNL     1      -8.613  15.510 -14.367  1.00  0.00     0.000 C 
BRANCH  20  21
ATOM     21  C   UNL     1      -8.642  17.001 -13.981  1.00  0.00     0.000 C 
BRANCH  21  22
ATOM     22  C   UNL     1     -10.058  17.505 -13.625  1.00  0.00    -0.000 C 
BRANCH  22  23
ATOM     23  C   UNL     1     -10.553  18.678 -14.495  1.00  0.00    -0.000 C 
BRANCH  23  24
ATOM     24  C   UNL     1     -11.529  19.653 -13.807  1.00  0.00    -0.000 C 
BRANCH  24  25
ATOM     25  C   UNL     1     -12.679  18.983 -13.030  1.00  0.00    -0.000 C 
BRANCH  25  26
ATOM     26  C   UNL     1     -12.767  19.453 -11.568  1.00  0.00    -0.000 C 
BRANCH  26  27
ATOM     27  C   UNL     1     -13.126  18.309 -10.604  1.00  0.00    -0.000 C 
BRANCH  27  28
ATOM     28  C   UNL     1     -12.570  18.536  -9.186  1.00  0.00    -0.000 C 
BRANCH  28  29
ATOM     29  C   UNL     1     -13.669  18.876  -8.167  1.00  0.00    -0.003 C 
ATOM     30  C   UNL     1     -15.077  18.687  -8.732  1.00  0.00     0.004 C 
ENDBRANCH  28  29
ENDBRANCH  27  28
ENDBRANCH  26  27
ENDBRANCH  25  26
ENDBRANCH  24  25
ENDBRANCH  23  24
ENDBRANCH  22  23
ENDBRANCH  21  22
ENDBRANCH  20  21
ENDBRANCH  19  20
ENDBRANCH  18  19
ENDBRANCH  17  18
ENDBRANCH   1  17
TORSDOF 26
ENDMDL
