MODEL 1
REMARK VINA RESULT:    -5.016      0.000      0.000
REMARK INTER + INTRA:          -5.016
REMARK INTER:                  -5.016
REMARK INTRA:                   0.000
REMARK UNBOUND:                 0.000
REMARK SMILES CC(C)=C1CC[C@H](C)CC1=O
REMARK SMILES IDX 8 1 7 2 6 3 5 4 4 5 2 6 1 7 3 8 10 9 11 10 9 11
REMARK H PARENT
REMARK Flexibility Score: inf
ROOT
ATOM      1  C   UNL     1      15.039 -11.729  65.503  1.00  0.00     0.008 C 
ATOM      2  C   UNL     1      16.413 -11.380  64.910  1.00  0.00    -0.006 C 
ATOM      3  C   UNL     1      16.965 -10.052  65.460  1.00  0.00     0.008 C 
ATOM      4  C   UNL     1      17.307 -10.116  66.957  1.00  0.00     0.039 C 
ATOM      5  C   UNL     1      18.158 -11.327  67.320  1.00  0.00    -0.006 C 
ATOM      6  C   UNL     1      19.040 -11.283  68.361  1.00  0.00    -0.070 C 
ATOM      7  C   UNL     1      19.197 -10.038  69.205  1.00  0.00     0.039 C 
ATOM      8  C   UNL     1      19.932 -12.456  68.699  1.00  0.00     0.039 C 
ATOM      9  C   UNL     1      17.883 -12.581  66.558  1.00  0.00     0.159 C 
ATOM     10  O   UNL     1      18.010 -13.714  67.094  1.00  0.00    -0.295 OA
ATOM     11  C   UNL     1      17.432 -12.508  65.128  1.00  0.00     0.084 C 
ENDROOT
TORSDOF 0
ENDMDL
MODEL 2
REMARK VINA RESULT:    -4.965      2.746      3.330
REMARK INTER + INTRA:          -4.965
REMARK INTER:                  -4.965
REMARK INTRA:                   0.000
REMARK UNBOUND:                 0.000
REMARK SMILES CC(C)=C1CC[C@H](C)CC1=O
REMARK SMILES IDX 8 1 7 2 6 3 5 4 4 5 2 6 1 7 3 8 10 9 11 10 9 11
REMARK H PARENT
REMARK Flexibility Score: inf
ROOT
ATOM      1  C   UNL     1      16.126 -11.813  66.257  1.00  0.00     0.008 C 
ATOM      2  C   UNL     1      16.566 -10.341  66.304  1.00  0.00    -0.006 C 
ATOM      3  C   UNL     1      17.704 -10.104  67.313  1.00  0.00     0.008 C 
ATOM      4  C   UNL     1      19.021 -10.782  66.905  1.00  0.00     0.039 C 
ATOM      5  C   UNL     1      19.416 -10.494  65.462  1.00  0.00    -0.006 C 
ATOM      6  C   UNL     1      20.727 -10.459  65.083  1.00  0.00    -0.070 C 
ATOM      7  C   UNL     1      21.838 -10.720  66.074  1.00  0.00     0.039 C 
ATOM      8  C   UNL     1      21.137 -10.119  63.667  1.00  0.00     0.039 C 
ATOM      9  C   UNL     1      18.297 -10.377  64.481  1.00  0.00     0.159 C 
ATOM     10  O   UNL     1      18.433 -10.746  63.284  1.00  0.00    -0.295 OA
ATOM     11  C   UNL     1      16.970  -9.823  64.916  1.00  0.00     0.084 C 
ENDROOT
TORSDOF 0
ENDMDL
MODEL 3
REMARK VINA RESULT:    -4.942     15.020     16.153
REMARK INTER + INTRA:          -4.942
REMARK INTER:                  -4.942
REMARK INTRA:                   0.000
REMARK UNBOUND:                 0.000
REMARK SMILES CC(C)=C1CC[C@H](C)CC1=O
REMARK SMILES IDX 8 1 7 2 6 3 5 4 4 5 2 6 1 7 3 8 10 9 11 10 9 11
REMARK H PARENT
REMARK Flexibility Score: inf
ROOT
ATOM      1  C   UNL     1       6.719  -6.683  58.392  1.00  0.00     0.008 C 
ATOM      2  C   UNL     1       6.274  -6.274  56.979  1.00  0.00    -0.006 C 
ATOM      3  C   UNL     1       7.468  -6.014  56.043  1.00  0.00     0.008 C 
ATOM      4  C   UNL     1       8.276  -7.284  55.732  1.00  0.00     0.039 C 
ATOM      5  C   UNL     1       7.402  -8.452  55.294  1.00  0.00    -0.006 C 
ATOM      6  C   UNL     1       7.873  -9.405  54.438  1.00  0.00    -0.070 C 
ATOM      7  C   UNL     1       9.286  -9.348  53.903  1.00  0.00     0.039 C 
ATOM      8  C   UNL     1       7.000 -10.539  53.950  1.00  0.00     0.039 C 
ATOM      9  C   UNL     1       6.062  -8.555  55.944  1.00  0.00     0.159 C 
ATOM     10  O   UNL     1       5.528  -9.674  56.171  1.00  0.00    -0.295 OA
ATOM     11  C   UNL     1       5.328  -7.312  56.357  1.00  0.00     0.084 C 
ENDROOT
TORSDOF 0
ENDMDL
MODEL 4
REMARK VINA RESULT:    -4.923      2.542      3.411
REMARK INTER + INTRA:          -4.923
REMARK INTER:                  -4.923
REMARK INTRA:                   0.000
REMARK UNBOUND:                 0.000
REMARK SMILES CC(C)=C1CC[C@H](C)CC1=O
REMARK SMILES IDX 8 1 7 2 6 3 5 4 4 5 2 6 1 7 3 8 10 9 11 10 9 11
REMARK H PARENT
REMARK Flexibility Score: inf
ROOT
ATOM      1  C   UNL     1      15.899 -11.893  62.043  1.00  0.00     0.008 C 
ATOM      2  C   UNL     1      15.642 -10.476  62.579  1.00  0.00    -0.006 C 
ATOM      3  C   UNL     1      15.067 -10.487  64.007  1.00  0.00     0.008 C 
ATOM      4  C   UNL     1      16.064 -11.012  65.053  1.00  0.00     0.039 C 
ATOM      5  C   UNL     1      17.433 -10.351  64.952  1.00  0.00    -0.006 C 
ATOM      6  C   UNL     1      18.224 -10.194  66.054  1.00  0.00    -0.070 C 
ATOM      7  C   UNL     1      17.780 -10.682  67.414  1.00  0.00     0.039 C 
ATOM      8  C   UNL     1      19.560  -9.491  65.981  1.00  0.00     0.039 C 
ATOM      9  C   UNL     1      17.901 -10.004  63.577  1.00  0.00     0.159 C 
ATOM     10  O   UNL     1      19.122 -10.048  63.270  1.00  0.00    -0.295 OA
ATOM     11  C   UNL     1      16.908  -9.608  62.523  1.00  0.00     0.084 C 
ENDROOT
TORSDOF 0
ENDMDL
MODEL 5
REMARK VINA RESULT:    -4.852     13.820     15.481
REMARK INTER + INTRA:          -4.852
REMARK INTER:                  -4.852
REMARK INTRA:                   0.000
REMARK UNBOUND:                 0.000
REMARK SMILES CC(C)=C1CC[C@H](C)CC1=O
REMARK SMILES IDX 8 1 7 2 6 3 5 4 4 5 2 6 1 7 3 8 10 9 11 10 9 11
REMARK H PARENT
REMARK Flexibility Score: inf
ROOT
ATOM      1  C   UNL     1       7.060 -10.397  53.876  1.00  0.00     0.008 C 
ATOM      2  C   UNL     1       7.910  -9.141  54.123  1.00  0.00    -0.006 C 
ATOM      3  C   UNL     1       7.060  -7.858  54.156  1.00  0.00     0.008 C 
ATOM      4  C   UNL     1       6.106  -7.799  55.359  1.00  0.00     0.039 C 
ATOM      5  C   UNL     1       6.798  -8.105  56.681  1.00  0.00    -0.006 C 
ATOM      6  C   UNL     1       6.361  -7.553  57.851  1.00  0.00    -0.070 C 
ATOM      7  C   UNL     1       5.164  -6.629  57.883  1.00  0.00     0.039 C 
ATOM      8  C   UNL     1       7.070  -7.802  59.162  1.00  0.00     0.039 C 
ATOM      9  C   UNL     1       7.888  -9.124  56.637  1.00  0.00     0.159 C 
ATOM     10  O   UNL     1       8.105  -9.892  57.611  1.00  0.00    -0.295 OA
ATOM     11  C   UNL     1       8.741  -9.259  55.409  1.00  0.00     0.084 C 
ENDROOT
TORSDOF 0
ENDMDL
MODEL 6
REMARK VINA RESULT:    -4.835      2.389      3.280
REMARK INTER + INTRA:          -4.835
REMARK INTER:                  -4.835
REMARK INTRA:                   0.000
REMARK UNBOUND:                 0.000
REMARK SMILES CC(C)=C1CC[C@H](C)CC1=O
REMARK SMILES IDX 8 1 7 2 6 3 5 4 4 5 2 6 1 7 3 8 10 9 11 10 9 11
REMARK H PARENT
REMARK Flexibility Score: inf
ROOT
ATOM      1  C   UNL     1      14.550 -10.444  63.920  1.00  0.00     0.008 C 
ATOM      2  C   UNL     1      15.449 -11.643  64.262  1.00  0.00    -0.006 C 
ATOM      3  C   UNL     1      16.601 -11.815  63.255  1.00  0.00     0.008 C 
ATOM      4  C   UNL     1      17.623 -10.668  63.309  1.00  0.00     0.039 C 
ATOM      5  C   UNL     1      18.091 -10.356  64.724  1.00  0.00    -0.006 C 
ATOM      6  C   UNL     1      19.342  -9.861  64.961  1.00  0.00    -0.070 C 
ATOM      7  C   UNL     1      20.305  -9.588  63.827  1.00  0.00     0.039 C 
ATOM      8  C   UNL     1      19.842  -9.599  66.363  1.00  0.00     0.039 C 
ATOM      9  C   UNL     1      17.074 -10.505  65.806  1.00  0.00     0.159 C 
ATOM     10  O   UNL     1      17.083  -9.759  66.821  1.00  0.00    -0.295 OA
ATOM     11  C   UNL     1      16.002 -11.551  65.691  1.00  0.00     0.084 C 
ENDROOT
TORSDOF 0
ENDMDL
MODEL 7
REMARK VINA RESULT:    -4.810     14.549     15.862
REMARK INTER + INTRA:          -4.810
REMARK INTER:                  -4.810
REMARK INTRA:                   0.000
REMARK UNBOUND:                 0.000
REMARK SMILES CC(C)=C1CC[C@H](C)CC1=O
REMARK SMILES IDX 8 1 7 2 6 3 5 4 4 5 2 6 1 7 3 8 10 9 11 10 9 11
REMARK H PARENT
REMARK Flexibility Score: inf
ROOT
ATOM      1  C   UNL     1       9.294  -8.981  54.016  1.00  0.00     0.008 C 
ATOM      2  C   UNL     1       7.783  -9.252  53.931  1.00  0.00    -0.006 C 
ATOM      3  C   UNL     1       7.318 -10.295  54.963  1.00  0.00     0.008 C 
ATOM      4  C   UNL     1       7.439  -9.802  56.414  1.00  0.00     0.039 C 
ATOM      5  C   UNL     1       6.828  -8.422  56.624  1.00  0.00    -0.006 C 
ATOM      6  C   UNL     1       6.291  -8.064  57.827  1.00  0.00    -0.070 C 
ATOM      7  C   UNL     1       6.296  -9.015  59.002  1.00  0.00     0.039 C 
ATOM      8  C   UNL     1       5.632  -6.719  58.036  1.00  0.00     0.039 C 
ATOM      9  C   UNL     1       6.961  -7.460  55.490  1.00  0.00     0.159 C 
ATOM     10  O   UNL     1       7.085  -6.223  55.692  1.00  0.00    -0.295 OA
ATOM     11  C   UNL     1       6.964  -7.961  54.075  1.00  0.00     0.084 C 
ENDROOT
TORSDOF 0
ENDMDL
MODEL 8
REMARK VINA RESULT:    -4.803      2.042      4.412
REMARK INTER + INTRA:          -4.803
REMARK INTER:                  -4.803
REMARK INTRA:                   0.000
REMARK UNBOUND:                 0.000
REMARK SMILES CC(C)=C1CC[C@H](C)CC1=O
REMARK SMILES IDX 8 1 7 2 6 3 5 4 4 5 2 6 1 7 3 8 10 9 11 10 9 11
REMARK H PARENT
REMARK Flexibility Score: inf
ROOT
ATOM      1  C   UNL     1      19.093  -9.627  67.335  1.00  0.00     0.008 C 
ATOM      2  C   UNL     1      18.964 -11.138  67.086  1.00  0.00    -0.006 C 
ATOM      3  C   UNL     1      17.546 -11.659  67.380  1.00  0.00     0.008 C 
ATOM      4  C   UNL     1      16.491 -11.117  66.403  1.00  0.00     0.039 C 
ATOM      5  C   UNL     1      16.903 -11.263  64.944  1.00  0.00    -0.006 C 
ATOM      6  C   UNL     1      15.970 -11.425  63.960  1.00  0.00    -0.070 C 
ATOM      7  C   UNL     1      14.492 -11.451  64.277  1.00  0.00     0.039 C 
ATOM      8  C   UNL     1      16.364 -11.627  62.514  1.00  0.00     0.039 C 
ATOM      9  C   UNL     1      18.356 -11.096  64.647  1.00  0.00     0.159 C 
ATOM     10  O   UNL     1      18.749 -10.594  63.561  1.00  0.00    -0.295 OA
ATOM     11  C   UNL     1      19.383 -11.518  65.657  1.00  0.00     0.084 C 
ENDROOT
TORSDOF 0
ENDMDL
MODEL 9
REMARK VINA RESULT:    -4.702      1.670      4.338
REMARK INTER + INTRA:          -4.702
REMARK INTER:                  -4.702
REMARK INTRA:                   0.000
REMARK UNBOUND:                 0.000
REMARK SMILES CC(C)=C1CC[C@H](C)CC1=O
REMARK SMILES IDX 8 1 7 2 6 3 5 4 4 5 2 6 1 7 3 8 10 9 11 10 9 11
REMARK H PARENT
REMARK Flexibility Score: inf
ROOT
ATOM      1  C   UNL     1      19.911 -11.091  67.371  1.00  0.00     0.008 C 
ATOM      2  C   UNL     1      19.125  -9.836  66.959  1.00  0.00    -0.006 C 
ATOM      3  C   UNL     1      19.234  -9.547  65.452  1.00  0.00     0.008 C 
ATOM      4  C   UNL     1      18.547 -10.612  64.583  1.00  0.00     0.039 C 
ATOM      5  C   UNL     1      17.129 -10.928  65.041  1.00  0.00    -0.006 C 
ATOM      6  C   UNL     1      16.173 -11.331  64.154  1.00  0.00    -0.070 C 
ATOM      7  C   UNL     1      16.488 -11.495  62.684  1.00  0.00     0.039 C 
ATOM      8  C   UNL     1      14.748 -11.593  64.583  1.00  0.00     0.039 C 
ATOM      9  C   UNL     1      16.885 -10.888  66.514  1.00  0.00     0.159 C 
ATOM     10  O   UNL     1      16.054 -11.660  67.061  1.00  0.00    -0.295 OA
ATOM     11  C   UNL     1      17.649  -9.926  67.377  1.00  0.00     0.084 C 
ENDROOT
TORSDOF 0
ENDMDL
