MODEL 1
REMARK VINA RESULT:     1.816      0.000      0.000
REMARK INTER + INTRA:           2.562
REMARK INTER:                   3.090
REMARK INTRA:                  -0.528
REMARK UNBOUND:                -0.528
REMARK SMILES CCCCCCCCCCCCCC(=O)[O-]
REMARK SMILES IDX 8 1 9 2 10 3 11 4 12 5 13 6 14 7 15 8 16 9 7 10 6 11 5 12
REMARK SMILES IDX 4 13 3 14 2 15 1 16
REMARK H PARENT
REMARK Flexibility Score: inf
ROOT
ATOM      1  C   UNL     1      11.425  19.803  54.389  1.00  0.00     0.000 C 
ENDROOT
BRANCH   1   2
ATOM      2  C   UNL     1      12.765  20.211  55.025  1.00  0.00     0.000 C 
BRANCH   2   3
ATOM      3  C   UNL     1      12.743  21.647  55.575  1.00  0.00     0.000 C 
BRANCH   3   4
ATOM      4  C   UNL     1      14.114  22.101  56.105  1.00  0.00     0.000 C 
BRANCH   4   5
ATOM      5  C   UNL     1      15.279  21.703  55.181  1.00  0.00     0.006 C 
BRANCH   5   6
ATOM      6  C   UNL     1      16.670  22.000  55.768  1.00  0.00     0.053 C 
BRANCH   6   7
ATOM      7  C   UNL     1      17.781  21.682  54.814  1.00  0.00     0.041 C 
ATOM      8  O   UNL     1      18.954  22.074  55.050  1.00  0.00    -0.550 OA
ATOM      9  O   UNL     1      17.526  20.924  53.677  1.00  0.00    -0.550 OA
ENDBRANCH   6   7
ENDBRANCH   5   6
ENDBRANCH   4   5
ENDBRANCH   3   4
ENDBRANCH   2   3
ENDBRANCH   1   2
BRANCH   1  10
ATOM     10  C   UNL     1      10.242  20.624  54.927  1.00  0.00     0.000 C 
BRANCH  10  11
ATOM     11  C   UNL     1       9.477  19.894  56.046  1.00  0.00    -0.000 C 
BRANCH  11  12
ATOM     12  C   UNL     1       7.999  20.312  56.121  1.00  0.00    -0.000 C 
BRANCH  12  13
ATOM     13  C   UNL     1       7.398  20.616  54.738  1.00  0.00    -0.000 C 
BRANCH  13  14
ATOM     14  C   UNL     1       6.145  21.502  54.821  1.00  0.00    -0.000 C 
BRANCH  14  15
ATOM     15  C   UNL     1       4.878  20.784  54.334  1.00  0.00    -0.003 C 
ATOM     16  C   UNL     1       3.811  21.784  53.901  1.00  0.00     0.004 C 
ENDBRANCH  14  15
ENDBRANCH  13  14
ENDBRANCH  12  13
ENDBRANCH  11  12
ENDBRANCH  10  11
ENDBRANCH   1  10
TORSDOF 12
ENDMDL
MODEL 2
REMARK VINA RESULT:     1.931      1.687      2.972
REMARK INTER + INTRA:           2.758
REMARK INTER:                   2.014
REMARK INTRA:                   0.744
REMARK UNBOUND:                -0.528
REMARK SMILES CCCCCCCCCCCCCC(=O)[O-]
REMARK SMILES IDX 8 1 9 2 10 3 11 4 12 5 13 6 14 7 15 8 16 9 7 10 6 11 5 12
REMARK SMILES IDX 4 13 3 14 2 15 1 16
REMARK H PARENT
REMARK Flexibility Score: inf
ROOT
ATOM      1  C   UNL     1       8.387  20.891  55.563  1.00  0.00     0.000 C 
ENDROOT
BRANCH   1   2
ATOM      2  C   UNL     1       9.854  21.302  55.774  1.00  0.00     0.000 C 
BRANCH   2   3
ATOM      3  C   UNL     1      10.808  20.096  55.772  1.00  0.00     0.000 C 
BRANCH   3   4
ATOM      4  C   UNL     1      12.255  20.484  56.123  1.00  0.00     0.000 C 
BRANCH   4   5
ATOM      5  C   UNL     1      13.298  19.517  55.532  1.00  0.00     0.006 C 
BRANCH   5   6
ATOM      6  C   UNL     1      14.753  19.884  55.876  1.00  0.00     0.053 C 
BRANCH   6   7
ATOM      7  C   UNL     1      15.099  21.293  55.501  1.00  0.00     0.041 C 
ATOM      8  O   UNL     1      14.241  22.035  54.956  1.00  0.00    -0.550 OA
ATOM      9  O   UNL     1      16.363  21.797  55.783  1.00  0.00    -0.550 OA
ENDBRANCH   6   7
ENDBRANCH   5   6
ENDBRANCH   4   5
ENDBRANCH   3   4
ENDBRANCH   2   3
ENDBRANCH   1   2
BRANCH   1  10
ATOM     10  C   UNL     1       7.398  21.927  56.123  1.00  0.00     0.000 C 
BRANCH  10  11
ATOM     11  C   UNL     1       5.936  21.446  56.052  1.00  0.00    -0.000 C 
BRANCH  11  12
ATOM     12  C   UNL     1       5.754  20.243  55.112  1.00  0.00    -0.000 C 
BRANCH  12  13
ATOM     13  C   UNL     1       5.248  20.652  53.718  1.00  0.00    -0.000 C 
BRANCH  13  14
ATOM     14  C   UNL     1       3.802  21.171  53.744  1.00  0.00    -0.000 C 
BRANCH  14  15
ATOM     15  C   UNL     1       3.066  20.812  55.043  1.00  0.00    -0.003 C 
ATOM     16  C   UNL     1       2.784  22.057  55.878  1.00  0.00     0.004 C 
ENDBRANCH  14  15
ENDBRANCH  13  14
ENDBRANCH  12  13
ENDBRANCH  11  12
ENDBRANCH  10  11
ENDBRANCH   1  10
TORSDOF 12
ENDMDL
MODEL 3
REMARK VINA RESULT:     2.126      5.027      9.672
REMARK INTER + INTRA:           3.090
REMARK INTER:                   3.440
REMARK INTRA:                  -0.351
REMARK UNBOUND:                -0.528
REMARK SMILES CCCCCCCCCCCCCC(=O)[O-]
REMARK SMILES IDX 8 1 9 2 10 3 11 4 12 5 13 6 14 7 15 8 16 9 7 10 6 11 5 12
REMARK SMILES IDX 4 13 3 14 2 15 1 16
REMARK H PARENT
REMARK Flexibility Score: inf
ROOT
ATOM      1  C   UNL     1      11.317  19.907  54.397  1.00  0.00     0.000 C 
ENDROOT
BRANCH   1   2
ATOM      2  C   UNL     1      10.159  20.807  54.860  1.00  0.00     0.000 C 
BRANCH   2   3
ATOM      3  C   UNL     1       8.962  20.000  55.390  1.00  0.00     0.000 C 
BRANCH   3   4
ATOM      4  C   UNL     1       7.933  20.877  56.125  1.00  0.00     0.000 C 
BRANCH   4   5
ATOM      5  C   UNL     1       6.770  21.326  55.222  1.00  0.00     0.006 C 
BRANCH   5   6
ATOM      6  C   UNL     1       5.524  20.427  55.317  1.00  0.00     0.053 C 
BRANCH   6   7
ATOM      7  C   UNL     1       4.452  20.819  54.346  1.00  0.00     0.041 C 
ATOM      8  O   UNL     1       4.213  22.035  54.119  1.00  0.00    -0.550 OA
ATOM      9  O   UNL     1       3.736  19.840  53.668  1.00  0.00    -0.550 OA
ENDBRANCH   6   7
ENDBRANCH   5   6
ENDBRANCH   4   5
ENDBRANCH   3   4
ENDBRANCH   2   3
ENDBRANCH   1   2
BRANCH   1  10
ATOM     10  C   UNL     1      12.497  19.910  55.383  1.00  0.00     0.000 C 
BRANCH  10  11
ATOM     11  C   UNL     1      13.066  21.321  55.618  1.00  0.00    -0.000 C 
BRANCH  11  12
ATOM     12  C   UNL     1      14.519  21.297  56.120  1.00  0.00    -0.000 C 
BRANCH  12  13
ATOM     13  C   UNL     1      15.467  22.121  55.232  1.00  0.00    -0.000 C 
BRANCH  13  14
ATOM     14  C   UNL     1      16.907  21.582  55.246  1.00  0.00    -0.000 C 
BRANCH  14  15
ATOM     15  C   UNL     1      17.615  21.747  53.893  1.00  0.00    -0.003 C 
ATOM     16  C   UNL     1      19.102  22.029  54.082  1.00  0.00     0.004 C 
ENDBRANCH  14  15
ENDBRANCH  13  14
ENDBRANCH  12  13
ENDBRANCH  11  12
ENDBRANCH  10  11
ENDBRANCH   1  10
TORSDOF 12
ENDMDL
MODEL 4
REMARK VINA RESULT:     3.134      4.947      9.326
REMARK INTER + INTRA:           4.805
REMARK INTER:                   4.856
REMARK INTRA:                  -0.051
REMARK UNBOUND:                -0.528
REMARK SMILES CCCCCCCCCCCCCC(=O)[O-]
REMARK SMILES IDX 8 1 9 2 10 3 11 4 12 5 13 6 14 7 15 8 16 9 7 10 6 11 5 12
REMARK SMILES IDX 4 13 3 14 2 15 1 16
REMARK H PARENT
REMARK Flexibility Score: inf
ROOT
ATOM      1  C   UNL     1       9.431  20.279  55.123  1.00  0.00     0.000 C 
ENDROOT
BRANCH   1   2
ATOM      2  C   UNL     1       8.159  21.111  54.888  1.00  0.00     0.000 C 
BRANCH   2   3
ATOM      3  C   UNL     1       7.047  20.785  55.898  1.00  0.00     0.000 C 
BRANCH   3   4
ATOM      4  C   UNL     1       6.086  21.966  56.125  1.00  0.00     0.000 C 
BRANCH   4   5
ATOM      5  C   UNL     1       4.844  21.914  55.217  1.00  0.00     0.006 C 
BRANCH   5   6
ATOM      6  C   UNL     1       4.504  20.503  54.705  1.00  0.00     0.053 C 
BRANCH   6   7
ATOM      7  C   UNL     1       4.192  20.479  53.240  1.00  0.00     0.041 C 
ATOM      8  O   UNL     1       5.118  20.557  52.390  1.00  0.00    -0.550 OA
ATOM      9  O   UNL     1       2.877  20.337  52.811  1.00  0.00    -0.550 OA
ENDBRANCH   6   7
ENDBRANCH   5   6
ENDBRANCH   4   5
ENDBRANCH   3   4
ENDBRANCH   2   3
ENDBRANCH   1   2
BRANCH   1  10
ATOM     10  C   UNL     1      10.394  20.941  56.122  1.00  0.00     0.000 C 
BRANCH  10  11
ATOM     11  C   UNL     1      11.341  21.951  55.447  1.00  0.00    -0.000 C 
BRANCH  11  12
ATOM     12  C   UNL     1      12.744  21.957  56.076  1.00  0.00    -0.000 C 
BRANCH  12  13
ATOM     13  C   UNL     1      13.862  22.091  55.028  1.00  0.00    -0.000 C 
BRANCH  13  14
ATOM     14  C   UNL     1      15.263  21.894  55.631  1.00  0.00    -0.000 C 
BRANCH  14  15
ATOM     15  C   UNL     1      15.642  20.413  55.777  1.00  0.00    -0.003 C 
ATOM     16  C   UNL     1      14.402  19.525  55.777  1.00  0.00     0.004 C 
ENDBRANCH  14  15
ENDBRANCH  13  14
ENDBRANCH  12  13
ENDBRANCH  11  12
ENDBRANCH  10  11
ENDBRANCH   1  10
TORSDOF 12
ENDMDL
