MODEL 1
REMARK VINA RESULT:    -6.261      0.000      0.000
REMARK INTER + INTRA:          -6.261
REMARK INTER:                  -6.261
REMARK INTRA:                   0.000
REMARK UNBOUND:                 0.000
REMARK SMILES O=c1ccc2ccc3occc3c2o1
REMARK SMILES IDX 6 1 7 2 8 3 12 4 11 5 10 6 9 7 13 8 5 9 4 10 3 11 2 12 1 13
REMARK SMILES IDX 14 14
REMARK H PARENT
REMARK Flexibility Score: inf
ROOT
ATOM      1  C   UNL     1      45.011  68.587   4.500  1.00  0.00     0.016 A 
ATOM      2  C   UNL     1      46.347  68.987   4.314  1.00  0.00     0.048 A 
ATOM      3  C   UNL     1      47.214  68.104   3.670  1.00  0.00     0.137 A 
ATOM      4  C   UNL     1      46.798  66.879   3.224  1.00  0.00     0.064 A 
ATOM      5  C   UNL     1      47.889  66.272   2.645  1.00  0.00     0.054 A 
ATOM      6  C   UNL     1      48.917  67.197   2.784  1.00  0.00     0.196 A 
ATOM      7  O   UNL     1      48.484  68.282   3.401  1.00  0.00    -0.464 OA
ATOM      8  C   UNL     1      45.484  66.446   3.389  1.00  0.00     0.149 A 
ATOM      9  C   UNL     1      44.575  67.319   4.040  1.00  0.00     0.018 A 
ATOM     10  C   UNL     1      43.256  66.891   4.207  1.00  0.00     0.019 A 
ATOM     11  C   UNL     1      42.879  65.631   3.736  1.00  0.00     0.094 A 
ATOM     12  C   UNL     1      43.834  64.826   3.104  1.00  0.00     0.336 A 
ATOM     13  O   UNL     1      43.510  63.689   2.672  1.00  0.00    -0.246 OA
ATOM     14  O   UNL     1      45.085  65.254   2.954  1.00  0.00    -0.422 OA
ENDROOT
TORSDOF 0
ENDMDL
MODEL 2
REMARK VINA RESULT:    -6.249      1.418      4.168
REMARK INTER + INTRA:          -6.249
REMARK INTER:                  -6.249
REMARK INTRA:                   0.000
REMARK UNBOUND:                 0.000
REMARK SMILES O=c1ccc2ccc3occc3c2o1
REMARK SMILES IDX 6 1 7 2 8 3 12 4 11 5 10 6 9 7 13 8 5 9 4 10 3 11 2 12 1 13
REMARK SMILES IDX 14 14
REMARK H PARENT
REMARK Flexibility Score: inf
ROOT
ATOM      1  C   UNL     1      45.860  68.982   4.346  1.00  0.00     0.016 A 
ATOM      2  C   UNL     1      44.517  68.609   4.538  1.00  0.00     0.048 A 
ATOM      3  C   UNL     1      44.122  67.339   4.117  1.00  0.00     0.137 A 
ATOM      4  C   UNL     1      44.998  66.465   3.533  1.00  0.00     0.064 A 
ATOM      5  C   UNL     1      44.291  65.320   3.244  1.00  0.00     0.054 A 
ATOM      6  C   UNL     1      43.000  65.588   3.686  1.00  0.00     0.196 A 
ATOM      7  O   UNL     1      42.929  66.802   4.202  1.00  0.00    -0.464 OA
ATOM      8  C   UNL     1      46.336  66.797   3.326  1.00  0.00     0.149 A 
ATOM      9  C   UNL     1      46.772  68.081   3.742  1.00  0.00     0.018 A 
ATOM     10  C   UNL     1      48.112  68.419   3.538  1.00  0.00     0.019 A 
ATOM     11  C   UNL     1      48.969  67.494   2.937  1.00  0.00     0.094 A 
ATOM     12  C   UNL     1      48.463  66.246   2.554  1.00  0.00     0.336 A 
ATOM     13  O   UNL     1      49.223  65.401   2.012  1.00  0.00    -0.246 OA
ATOM     14  O   UNL     1      47.183  65.944   2.758  1.00  0.00    -0.422 OA
ENDROOT
TORSDOF 0
ENDMDL
MODEL 3
REMARK VINA RESULT:    -6.182      1.598      4.186
REMARK INTER + INTRA:          -6.182
REMARK INTER:                  -6.182
REMARK INTRA:                   0.000
REMARK UNBOUND:                 0.000
REMARK SMILES O=c1ccc2ccc3occc3c2o1
REMARK SMILES IDX 6 1 7 2 8 3 12 4 11 5 10 6 9 7 13 8 5 9 4 10 3 11 2 12 1 13
REMARK SMILES IDX 14 14
REMARK H PARENT
REMARK Flexibility Score: inf
ROOT
ATOM      1  C   UNL     1      42.875  65.624   3.434  1.00  0.00     0.016 A 
ATOM      2  C   UNL     1      43.076  64.269   3.111  1.00  0.00     0.048 A 
ATOM      3  C   UNL     1      44.387  63.810   2.994  1.00  0.00     0.137 A 
ATOM      4  C   UNL     1      45.463  64.635   3.184  1.00  0.00     0.064 A 
ATOM      5  C   UNL     1      46.592  63.872   2.996  1.00  0.00     0.054 A 
ATOM      6  C   UNL     1      46.110  62.602   2.697  1.00  0.00     0.196 A 
ATOM      7  O   UNL     1      44.788  62.596   2.703  1.00  0.00    -0.464 OA
ATOM      8  C   UNL     1      45.305  65.982   3.505  1.00  0.00     0.149 A 
ATOM      9  C   UNL     1      43.984  66.483   3.633  1.00  0.00     0.018 A 
ATOM     10  C   UNL     1      43.821  67.832   3.955  1.00  0.00     0.019 A 
ATOM     11  C   UNL     1      44.949  68.635   4.138  1.00  0.00     0.094 A 
ATOM     12  C   UNL     1      46.220  68.067   3.995  1.00  0.00     0.336 A 
ATOM     13  O   UNL     1      47.247  68.777   4.159  1.00  0.00    -0.246 OA
ATOM     14  O   UNL     1      46.354  66.779   3.688  1.00  0.00    -0.422 OA
ENDROOT
TORSDOF 0
ENDMDL
MODEL 4
REMARK VINA RESULT:    -6.166      1.534      2.557
REMARK INTER + INTRA:          -6.166
REMARK INTER:                  -6.166
REMARK INTRA:                   0.000
REMARK UNBOUND:                 0.000
REMARK SMILES O=c1ccc2ccc3occc3c2o1
REMARK SMILES IDX 6 1 7 2 8 3 12 4 11 5 10 6 9 7 13 8 5 9 4 10 3 11 2 12 1 13
REMARK SMILES IDX 14 14
REMARK H PARENT
REMARK Flexibility Score: inf
ROOT
ATOM      1  C   UNL     1      48.161  68.652   3.585  1.00  0.00     0.016 A 
ATOM      2  C   UNL     1      49.211  67.933   2.984  1.00  0.00     0.048 A 
ATOM      3  C   UNL     1      48.951  66.634   2.549  1.00  0.00     0.137 A 
ATOM      4  C   UNL     1      47.719  66.055   2.692  1.00  0.00     0.064 A 
ATOM      5  C   UNL     1      47.808  64.787   2.164  1.00  0.00     0.054 A 
ATOM      6  C   UNL     1      49.123  64.683   1.726  1.00  0.00     0.196 A 
ATOM      7  O   UNL     1      49.783  65.803   1.970  1.00  0.00    -0.464 OA
ATOM      8  C   UNL     1      46.655  66.734   3.282  1.00  0.00     0.149 A 
ATOM      9  C   UNL     1      46.883  68.058   3.736  1.00  0.00     0.018 A 
ATOM     10  C   UNL     1      45.819  68.744   4.327  1.00  0.00     0.019 A 
ATOM     11  C   UNL     1      44.581  68.111   4.452  1.00  0.00     0.094 A 
ATOM     12  C   UNL     1      44.434  66.802   3.979  1.00  0.00     0.336 A 
ATOM     13  O   UNL     1      43.323  66.218   4.083  1.00  0.00    -0.246 OA
ATOM     14  O   UNL     1      45.460  66.167   3.418  1.00  0.00    -0.422 OA
ENDROOT
TORSDOF 0
ENDMDL
MODEL 5
REMARK VINA RESULT:    -6.137      9.231     10.569
REMARK INTER + INTRA:          -6.137
REMARK INTER:                  -6.137
REMARK INTRA:                   0.000
REMARK UNBOUND:                 0.000
REMARK SMILES O=c1ccc2ccc3occc3c2o1
REMARK SMILES IDX 6 1 7 2 8 3 12 4 11 5 10 6 9 7 13 8 5 9 4 10 3 11 2 12 1 13
REMARK SMILES IDX 14 14
REMARK H PARENT
REMARK Flexibility Score: inf
ROOT
ATOM      1  C   UNL     1      47.005  58.463   6.369  1.00  0.00     0.016 A 
ATOM      2  C   UNL     1      46.266  58.147   5.214  1.00  0.00     0.048 A 
ATOM      3  C   UNL     1      46.936  57.540   4.152  1.00  0.00     0.137 A 
ATOM      4  C   UNL     1      48.273  57.251   4.210  1.00  0.00     0.064 A 
ATOM      5  C   UNL     1      48.608  56.664   3.011  1.00  0.00     0.054 A 
ATOM      6  C   UNL     1      47.419  56.638   2.290  1.00  0.00     0.196 A 
ATOM      7  O   UNL     1      46.437  57.169   2.998  1.00  0.00    -0.464 OA
ATOM      8  C   UNL     1      49.039  57.548   5.335  1.00  0.00     0.149 A 
ATOM      9  C   UNL     1      48.389  58.165   6.435  1.00  0.00     0.018 A 
ATOM     10  C   UNL     1      49.152  58.465   7.566  1.00  0.00     0.019 A 
ATOM     11  C   UNL     1      50.513  58.151   7.578  1.00  0.00     0.094 A 
ATOM     12  C   UNL     1      51.082  57.541   6.453  1.00  0.00     0.336 A 
ATOM     13  O   UNL     1      52.307  57.251   6.449  1.00  0.00    -0.246 OA
ATOM     14  O   UNL     1      50.337  57.264   5.386  1.00  0.00    -0.422 OA
ENDROOT
TORSDOF 0
ENDMDL
MODEL 6
REMARK VINA RESULT:    -6.084      7.232      8.839
REMARK INTER + INTRA:          -6.084
REMARK INTER:                  -6.084
REMARK INTRA:                   0.000
REMARK UNBOUND:                 0.000
REMARK SMILES O=c1ccc2ccc3occc3c2o1
REMARK SMILES IDX 6 1 7 2 8 3 12 4 11 5 10 6 9 7 13 8 5 9 4 10 3 11 2 12 1 13
REMARK SMILES IDX 14 14
REMARK H PARENT
REMARK Flexibility Score: inf
ROOT
ATOM      1  C   UNL     1      51.853  65.237  -0.053  1.00  0.00     0.016 A 
ATOM      2  C   UNL     1      51.864  66.017   1.118  1.00  0.00     0.048 A 
ATOM      3  C   UNL     1      52.564  65.533   2.223  1.00  0.00     0.137 A 
ATOM      4  C   UNL     1      53.228  64.337   2.191  1.00  0.00     0.064 A 
ATOM      5  C   UNL     1      53.804  64.165   3.429  1.00  0.00     0.054 A 
ATOM      6  C   UNL     1      53.438  65.300   4.145  1.00  0.00     0.196 A 
ATOM      7  O   UNL     1      52.697  66.099   3.397  1.00  0.00    -0.464 OA
ATOM      8  C   UNL     1      53.241  63.536   1.051  1.00  0.00     0.149 A 
ATOM      9  C   UNL     1      52.539  63.998  -0.092  1.00  0.00     0.018 A 
ATOM     10  C   UNL     1      52.549  63.198  -1.238  1.00  0.00     0.019 A 
ATOM     11  C   UNL     1      53.240  61.985  -1.222  1.00  0.00     0.094 A 
ATOM     12  C   UNL     1      53.910  61.598  -0.055  1.00  0.00     0.336 A 
ATOM     13  O   UNL     1      54.539  60.507  -0.025  1.00  0.00    -0.246 OA
ATOM     14  O   UNL     1      53.888  62.374   1.026  1.00  0.00    -0.422 OA
ENDROOT
TORSDOF 0
ENDMDL
MODEL 7
REMARK VINA RESULT:    -6.000      1.659      4.611
REMARK INTER + INTRA:          -6.000
REMARK INTER:                  -6.000
REMARK INTRA:                   0.000
REMARK UNBOUND:                 0.000
REMARK SMILES O=c1ccc2ccc3occc3c2o1
REMARK SMILES IDX 6 1 7 2 8 3 12 4 11 5 10 6 9 7 13 8 5 9 4 10 3 11 2 12 1 13
REMARK SMILES IDX 14 14
REMARK H PARENT
REMARK Flexibility Score: inf
ROOT
ATOM      1  C   UNL     1      45.425  64.664   2.998  1.00  0.00     0.016 A 
ATOM      2  C   UNL     1      44.284  65.328   3.484  1.00  0.00     0.048 A 
ATOM      3  C   UNL     1      44.404  66.675   3.826  1.00  0.00     0.137 A 
ATOM      4  C   UNL     1      45.588  67.350   3.701  1.00  0.00     0.064 A 
ATOM      5  C   UNL     1      45.360  68.641   4.120  1.00  0.00     0.054 A 
ATOM      6  C   UNL     1      44.016  68.658   4.479  1.00  0.00     0.196 A 
ATOM      7  O   UNL     1      43.472  67.468   4.293  1.00  0.00    -0.464 OA
ATOM      8  C   UNL     1      46.740  66.727   3.224  1.00  0.00     0.149 A 
ATOM      9  C   UNL     1      46.654  65.358   2.866  1.00  0.00     0.018 A 
ATOM     10  C   UNL     1      47.805  64.729   2.387  1.00  0.00     0.019 A 
ATOM     11  C   UNL     1      48.990  65.459   2.278  1.00  0.00     0.094 A 
ATOM     12  C   UNL     1      48.996  66.808   2.652  1.00  0.00     0.336 A 
ATOM     13  O   UNL     1      50.057  67.481   2.558  1.00  0.00    -0.246 OA
ATOM     14  O   UNL     1      47.888  67.389   3.105  1.00  0.00    -0.422 OA
ENDROOT
TORSDOF 0
ENDMDL
MODEL 8
REMARK VINA RESULT:    -5.893     10.247     11.667
REMARK INTER + INTRA:          -5.893
REMARK INTER:                  -5.893
REMARK INTRA:                   0.000
REMARK UNBOUND:                 0.000
REMARK SMILES O=c1ccc2ccc3occc3c2o1
REMARK SMILES IDX 6 1 7 2 8 3 12 4 11 5 10 6 9 7 13 8 5 9 4 10 3 11 2 12 1 13
REMARK SMILES IDX 14 14
REMARK H PARENT
REMARK Flexibility Score: inf
ROOT
ATOM      1  C   UNL     1      53.244  61.119   8.786  1.00  0.00     0.016 A 
ATOM      2  C   UNL     1      51.947  61.508   8.402  1.00  0.00     0.048 A 
ATOM      3  C   UNL     1      51.257  60.694   7.504  1.00  0.00     0.137 A 
ATOM      4  C   UNL     1      51.806  59.547   6.998  1.00  0.00     0.064 A 
ATOM      5  C   UNL     1      50.870  58.993   6.154  1.00  0.00     0.054 A 
ATOM      6  C   UNL     1      49.790  59.868   6.209  1.00  0.00     0.196 A 
ATOM      7  O   UNL     1      50.051  60.875   7.024  1.00  0.00    -0.464 OA
ATOM      8  C   UNL     1      53.086  59.129   7.354  1.00  0.00     0.149 A 
ATOM      9  C   UNL     1      53.817  59.932   8.266  1.00  0.00     0.018 A 
ATOM     10  C   UNL     1      55.101  59.517   8.627  1.00  0.00     0.019 A 
ATOM     11  C   UNL     1      55.618  58.339   8.084  1.00  0.00     0.094 A 
ATOM     12  C   UNL     1      54.836  57.600   7.189  1.00  0.00     0.336 A 
ATOM     13  O   UNL     1      55.288  56.535   6.692  1.00  0.00    -0.246 OA
ATOM     14  O   UNL     1      53.615  58.012   6.859  1.00  0.00    -0.422 OA
ENDROOT
TORSDOF 0
ENDMDL
