MODEL 1
REMARK VINA RESULT:    -4.367      0.000      0.000
REMARK INTER + INTRA:          -6.167
REMARK INTER:                  -5.644
REMARK INTRA:                  -0.523
REMARK UNBOUND:                -0.523
REMARK SMILES CO[C@]1(CO)O[C@H](CO)[C@H](O)[C@H]1O
REMARK SMILES IDX 3 1 12 2 10 3 7 4 6 5 2 6 1 7 4 8 5 9 13 11 11 13 8 15 9 16
REMARK H PARENT 5 10 13 12 11 14 9 17
REMARK Flexibility Score: inf
ROOT
ATOM      1  C   UNL     1      11.049   2.962  -3.138  1.00  0.00     0.221 C 
ATOM      2  C   UNL     1       9.870   2.234  -2.455  1.00  0.00     0.207 C 
ATOM      3  C   UNL     1      10.172   2.382  -0.990  1.00  0.00     0.180 C 
ATOM      4  C   UNL     1      11.697   2.471  -0.977  1.00  0.00     0.179 C 
ATOM      5  O   UNL     1      12.119   3.031  -2.202  1.00  0.00    -0.337 OA
ENDROOT
BRANCH   1   6
ATOM      6  O   UNL     1      11.398   2.206  -4.296  1.00  0.00    -0.349 OA
ATOM      7  C   UNL     1      11.184   0.817  -4.138  1.00  0.00     0.198 C 
ENDBRANCH   1   6
BRANCH   1   8
ATOM      8  C   UNL     1      10.684   4.403  -3.571  1.00  0.00     0.224 C 
BRANCH   8   9
ATOM      9  O   UNL     1       9.862   4.386  -4.706  1.00  0.00    -0.391 OA
ATOM     10  H   UNL     1      10.098   5.195  -5.230  1.00  0.00     0.210 HD
ENDBRANCH   8   9
ENDBRANCH   1   8
BRANCH   2  11
ATOM     11  O   UNL     1       8.612   2.780  -2.764  1.00  0.00    -0.385 OA
ATOM     12  H   UNL     1       8.047   2.023  -3.068  1.00  0.00     0.211 HD
ENDBRANCH   2  11
BRANCH   3  13
ATOM     13  O   UNL     1       9.681   1.296  -0.246  1.00  0.00    -0.387 OA
ATOM     14  H   UNL     1       8.794   1.572   0.104  1.00  0.00     0.211 HD
ENDBRANCH   3  13
BRANCH   4  15
ATOM     15  C   UNL     1      12.406   1.120  -0.782  1.00  0.00     0.191 C 
BRANCH  15  16
ATOM     16  O   UNL     1      12.187   0.639   0.515  1.00  0.00    -0.394 OA
ATOM     17  H   UNL     1      12.668  -0.227   0.573  1.00  0.00     0.210 HD
ENDBRANCH  15  16
ENDBRANCH   4  15
TORSDOF 7
ENDMDL
MODEL 2
REMARK VINA RESULT:    -4.215      1.744      3.177
REMARK INTER + INTRA:          -5.970
REMARK INTER:                  -5.768
REMARK INTRA:                  -0.202
REMARK UNBOUND:                -0.523
REMARK SMILES CO[C@]1(CO)O[C@H](CO)[C@H](O)[C@H]1O
REMARK SMILES IDX 3 1 12 2 10 3 7 4 6 5 2 6 1 7 4 8 5 9 13 11 11 13 8 15 9 16
REMARK H PARENT 5 10 13 12 11 14 9 17
REMARK Flexibility Score: inf
ROOT
ATOM      1  C   UNL     1      10.747   4.021  -2.121  1.00  0.00     0.221 C 
ATOM      2  C   UNL     1      11.796   2.993  -1.643  1.00  0.00     0.207 C 
ATOM      3  C   UNL     1      10.963   1.908  -1.022  1.00  0.00     0.180 C 
ATOM      4  C   UNL     1       9.729   2.674  -0.545  1.00  0.00     0.179 C 
ATOM      5  O   UNL     1       9.547   3.790  -1.390  1.00  0.00    -0.337 OA
ENDROOT
BRANCH   1   6
ATOM      6  O   UNL     1      11.283   5.319  -1.873  1.00  0.00    -0.349 OA
ATOM      7  C   UNL     1      10.369   6.185  -1.231  1.00  0.00     0.198 C 
ENDBRANCH   1   6
BRANCH   1   8
ATOM      8  C   UNL     1      10.432   3.887  -3.631  1.00  0.00     0.224 C 
BRANCH   8   9
ATOM      9  O   UNL     1       9.099   4.235  -3.892  1.00  0.00    -0.391 OA
ATOM     10  H   UNL     1       8.631   4.209  -3.017  1.00  0.00     0.210 HD
ENDBRANCH   8   9
ENDBRANCH   1   8
BRANCH   2  11
ATOM     11  O   UNL     1      12.596   2.479  -2.678  1.00  0.00    -0.385 OA
ATOM     12  H   UNL     1      12.504   3.107  -3.441  1.00  0.00     0.211 HD
ENDBRANCH   2  11
BRANCH   3  13
ATOM     13  O   UNL     1      11.643   1.263   0.024  1.00  0.00    -0.387 OA
ATOM     14  H   UNL     1      10.998   1.186   0.775  1.00  0.00     0.211 HD
ENDBRANCH   3  13
BRANCH   4  15
ATOM     15  C   UNL     1       9.815   3.165   0.910  1.00  0.00     0.191 C 
BRANCH  15  16
ATOM     16  O   UNL     1       8.551   3.562   1.364  1.00  0.00    -0.394 OA
ATOM     17  H   UNL     1       7.998   3.704   0.551  1.00  0.00     0.210 HD
ENDBRANCH  15  16
ENDBRANCH   4  15
TORSDOF 7
ENDMDL
MODEL 3
REMARK VINA RESULT:    -4.085      1.796      3.305
REMARK INTER + INTRA:          -5.802
REMARK INTER:                  -5.386
REMARK INTRA:                  -0.415
REMARK UNBOUND:                -0.523
REMARK SMILES CO[C@]1(CO)O[C@H](CO)[C@H](O)[C@H]1O
REMARK SMILES IDX 3 1 12 2 10 3 7 4 6 5 2 6 1 7 4 8 5 9 13 11 11 13 8 15 9 16
REMARK H PARENT 5 10 13 12 11 14 9 17
REMARK Flexibility Score: inf
ROOT
ATOM      1  C   UNL     1       9.508   3.771  -1.276  1.00  0.00     0.221 C 
ATOM      2  C   UNL     1      10.876   4.165  -1.876  1.00  0.00     0.207 C 
ATOM      3  C   UNL     1      11.416   2.861  -2.394  1.00  0.00     0.180 C 
ATOM      4  C   UNL     1      10.764   1.842  -1.461  1.00  0.00     0.179 C 
ATOM      5  O   UNL     1       9.532   2.371  -1.019  1.00  0.00    -0.337 OA
ENDROOT
BRANCH   1   6
ATOM      6  O   UNL     1       9.336   4.532  -0.082  1.00  0.00    -0.349 OA
ATOM      7  C   UNL     1       8.618   3.838   0.919  1.00  0.00     0.198 C 
ENDBRANCH   1   6
BRANCH   1   8
ATOM      8  C   UNL     1       8.331   4.071  -2.237  1.00  0.00     0.224 C 
BRANCH   8   9
ATOM      9  O   UNL     1       7.717   2.882  -2.654  1.00  0.00    -0.391 OA
ATOM     10  H   UNL     1       7.654   2.307  -1.848  1.00  0.00     0.210 HD
ENDBRANCH   8   9
ENDBRANCH   1   8
BRANCH   2  11
ATOM     11  O   UNL     1      10.788   5.114  -2.909  1.00  0.00    -0.385 OA
ATOM     12  H   UNL     1       9.904   4.978  -3.339  1.00  0.00     0.211 HD
ENDBRANCH   2  11
BRANCH   3  13
ATOM     13  O   UNL     1      12.820   2.825  -2.346  1.00  0.00    -0.387 OA
ATOM     14  H   UNL     1      13.066   2.678  -1.396  1.00  0.00     0.211 HD
ENDBRANCH   3  13
BRANCH   4  15
ATOM     15  C   UNL     1      11.613   1.477  -0.232  1.00  0.00     0.191 C 
BRANCH  15  16
ATOM     16  O   UNL     1      12.704   0.686  -0.613  1.00  0.00    -0.394 OA
ATOM     17  H   UNL     1      13.400   1.314  -0.940  1.00  0.00     0.210 HD
ENDBRANCH  15  16
ENDBRANCH   4  15
TORSDOF 7
ENDMDL
MODEL 4
REMARK VINA RESULT:    -4.077      1.594      3.238
REMARK INTER + INTRA:          -5.792
REMARK INTER:                  -5.622
REMARK INTRA:                  -0.170
REMARK UNBOUND:                -0.523
REMARK SMILES CO[C@]1(CO)O[C@H](CO)[C@H](O)[C@H]1O
REMARK SMILES IDX 3 1 12 2 10 3 7 4 6 5 2 6 1 7 4 8 5 9 13 11 11 13 8 15 9 16
REMARK H PARENT 5 10 13 12 11 14 9 17
REMARK Flexibility Score: inf
ROOT
ATOM      1  C   UNL     1       9.919   3.207  -1.661  1.00  0.00     0.221 C 
ATOM      2  C   UNL     1      10.510   2.127  -0.729  1.00  0.00     0.207 C 
ATOM      3  C   UNL     1      11.953   2.063  -1.141  1.00  0.00     0.180 C 
ATOM      4  C   UNL     1      11.893   2.478  -2.611  1.00  0.00     0.179 C 
ATOM      5  O   UNL     1      10.784   3.334  -2.785  1.00  0.00    -0.337 OA
ENDROOT
BRANCH   1   6
ATOM      6  O   UNL     1       8.613   2.773  -2.037  1.00  0.00    -0.349 OA
ATOM      7  C   UNL     1       7.679   3.831  -2.120  1.00  0.00     0.198 C 
ENDBRANCH   1   6
BRANCH   1   8
ATOM      8  C   UNL     1       9.809   4.589  -0.971  1.00  0.00     0.224 C 
BRANCH   8   9
ATOM      9  O   UNL     1      10.748   5.485  -1.503  1.00  0.00    -0.391 OA
ATOM     10  H   UNL     1      10.507   6.380  -1.148  1.00  0.00     0.210 HD
ENDBRANCH   8   9
ENDBRANCH   1   8
BRANCH   2  11
ATOM     11  O   UNL     1      10.394   2.433   0.638  1.00  0.00    -0.385 OA
ATOM     12  H   UNL     1      10.277   1.567   1.109  1.00  0.00     0.211 HD
ENDBRANCH   2  11
BRANCH   3  13
ATOM     13  O   UNL     1      12.491   0.779  -0.959  1.00  0.00    -0.387 OA
ATOM     14  H   UNL     1      11.730   0.144  -1.017  1.00  0.00     0.211 HD
ENDBRANCH   3  13
BRANCH   4  15
ATOM     15  C   UNL     1      11.768   1.302  -3.594  1.00  0.00     0.191 C 
BRANCH  15  16
ATOM     16  O   UNL     1      11.844   1.763  -4.914  1.00  0.00    -0.394 OA
ATOM     17  H   UNL     1      12.806   1.747  -5.157  1.00  0.00     0.210 HD
ENDBRANCH  15  16
ENDBRANCH   4  15
TORSDOF 7
ENDMDL
MODEL 5
REMARK VINA RESULT:    -3.976      1.976      3.606
REMARK INTER + INTRA:          -5.662
REMARK INTER:                  -5.626
REMARK INTRA:                  -0.035
REMARK UNBOUND:                -0.523
REMARK SMILES CO[C@]1(CO)O[C@H](CO)[C@H](O)[C@H]1O
REMARK SMILES IDX 3 1 12 2 10 3 7 4 6 5 2 6 1 7 4 8 5 9 13 11 11 13 8 15 9 16
REMARK H PARENT 5 10 13 12 11 14 9 17
REMARK Flexibility Score: inf
ROOT
ATOM      1  C   UNL     1       9.804   3.859  -0.705  1.00  0.00     0.221 C 
ATOM      2  C   UNL     1       9.610   3.444  -2.180  1.00  0.00     0.207 C 
ATOM      3  C   UNL     1       9.837   1.959  -2.156  1.00  0.00     0.180 C 
ATOM      4  C   UNL     1      10.798   1.793  -0.978  1.00  0.00     0.179 C 
ATOM      5  O   UNL     1      10.557   2.837  -0.060  1.00  0.00    -0.337 OA
ENDROOT
BRANCH   1   6
ATOM      6  O   UNL     1      10.489   5.110  -0.704  1.00  0.00    -0.349 OA
ATOM      7  C   UNL     1       9.629   6.214  -0.498  1.00  0.00     0.198 C 
ENDBRANCH   1   6
BRANCH   1   8
ATOM      8  C   UNL     1       8.459   4.022   0.046  1.00  0.00     0.224 C 
BRANCH   8   9
ATOM      9  O   UNL     1       8.531   3.447   1.322  1.00  0.00    -0.391 OA
ATOM     10  H   UNL     1       9.321   2.846   1.309  1.00  0.00     0.210 HD
ENDBRANCH   8   9
ENDBRANCH   1   8
BRANCH   2  11
ATOM     11  O   UNL     1       8.336   3.746  -2.690  1.00  0.00    -0.385 OA
ATOM     12  H   UNL     1       8.463   4.491  -3.335  1.00  0.00     0.211 HD
ENDBRANCH   2  11
BRANCH   3  13
ATOM     13  O   UNL     1      10.375   1.495  -3.368  1.00  0.00    -0.387 OA
ATOM     14  H   UNL     1      10.122   2.159  -4.061  1.00  0.00     0.211 HD
ENDBRANCH   3  13
BRANCH   4  15
ATOM     15  C   UNL     1      12.285   1.813  -1.370  1.00  0.00     0.191 C 
BRANCH  15  16
ATOM     16  O   UNL     1      12.518   2.797  -2.339  1.00  0.00    -0.394 OA
ATOM     17  H   UNL     1      11.843   3.507  -2.179  1.00  0.00     0.210 HD
ENDBRANCH  15  16
ENDBRANCH   4  15
TORSDOF 7
ENDMDL
MODEL 6
REMARK VINA RESULT:    -3.966      1.585      2.846
REMARK INTER + INTRA:          -5.648
REMARK INTER:                  -5.483
REMARK INTRA:                  -0.165
REMARK UNBOUND:                -0.523
REMARK SMILES CO[C@]1(CO)O[C@H](CO)[C@H](O)[C@H]1O
REMARK SMILES IDX 3 1 12 2 10 3 7 4 6 5 2 6 1 7 4 8 5 9 13 11 11 13 8 15 9 16
REMARK H PARENT 5 10 13 12 11 14 9 17
REMARK Flexibility Score: inf
ROOT
ATOM      1  C   UNL     1      10.220   3.978  -2.266  1.00  0.00     0.221 C 
ATOM      2  C   UNL     1      10.941   3.235  -3.412  1.00  0.00     0.207 C 
ATOM      3  C   UNL     1      10.755   1.786  -3.059  1.00  0.00     0.180 C 
ATOM      4  C   UNL     1      10.652   1.830  -1.535  1.00  0.00     0.179 C 
ATOM      5  O   UNL     1      10.118   3.083  -1.163  1.00  0.00    -0.337 OA
ENDROOT
BRANCH   1   6
ATOM      6  O   UNL     1      11.000   5.130  -1.951  1.00  0.00    -0.349 OA
ATOM      7  C   UNL     1      10.379   5.981  -1.009  1.00  0.00     0.198 C 
ENDBRANCH   1   6
BRANCH   1   8
ATOM      8  C   UNL     1       8.793   4.431  -2.661  1.00  0.00     0.224 C 
BRANCH   8   9
ATOM      9  O   UNL     1       7.929   3.330  -2.747  1.00  0.00    -0.391 OA
ATOM     10  H   UNL     1       8.397   2.656  -3.305  1.00  0.00     0.210 HD
ENDBRANCH   8   9
ENDBRANCH   1   8
BRANCH   2  11
ATOM     11  O   UNL     1      10.415   3.511  -4.685  1.00  0.00    -0.385 OA
ATOM     12  H   UNL     1      11.028   3.085  -5.339  1.00  0.00     0.211 HD
ENDBRANCH   2  11
BRANCH   3  13
ATOM     13  O   UNL     1      11.827   0.999  -3.511  1.00  0.00    -0.387 OA
ATOM     14  H   UNL     1      11.437   0.307  -4.106  1.00  0.00     0.211 HD
ENDBRANCH   3  13
BRANCH   4  15
ATOM     15  C   UNL     1      11.991   1.630  -0.806  1.00  0.00     0.191 C 
BRANCH  15  16
ATOM     16  O   UNL     1      11.810   0.834   0.333  1.00  0.00    -0.394 OA
ATOM     17  H   UNL     1      11.199   1.341   0.929  1.00  0.00     0.210 HD
ENDBRANCH  15  16
ENDBRANCH   4  15
TORSDOF 7
ENDMDL
MODEL 7
REMARK VINA RESULT:    -3.954      1.459      3.128
REMARK INTER + INTRA:          -5.634
REMARK INTER:                  -5.067
REMARK INTRA:                  -0.567
REMARK UNBOUND:                -0.523
REMARK SMILES CO[C@]1(CO)O[C@H](CO)[C@H](O)[C@H]1O
REMARK SMILES IDX 3 1 12 2 10 3 7 4 6 5 2 6 1 7 4 8 5 9 13 11 11 13 8 15 9 16
REMARK H PARENT 5 10 13 12 11 14 9 17
REMARK Flexibility Score: inf
ROOT
ATOM      1  C   UNL     1      10.770   2.492  -2.661  1.00  0.00     0.221 C 
ATOM      2  C   UNL     1      11.522   2.309  -1.324  1.00  0.00     0.207 C 
ATOM      3  C   UNL     1      10.446   1.853  -0.379  1.00  0.00     0.180 C 
ATOM      4  C   UNL     1       9.193   2.495  -0.973  1.00  0.00     0.179 C 
ATOM      5  O   UNL     1       9.385   2.635  -2.365  1.00  0.00    -0.337 OA
ENDROOT
BRANCH   1   6
ATOM      6  O   UNL     1      11.306   3.654  -3.291  1.00  0.00    -0.349 OA
ATOM      7  C   UNL     1      10.323   4.435  -3.942  1.00  0.00     0.198 C 
ENDBRANCH   1   6
BRANCH   1   8
ATOM      8  C   UNL     1      10.945   1.280  -3.609  1.00  0.00     0.224 C 
BRANCH   8   9
ATOM      9  O   UNL     1      12.100   1.425  -4.390  1.00  0.00    -0.391 OA
ATOM     10  H   UNL     1      11.866   1.087  -5.293  1.00  0.00     0.210 HD
ENDBRANCH   8   9
ENDBRANCH   1   8
BRANCH   2  11
ATOM     11  O   UNL     1      12.565   1.369  -1.385  1.00  0.00    -0.385 OA
ATOM     12  H   UNL     1      12.845   1.325  -2.337  1.00  0.00     0.211 HD
ENDBRANCH   2  11
BRANCH   3  13
ATOM     13  O   UNL     1      10.700   2.268   0.938  1.00  0.00    -0.387 OA
ATOM     14  H   UNL     1       9.992   1.861   1.504  1.00  0.00     0.211 HD
ENDBRANCH   3  13
BRANCH   4  15
ATOM     15  C   UNL     1       8.850   3.873  -0.382  1.00  0.00     0.191 C 
BRANCH  15  16
ATOM     16  O   UNL     1       8.414   3.738   0.942  1.00  0.00    -0.394 OA
ATOM     17  H   UNL     1       7.602   4.304   1.024  1.00  0.00     0.210 HD
ENDBRANCH  15  16
ENDBRANCH   4  15
TORSDOF 7
ENDMDL
MODEL 8
REMARK VINA RESULT:    -3.950      1.925      3.230
REMARK INTER + INTRA:          -5.628
REMARK INTER:                  -5.277
REMARK INTRA:                  -0.351
REMARK UNBOUND:                -0.523
REMARK SMILES CO[C@]1(CO)O[C@H](CO)[C@H](O)[C@H]1O
REMARK SMILES IDX 3 1 12 2 10 3 7 4 6 5 2 6 1 7 4 8 5 9 13 11 11 13 8 15 9 16
REMARK H PARENT 5 10 13 12 11 14 9 17
REMARK Flexibility Score: inf
ROOT
ATOM      1  C   UNL     1      11.197   2.895  -2.435  1.00  0.00     0.221 C 
ATOM      2  C   UNL     1       9.777   2.543  -1.938  1.00  0.00     0.207 C 
ATOM      3  C   UNL     1       9.020   3.830  -2.112  1.00  0.00     0.180 C 
ATOM      4  C   UNL     1      10.119   4.881  -1.961  1.00  0.00     0.179 C 
ATOM      5  O   UNL     1      11.339   4.310  -2.384  1.00  0.00    -0.337 OA
ENDROOT
BRANCH   1   6
ATOM      6  O   UNL     1      12.122   2.232  -1.575  1.00  0.00    -0.349 OA
ATOM      7  C   UNL     1      11.520   1.715  -0.405  1.00  0.00     0.198 C 
ENDBRANCH   1   6
BRANCH   1   8
ATOM      8  C   UNL     1      11.445   2.431  -3.892  1.00  0.00     0.224 C 
BRANCH   8   9
ATOM      9  O   UNL     1      11.769   1.068  -3.929  1.00  0.00    -0.391 OA
ATOM     10  H   UNL     1      10.962   0.602  -4.271  1.00  0.00     0.210 HD
ENDBRANCH   8   9
ENDBRANCH   1   8
BRANCH   2  11
ATOM     11  O   UNL     1       9.166   1.503  -2.658  1.00  0.00    -0.385 OA
ATOM     12  H   UNL     1       9.844   0.782  -2.735  1.00  0.00     0.211 HD
ENDBRANCH   2  11
BRANCH   3  13
ATOM     13  O   UNL     1       7.999   3.966  -1.157  1.00  0.00    -0.387 OA
ATOM     14  H   UNL     1       8.244   3.378  -0.396  1.00  0.00     0.211 HD
ENDBRANCH   3  13
BRANCH   4  15
ATOM     15  C   UNL     1      10.293   5.410  -0.527  1.00  0.00     0.191 C 
BRANCH  15  16
ATOM     16  O   UNL     1      10.767   6.727  -0.550  1.00  0.00    -0.394 OA
ATOM     17  H   UNL     1      10.131   7.240  -1.113  1.00  0.00     0.210 HD
ENDBRANCH  15  16
ENDBRANCH   4  15
TORSDOF 7
ENDMDL
MODEL 9
REMARK VINA RESULT:    -3.898      1.953      4.332
REMARK INTER + INTRA:          -5.561
REMARK INTER:                  -4.985
REMARK INTRA:                  -0.576
REMARK UNBOUND:                -0.523
REMARK SMILES CO[C@]1(CO)O[C@H](CO)[C@H](O)[C@H]1O
REMARK SMILES IDX 3 1 12 2 10 3 7 4 6 5 2 6 1 7 4 8 5 9 13 11 11 13 8 15 9 16
REMARK H PARENT 5 10 13 12 11 14 9 17
REMARK Flexibility Score: inf
ROOT
ATOM      1  C   UNL     1       9.259   3.821  -1.018  1.00  0.00     0.221 C 
ATOM      2  C   UNL     1       9.441   2.398  -1.590  1.00  0.00     0.207 C 
ATOM      3  C   UNL     1      10.662   2.524  -2.457  1.00  0.00     0.180 C 
ATOM      4  C   UNL     1      10.612   3.991  -2.882  1.00  0.00     0.179 C 
ATOM      5  O   UNL     1       9.958   4.724  -1.868  1.00  0.00    -0.337 OA
ENDROOT
BRANCH   1   6
ATOM      6  O   UNL     1       7.859   4.089  -0.988  1.00  0.00    -0.349 OA
ATOM      7  C   UNL     1       7.541   5.421  -1.338  1.00  0.00     0.198 C 
ENDBRANCH   1   6
BRANCH   1   8
ATOM      8  C   UNL     1       9.828   3.960   0.416  1.00  0.00     0.224 C 
BRANCH   8   9
ATOM      9  O   UNL     1       8.903   3.497   1.362  1.00  0.00    -0.391 OA
ATOM     10  H   UNL     1       8.328   2.842   0.888  1.00  0.00     0.210 HD
ENDBRANCH   8   9
ENDBRANCH   1   8
BRANCH   2  11
ATOM     11  O   UNL     1       9.627   1.412  -0.606  1.00  0.00    -0.385 OA
ATOM     12  H   UNL     1      10.193   1.824   0.098  1.00  0.00     0.211 HD
ENDBRANCH   2  11
BRANCH   3  13
ATOM     13  O   UNL     1      10.621   1.638  -3.546  1.00  0.00    -0.387 OA
ATOM     14  H   UNL     1      11.462   1.778  -4.055  1.00  0.00     0.211 HD
ENDBRANCH   3  13
BRANCH   4  15
ATOM     15  C   UNL     1       9.885   4.237  -4.215  1.00  0.00     0.191 C 
BRANCH  15  16
ATOM     16  O   UNL     1      10.630   3.712  -5.278  1.00  0.00    -0.394 OA
ATOM     17  H   UNL     1      11.556   3.598  -4.937  1.00  0.00     0.210 HD
ENDBRANCH  15  16
ENDBRANCH   4  15
TORSDOF 7
ENDMDL
