MODEL 1
REMARK VINA RESULT:    -3.735      0.000      0.000
REMARK INTER + INTRA:          -4.490
REMARK INTER:                  -4.281
REMARK INTRA:                  -0.209
REMARK UNBOUND:                -0.209
REMARK SMILES O=C([O-])C=Cc1ccc(O)cc1
REMARK SMILES IDX 6 1 7 2 12 3 8 4 11 5 9 6 5 7 4 8 2 9 1 10 3 11 10 12
REMARK H PARENT 10 13
REMARK Flexibility Score: inf
ROOT
ATOM      1  C   UNL     1      -3.493   2.544  16.860  1.00  0.00    -0.025 A 
ATOM      2  C   UNL     1      -3.691   3.587  17.781  1.00  0.00     0.012 A 
ATOM      3  C   UNL     1      -3.133   1.272  17.332  1.00  0.00     0.012 A 
ATOM      4  C   UNL     1      -3.479   3.372  19.147  1.00  0.00     0.047 A 
ATOM      5  C   UNL     1      -2.922   1.059  18.697  1.00  0.00     0.047 A 
ATOM      6  C   UNL     1      -3.090   2.107  19.607  1.00  0.00     0.115 A 
ENDROOT
BRANCH   1   7
ATOM      7  C   UNL     1      -3.762   2.732  15.419  1.00  0.00     0.010 C 
ATOM      8  C   UNL     1      -4.977   2.722  14.849  1.00  0.00     0.025 C 
BRANCH   8   9
ATOM      9  C   UNL     1      -6.262   2.714  15.572  1.00  0.00     0.064 C 
ATOM     10  O   UNL     1      -6.937   3.774  15.640  1.00  0.00    -0.545 OA
ATOM     11  O   UNL     1      -6.712   1.582  16.240  1.00  0.00    -0.545 OA
ENDBRANCH   8   9
ENDBRANCH   1   7
BRANCH   6  12
ATOM     12  O   UNL     1      -2.875   1.881  20.965  1.00  0.00    -0.508 OA
ATOM     13  H   UNL     1      -3.600   1.494  21.558  1.00  0.00     0.293 HD
ENDBRANCH   6  12
TORSDOF 3
ENDMDL
MODEL 2
REMARK VINA RESULT:    -3.610      1.792      4.782
REMARK INTER + INTRA:          -4.346
REMARK INTER:                  -4.339
REMARK INTRA:                  -0.007
REMARK UNBOUND:                -0.209
REMARK SMILES O=C([O-])C=Cc1ccc(O)cc1
REMARK SMILES IDX 6 1 7 2 12 3 8 4 11 5 9 6 5 7 4 8 2 9 1 10 3 11 10 12
REMARK H PARENT 10 13
REMARK Flexibility Score: inf
ROOT
ATOM      1  C   UNL     1      -4.601   3.245  17.481  1.00  0.00    -0.025 A 
ATOM      2  C   UNL     1      -5.899   2.708  17.450  1.00  0.00     0.012 A 
ATOM      3  C   UNL     1      -4.130   3.965  16.372  1.00  0.00     0.012 A 
ATOM      4  C   UNL     1      -6.692   2.844  16.306  1.00  0.00     0.047 A 
ATOM      5  C   UNL     1      -4.924   4.101  15.230  1.00  0.00     0.047 A 
ATOM      6  C   UNL     1      -6.204   3.540  15.191  1.00  0.00     0.115 A 
ENDROOT
BRANCH   1   7
ATOM      7  C   UNL     1      -3.765   3.159  18.696  1.00  0.00     0.010 C 
ATOM      8  C   UNL     1      -3.177   2.044  19.158  1.00  0.00     0.025 C 
BRANCH   8   9
ATOM      9  C   UNL     1      -3.100   0.758  18.440  1.00  0.00     0.064 C 
ATOM     10  O   UNL     1      -3.175  -0.316  19.092  1.00  0.00    -0.545 OA
ATOM     11  O   UNL     1      -2.875   0.703  17.070  1.00  0.00    -0.545 OA
ENDBRANCH   8   9
ENDBRANCH   1   7
BRANCH   6  12
ATOM     12  O   UNL     1      -6.984   3.682  14.046  1.00  0.00    -0.508 OA
ATOM     13  H   UNL     1      -6.857   4.463  13.413  1.00  0.00     0.293 HD
ENDBRANCH   6  12
TORSDOF 3
ENDMDL
MODEL 3
REMARK VINA RESULT:    -3.435      1.828      2.510
REMARK INTER + INTRA:          -4.145
REMARK INTER:                  -4.105
REMARK INTRA:                  -0.040
REMARK UNBOUND:                -0.209
REMARK SMILES O=C([O-])C=Cc1ccc(O)cc1
REMARK SMILES IDX 6 1 7 2 12 3 8 4 11 5 9 6 5 7 4 8 2 9 1 10 3 11 10 12
REMARK H PARENT 10 13
REMARK Flexibility Score: inf
ROOT
ATOM      1  C   UNL     1      -4.760   1.563  16.712  1.00  0.00    -0.025 A 
ATOM      2  C   UNL     1      -3.696   1.027  17.457  1.00  0.00     0.012 A 
ATOM      3  C   UNL     1      -5.393   2.731  17.163  1.00  0.00     0.012 A 
ATOM      4  C   UNL     1      -3.309   1.622  18.663  1.00  0.00     0.047 A 
ATOM      5  C   UNL     1      -5.005   3.325  18.368  1.00  0.00     0.047 A 
ATOM      6  C   UNL     1      -3.966   2.771  19.122  1.00  0.00     0.115 A 
ENDROOT
BRANCH   1   7
ATOM      7  C   UNL     1      -5.152   0.984  15.410  1.00  0.00     0.010 C 
ATOM      8  C   UNL     1      -5.155   1.639  14.238  1.00  0.00     0.025 C 
BRANCH   8   9
ATOM      9  C   UNL     1      -4.592   2.982  14.007  1.00  0.00     0.064 C 
ATOM     10  O   UNL     1      -3.342   3.130  13.987  1.00  0.00    -0.545 OA
ATOM     11  O   UNL     1      -5.407   4.100  13.882  1.00  0.00    -0.545 OA
ENDBRANCH   8   9
ENDBRANCH   1   7
BRANCH   6  12
ATOM     12  O   UNL     1      -3.591   3.373  20.321  1.00  0.00    -0.508 OA
ATOM     13  H   UNL     1      -4.181   3.327  21.144  1.00  0.00     0.293 HD
ENDBRANCH   6  12
TORSDOF 3
ENDMDL
MODEL 4
REMARK VINA RESULT:    -3.246      1.475      4.709
REMARK INTER + INTRA:          -3.930
REMARK INTER:                  -4.047
REMARK INTRA:                   0.118
REMARK UNBOUND:                -0.209
REMARK SMILES O=C([O-])C=Cc1ccc(O)cc1
REMARK SMILES IDX 6 1 7 2 12 3 8 4 11 5 9 6 5 7 4 8 2 9 1 10 3 11 10 12
REMARK H PARENT 10 13
REMARK Flexibility Score: inf
ROOT
ATOM      1  C   UNL     1      -4.726   1.214  16.540  1.00  0.00    -0.025 A 
ATOM      2  C   UNL     1      -5.983   1.667  16.975  1.00  0.00     0.012 A 
ATOM      3  C   UNL     1      -4.188   1.721  15.348  1.00  0.00     0.012 A 
ATOM      4  C   UNL     1      -6.713   2.573  16.199  1.00  0.00     0.047 A 
ATOM      5  C   UNL     1      -4.919   2.627  14.573  1.00  0.00     0.047 A 
ATOM      6  C   UNL     1      -6.183   3.053  14.993  1.00  0.00     0.115 A 
ENDROOT
BRANCH   1   7
ATOM      7  C   UNL     1      -3.913   0.299  17.369  1.00  0.00     0.010 C 
ATOM      8  C   UNL     1      -3.080   0.674  18.352  1.00  0.00     0.025 C 
BRANCH   8   9
ATOM      9  C   UNL     1      -2.971   2.036  18.907  1.00  0.00     0.064 C 
ATOM     10  O   UNL     1      -2.899   3.017  18.122  1.00  0.00    -0.545 OA
ATOM     11  O   UNL     1      -2.875   2.257  20.276  1.00  0.00    -0.545 OA
ENDBRANCH   8   9
ENDBRANCH   1   7
BRANCH   6  12
ATOM     12  O   UNL     1      -6.900   3.955  14.211  1.00  0.00    -0.508 OA
ATOM     13  H   UNL     1      -6.549   4.885  14.019  1.00  0.00     0.293 HD
ENDBRANCH   6  12
TORSDOF 3
ENDMDL
MODEL 5
REMARK VINA RESULT:    -2.713      1.026      1.211
REMARK INTER + INTRA:          -3.318
REMARK INTER:                  -3.232
REMARK INTRA:                  -0.086
REMARK UNBOUND:                -0.209
REMARK SMILES O=C([O-])C=Cc1ccc(O)cc1
REMARK SMILES IDX 6 1 7 2 12 3 8 4 11 5 9 6 5 7 4 8 2 9 1 10 3 11 10 12
REMARK H PARENT 10 13
REMARK Flexibility Score: inf
ROOT
ATOM      1  C   UNL     1      -3.157   1.276  17.466  1.00  0.00    -0.025 A 
ATOM      2  C   UNL     1      -3.173   2.512  18.136  1.00  0.00     0.012 A 
ATOM      3  C   UNL     1      -3.093   0.091  18.214  1.00  0.00     0.012 A 
ATOM      4  C   UNL     1      -3.073   2.559  19.530  1.00  0.00     0.047 A 
ATOM      5  C   UNL     1      -2.993   0.141  19.608  1.00  0.00     0.047 A 
ATOM      6  C   UNL     1      -2.980   1.372  20.269  1.00  0.00     0.115 A 
ENDROOT
BRANCH   1   7
ATOM      7  C   UNL     1      -3.315   1.198  15.999  1.00  0.00     0.010 C 
ATOM      8  C   UNL     1      -4.410   1.565  15.315  1.00  0.00     0.025 C 
BRANCH   8   9
ATOM      9  C   UNL     1      -5.568   2.285  15.877  1.00  0.00     0.064 C 
ATOM     10  O   UNL     1      -5.642   3.534  15.741  1.00  0.00    -0.545 OA
ATOM     11  O   UNL     1      -6.544   1.626  16.615  1.00  0.00    -0.545 OA
ENDBRANCH   8   9
ENDBRANCH   1   7
BRANCH   6  12
ATOM     12  O   UNL     1      -2.879   1.406  21.658  1.00  0.00    -0.508 OA
ATOM     13  H   UNL     1      -2.680   0.570  22.195  1.00  0.00     0.293 HD
ENDBRANCH   6  12
TORSDOF 3
ENDMDL
MODEL 6
REMARK VINA RESULT:    -1.665      2.054      2.730
REMARK INTER + INTRA:          -2.118
REMARK INTER:                  -2.938
REMARK INTRA:                   0.820
REMARK UNBOUND:                -0.209
REMARK SMILES O=C([O-])C=Cc1ccc(O)cc1
REMARK SMILES IDX 6 1 7 2 12 3 8 4 11 5 9 6 5 7 4 8 2 9 1 10 3 11 10 12
REMARK H PARENT 10 13
REMARK Flexibility Score: inf
ROOT
ATOM      1  C   UNL     1      -4.045   2.348  17.916  1.00  0.00    -0.025 A 
ATOM      2  C   UNL     1      -4.314   1.205  17.144  1.00  0.00     0.012 A 
ATOM      3  C   UNL     1      -3.345   2.211  19.124  1.00  0.00     0.012 A 
ATOM      4  C   UNL     1      -3.934  -0.061  17.602  1.00  0.00     0.047 A 
ATOM      5  C   UNL     1      -2.965   0.945  19.580  1.00  0.00     0.047 A 
ATOM      6  C   UNL     1      -3.260  -0.193  18.823  1.00  0.00     0.115 A 
ENDROOT
BRANCH   1   7
ATOM      7  C   UNL     1      -4.390   3.701  17.429  1.00  0.00     0.010 C 
ATOM      8  C   UNL     1      -4.330   4.104  16.150  1.00  0.00     0.025 C 
BRANCH   8   9
ATOM      9  C   UNL     1      -4.098   3.228  14.987  1.00  0.00     0.064 C 
ATOM     10  O   UNL     1      -4.993   2.412  14.643  1.00  0.00    -0.545 OA
ATOM     11  O   UNL     1      -2.888   3.232  14.304  1.00  0.00    -0.545 OA
ENDBRANCH   8   9
ENDBRANCH   1   7
BRANCH   6  12
ATOM     12  O   UNL     1      -2.877  -1.448  19.291  1.00  0.00    -0.508 OA
ATOM     13  H   UNL     1      -2.218  -1.550  20.054  1.00  0.00     0.293 HD
ENDBRANCH   6  12
TORSDOF 3
ENDMDL
MODEL 7
REMARK VINA RESULT:    -1.411      1.923      2.503
REMARK INTER + INTRA:          -1.826
REMARK INTER:                  -1.930
REMARK INTRA:                   0.104
REMARK UNBOUND:                -0.209
REMARK SMILES O=C([O-])C=Cc1ccc(O)cc1
REMARK SMILES IDX 6 1 7 2 12 3 8 4 11 5 9 6 5 7 4 8 2 9 1 10 3 11 10 12
REMARK H PARENT 10 13
REMARK Flexibility Score: inf
ROOT
ATOM      1  C   UNL     1      -4.724   0.849  15.767  1.00  0.00    -0.025 A 
ATOM      2  C   UNL     1      -3.448   0.290  15.954  1.00  0.00     0.012 A 
ATOM      3  C   UNL     1      -5.393   1.414  16.863  1.00  0.00     0.012 A 
ATOM      4  C   UNL     1      -2.876   0.250  17.230  1.00  0.00     0.047 A 
ATOM      5  C   UNL     1      -4.820   1.373  18.137  1.00  0.00     0.047 A 
ATOM      6  C   UNL     1      -3.563   0.790  18.326  1.00  0.00     0.115 A 
ENDROOT
BRANCH   1   7
ATOM      7  C   UNL     1      -5.326   0.950  14.421  1.00  0.00     0.010 C 
ATOM      8  C   UNL     1      -5.823   2.071  13.875  1.00  0.00     0.025 C 
BRANCH   8   9
ATOM      9  C   UNL     1      -5.686   3.428  14.435  1.00  0.00     0.064 C 
ATOM     10  O   UNL     1      -6.721   4.114  14.646  1.00  0.00    -0.545 OA
ATOM     11  O   UNL     1      -4.439   3.996  14.669  1.00  0.00    -0.545 OA
ENDBRANCH   8   9
ENDBRANCH   1   7
BRANCH   6  12
ATOM     12  O   UNL     1      -3.005   0.755  19.601  1.00  0.00    -0.508 OA
ATOM     13  H   UNL     1      -3.554   0.971  20.425  1.00  0.00     0.293 HD
ENDBRANCH   6  12
TORSDOF 3
ENDMDL
