MODEL 1
REMARK VINA RESULT:    -5.791      0.000      0.000
REMARK INTER + INTRA:         -10.064
REMARK INTER:                  -8.500
REMARK INTRA:                  -1.564
REMARK UNBOUND:                -1.564
REMARK SMILES Cc1cc2c(C(C)C)c(O)c(O)c(C=O)c2c(O)c1-c1c(C)cc2c(C(C)C)c(O)c(O)c(C=O)c2c1O
REMARK SMILES IDX 1 1 2 2 3 3 4 4 16 5 13 6 11 7 9 8 5 9 17 10 19 11 20 12
REMARK SMILES IDX 37 13 21 14 36 15 23 16 22 17 24 18 33 19 25 20 31 21 29 22
REMARK SMILES IDX 38 23 34 25 35 26 26 27 27 28 28 29 32 30 30 32 18 34 6 36
REMARK SMILES IDX 7 37 8 38 14 39 15 40 10 41 12 43
REMARK H PARENT 38 24 32 31 30 33 18 35 10 42 12 44
REMARK Flexibility Score: inf
ROOT
ATOM      1  C   UNL     1      13.756  -2.603  37.946  1.00  0.00     0.045 C 
ATOM      2  C   UNL     1      12.676  -2.951  38.942  1.00  0.00    -0.039 A 
ATOM      3  C   UNL     1      12.407  -2.079  39.997  1.00  0.00     0.013 A 
ATOM      4  C   UNL     1      11.406  -2.356  40.954  1.00  0.00    -0.006 A 
ATOM      5  C   UNL     1      10.556  -3.481  40.746  1.00  0.00     0.039 A 
ATOM      6  C   UNL     1       9.401  -3.633  41.568  1.00  0.00     0.072 A 
ATOM      7  C   UNL     1       9.145  -2.715  42.603  1.00  0.00     0.169 A 
ATOM      8  C   UNL     1      10.027  -1.643  42.843  1.00  0.00     0.162 A 
ATOM      9  C   UNL     1      11.217  -1.514  42.091  1.00  0.00     0.008 A 
ATOM     10  C   UNL     1      10.909  -4.430  39.741  1.00  0.00     0.132 A 
ATOM     11  C   UNL     1      11.960  -4.155  38.840  1.00  0.00     0.031 A 
ENDROOT
BRANCH  11  12
ATOM     12  C   UNL     1      12.308  -5.133  37.775  1.00  0.00     0.031 A 
ATOM     13  C   UNL     1      11.711  -5.039  36.501  1.00  0.00     0.132 A 
ATOM     14  C   UNL     1      13.218  -6.163  38.049  1.00  0.00    -0.039 A 
ATOM     15  C   UNL     1      12.061  -5.959  35.464  1.00  0.00     0.039 A 
ATOM     16  C   UNL     1      13.514  -7.101  37.061  1.00  0.00     0.013 A 
ATOM     17  C   UNL     1      13.845  -6.303  39.415  1.00  0.00     0.045 C 
ATOM     18  C   UNL     1      12.962  -7.031  35.764  1.00  0.00    -0.006 A 
ATOM     19  C   UNL     1      11.518  -5.860  34.147  1.00  0.00     0.072 A 
ATOM     20  C   UNL     1      13.277  -8.012  34.767  1.00  0.00     0.008 A 
ATOM     21  C   UNL     1      11.824  -6.840  33.183  1.00  0.00     0.169 A 
ATOM     22  C   UNL     1      12.661  -7.913  33.498  1.00  0.00     0.162 A 
BRANCH  13  23
ATOM     23  O   UNL     1      10.750  -4.045  36.274  1.00  0.00    -0.507 OA
ATOM     24  H   UNL     1      10.144  -3.668  36.991  1.00  0.00     0.293 HD
ENDBRANCH  13  23
BRANCH  19  25
ATOM     25  C   UNL     1      10.664  -4.725  33.738  1.00  0.00     0.264 C 
ATOM     26  O   UNL     1       9.413  -4.855  33.677  1.00  0.00    -0.298 OA
ENDBRANCH  19  25
BRANCH  20  27
ATOM     27  C   UNL     1      14.243  -9.194  34.999  1.00  0.00     0.017 C 
ATOM     28  C   UNL     1      13.700 -10.194  36.029  1.00  0.00     0.012 C 
ATOM     29  C   UNL     1      15.703  -8.768  35.270  1.00  0.00     0.012 C 
ENDBRANCH  20  27
BRANCH  21  30
ATOM     30  O   UNL     1      11.329  -6.760  31.875  1.00  0.00    -0.504 OA
ATOM     31  H   UNL     1      10.850  -7.513  31.401  1.00  0.00     0.293 HD
ENDBRANCH  21  30
BRANCH  22  32
ATOM     32  O   UNL     1      12.898  -8.894  32.530  1.00  0.00    -0.504 OA
ATOM     33  H   UNL     1      13.639  -9.581  32.606  1.00  0.00     0.293 HD
ENDBRANCH  22  32
ENDBRANCH  11  12
BRANCH  10  34
ATOM     34  O   UNL     1      10.243  -5.658  39.665  1.00  0.00    -0.507 OA
ATOM     35  H   UNL     1      10.710  -6.546  39.530  1.00  0.00     0.293 HD
ENDBRANCH  10  34
BRANCH   9  36
ATOM     36  C   UNL     1      12.271  -0.471  42.502  1.00  0.00     0.017 C 
ATOM     37  C   UNL     1      11.828   0.943  42.112  1.00  0.00     0.012 C 
ATOM     38  C   UNL     1      12.670  -0.545  43.987  1.00  0.00     0.012 C 
ENDBRANCH   9  36
BRANCH   6  39
ATOM     39  C   UNL     1       8.367  -4.659  41.289  1.00  0.00     0.264 C 
ATOM     40  O   UNL     1       8.247  -5.675  42.024  1.00  0.00    -0.298 OA
ENDBRANCH   6  39
BRANCH   8  41
ATOM     41  O   UNL     1       9.726  -0.667  43.797  1.00  0.00    -0.504 OA
ATOM     42  H   UNL     1       9.234   0.194  43.605  1.00  0.00     0.293 HD
ENDBRANCH   8  41
BRANCH   7  43
ATOM     43  O   UNL     1       7.993  -2.894  43.380  1.00  0.00    -0.504 OA
ATOM     44  H   UNL     1       7.203  -3.464  43.114  1.00  0.00     0.293 HD
ENDBRANCH   7  43
TORSDOF 11
ENDMDL
MODEL 2
REMARK VINA RESULT:    -5.597      0.940      8.962
REMARK INTER + INTRA:          -9.779
REMARK INTER:                  -8.602
REMARK INTRA:                  -1.177
REMARK UNBOUND:                -1.564
REMARK SMILES Cc1cc2c(C(C)C)c(O)c(O)c(C=O)c2c(O)c1-c1c(C)cc2c(C(C)C)c(O)c(O)c(C=O)c2c1O
REMARK SMILES IDX 1 1 2 2 3 3 4 4 16 5 13 6 11 7 9 8 5 9 17 10 19 11 20 12
REMARK SMILES IDX 37 13 21 14 36 15 23 16 22 17 24 18 33 19 25 20 31 21 29 22
REMARK SMILES IDX 38 23 34 25 35 26 26 27 27 28 28 29 32 30 30 32 18 34 6 36
REMARK SMILES IDX 7 37 8 38 14 39 15 40 10 41 12 43
REMARK H PARENT 38 24 32 31 30 33 18 35 10 42 12 44
REMARK Flexibility Score: inf
ROOT
ATOM      1  C   UNL     1      13.428  -6.141  39.331  1.00  0.00     0.045 C 
ATOM      2  C   UNL     1      12.825  -5.773  37.998  1.00  0.00    -0.039 A 
ATOM      3  C   UNL     1      13.232  -6.453  36.848  1.00  0.00     0.013 A 
ATOM      4  C   UNL     1      12.697  -6.150  35.577  1.00  0.00    -0.006 A 
ATOM      5  C   UNL     1      11.611  -5.230  35.495  1.00  0.00     0.039 A 
ATOM      6  C   UNL     1      10.912  -5.099  34.260  1.00  0.00     0.072 A 
ATOM      7  C   UNL     1      11.331  -5.824  33.129  1.00  0.00     0.169 A 
ATOM      8  C   UNL     1      12.448  -6.681  33.204  1.00  0.00     0.162 A 
ATOM      9  C   UNL     1      13.201  -6.771  34.395  1.00  0.00     0.008 A 
ATOM     10  C   UNL     1      11.282  -4.454  36.645  1.00  0.00     0.132 A 
ATOM     11  C   UNL     1      11.884  -4.736  37.891  1.00  0.00     0.031 A 
ENDROOT
BRANCH  11  12
ATOM     12  C   UNL     1      11.519  -3.945  39.095  1.00  0.00     0.031 A 
ATOM     13  C   UNL     1      10.354  -4.259  39.827  1.00  0.00     0.132 A 
ATOM     14  C   UNL     1      12.326  -2.869  39.490  1.00  0.00    -0.039 A 
ATOM     15  C   UNL     1      10.013  -3.519  41.002  1.00  0.00     0.039 A 
ATOM     16  C   UNL     1      11.962  -2.105  40.598  1.00  0.00     0.013 A 
ATOM     17  C   UNL     1      13.559  -2.494  38.704  1.00  0.00     0.045 C 
ATOM     18  C   UNL     1      10.822  -2.399  41.375  1.00  0.00    -0.006 A 
ATOM     19  C   UNL     1       8.873  -3.845  41.797  1.00  0.00     0.072 A 
ATOM     20  C   UNL     1      10.464  -1.593  42.506  1.00  0.00     0.008 A 
ATOM     21  C   UNL     1       8.525  -3.035  42.895  1.00  0.00     0.169 A 
ATOM     22  C   UNL     1       9.287  -1.912  43.222  1.00  0.00     0.162 A 
BRANCH  13  23
ATOM     23  O   UNL     1       9.525  -5.291  39.370  1.00  0.00    -0.507 OA
ATOM     24  H   UNL     1       8.721  -5.150  38.773  1.00  0.00     0.293 HD
ENDBRANCH  13  23
BRANCH  19  25
ATOM     25  C   UNL     1       8.052  -5.045  41.531  1.00  0.00     0.264 C 
ATOM     26  O   UNL     1       7.770  -5.847  42.461  1.00  0.00    -0.298 OA
ENDBRANCH  19  25
BRANCH  20  27
ATOM     27  C   UNL     1      11.281  -0.374  42.986  1.00  0.00     0.017 C 
ATOM     28  C   UNL     1      11.334   0.741  41.932  1.00  0.00     0.012 C 
ATOM     29  C   UNL     1      12.667  -0.735  43.566  1.00  0.00     0.012 C 
ENDBRANCH  20  27
BRANCH  21  30
ATOM     30  O   UNL     1       7.428  -3.340  43.712  1.00  0.00    -0.504 OA
ATOM     31  H   UNL     1       6.666  -2.703  43.902  1.00  0.00     0.293 HD
ENDBRANCH  21  30
BRANCH  22  32
ATOM     32  O   UNL     1       8.879  -1.103  44.288  1.00  0.00    -0.504 OA
ATOM     33  H   UNL     1       9.054  -1.334  45.259  1.00  0.00     0.293 HD
ENDBRANCH  22  32
ENDBRANCH  11  12
BRANCH  10  34
ATOM     34  O   UNL     1      10.390  -3.381  36.542  1.00  0.00    -0.507 OA
ATOM     35  H   UNL     1      10.572  -2.458  36.917  1.00  0.00     0.293 HD
ENDBRANCH  10  34
BRANCH   9  36
ATOM     36  C   UNL     1      14.535  -7.541  34.399  1.00  0.00     0.017 C 
ATOM     37  C   UNL     1      14.302  -9.046  34.235  1.00  0.00     0.012 C 
ATOM     38  C   UNL     1      15.557  -7.016  33.375  1.00  0.00     0.012 C 
ENDBRANCH   9  36
BRANCH   6  39
ATOM     39  C   UNL     1       9.657  -4.317  34.146  1.00  0.00     0.264 C 
ATOM     40  O   UNL     1       8.570  -4.765  34.599  1.00  0.00    -0.298 OA
ENDBRANCH   6  39
BRANCH   8  41
ATOM     41  O   UNL     1      12.806  -7.486  32.118  1.00  0.00    -0.504 OA
ATOM     42  H   UNL     1      13.703  -7.934  32.004  1.00  0.00     0.293 HD
ENDBRANCH   8  41
BRANCH   7  43
ATOM     43  O   UNL     1      10.610  -5.675  31.938  1.00  0.00    -0.504 OA
ATOM     44  H   UNL     1       9.645  -5.381  31.883  1.00  0.00     0.293 HD
ENDBRANCH   7  43
TORSDOF 11
ENDMDL
MODEL 3
REMARK VINA RESULT:    -5.548      9.815     13.086
REMARK INTER + INTRA:          -9.707
REMARK INTER:                  -8.406
REMARK INTRA:                  -1.301
REMARK UNBOUND:                -1.564
REMARK SMILES Cc1cc2c(C(C)C)c(O)c(O)c(C=O)c2c(O)c1-c1c(C)cc2c(C(C)C)c(O)c(O)c(C=O)c2c1O
REMARK SMILES IDX 1 1 2 2 3 3 4 4 16 5 13 6 11 7 9 8 5 9 17 10 19 11 20 12
REMARK SMILES IDX 37 13 21 14 36 15 23 16 22 17 24 18 33 19 25 20 31 21 29 22
REMARK SMILES IDX 38 23 34 25 35 26 26 27 27 28 28 29 32 30 30 32 18 34 6 36
REMARK SMILES IDX 7 37 8 38 14 39 15 40 10 41 12 43
REMARK H PARENT 38 24 32 31 30 33 18 35 10 42 12 44
REMARK Flexibility Score: inf
ROOT
ATOM      1  C   UNL     1      20.012 -13.346  40.424  1.00  0.00     0.045 C 
ATOM      2  C   UNL     1      20.367 -13.169  41.880  1.00  0.00    -0.039 A 
ATOM      3  C   UNL     1      20.969 -14.221  42.574  1.00  0.00     0.013 A 
ATOM      4  C   UNL     1      21.324 -14.106  43.936  1.00  0.00    -0.006 A 
ATOM      5  C   UNL     1      21.197 -12.836  44.570  1.00  0.00     0.039 A 
ATOM      6  C   UNL     1      21.770 -12.651  45.861  1.00  0.00     0.072 A 
ATOM      7  C   UNL     1      22.397 -13.726  46.518  1.00  0.00     0.169 A 
ATOM      8  C   UNL     1      22.459 -14.996  45.910  1.00  0.00     0.162 A 
ATOM      9  C   UNL     1      21.834 -15.223  44.663  1.00  0.00     0.008 A 
ATOM     10  C   UNL     1      20.474 -11.805  43.899  1.00  0.00     0.132 A 
ATOM     11  C   UNL     1      20.073 -11.974  42.556  1.00  0.00     0.031 A 
ENDROOT
BRANCH  11  12
ATOM     12  C   UNL     1      19.345 -10.887  41.850  1.00  0.00     0.031 A 
ATOM     13  C   UNL     1      17.935 -10.874  41.826  1.00  0.00     0.132 A 
ATOM     14  C   UNL     1      20.067  -9.883  41.190  1.00  0.00    -0.039 A 
ATOM     15  C   UNL     1      17.229  -9.817  41.172  1.00  0.00     0.039 A 
ATOM     16  C   UNL     1      19.383  -8.885  40.497  1.00  0.00     0.013 A 
ATOM     17  C   UNL     1      21.577  -9.894  41.175  1.00  0.00     0.045 C 
ATOM     18  C   UNL     1      17.974  -8.817  40.468  1.00  0.00    -0.006 A 
ATOM     19  C   UNL     1      15.803  -9.743  41.175  1.00  0.00     0.072 A 
ATOM     20  C   UNL     1      17.294  -7.785  39.742  1.00  0.00     0.008 A 
ATOM     21  C   UNL     1      15.148  -8.733  40.444  1.00  0.00     0.169 A 
ATOM     22  C   UNL     1      15.880  -7.793  39.715  1.00  0.00     0.162 A 
BRANCH  13  23
ATOM     23  O   UNL     1      17.237 -11.927  42.430  1.00  0.00    -0.507 OA
ATOM     24  H   UNL     1      17.681 -12.707  42.899  1.00  0.00     0.293 HD
ENDBRANCH  13  23
BRANCH  19  25
ATOM     25  C   UNL     1      14.974 -10.679  41.963  1.00  0.00     0.264 C 
ATOM     26  O   UNL     1      14.334 -11.602  41.394  1.00  0.00    -0.298 OA
ENDBRANCH  19  25
BRANCH  20  27
ATOM     27  C   UNL     1      18.014  -6.663  38.963  1.00  0.00     0.017 C 
ATOM     28  C   UNL     1      18.633  -7.172  37.653  1.00  0.00     0.012 C 
ATOM     29  C   UNL     1      18.993  -5.831  39.821  1.00  0.00     0.012 C 
ENDBRANCH  20  27
BRANCH  21  30
ATOM     30  O   UNL     1      13.752  -8.616  40.445  1.00  0.00    -0.504 OA
ATOM     31  H   UNL     1      13.227  -8.065  41.110  1.00  0.00     0.293 HD
ENDBRANCH  21  30
BRANCH  22  32
ATOM     32  O   UNL     1      15.192  -6.838  38.959  1.00  0.00    -0.504 OA
ATOM     33  H   UNL     1      14.368  -6.352  39.296  1.00  0.00     0.293 HD
ENDBRANCH  22  32
ENDBRANCH  11  12
BRANCH  10  34
ATOM     34  O   UNL     1      20.123 -10.633  44.578  1.00  0.00    -0.507 OA
ATOM     35  H   UNL     1      19.511 -10.609  45.383  1.00  0.00     0.293 HD
ENDBRANCH  10  34
BRANCH   9  36
ATOM     36  C   UNL     1      21.724 -16.657  44.113  1.00  0.00     0.017 C 
ATOM     37  C   UNL     1      20.273 -17.004  43.767  1.00  0.00     0.012 C 
ATOM     38  C   UNL     1      22.668 -16.940  42.930  1.00  0.00     0.012 C 
ENDBRANCH   9  36
BRANCH   6  39
ATOM     39  C   UNL     1      21.853 -11.315  46.501  1.00  0.00     0.264 C 
ATOM     40  O   UNL     1      22.948 -10.872  46.937  1.00  0.00    -0.298 OA
ENDBRANCH   6  39
BRANCH   8  41
ATOM     41  O   UNL     1      23.173 -16.040  46.505  1.00  0.00    -0.504 OA
ATOM     42  H   UNL     1      23.594 -16.002  47.421  1.00  0.00     0.293 HD
ENDBRANCH   8  41
BRANCH   7  43
ATOM     43  O   UNL     1      22.958 -13.499  47.781  1.00  0.00    -0.504 OA
ATOM     44  H   UNL     1      23.746 -14.004  48.159  1.00  0.00     0.293 HD
ENDBRANCH   7  43
TORSDOF 11
ENDMDL
MODEL 4
REMARK VINA RESULT:    -5.438      3.213      5.301
REMARK INTER + INTRA:          -9.546
REMARK INTER:                  -8.085
REMARK INTRA:                  -1.461
REMARK UNBOUND:                -1.564
REMARK SMILES Cc1cc2c(C(C)C)c(O)c(O)c(C=O)c2c(O)c1-c1c(C)cc2c(C(C)C)c(O)c(O)c(C=O)c2c1O
REMARK SMILES IDX 1 1 2 2 3 3 4 4 16 5 13 6 11 7 9 8 5 9 17 10 19 11 20 12
REMARK SMILES IDX 37 13 21 14 36 15 23 16 22 17 24 18 33 19 25 20 31 21 29 22
REMARK SMILES IDX 38 23 34 25 35 26 26 27 27 28 28 29 32 30 30 32 18 34 6 36
REMARK SMILES IDX 7 37 8 38 14 39 15 40 10 41 12 43
REMARK H PARENT 38 24 32 31 30 33 18 35 10 42 12 44
REMARK Flexibility Score: inf
ROOT
ATOM      1  C   UNL     1      10.496  -4.509  32.732  1.00  0.00     0.045 C 
ATOM      2  C   UNL     1      10.142  -4.232  34.173  1.00  0.00    -0.039 A 
ATOM      3  C   UNL     1       8.960  -3.553  34.473  1.00  0.00     0.013 A 
ATOM      4  C   UNL     1       8.582  -3.273  35.804  1.00  0.00    -0.006 A 
ATOM      5  C   UNL     1       9.356  -3.826  36.866  1.00  0.00     0.039 A 
ATOM      6  C   UNL     1       8.852  -3.750  38.197  1.00  0.00     0.072 A 
ATOM      7  C   UNL     1       7.640  -3.085  38.458  1.00  0.00     0.169 A 
ATOM      8  C   UNL     1       6.916  -2.483  37.410  1.00  0.00     0.162 A 
ATOM      9  C   UNL     1       7.430  -2.480  36.094  1.00  0.00     0.008 A 
ATOM     10  C   UNL     1      10.620  -4.411  36.558  1.00  0.00     0.132 A 
ATOM     11  C   UNL     1      11.001  -4.619  35.215  1.00  0.00     0.031 A 
ENDROOT
BRANCH  11  12
ATOM     12  C   UNL     1      12.307  -5.255  34.897  1.00  0.00     0.031 A 
ATOM     13  C   UNL     1      12.406  -6.657  34.785  1.00  0.00     0.132 A 
ATOM     14  C   UNL     1      13.446  -4.456  34.729  1.00  0.00    -0.039 A 
ATOM     15  C   UNL     1      13.653  -7.273  34.453  1.00  0.00     0.039 A 
ATOM     16  C   UNL     1      14.676  -5.056  34.468  1.00  0.00     0.013 A 
ATOM     17  C   UNL     1      13.370  -2.955  34.877  1.00  0.00     0.045 C 
ATOM     18  C   UNL     1      14.818  -6.452  34.321  1.00  0.00    -0.006 A 
ATOM     19  C   UNL     1      13.777  -8.685  34.277  1.00  0.00     0.072 A 
ATOM     20  C   UNL     1      16.096  -7.047  34.060  1.00  0.00     0.008 A 
ATOM     21  C   UNL     1      15.042  -9.256  34.037  1.00  0.00     0.169 A 
ATOM     22  C   UNL     1      16.184  -8.455  33.963  1.00  0.00     0.162 A 
BRANCH  13  23
ATOM     23  O   UNL     1      11.270  -7.439  35.030  1.00  0.00    -0.507 OA
ATOM     24  H   UNL     1      10.498  -7.535  34.383  1.00  0.00     0.293 HD
ENDBRANCH  13  23
BRANCH  19  25
ATOM     25  C   UNL     1      12.603  -9.581  34.298  1.00  0.00     0.264 C 
ATOM     26  O   UNL     1      12.383 -10.371  33.342  1.00  0.00    -0.298 OA
ENDBRANCH  19  25
BRANCH  20  27
ATOM     27  C   UNL     1      17.403  -6.240  33.894  1.00  0.00     0.017 C 
ATOM     28  C   UNL     1      17.821  -5.540  35.195  1.00  0.00     0.012 C 
ATOM     29  C   UNL     1      17.412  -5.304  32.665  1.00  0.00     0.012 C 
ENDBRANCH  20  27
BRANCH  21  30
ATOM     30  O   UNL     1      15.197 -10.633  33.835  1.00  0.00    -0.504 OA
ATOM     31  H   UNL     1      15.488 -11.052  32.962  1.00  0.00     0.293 HD
ENDBRANCH  21  30
BRANCH  22  32
ATOM     32  O   UNL     1      17.428  -9.065  33.776  1.00  0.00    -0.504 OA
ATOM     33  H   UNL     1      18.215  -8.599  33.339  1.00  0.00     0.293 HD
ENDBRANCH  22  32
ENDBRANCH  11  12
BRANCH  10  34
ATOM     34  O   UNL     1      11.510  -4.748  37.584  1.00  0.00    -0.507 OA
ATOM     35  H   UNL     1      11.922  -5.666  37.694  1.00  0.00     0.293 HD
ENDBRANCH  10  34
BRANCH   9  36
ATOM     36  C   UNL     1       6.739  -1.640  35.005  1.00  0.00     0.017 C 
ATOM     37  C   UNL     1       5.380  -2.239  34.628  1.00  0.00     0.012 C 
ATOM     38  C   UNL     1       6.616  -0.147  35.359  1.00  0.00     0.012 C 
ENDBRANCH   9  36
BRANCH   6  39
ATOM     39  C   UNL     1       9.496  -4.470  39.323  1.00  0.00     0.264 C 
ATOM     40  O   UNL     1      10.149  -3.847  40.202  1.00  0.00    -0.298 OA
ENDBRANCH   6  39
BRANCH   8  41
ATOM     41  O   UNL     1       5.659  -1.915  37.642  1.00  0.00    -0.504 OA
ATOM     42  H   UNL     1       4.779  -2.394  37.522  1.00  0.00     0.293 HD
ENDBRANCH   8  41
BRANCH   7  43
ATOM     43  O   UNL     1       7.175  -3.043  39.779  1.00  0.00    -0.504 OA
ATOM     44  H   UNL     1       6.218  -3.200  40.056  1.00  0.00     0.293 HD
ENDBRANCH   7  43
TORSDOF 11
ENDMDL
MODEL 5
REMARK VINA RESULT:    -5.335      1.376      1.793
REMARK INTER + INTRA:          -9.395
REMARK INTER:                  -8.024
REMARK INTRA:                  -1.371
REMARK UNBOUND:                -1.564
REMARK SMILES Cc1cc2c(C(C)C)c(O)c(O)c(C=O)c2c(O)c1-c1c(C)cc2c(C(C)C)c(O)c(O)c(C=O)c2c1O
REMARK SMILES IDX 1 1 2 2 3 3 4 4 16 5 13 6 11 7 9 8 5 9 17 10 19 11 20 12
REMARK SMILES IDX 37 13 21 14 36 15 23 16 22 17 24 18 33 19 25 20 31 21 29 22
REMARK SMILES IDX 38 23 34 25 35 26 26 27 27 28 28 29 32 30 30 32 18 34 6 36
REMARK SMILES IDX 7 37 8 38 14 39 15 40 10 41 12 43
REMARK H PARENT 38 24 32 31 30 33 18 35 10 42 12 44
REMARK Flexibility Score: inf
ROOT
ATOM      1  C   UNL     1      14.035  -3.409  37.818  1.00  0.00     0.045 C 
ATOM      2  C   UNL     1      13.021  -3.923  38.811  1.00  0.00    -0.039 A 
ATOM      3  C   UNL     1      12.483  -3.051  39.759  1.00  0.00     0.013 A 
ATOM      4  C   UNL     1      11.529  -3.481  40.707  1.00  0.00    -0.006 A 
ATOM      5  C   UNL     1      10.999  -4.799  40.594  1.00  0.00     0.039 A 
ATOM      6  C   UNL     1       9.874  -5.159  41.390  1.00  0.00     0.072 A 
ATOM      7  C   UNL     1       9.338  -4.243  42.313  1.00  0.00     0.169 A 
ATOM      8  C   UNL     1       9.910  -2.964  42.465  1.00  0.00     0.162 A 
ATOM      9  C   UNL     1      11.071  -2.610  41.742  1.00  0.00     0.008 A 
ATOM     10  C   UNL     1      11.634  -5.719  39.707  1.00  0.00     0.132 A 
ATOM     11  C   UNL     1      12.634  -5.273  38.815  1.00  0.00     0.031 A 
ENDROOT
BRANCH  11  12
ATOM     12  C   UNL     1      13.275  -6.227  37.872  1.00  0.00     0.031 A 
ATOM     13  C   UNL     1      12.812  -6.333  36.544  1.00  0.00     0.132 A 
ATOM     14  C   UNL     1      14.329  -7.038  38.314  1.00  0.00    -0.039 A 
ATOM     15  C   UNL     1      13.442  -7.228  35.624  1.00  0.00     0.039 A 
ATOM     16  C   UNL     1      14.904  -7.959  37.439  1.00  0.00     0.013 A 
ATOM     17  C   UNL     1      14.819  -6.966  39.741  1.00  0.00     0.045 C 
ATOM     18  C   UNL     1      14.492  -8.080  36.095  1.00  0.00    -0.006 A 
ATOM     19  C   UNL     1      13.036  -7.321  34.258  1.00  0.00     0.072 A 
ATOM     20  C   UNL     1      15.094  -9.040  35.217  1.00  0.00     0.008 A 
ATOM     21  C   UNL     1      13.626  -8.279  33.411  1.00  0.00     0.169 A 
ATOM     22  C   UNL     1      14.612  -9.144  33.891  1.00  0.00     0.162 A 
BRANCH  13  23
ATOM     23  O   UNL     1      11.711  -5.565  36.146  1.00  0.00    -0.507 OA
ATOM     24  H   UNL     1      10.749  -5.869  36.226  1.00  0.00     0.293 HD
ENDBRANCH  13  23
BRANCH  19  25
ATOM     25  C   UNL     1      12.032  -6.405  33.679  1.00  0.00     0.264 C 
ATOM     26  O   UNL     1      12.391  -5.408  32.998  1.00  0.00    -0.298 OA
ENDBRANCH  19  25
BRANCH  20  27
ATOM     27  C   UNL     1      16.237  -9.991  35.635  1.00  0.00     0.017 C 
ATOM     28  C   UNL     1      15.777 -11.032  36.665  1.00  0.00     0.012 C 
ATOM     29  C   UNL     1      17.542  -9.268  36.035  1.00  0.00     0.012 C 
ENDBRANCH  20  27
BRANCH  21  30
ATOM     30  O   UNL     1      13.270  -8.381  32.060  1.00  0.00    -0.504 OA
ATOM     31  H   UNL     1      13.806  -7.988  31.299  1.00  0.00     0.293 HD
ENDBRANCH  21  30
BRANCH  22  32
ATOM     32  O   UNL     1      15.135 -10.117  33.033  1.00  0.00    -0.504 OA
ATOM     33  H   UNL     1      14.801 -11.074  33.011  1.00  0.00     0.293 HD
ENDBRANCH  22  32
ENDBRANCH  11  12
BRANCH  10  34
ATOM     34  O   UNL     1      11.301  -7.077  39.741  1.00  0.00    -0.507 OA
ATOM     35  H   UNL     1      11.383  -7.698  38.946  1.00  0.00     0.293 HD
ENDBRANCH  10  34
BRANCH   9  36
ATOM     36  C   UNL     1      11.808  -1.299  42.072  1.00  0.00     0.017 C 
ATOM     37  C   UNL     1      10.940  -0.082  41.737  1.00  0.00     0.012 C 
ATOM     38  C   UNL     1      12.336  -1.232  43.517  1.00  0.00     0.012 C 
ENDBRANCH   9  36
BRANCH   6  39
ATOM     39  C   UNL     1       9.145  -6.436  41.189  1.00  0.00     0.264 C 
ATOM     40  O   UNL     1       9.269  -7.388  42.005  1.00  0.00    -0.298 OA
ENDBRANCH   6  39
BRANCH   8  41
ATOM     41  O   UNL     1       9.321  -2.010  43.299  1.00  0.00    -0.504 OA
ATOM     42  H   UNL     1       8.926  -1.135  42.986  1.00  0.00     0.293 HD
ENDBRANCH   8  41
BRANCH   7  43
ATOM     43  O   UNL     1       8.223  -4.633  43.067  1.00  0.00    -0.504 OA
ATOM     44  H   UNL     1       7.825  -5.560  43.067  1.00  0.00     0.293 HD
ENDBRANCH   7  43
TORSDOF 11
ENDMDL
MODEL 6
REMARK VINA RESULT:    -5.265      3.519      5.394
REMARK INTER + INTRA:          -9.292
REMARK INTER:                  -7.763
REMARK INTRA:                  -1.530
REMARK UNBOUND:                -1.564
REMARK SMILES Cc1cc2c(C(C)C)c(O)c(O)c(C=O)c2c(O)c1-c1c(C)cc2c(C(C)C)c(O)c(O)c(C=O)c2c1O
REMARK SMILES IDX 1 1 2 2 3 3 4 4 16 5 13 6 11 7 9 8 5 9 17 10 19 11 20 12
REMARK SMILES IDX 37 13 21 14 36 15 23 16 22 17 24 18 33 19 25 20 31 21 29 22
REMARK SMILES IDX 38 23 34 25 35 26 26 27 27 28 28 29 32 30 30 32 18 34 6 36
REMARK SMILES IDX 7 37 8 38 14 39 15 40 10 41 12 43
REMARK H PARENT 38 24 32 31 30 33 18 35 10 42 12 44
REMARK Flexibility Score: inf
ROOT
ATOM      1  C   UNL     1      10.127  -4.873  32.426  1.00  0.00     0.045 C 
ATOM      2  C   UNL     1       9.921  -4.487  33.870  1.00  0.00    -0.039 A 
ATOM      3  C   UNL     1       8.802  -3.733  34.228  1.00  0.00     0.013 A 
ATOM      4  C   UNL     1       8.561  -3.348  35.565  1.00  0.00    -0.006 A 
ATOM      5  C   UNL     1       9.406  -3.869  36.589  1.00  0.00     0.039 A 
ATOM      6  C   UNL     1       9.032  -3.683  37.951  1.00  0.00     0.072 A 
ATOM      7  C   UNL     1       7.879  -2.943  38.273  1.00  0.00     0.169 A 
ATOM      8  C   UNL     1       7.087  -2.376  37.255  1.00  0.00     0.162 A 
ATOM      9  C   UNL     1       7.477  -2.483  35.902  1.00  0.00     0.008 A 
ATOM     10  C   UNL     1      10.610  -4.534  36.210  1.00  0.00     0.132 A 
ATOM     11  C   UNL     1      10.855  -4.847  34.856  1.00  0.00     0.031 A 
ENDROOT
BRANCH  11  12
ATOM     12  C   UNL     1      12.098  -5.566  34.467  1.00  0.00     0.031 A 
ATOM     13  C   UNL     1      13.246  -4.843  34.081  1.00  0.00     0.132 A 
ATOM     14  C   UNL     1      12.118  -6.967  34.466  1.00  0.00    -0.039 A 
ATOM     15  C   UNL     1      14.452  -5.527  33.732  1.00  0.00     0.039 A 
ATOM     16  C   UNL     1      13.272  -7.639  34.066  1.00  0.00     0.013 A 
ATOM     17  C   UNL     1      10.891  -7.762  34.845  1.00  0.00     0.045 C 
ATOM     18  C   UNL     1      14.451  -6.959  33.697  1.00  0.00    -0.006 A 
ATOM     19  C   UNL     1      15.648  -4.827  33.390  1.00  0.00     0.072 A 
ATOM     20  C   UNL     1      15.623  -7.672  33.282  1.00  0.00     0.008 A 
ATOM     21  C   UNL     1      16.786  -5.541  32.969  1.00  0.00     0.169 A 
ATOM     22  C   UNL     1      16.762  -6.935  32.884  1.00  0.00     0.162 A 
BRANCH  13  23
ATOM     23  O   UNL     1      13.178  -3.446  34.019  1.00  0.00    -0.507 OA
ATOM     24  H   UNL     1      12.318  -2.924  33.914  1.00  0.00     0.293 HD
ENDBRANCH  13  23
BRANCH  19  25
ATOM     25  C   UNL     1      15.752  -3.357  33.502  1.00  0.00     0.264 C 
ATOM     26  O   UNL     1      15.771  -2.636  32.469  1.00  0.00    -0.298 OA
ENDBRANCH  19  25
BRANCH  20  27
ATOM     27  C   UNL     1      15.716  -9.213  33.222  1.00  0.00     0.017 C 
ATOM     28  C   UNL     1      14.673  -9.821  32.274  1.00  0.00     0.012 C 
ATOM     29  C   UNL     1      15.756  -9.894  34.608  1.00  0.00     0.012 C 
ENDBRANCH  20  27
BRANCH  21  30
ATOM     30  O   UNL     1      17.984  -4.888  32.649  1.00  0.00    -0.504 OA
ATOM     31  H   UNL     1      18.083  -4.215  31.902  1.00  0.00     0.293 HD
ENDBRANCH  21  30
BRANCH  22  32
ATOM     32  O   UNL     1      17.896  -7.604  32.411  1.00  0.00    -0.504 OA
ATOM     33  H   UNL     1      18.559  -7.186  31.769  1.00  0.00     0.293 HD
ENDBRANCH  22  32
ENDBRANCH  11  12
BRANCH  10  34
ATOM     34  O   UNL     1      11.575  -4.848  37.173  1.00  0.00    -0.507 OA
ATOM     35  H   UNL     1      11.433  -4.746  38.169  1.00  0.00     0.293 HD
ENDBRANCH  10  34
BRANCH   9  36
ATOM     36  C   UNL     1       6.724  -1.682  34.824  1.00  0.00     0.017 C 
ATOM     37  C   UNL     1       5.302  -2.217  34.633  1.00  0.00     0.012 C 
ATOM     38  C   UNL     1       6.725  -0.162  35.068  1.00  0.00     0.012 C 
ENDBRANCH   9  36
BRANCH   6  39
ATOM     39  C   UNL     1       9.746  -4.359  39.062  1.00  0.00     0.264 C 
ATOM     40  O   UNL     1      10.464  -3.705  39.864  1.00  0.00    -0.298 OA
ENDBRANCH   6  39
BRANCH   8  41
ATOM     41  O   UNL     1       5.883  -1.733  37.560  1.00  0.00    -0.504 OA
ATOM     42  H   UNL     1       5.027  -2.203  37.815  1.00  0.00     0.293 HD
ENDBRANCH   8  41
BRANCH   7  43
ATOM     43  O   UNL     1       7.541  -2.793  39.624  1.00  0.00    -0.504 OA
ATOM     44  H   UNL     1       7.327  -1.913  40.069  1.00  0.00     0.293 HD
ENDBRANCH   7  43
TORSDOF 11
ENDMDL
MODEL 7
REMARK VINA RESULT:    -5.204      9.836     12.780
REMARK INTER + INTRA:          -9.203
REMARK INTER:                  -7.859
REMARK INTRA:                  -1.343
REMARK UNBOUND:                -1.564
REMARK SMILES Cc1cc2c(C(C)C)c(O)c(O)c(C=O)c2c(O)c1-c1c(C)cc2c(C(C)C)c(O)c(O)c(C=O)c2c1O
REMARK SMILES IDX 1 1 2 2 3 3 4 4 16 5 13 6 11 7 9 8 5 9 17 10 19 11 20 12
REMARK SMILES IDX 37 13 21 14 36 15 23 16 22 17 24 18 33 19 25 20 31 21 29 22
REMARK SMILES IDX 38 23 34 25 35 26 26 27 27 28 28 29 32 30 30 32 18 34 6 36
REMARK SMILES IDX 7 37 8 38 14 39 15 40 10 41 12 43
REMARK H PARENT 38 24 32 31 30 33 18 35 10 42 12 44
REMARK Flexibility Score: inf
ROOT
ATOM      1  C   UNL     1      21.511 -10.693  40.489  1.00  0.00     0.045 C 
ATOM      2  C   UNL     1      20.067 -10.347  40.758  1.00  0.00    -0.039 A 
ATOM      3  C   UNL     1      19.487  -9.259  40.103  1.00  0.00     0.013 A 
ATOM      4  C   UNL     1      18.139  -8.895  40.316  1.00  0.00    -0.006 A 
ATOM      5  C   UNL     1      17.318  -9.750  41.107  1.00  0.00     0.039 A 
ATOM      6  C   UNL     1      15.911  -9.523  41.132  1.00  0.00     0.072 A 
ATOM      7  C   UNL     1      15.358  -8.435  40.434  1.00  0.00     0.169 A 
ATOM      8  C   UNL     1      16.186  -7.556  39.708  1.00  0.00     0.162 A 
ATOM      9  C   UNL     1      17.590  -7.716  39.728  1.00  0.00     0.008 A 
ATOM     10  C   UNL     1      17.939 -10.785  41.868  1.00  0.00     0.132 A 
ATOM     11  C   UNL     1      19.306 -11.083  41.681  1.00  0.00     0.031 A 
ENDROOT
BRANCH  11  12
ATOM     12  C   UNL     1      19.945 -12.181  42.454  1.00  0.00     0.031 A 
ATOM     13  C   UNL     1      20.608 -11.904  43.668  1.00  0.00     0.132 A 
ATOM     14  C   UNL     1      19.904 -13.492  41.961  1.00  0.00    -0.039 A 
ATOM     15  C   UNL     1      21.200 -12.958  44.430  1.00  0.00     0.039 A 
ATOM     16  C   UNL     1      20.536 -14.514  42.669  1.00  0.00     0.013 A 
ATOM     17  C   UNL     1      19.228 -13.808  40.648  1.00  0.00     0.045 C 
ATOM     18  C   UNL     1      21.187 -14.288  43.900  1.00  0.00    -0.006 A 
ATOM     19  C   UNL     1      21.830 -12.722  45.689  1.00  0.00     0.072 A 
ATOM     20  C   UNL     1      21.836 -15.355  44.605  1.00  0.00     0.008 A 
ATOM     21  C   UNL     1      22.477 -13.776  46.362  1.00  0.00     0.169 A 
ATOM     22  C   UNL     1      22.508 -15.060  45.814  1.00  0.00     0.162 A 
BRANCH  13  23
ATOM     23  O   UNL     1      20.698 -10.575  44.103  1.00  0.00    -0.507 OA
ATOM     24  H   UNL     1      19.923  -9.926  44.107  1.00  0.00     0.293 HD
ENDBRANCH  13  23
BRANCH  19  25
ATOM     25  C   UNL     1      21.794 -11.397  46.344  1.00  0.00     0.264 C 
ATOM     26  O   UNL     1      22.828 -10.679  46.395  1.00  0.00    -0.298 OA
ENDBRANCH  19  25
BRANCH  20  27
ATOM     27  C   UNL     1      21.864 -16.819  44.114  1.00  0.00     0.017 C 
ATOM     28  C   UNL     1      22.924 -17.045  43.027  1.00  0.00     0.012 C 
ATOM     29  C   UNL     1      20.475 -17.383  43.742  1.00  0.00     0.012 C 
ENDBRANCH  20  27
BRANCH  21  30
ATOM     30  O   UNL     1      23.084 -13.585  47.610  1.00  0.00    -0.504 OA
ATOM     31  H   UNL     1      23.554 -14.312  48.132  1.00  0.00     0.293 HD
ENDBRANCH  21  30
BRANCH  22  32
ATOM     32  O   UNL     1      23.206 -16.068  46.487  1.00  0.00    -0.504 OA
ATOM     33  H   UNL     1      23.080 -17.054  46.292  1.00  0.00     0.293 HD
ENDBRANCH  22  32
ENDBRANCH  11  12
BRANCH  10  34
ATOM     34  O   UNL     1      17.209 -11.488  42.832  1.00  0.00    -0.507 OA
ATOM     35  H   UNL     1      17.347 -11.385  43.829  1.00  0.00     0.293 HD
ENDBRANCH  10  34
BRANCH   9  36
ATOM     36  C   UNL     1      18.492  -6.631  39.112  1.00  0.00     0.017 C 
ATOM     37  C   UNL     1      19.487  -6.092  40.143  1.00  0.00     0.012 C 
ATOM     38  C   UNL     1      19.206  -7.078  37.823  1.00  0.00     0.012 C 
ENDBRANCH   9  36
BRANCH   6  39
ATOM     39  C   UNL     1      14.972 -10.480  41.768  1.00  0.00     0.264 C 
ATOM     40  O   UNL     1      14.471 -11.430  41.110  1.00  0.00    -0.298 OA
ENDBRANCH   6  39
BRANCH   8  41
ATOM     41  O   UNL     1      15.637  -6.537  38.923  1.00  0.00    -0.504 OA
ATOM     42  H   UNL     1      14.878  -5.935  39.208  1.00  0.00     0.293 HD
ENDBRANCH   8  41
BRANCH   7  43
ATOM     43  O   UNL     1      13.969  -8.254  40.475  1.00  0.00    -0.504 OA
ATOM     44  H   UNL     1      13.505  -7.358  40.456  1.00  0.00     0.293 HD
ENDBRANCH   7  43
TORSDOF 11
ENDMDL
MODEL 8
REMARK VINA RESULT:    -5.191      1.591      9.069
REMARK INTER + INTRA:          -9.182
REMARK INTER:                  -7.727
REMARK INTRA:                  -1.456
REMARK UNBOUND:                -1.564
REMARK SMILES Cc1cc2c(C(C)C)c(O)c(O)c(C=O)c2c(O)c1-c1c(C)cc2c(C(C)C)c(O)c(O)c(C=O)c2c1O
REMARK SMILES IDX 1 1 2 2 3 3 4 4 16 5 13 6 11 7 9 8 5 9 17 10 19 11 20 12
REMARK SMILES IDX 37 13 21 14 36 15 23 16 22 17 24 18 33 19 25 20 31 21 29 22
REMARK SMILES IDX 38 23 34 25 35 26 26 27 27 28 28 29 32 30 30 32 18 34 6 36
REMARK SMILES IDX 7 37 8 38 14 39 15 40 10 41 12 43
REMARK H PARENT 38 24 32 31 30 33 18 35 10 42 12 44
REMARK Flexibility Score: inf
ROOT
ATOM      1  C   UNL     1      14.627  -7.124  39.962  1.00  0.00     0.045 C 
ATOM      2  C   UNL     1      14.250  -7.148  38.501  1.00  0.00    -0.039 A 
ATOM      3  C   UNL     1      15.072  -7.812  37.589  1.00  0.00     0.013 A 
ATOM      4  C   UNL     1      14.763  -7.866  36.212  1.00  0.00    -0.006 A 
ATOM      5  C   UNL     1      13.506  -7.356  35.773  1.00  0.00     0.039 A 
ATOM      6  C   UNL     1      13.085  -7.619  34.438  1.00  0.00     0.072 A 
ATOM      7  C   UNL     1      13.928  -8.319  33.555  1.00  0.00     0.169 A 
ATOM      8  C   UNL     1      15.197  -8.761  33.979  1.00  0.00     0.162 A 
ATOM      9  C   UNL     1      15.667  -8.449  35.274  1.00  0.00     0.008 A 
ATOM     10  C   UNL     1      12.729  -6.577  36.681  1.00  0.00     0.132 A 
ATOM     11  C   UNL     1      13.100  -6.486  38.040  1.00  0.00     0.031 A 
ENDROOT
BRANCH  11  12
ATOM     12  C   UNL     1      12.273  -5.696  38.990  1.00  0.00     0.031 A 
ATOM     13  C   UNL     1      11.294  -6.334  39.781  1.00  0.00     0.132 A 
ATOM     14  C   UNL     1      12.456  -4.310  39.084  1.00  0.00    -0.039 A 
ATOM     15  C   UNL     1      10.515  -5.585  40.717  1.00  0.00     0.039 A 
ATOM     16  C   UNL     1      11.654  -3.566  39.948  1.00  0.00     0.013 A 
ATOM     17  C   UNL     1      13.475  -3.601  38.224  1.00  0.00     0.045 C 
ATOM     18  C   UNL     1      10.681  -4.164  40.777  1.00  0.00    -0.006 A 
ATOM     19  C   UNL     1       9.554  -6.206  41.571  1.00  0.00     0.072 A 
ATOM     20  C   UNL     1       9.863  -3.377  41.652  1.00  0.00     0.008 A 
ATOM     21  C   UNL     1       8.747  -5.418  42.414  1.00  0.00     0.169 A 
ATOM     22  C   UNL     1       8.877  -4.027  42.429  1.00  0.00     0.162 A 
BRANCH  13  23
ATOM     23  O   UNL     1      11.080  -7.708  39.617  1.00  0.00    -0.507 OA
ATOM     24  H   UNL     1      10.496  -8.109  38.895  1.00  0.00     0.293 HD
ENDBRANCH  13  23
BRANCH  19  25
ATOM     25  C   UNL     1       9.400  -7.674  41.635  1.00  0.00     0.264 C 
ATOM     26  O   UNL     1       8.328  -8.223  41.265  1.00  0.00    -0.298 OA
ENDBRANCH  19  25
BRANCH  20  27
ATOM     27  C   UNL     1       9.979  -1.843  41.790  1.00  0.00     0.017 C 
ATOM     28  C   UNL     1       9.516  -1.110  40.523  1.00  0.00     0.012 C 
ATOM     29  C   UNL     1      11.352  -1.360  42.308  1.00  0.00     0.012 C 
ENDBRANCH  20  27
BRANCH  21  30
ATOM     30  O   UNL     1       7.813  -5.995  43.283  1.00  0.00    -0.504 OA
ATOM     31  H   UNL     1       7.005  -6.523  42.982  1.00  0.00     0.293 HD
ENDBRANCH  21  30
BRANCH  22  32
ATOM     32  O   UNL     1       8.021  -3.276  43.241  1.00  0.00    -0.504 OA
ATOM     33  H   UNL     1       8.325  -2.814  44.090  1.00  0.00     0.293 HD
ENDBRANCH  22  32
ENDBRANCH  11  12
BRANCH  10  34
ATOM     34  O   UNL     1      11.615  -5.865  36.225  1.00  0.00    -0.507 OA
ATOM     35  H   UNL     1      11.323  -5.833  35.256  1.00  0.00     0.293 HD
ENDBRANCH  10  34
BRANCH   9  36
ATOM     36  C   UNL     1      17.130  -8.750  35.649  1.00  0.00     0.017 C 
ATOM     37  C   UNL     1      17.385 -10.260  35.699  1.00  0.00     0.012 C 
ATOM     38  C   UNL     1      18.159  -8.036  34.754  1.00  0.00     0.012 C 
ENDBRANCH   9  36
BRANCH   6  39
ATOM     39  C   UNL     1      11.715  -7.297  33.968  1.00  0.00     0.264 C 
ATOM     40  O   UNL     1      11.510  -6.337  33.178  1.00  0.00    -0.298 OA
ENDBRANCH   6  39
BRANCH   8  41
ATOM     41  O   UNL     1      15.995  -9.550  33.145  1.00  0.00    -0.504 OA
ATOM     42  H   UNL     1      16.830  -9.231  32.675  1.00  0.00     0.293 HD
ENDBRANCH   8  41
BRANCH   7  43
ATOM     43  O   UNL     1      13.470  -8.567  32.254  1.00  0.00    -0.504 OA
ATOM     44  H   UNL     1      13.823  -9.294  31.650  1.00  0.00     0.293 HD
ENDBRANCH   7  43
TORSDOF 11
ENDMDL
MODEL 9
REMARK VINA RESULT:    -5.142     11.671     15.240
REMARK INTER + INTRA:          -9.112
REMARK INTER:                  -7.566
REMARK INTRA:                  -1.546
REMARK UNBOUND:                -1.564
REMARK SMILES Cc1cc2c(C(C)C)c(O)c(O)c(C=O)c2c(O)c1-c1c(C)cc2c(C(C)C)c(O)c(O)c(C=O)c2c1O
REMARK SMILES IDX 1 1 2 2 3 3 4 4 16 5 13 6 11 7 9 8 5 9 17 10 19 11 20 12
REMARK SMILES IDX 37 13 21 14 36 15 23 16 22 17 24 18 33 19 25 20 31 21 29 22
REMARK SMILES IDX 38 23 34 25 35 26 26 27 27 28 28 29 32 30 30 32 18 34 6 36
REMARK SMILES IDX 7 37 8 38 14 39 15 40 10 41 12 43
REMARK H PARENT 38 24 32 31 30 33 18 35 10 42 12 44
REMARK Flexibility Score: inf
ROOT
ATOM      1  C   UNL     1      21.517 -14.110  40.326  1.00  0.00     0.045 C 
ATOM      2  C   UNL     1      22.010 -14.236  41.746  1.00  0.00    -0.039 A 
ATOM      3  C   UNL     1      22.390 -15.487  42.235  1.00  0.00     0.013 A 
ATOM      4  C   UNL     1      22.861 -15.658  43.556  1.00  0.00    -0.006 A 
ATOM      5  C   UNL     1      23.090 -14.499  44.354  1.00  0.00     0.039 A 
ATOM      6  C   UNL     1      23.784 -14.642  45.590  1.00  0.00     0.072 A 
ATOM      7  C   UNL     1      24.180 -15.916  46.037  1.00  0.00     0.169 A 
ATOM      8  C   UNL     1      23.890 -17.063  45.271  1.00  0.00     0.162 A 
ATOM      9  C   UNL     1      23.138 -16.956  44.079  1.00  0.00     0.008 A 
ATOM     10  C   UNL     1      22.590 -13.243  43.898  1.00  0.00     0.132 A 
ATOM     11  C   UNL     1      22.063 -13.117  42.595  1.00  0.00     0.031 A 
ENDROOT
BRANCH  11  12
ATOM     12  C   UNL     1      21.568 -11.801  42.112  1.00  0.00     0.031 A 
ATOM     13  C   UNL     1      20.214 -11.445  42.278  1.00  0.00     0.132 A 
ATOM     14  C   UNL     1      22.450 -10.921  41.470  1.00  0.00    -0.039 A 
ATOM     15  C   UNL     1      19.738 -10.170  41.841  1.00  0.00     0.039 A 
ATOM     16  C   UNL     1      21.977  -9.703  40.985  1.00  0.00     0.013 A 
ATOM     17  C   UNL     1      23.898 -11.293  41.252  1.00  0.00     0.045 C 
ATOM     18  C   UNL     1      20.637  -9.294  41.152  1.00  0.00    -0.006 A 
ATOM     19  C   UNL     1      18.387  -9.756  42.043  1.00  0.00     0.072 A 
ATOM     20  C   UNL     1      20.172  -8.039  40.637  1.00  0.00     0.008 A 
ATOM     21  C   UNL     1      17.940  -8.528  41.517  1.00  0.00     0.169 A 
ATOM     22  C   UNL     1      18.808  -7.702  40.800  1.00  0.00     0.162 A 
BRANCH  13  23
ATOM     23  O   UNL     1      19.336 -12.371  42.856  1.00  0.00    -0.507 OA
ATOM     24  H   UNL     1      18.353 -12.197  43.018  1.00  0.00     0.293 HD
ENDBRANCH  13  23
BRANCH  19  25
ATOM     25  C   UNL     1      17.432 -10.562  42.832  1.00  0.00     0.264 C 
ATOM     26  O   UNL     1      16.506 -11.197  42.261  1.00  0.00    -0.298 OA
ENDBRANCH  19  25
BRANCH  20  27
ATOM     27  C   UNL     1      21.071  -7.029  39.891  1.00  0.00     0.017 C 
ATOM     28  C   UNL     1      21.421  -7.501  38.473  1.00  0.00     0.012 C 
ATOM     29  C   UNL     1      22.300  -6.564  40.703  1.00  0.00     0.012 C 
ENDBRANCH  20  27
BRANCH  21  30
ATOM     30  O   UNL     1      16.629  -8.078  41.718  1.00  0.00    -0.504 OA
ATOM     31  H   UNL     1      15.842  -8.341  41.140  1.00  0.00     0.293 HD
ENDBRANCH  21  30
BRANCH  22  32
ATOM     32  O   UNL     1      18.313  -6.515  40.248  1.00  0.00    -0.504 OA
ATOM     33  H   UNL     1      18.871  -5.898  39.669  1.00  0.00     0.293 HD
ENDBRANCH  22  32
ENDBRANCH  11  12
BRANCH  10  34
ATOM     34  O   UNL     1      22.582 -12.135  44.751  1.00  0.00    -0.507 OA
ATOM     35  H   UNL     1      23.404 -11.590  44.976  1.00  0.00     0.293 HD
ENDBRANCH  10  34
BRANCH   9  36
ATOM     36  C   UNL     1      22.647 -18.230  43.368  1.00  0.00     0.017 C 
ATOM     37  C   UNL     1      23.821 -19.019  42.780  1.00  0.00     0.012 C 
ATOM     38  C   UNL     1      21.754 -19.125  44.247  1.00  0.00     0.012 C 
ENDBRANCH   9  36
BRANCH   6  39
ATOM     39  C   UNL     1      24.232 -13.469  46.380  1.00  0.00     0.264 C 
ATOM     40  O   UNL     1      23.633 -13.129  47.434  1.00  0.00    -0.298 OA
ENDBRANCH   6  39
BRANCH   8  41
ATOM     41  O   UNL     1      24.373 -18.319  45.651  1.00  0.00    -0.504 OA
ATOM     42  H   UNL     1      23.854 -18.997  46.190  1.00  0.00     0.293 HD
ENDBRANCH   8  41
BRANCH   7  43
ATOM     43  O   UNL     1      24.870 -16.011  47.252  1.00  0.00    -0.504 OA
ATOM     44  H   UNL     1      25.839 -15.761  47.383  1.00  0.00     0.293 HD
ENDBRANCH   7  43
TORSDOF 11
ENDMDL
