MODEL 1
REMARK VINA RESULT:    -3.630      0.000      0.000
REMARK INTER + INTRA:          -4.624
REMARK INTER:                  -4.478
REMARK INTRA:                  -0.146
REMARK UNBOUND:                -0.146
REMARK SMILES CCCCC=CC(C)=O
REMARK SMILES IDX 4 1 3 2 2 3 1 4 5 5 6 6 7 7 9 8 8 9
REMARK H PARENT
REMARK Flexibility Score: inf
ROOT
ATOM      1  C   UNL     1      17.160 -48.651  -1.056  1.00  0.00     0.027 C 
ENDROOT
BRANCH   1   2
ATOM      2  C   UNL     1      16.964 -47.905  -2.384  1.00  0.00     0.004 C 
BRANCH   2   3
ATOM      3  C   UNL     1      15.593 -48.183  -3.020  1.00  0.00    -0.003 C 
ATOM      4  C   UNL     1      14.738 -46.924  -3.153  1.00  0.00     0.004 C 
ENDBRANCH   2   3
ENDBRANCH   1   2
BRANCH   1   5
ATOM      5  C   UNL     1      18.608 -48.973  -0.825  1.00  0.00    -0.023 C 
ATOM      6  C   UNL     1      19.560 -48.551  -1.667  1.00  0.00     0.042 C 
BRANCH   6   7
ATOM      7  C   UNL     1      20.997 -48.835  -1.475  1.00  0.00     0.152 C 
ATOM      8  O   UNL     1      21.545 -48.475  -0.398  1.00  0.00    -0.295 OA
ATOM      9  C   UNL     1      21.825 -49.533  -2.512  1.00  0.00     0.093 C 
ENDBRANCH   6   7
ENDBRANCH   1   5
TORSDOF 4
ENDMDL
MODEL 2
REMARK VINA RESULT:    -3.592      2.449      5.481
REMARK INTER + INTRA:          -4.577
REMARK INTER:                  -4.466
REMARK INTRA:                  -0.111
REMARK UNBOUND:                -0.146
REMARK SMILES CCCCC=CC(C)=O
REMARK SMILES IDX 4 1 3 2 2 3 1 4 5 5 6 6 7 7 9 8 8 9
REMARK H PARENT
REMARK Flexibility Score: inf
ROOT
ATOM      1  C   UNL     1      18.957 -48.268  -1.942  1.00  0.00     0.027 C 
ENDROOT
BRANCH   1   2
ATOM      2  C   UNL     1      19.703 -48.925  -0.772  1.00  0.00     0.004 C 
BRANCH   2   3
ATOM      3  C   UNL     1      21.229 -48.800  -0.900  1.00  0.00    -0.003 C 
ATOM      4  C   UNL     1      21.742 -49.220  -2.276  1.00  0.00     0.004 C 
ENDBRANCH   2   3
ENDBRANCH   1   2
BRANCH   1   5
ATOM      5  C   UNL     1      17.474 -48.263  -1.705  1.00  0.00    -0.023 C 
ATOM      6  C   UNL     1      16.614 -47.927  -2.675  1.00  0.00     0.042 C 
BRANCH   6   7
ATOM      7  C   UNL     1      15.148 -47.918  -2.492  1.00  0.00     0.152 C 
ATOM      8  O   UNL     1      14.620 -48.833  -1.806  1.00  0.00    -0.295 OA
ATOM      9  C   UNL     1      14.269 -46.862  -3.092  1.00  0.00     0.093 C 
ENDBRANCH   6   7
ENDBRANCH   1   5
TORSDOF 4
ENDMDL
MODEL 3
REMARK VINA RESULT:    -3.568     17.995     19.398
REMARK INTER + INTRA:          -4.548
REMARK INTER:                  -4.386
REMARK INTRA:                  -0.162
REMARK UNBOUND:                -0.146
REMARK SMILES CCCCC=CC(C)=O
REMARK SMILES IDX 4 1 3 2 2 3 1 4 5 5 6 6 7 7 9 8 8 9
REMARK H PARENT
REMARK Flexibility Score: inf
ROOT
ATOM      1  C   UNL     1      20.556 -29.996  -9.931  1.00  0.00     0.027 C 
ENDROOT
BRANCH   1   2
ATOM      2  C   UNL     1      21.521 -31.126 -10.320  1.00  0.00     0.004 C 
BRANCH   2   3
ATOM      3  C   UNL     1      22.982 -30.657 -10.387  1.00  0.00    -0.003 C 
ATOM      4  C   UNL     1      23.968 -31.732  -9.931  1.00  0.00     0.004 C 
ENDBRANCH   2   3
ENDBRANCH   1   2
BRANCH   1   5
ATOM      5  C   UNL     1      19.207 -30.539  -9.558  1.00  0.00    -0.023 C 
ATOM      6  C   UNL     1      18.937 -31.848  -9.636  1.00  0.00     0.042 C 
BRANCH   6   7
ATOM      7  C   UNL     1      17.629 -32.430  -9.270  1.00  0.00     0.152 C 
ATOM      8  O   UNL     1      17.595 -33.609  -8.828  1.00  0.00    -0.295 OA
ATOM      9  C   UNL     1      16.344 -31.669  -9.406  1.00  0.00     0.093 C 
ENDBRANCH   6   7
ENDBRANCH   1   5
TORSDOF 4
ENDMDL
MODEL 4
REMARK VINA RESULT:    -3.524      1.955      4.879
REMARK INTER + INTRA:          -4.494
REMARK INTER:                  -4.246
REMARK INTRA:                  -0.248
REMARK UNBOUND:                -0.146
REMARK SMILES CCCCC=CC(C)=O
REMARK SMILES IDX 4 1 3 2 2 3 1 4 5 5 6 6 7 7 9 8 8 9
REMARK H PARENT
REMARK Flexibility Score: inf
ROOT
ATOM      1  C   UNL     1      20.639 -48.900  -0.871  1.00  0.00     0.027 C 
ENDROOT
BRANCH   1   2
ATOM      2  C   UNL     1      21.193 -50.125  -1.613  1.00  0.00     0.004 C 
BRANCH   2   3
ATOM      3  C   UNL     1      22.156 -49.742  -2.747  1.00  0.00    -0.003 C 
ATOM      4  C   UNL     1      21.460 -49.001  -3.888  1.00  0.00     0.004 C 
ENDBRANCH   2   3
ENDBRANCH   1   2
BRANCH   1   5
ATOM      5  C   UNL     1      19.143 -48.958  -0.770  1.00  0.00    -0.023 C 
ATOM      6  C   UNL     1      18.359 -48.356  -1.675  1.00  0.00     0.042 C 
BRANCH   6   7
ATOM      7  C   UNL     1      16.883 -48.395  -1.624  1.00  0.00     0.152 C 
ATOM      8  O   UNL     1      16.328 -48.932  -0.629  1.00  0.00    -0.295 OA
ATOM      9  C   UNL     1      16.025 -47.819  -2.711  1.00  0.00     0.093 C 
ENDBRANCH   6   7
ENDBRANCH   1   5
TORSDOF 4
ENDMDL
MODEL 5
REMARK VINA RESULT:    -3.475      3.241      5.738
REMARK INTER + INTRA:          -4.434
REMARK INTER:                  -4.333
REMARK INTRA:                  -0.101
REMARK UNBOUND:                -0.146
REMARK SMILES CCCCC=CC(C)=O
REMARK SMILES IDX 4 1 3 2 2 3 1 4 5 5 6 6 7 7 9 8 8 9
REMARK H PARENT
REMARK Flexibility Score: inf
ROOT
ATOM      1  C   UNL     1      17.303 -48.295  -1.638  1.00  0.00     0.027 C 
ENDROOT
BRANCH   1   2
ATOM      2  C   UNL     1      18.809 -48.327  -1.937  1.00  0.00     0.004 C 
BRANCH   2   3
ATOM      3  C   UNL     1      19.625 -48.945  -0.791  1.00  0.00    -0.003 C 
ATOM      4  C   UNL     1      21.132 -48.864  -1.030  1.00  0.00     0.004 C 
ENDBRANCH   2   3
ENDBRANCH   1   2
BRANCH   1   5
ATOM      5  C   UNL     1      16.499 -48.306  -2.905  1.00  0.00    -0.023 C 
ATOM      6  C   UNL     1      15.343 -47.636  -3.004  1.00  0.00     0.042 C 
BRANCH   6   7
ATOM      7  C   UNL     1      14.523 -47.609  -4.232  1.00  0.00     0.152 C 
ATOM      8  O   UNL     1      13.389 -47.062  -4.188  1.00  0.00    -0.295 OA
ATOM      9  C   UNL     1      14.990 -48.208  -5.525  1.00  0.00     0.093 C 
ENDBRANCH   6   7
ENDBRANCH   1   5
TORSDOF 4
ENDMDL
MODEL 6
REMARK VINA RESULT:    -3.444     19.473     20.199
REMARK INTER + INTRA:          -4.395
REMARK INTER:                  -4.229
REMARK INTRA:                  -0.166
REMARK UNBOUND:                -0.146
REMARK SMILES CCCCC=CC(C)=O
REMARK SMILES IDX 4 1 3 2 2 3 1 4 5 5 6 6 7 7 9 8 8 9
REMARK H PARENT
REMARK Flexibility Score: inf
ROOT
ATOM      1  C   UNL     1      23.875 -34.153 -14.986  1.00  0.00     0.027 C 
ENDROOT
BRANCH   1   2
ATOM      2  C   UNL     1      24.683 -35.342 -15.526  1.00  0.00     0.004 C 
BRANCH   2   3
ATOM      3  C   UNL     1      26.198 -35.151 -15.357  1.00  0.00    -0.003 C 
ATOM      4  C   UNL     1      26.986 -36.438 -15.598  1.00  0.00     0.004 C 
ENDBRANCH   2   3
ENDBRANCH   1   2
BRANCH   1   5
ATOM      5  C   UNL     1      24.468 -33.629 -13.710  1.00  0.00    -0.023 C 
ATOM      6  C   UNL     1      23.750 -32.880 -12.863  1.00  0.00     0.042 C 
BRANCH   6   7
ATOM      7  C   UNL     1      24.287 -32.352 -11.592  1.00  0.00     0.152 C 
ATOM      8  O   UNL     1      25.415 -31.791 -11.601  1.00  0.00    -0.295 OA
ATOM      9  C   UNL     1      23.540 -32.459 -10.297  1.00  0.00     0.093 C 
ENDBRANCH   6   7
ENDBRANCH   1   5
TORSDOF 4
ENDMDL
MODEL 7
REMARK VINA RESULT:    -3.442     19.527     20.120
REMARK INTER + INTRA:          -4.393
REMARK INTER:                  -4.199
REMARK INTRA:                  -0.194
REMARK UNBOUND:                -0.146
REMARK SMILES CCCCC=CC(C)=O
REMARK SMILES IDX 4 1 3 2 2 3 1 4 5 5 6 6 7 7 9 8 8 9
REMARK H PARENT
REMARK Flexibility Score: inf
ROOT
ATOM      1  C   UNL     1      24.170 -32.725 -14.323  1.00  0.00     0.027 C 
ENDROOT
BRANCH   1   2
ATOM      2  C   UNL     1      23.846 -34.226 -14.300  1.00  0.00     0.004 C 
BRANCH   2   3
ATOM      3  C   UNL     1      24.530 -34.995 -15.441  1.00  0.00    -0.003 C 
ATOM      4  C   UNL     1      26.038 -34.754 -15.494  1.00  0.00     0.004 C 
ENDBRANCH   2   3
ENDBRANCH   1   2
BRANCH   1   5
ATOM      5  C   UNL     1      23.801 -32.072 -13.023  1.00  0.00    -0.023 C 
ATOM      6  C   UNL     1      23.935 -32.715 -11.856  1.00  0.00     0.042 C 
BRANCH   6   7
ATOM      7  C   UNL     1      23.595 -32.109 -10.552  1.00  0.00     0.152 C 
ATOM      8  O   UNL     1      22.380 -32.000 -10.236  1.00  0.00    -0.295 OA
ATOM      9  C   UNL     1      24.641 -31.622  -9.594  1.00  0.00     0.093 C 
ENDBRANCH   6   7
ENDBRANCH   1   5
TORSDOF 4
ENDMDL
MODEL 8
REMARK VINA RESULT:    -3.346     19.745     20.259
REMARK INTER + INTRA:          -4.275
REMARK INTER:                  -4.057
REMARK INTRA:                  -0.218
REMARK UNBOUND:                -0.146
REMARK SMILES CCCCC=CC(C)=O
REMARK SMILES IDX 4 1 3 2 2 3 1 4 5 5 6 6 7 7 9 8 8 9
REMARK H PARENT
REMARK Flexibility Score: inf
ROOT
ATOM      1  C   UNL     1      23.745 -31.550 -12.354  1.00  0.00     0.027 C 
ENDROOT
BRANCH   1   2
ATOM      2  C   UNL     1      23.490 -32.529 -11.199  1.00  0.00     0.004 C 
BRANCH   2   3
ATOM      3  C   UNL     1      23.920 -31.960  -9.838  1.00  0.00    -0.003 C 
ATOM      4  C   UNL     1      25.356 -31.437  -9.843  1.00  0.00     0.004 C 
ENDBRANCH   2   3
ENDBRANCH   1   2
BRANCH   1   5
ATOM      5  C   UNL     1      23.946 -32.281 -13.650  1.00  0.00    -0.023 C 
ATOM      6  C   UNL     1      24.357 -33.555 -13.675  1.00  0.00     0.042 C 
BRANCH   6   7
ATOM      7  C   UNL     1      24.558 -34.318 -14.925  1.00  0.00     0.152 C 
ATOM      8  O   UNL     1      23.545 -34.670 -15.587  1.00  0.00    -0.295 OA
ATOM      9  C   UNL     1      25.920 -34.689 -15.431  1.00  0.00     0.093 C 
ENDBRANCH   6   7
ENDBRANCH   1   5
TORSDOF 4
ENDMDL
MODEL 9
REMARK VINA RESULT:    -3.344      1.534      2.479
REMARK INTER + INTRA:          -4.272
REMARK INTER:                  -4.137
REMARK INTRA:                  -0.135
REMARK UNBOUND:                -0.146
REMARK SMILES CCCCC=CC(C)=O
REMARK SMILES IDX 4 1 3 2 2 3 1 4 5 5 6 6 7 7 9 8 8 9
REMARK H PARENT
REMARK Flexibility Score: inf
ROOT
ATOM      1  C   UNL     1      15.234 -47.811  -2.338  1.00  0.00     0.027 C 
ENDROOT
BRANCH   1   2
ATOM      2  C   UNL     1      14.432 -46.949  -3.322  1.00  0.00     0.004 C 
BRANCH   2   3
ATOM      3  C   UNL     1      14.123 -47.684  -4.636  1.00  0.00    -0.003 C 
ATOM      4  C   UNL     1      13.247 -46.862  -5.580  1.00  0.00     0.004 C 
ENDBRANCH   2   3
ENDBRANCH   1   2
BRANCH   1   5
ATOM      5  C   UNL     1      16.687 -47.854  -2.713  1.00  0.00    -0.023 C 
ATOM      6  C   UNL     1      17.605 -48.378  -1.890  1.00  0.00     0.042 C 
BRANCH   6   7
ATOM      7  C   UNL     1      19.043 -48.451  -2.220  1.00  0.00     0.152 C 
ATOM      8  O   UNL     1      19.880 -48.424  -1.278  1.00  0.00    -0.295 OA
ATOM      9  C   UNL     1      19.541 -48.554  -3.630  1.00  0.00     0.093 C 
ENDBRANCH   6   7
ENDBRANCH   1   5
TORSDOF 4
ENDMDL
