MODEL 1
REMARK VINA RESULT:    -3.963      0.000      0.000
REMARK INTER + INTRA:          -5.343
REMARK INTER:                  -5.585
REMARK INTRA:                   0.242
REMARK UNBOUND:                 0.242
REMARK SMILES CC1=CCC(=C(C)C)C(=O)CC(C)=CCC1
REMARK SMILES IDX 12 1 14 2 13 3 15 4 16 5 2 6 1 7 3 8 11 10 9 11 10 12 5 13
REMARK SMILES IDX 6 14 7 15 8 16 4 17
REMARK H PARENT
REMARK Flexibility Score: 60.00
ROOT
ATOM      1  C   UNL     1      18.337  26.465  27.945  1.00  0.00    -0.070 C 
ATOM      2  C   UNL     1      19.255  25.473  28.084  1.00  0.00    -0.027 C 
ATOM      3  C   UNL     1      16.885  26.056  27.878  1.00  0.00     0.039 C 
ENDROOT
BRANCH   2   4
ATOM      4  C   UNL     1      20.756  25.642  28.072  1.00  0.00     0.032 C 
BRANCH   4   5
ATOM      5  C   UNL     1      21.309  26.253  29.366  1.00  0.00     0.034 C 
BRANCH   5   6
ATOM      6  C   UNL     1      22.157  27.469  29.051  1.00  0.00    -0.077 C 
ATOM      7  C   UNL     1      23.310  27.309  28.094  1.00  0.00     0.039 C 
ATOM      8  C   UNL     1      21.885  28.710  29.522  1.00  0.00    -0.023 CG0
ATOM      9  G   UNL     1      20.787  29.062  30.497  1.00  0.00     0.000 G0
ENDBRANCH   5   6
ENDBRANCH   4   5
ENDBRANCH   2   4
BRANCH   1  10
ATOM     10  C   UNL     1      18.668  27.954  27.934  1.00  0.00     0.111 C 
BRANCH  10  11
ATOM     11  C   UNL     1      18.529  28.622  29.278  1.00  0.00     0.163 C 
ATOM     12  O   UNL     1      17.544  28.294  29.995  1.00  0.00    -0.294 OA
BRANCH  11  13
ATOM     13  C   UNL     1      19.537  29.602  29.805  1.00  0.00    -0.002 C 
ATOM     14  C   UNL     1      19.365  30.948  29.623  1.00  0.00    -0.069 C 
ATOM     15  C   UNL     1      20.412  31.951  30.058  1.00  0.00     0.039 C 
ATOM     16  C   UNL     1      18.096  31.515  29.023  1.00  0.00     0.039 C 
BRANCH  13  17
ATOM     17  C   UNL     1      20.788  29.067  30.499  1.00  0.00     0.066 CG0
ATOM     18  G   UNL     1      21.879  28.715  29.516  1.00  0.00     0.000 G0
ENDBRANCH  13  17
ENDBRANCH  11  13
ENDBRANCH  10  11
ENDBRANCH   1  10
TORSDOF 0
ENDMDL
MODEL 2
REMARK VINA RESULT:    -3.717      2.809      5.762
REMARK INTER + INTRA:          -4.997
REMARK INTER:                  -5.171
REMARK INTRA:                   0.174
REMARK UNBOUND:                 0.242
REMARK SMILES CC1=CCC(=C(C)C)C(=O)CC(C)=CCC1
REMARK SMILES IDX 12 1 14 2 13 3 15 4 16 5 2 6 1 7 3 8 11 10 9 11 10 12 5 13
REMARK SMILES IDX 6 14 7 15 8 16 4 17
REMARK H PARENT
REMARK Flexibility Score: 60.00
ROOT
ATOM      1  C   UNL     1      25.750  29.079  29.057  1.00  0.00    -0.070 C 
ATOM      2  C   UNL     1      25.868  30.027  30.022  1.00  0.00    -0.027 C 
ATOM      3  C   UNL     1      26.665  29.193  27.861  1.00  0.00     0.039 C 
ENDROOT
BRANCH   2   4
ATOM      4  C   UNL     1      24.993  30.166  31.246  1.00  0.00     0.032 C 
BRANCH   4   5
ATOM      5  C   UNL     1      23.634  30.812  30.950  1.00  0.00     0.034 C 
BRANCH   5   6
ATOM      6  C   UNL     1      22.514  29.955  31.504  1.00  0.00    -0.077 C 
ATOM      7  C   UNL     1      22.341  29.882  33.000  1.00  0.00     0.039 C 
ATOM      8  C   UNL     1      21.611  29.313  30.724  1.00  0.00    -0.023 CG0
ATOM      9  G   UNL     1      21.629  29.259  29.215  1.00  0.00     0.000 G0
ENDBRANCH   5   6
ENDBRANCH   4   5
ENDBRANCH   2   4
BRANCH   1  10
ATOM     10  C   UNL     1      24.818  27.874  29.140  1.00  0.00     0.111 C 
BRANCH  10  11
ATOM     11  C   UNL     1      23.638  27.947  28.203  1.00  0.00     0.163 C 
ATOM     12  O   UNL     1      23.875  27.967  26.965  1.00  0.00    -0.294 OA
BRANCH  11  13
ATOM     13  C   UNL     1      22.217  27.935  28.687  1.00  0.00    -0.002 C 
ATOM     14  C   UNL     1      21.464  26.794  28.618  1.00  0.00    -0.069 C 
ATOM     15  C   UNL     1      20.002  26.779  29.008  1.00  0.00     0.039 C 
ATOM     16  C   UNL     1      22.063  25.469  28.196  1.00  0.00     0.039 C 
BRANCH  13  17
ATOM     17  C   UNL     1      21.607  29.236  29.206  1.00  0.00     0.066 CG0
ATOM     18  G   UNL     1      21.608  29.304  30.715  1.00  0.00     0.000 G0
ENDBRANCH  13  17
ENDBRANCH  11  13
ENDBRANCH  10  11
ENDBRANCH   1  10
TORSDOF 0
ENDMDL
MODEL 3
REMARK VINA RESULT:    -3.684      1.828      3.715
REMARK INTER + INTRA:          -4.950
REMARK INTER:                  -5.136
REMARK INTRA:                   0.186
REMARK UNBOUND:                 0.242
REMARK SMILES CC1=CCC(=C(C)C)C(=O)CC(C)=CCC1
REMARK SMILES IDX 12 1 14 2 13 3 15 4 16 5 2 6 1 7 3 8 11 10 9 11 10 12 5 13
REMARK SMILES IDX 6 14 7 15 8 16 4 17
REMARK H PARENT
REMARK Flexibility Score: 60.00
ROOT
ATOM      1  C   UNL     1      20.796  25.827  28.495  1.00  0.00    -0.070 C 
ATOM      2  C   UNL     1      19.610  25.610  27.869  1.00  0.00    -0.027 C 
ATOM      3  C   UNL     1      21.989  25.045  28.001  1.00  0.00     0.039 C 
ENDROOT
BRANCH   2   4
ATOM      4  C   UNL     1      18.276  26.202  28.261  1.00  0.00     0.032 C 
BRANCH   4   5
ATOM      5  C   UNL     1      18.101  27.658  27.808  1.00  0.00     0.034 C 
BRANCH   5   6
ATOM      6  C   UNL     1      17.709  28.530  28.983  1.00  0.00    -0.077 C 
ATOM      7  C   UNL     1      16.444  28.194  29.733  1.00  0.00     0.039 C 
ATOM      8  C   UNL     1      18.475  29.546  29.446  1.00  0.00    -0.023 CG0
ATOM      9  G   UNL     1      19.760  30.037  28.823  1.00  0.00     0.000 G0
ENDBRANCH   5   6
ENDBRANCH   4   5
ENDBRANCH   2   4
BRANCH   1  10
ATOM     10  C   UNL     1      21.015  26.857  29.599  1.00  0.00     0.111 C 
BRANCH  10  11
ATOM     11  C   UNL     1      21.572  28.170  29.109  1.00  0.00     0.163 C 
ATOM     12  O   UNL     1      22.512  28.129  28.269  1.00  0.00    -0.294 OA
BRANCH  11  13
ATOM     13  C   UNL     1      21.015  29.497  29.536  1.00  0.00    -0.002 C 
ATOM     14  C   UNL     1      21.579  30.190  30.574  1.00  0.00    -0.069 C 
ATOM     15  C   UNL     1      20.980  31.482  31.088  1.00  0.00     0.039 C 
ATOM     16  C   UNL     1      22.862  29.732  31.234  1.00  0.00     0.039 C 
BRANCH  13  17
ATOM     17  C   UNL     1      19.773  30.035  28.829  1.00  0.00     0.066 CG0
ATOM     18  G   UNL     1      18.496  29.536  29.462  1.00  0.00     0.000 G0
ENDBRANCH  13  17
ENDBRANCH  11  13
ENDBRANCH  10  11
ENDBRANCH   1  10
TORSDOF 0
ENDMDL
MODEL 4
REMARK VINA RESULT:    -3.622      2.219      4.142
REMARK INTER + INTRA:          -4.863
REMARK INTER:                  -5.123
REMARK INTRA:                   0.261
REMARK UNBOUND:                 0.242
REMARK SMILES CC1=CCC(=C(C)C)C(=O)CC(C)=CCC1
REMARK SMILES IDX 12 1 14 2 13 3 15 4 16 5 2 6 1 7 3 8 11 10 9 11 10 12 5 13
REMARK SMILES IDX 6 14 7 15 8 16 4 17
REMARK H PARENT
REMARK Flexibility Score: 60.00
ROOT
ATOM      1  C   UNL     1      21.696  30.079  30.011  1.00  0.00    -0.070 C 
ATOM      2  C   UNL     1      21.799  28.781  29.624  1.00  0.00    -0.027 C 
ATOM      3  C   UNL     1      22.698  30.577  31.025  1.00  0.00     0.039 C 
ENDROOT
BRANCH   2   4
ATOM      4  C   UNL     1      20.849  28.048  28.705  1.00  0.00     0.032 C 
BRANCH   4   5
ATOM      5  C   UNL     1      19.653  27.427  29.439  1.00  0.00     0.034 C 
BRANCH   5   6
ATOM      6  C   UNL     1      18.356  27.854  28.782  1.00  0.00    -0.077 C 
ATOM      7  C   UNL     1      17.921  27.141  27.526  1.00  0.00     0.039 C 
ATOM      8  C   UNL     1      17.526  28.788  29.306  1.00  0.00    -0.023 CG0
ATOM      9  G   UNL     1      17.796  29.613  30.541  1.00  0.00     0.000 G0
ENDBRANCH   5   6
ENDBRANCH   4   5
ENDBRANCH   2   4
BRANCH   1  10
ATOM     10  C   UNL     1      20.697  31.076  29.434  1.00  0.00     0.111 C 
BRANCH  10  11
ATOM     11  C   UNL     1      19.607  31.478  30.396  1.00  0.00     0.163 C 
ATOM     12  O   UNL     1      19.924  32.233  31.355  1.00  0.00    -0.294 OA
BRANCH  11  13
ATOM     13  C   UNL     1      18.175  31.063  30.219  1.00  0.00    -0.002 C 
ATOM     14  C   UNL     1      17.231  31.968  29.812  1.00  0.00    -0.069 C 
ATOM     15  C   UNL     1      15.766  31.601  29.718  1.00  0.00     0.039 C 
ATOM     16  C   UNL     1      17.605  33.371  29.383  1.00  0.00     0.039 C 
BRANCH  13  17
ATOM     17  C   UNL     1      17.779  29.627  30.556  1.00  0.00     0.066 CG0
ATOM     18  G   UNL     1      17.521  28.801  29.318  1.00  0.00     0.000 G0
ENDBRANCH  13  17
ENDBRANCH  11  13
ENDBRANCH  10  11
ENDBRANCH   1  10
TORSDOF 0
ENDMDL
MODEL 5
REMARK VINA RESULT:    -3.593      1.498      2.644
REMARK INTER + INTRA:          -4.821
REMARK INTER:                  -5.045
REMARK INTRA:                   0.224
REMARK UNBOUND:                 0.242
REMARK SMILES CC1=CCC(=C(C)C)C(=O)CC(C)=CCC1
REMARK SMILES IDX 12 1 14 2 13 3 15 4 16 5 2 6 1 7 3 8 11 10 9 11 10 12 5 13
REMARK SMILES IDX 6 14 7 15 8 16 4 17
REMARK H PARENT
REMARK Flexibility Score: 60.00
ROOT
ATOM      1  C   UNL     1      20.594  25.786  28.123  1.00  0.00    -0.070 C 
ATOM      2  C   UNL     1      21.933  26.000  28.197  1.00  0.00    -0.027 C 
ATOM      3  C   UNL     1      20.115  24.755  27.129  1.00  0.00     0.039 C 
ENDROOT
BRANCH   2   4
ATOM      4  C   UNL     1      22.621  27.048  29.041  1.00  0.00     0.032 C 
BRANCH   4   5
ATOM      5  C   UNL     1      22.339  28.483  28.577  1.00  0.00     0.034 C 
BRANCH   5   6
ATOM      6  C   UNL     1      21.833  29.318  29.735  1.00  0.00    -0.077 C 
ATOM      7  C   UNL     1      22.724  29.487  30.939  1.00  0.00     0.039 C 
ATOM      8  C   UNL     1      20.654  29.986  29.714  1.00  0.00    -0.023 CG0
ATOM      9  G   UNL     1      19.628  29.928  28.608  1.00  0.00     0.000 G0
ENDBRANCH   5   6
ENDBRANCH   4   5
ENDBRANCH   2   4
BRANCH   1  10
ATOM     10  C   UNL     1      19.561  26.453  29.026  1.00  0.00     0.111 C 
BRANCH  10  11
ATOM     11  C   UNL     1      18.715  27.488  28.328  1.00  0.00     0.163 C 
ATOM     12  O   UNL     1      18.109  27.137  27.279  1.00  0.00    -0.294 OA
BRANCH  11  13
ATOM     13  C   UNL     1      18.529  28.878  28.863  1.00  0.00    -0.002 C 
ATOM     14  C   UNL     1      17.384  29.222  29.531  1.00  0.00    -0.069 C 
ATOM     15  C   UNL     1      17.129  30.640  29.995  1.00  0.00     0.039 C 
ATOM     16  C   UNL     1      16.331  28.196  29.888  1.00  0.00     0.039 C 
BRANCH  13  17
ATOM     17  C   UNL     1      19.616  29.919  28.600  1.00  0.00     0.066 CG0
ATOM     18  G   UNL     1      20.641  29.965  29.708  1.00  0.00     0.000 G0
ENDBRANCH  13  17
ENDBRANCH  11  13
ENDBRANCH  10  11
ENDBRANCH   1  10
TORSDOF 0
ENDMDL
MODEL 6
REMARK VINA RESULT:    -3.440      2.192      3.241
REMARK INTER + INTRA:          -4.605
REMARK INTER:                  -4.850
REMARK INTRA:                   0.245
REMARK UNBOUND:                 0.242
REMARK SMILES CC1=CCC(=C(C)C)C(=O)CC(C)=CCC1
REMARK SMILES IDX 12 1 14 2 13 3 15 4 16 5 2 6 1 7 3 8 11 10 9 11 10 12 5 13
REMARK SMILES IDX 6 14 7 15 8 16 4 17
REMARK H PARENT
REMARK Flexibility Score: 60.00
ROOT
ATOM      1  C   UNL     1      16.264  28.957  30.013  1.00  0.00    -0.070 C 
ATOM      2  C   UNL     1      16.673  28.147  29.002  1.00  0.00    -0.027 C 
ATOM      3  C   UNL     1      14.917  29.622  29.863  1.00  0.00     0.039 C 
ENDROOT
BRANCH   2   4
ATOM      4  C   UNL     1      18.017  27.466  28.896  1.00  0.00     0.032 C 
BRANCH   4   5
ATOM      5  C   UNL     1      19.007  28.214  27.994  1.00  0.00     0.034 C 
BRANCH   5   6
ATOM      6  C   UNL     1      20.071  28.893  28.833  1.00  0.00    -0.077 C 
ATOM      7  C   UNL     1      21.304  28.107  29.198  1.00  0.00     0.039 C 
ATOM      8  C   UNL     1      20.009  30.194  29.205  1.00  0.00    -0.023 CG0
ATOM      9  G   UNL     1      18.854  31.132  28.946  1.00  0.00     0.000 G0
ENDBRANCH   5   6
ENDBRANCH   4   5
ENDBRANCH   2   4
BRANCH   1  10
ATOM     10  C   UNL     1      17.034  29.172  31.313  1.00  0.00     0.111 C 
BRANCH  10  11
ATOM     11  C   UNL     1      17.999  30.330  31.268  1.00  0.00     0.163 C 
ATOM     12  O   UNL     1      18.879  30.392  32.170  1.00  0.00    -0.294 OA
BRANCH  11  13
ATOM     13  C   UNL     1      17.984  31.357  30.173  1.00  0.00    -0.002 C 
ATOM     14  C   UNL     1      17.163  32.450  30.252  1.00  0.00    -0.069 C 
ATOM     15  C   UNL     1      17.057  33.449  29.120  1.00  0.00     0.039 C 
ATOM     16  C   UNL     1      16.354  32.751  31.496  1.00  0.00     0.039 C 
BRANCH  13  17
ATOM     17  C   UNL     1      18.859  31.131  28.942  1.00  0.00     0.066 CG0
ATOM     18  G   UNL     1      19.999  30.181  29.218  1.00  0.00     0.000 G0
ENDBRANCH  13  17
ENDBRANCH  11  13
ENDBRANCH  10  11
ENDBRANCH   1  10
TORSDOF 0
ENDMDL
MODEL 7
REMARK VINA RESULT:    -3.377      1.981      2.922
REMARK INTER + INTRA:          -4.517
REMARK INTER:                  -4.742
REMARK INTRA:                   0.225
REMARK UNBOUND:                 0.242
REMARK SMILES CC1=CCC(=C(C)C)C(=O)CC(C)=CCC1
REMARK SMILES IDX 12 1 14 2 13 3 15 4 16 5 2 6 1 7 3 8 11 10 9 11 10 12 5 13
REMARK SMILES IDX 6 14 7 15 8 16 4 17
REMARK H PARENT
REMARK Flexibility Score: 60.00
ROOT
ATOM      1  C   UNL     1      19.411  28.373  28.912  1.00  0.00    -0.070 C 
ATOM      2  C   UNL     1      20.747  28.229  28.717  1.00  0.00    -0.027 C 
ATOM      3  C   UNL     1      18.543  28.489  27.682  1.00  0.00     0.039 C 
ENDROOT
BRANCH   2   4
ATOM      4  C   UNL     1      21.806  28.197  29.795  1.00  0.00     0.032 C 
BRANCH   4   5
ATOM      5  C   UNL     1      22.579  29.515  29.926  1.00  0.00     0.034 C 
BRANCH   5   6
ATOM      6  C   UNL     1      22.182  30.232  31.200  1.00  0.00    -0.077 C 
ATOM      7  C   UNL     1      22.974  29.955  32.453  1.00  0.00     0.039 C 
ATOM      8  C   UNL     1      21.203  31.167  31.256  1.00  0.00    -0.023 CG0
ATOM      9  G   UNL     1      20.299  31.566  30.115  1.00  0.00     0.000 G0
ENDBRANCH   5   6
ENDBRANCH   4   5
ENDBRANCH   2   4
BRANCH   1  10
ATOM     10  C   UNL     1      18.728  28.344  30.276  1.00  0.00     0.111 C 
BRANCH  10  11
ATOM     11  C   UNL     1      18.715  29.676  30.982  1.00  0.00     0.163 C 
ATOM     12  O   UNL     1      18.605  29.670  32.239  1.00  0.00    -0.294 OA
BRANCH  11  13
ATOM     13  C   UNL     1      18.884  30.980  30.258  1.00  0.00    -0.002 C 
ATOM     14  C   UNL     1      17.808  31.611  29.693  1.00  0.00    -0.069 C 
ATOM     15  C   UNL     1      17.965  32.874  28.875  1.00  0.00     0.039 C 
ATOM     16  C   UNL     1      16.394  31.109  29.896  1.00  0.00     0.039 C 
BRANCH  13  17
ATOM     17  C   UNL     1      20.288  31.563  30.112  1.00  0.00     0.066 CG0
ATOM     18  G   UNL     1      21.193  31.165  31.254  1.00  0.00     0.000 G0
ENDBRANCH  13  17
ENDBRANCH  11  13
ENDBRANCH  10  11
ENDBRANCH   1  10
TORSDOF 0
ENDMDL
MODEL 8
REMARK VINA RESULT:    -3.369      1.530      3.891
REMARK INTER + INTRA:          -4.506
REMARK INTER:                  -4.933
REMARK INTRA:                   0.427
REMARK UNBOUND:                 0.242
REMARK SMILES CC1=CCC(=C(C)C)C(=O)CC(C)=CCC1
REMARK SMILES IDX 12 1 14 2 13 3 15 4 16 5 2 6 1 7 3 8 11 10 9 11 10 12 5 13
REMARK SMILES IDX 6 14 7 15 8 16 4 17
REMARK H PARENT
REMARK Flexibility Score: 60.00
ROOT
ATOM      1  C   UNL     1      18.173  27.819  28.613  1.00  0.00    -0.070 C 
ATOM      2  C   UNL     1      17.205  28.651  29.079  1.00  0.00    -0.027 C 
ATOM      3  C   UNL     1      17.782  26.385  28.350  1.00  0.00     0.039 C 
ENDROOT
BRANCH   2   4
ATOM      4  C   UNL     1      17.395  30.088  29.504  1.00  0.00     0.032 C 
BRANCH   4   5
ATOM      5  C   UNL     1      18.339  30.247  30.702  1.00  0.00     0.034 C 
BRANCH   5   6
ATOM      6  C   UNL     1      19.494  31.159  30.342  1.00  0.00    -0.077 C 
ATOM      7  C   UNL     1      19.181  32.552  29.855  1.00  0.00     0.039 C 
ATOM      8  C   UNL     1      20.795  30.818  30.509  1.00  0.00    -0.023 CG0
ATOM      9  G   UNL     1      21.301  29.472  30.969  1.00  0.00     0.000 G0
ENDBRANCH   5   6
ENDBRANCH   4   5
ENDBRANCH   2   4
BRANCH   1  10
ATOM     10  C   UNL     1      19.593  28.255  28.267  1.00  0.00     0.111 C 
BRANCH  10  11
ATOM     11  C   UNL     1      20.646  27.703  29.193  1.00  0.00     0.163 C 
ATOM     12  O   UNL     1      20.648  26.458  29.400  1.00  0.00    -0.294 OA
BRANCH  11  13
ATOM     13  C   UNL     1      21.708  28.561  29.818  1.00  0.00    -0.002 C 
ATOM     14  C   UNL     1      23.007  28.487  29.393  1.00  0.00    -0.069 C 
ATOM     15  C   UNL     1      24.112  29.269  30.069  1.00  0.00     0.039 C 
ATOM     16  C   UNL     1      23.405  27.659  28.190  1.00  0.00     0.039 C 
BRANCH  13  17
ATOM     17  C   UNL     1      21.323  29.479  30.977  1.00  0.00     0.066 CG0
ATOM     18  G   UNL     1      20.794  30.810  30.499  1.00  0.00     0.000 G0
ENDBRANCH  13  17
ENDBRANCH  11  13
ENDBRANCH  10  11
ENDBRANCH   1  10
TORSDOF 0
ENDMDL
MODEL 9
REMARK VINA RESULT:    -3.261      2.128      4.008
REMARK INTER + INTRA:          -4.353
REMARK INTER:                  -4.735
REMARK INTRA:                   0.382
REMARK UNBOUND:                 0.242
REMARK SMILES CC1=CCC(=C(C)C)C(=O)CC(C)=CCC1
REMARK SMILES IDX 12 1 14 2 13 3 15 4 16 5 2 6 1 7 3 8 11 10 9 11 10 12 5 13
REMARK SMILES IDX 6 14 7 15 8 16 4 17
REMARK H PARENT
REMARK Flexibility Score: 60.00
ROOT
ATOM      1  C   UNL     1      20.295  28.202  29.788  1.00  0.00    -0.070 C 
ATOM      2  C   UNL     1      21.521  28.650  30.163  1.00  0.00    -0.027 C 
ATOM      3  C   UNL     1      20.248  27.137  28.719  1.00  0.00     0.039 C 
ENDROOT
BRANCH   2   4
ATOM      4  C   UNL     1      21.799  29.775  31.133  1.00  0.00     0.032 C 
BRANCH   4   5
ATOM      5  C   UNL     1      21.796  31.160  30.473  1.00  0.00     0.034 C 
BRANCH   5   6
ATOM      6  C   UNL     1      20.770  32.056  31.139  1.00  0.00    -0.077 C 
ATOM      7  C   UNL     1      21.141  32.723  32.440  1.00  0.00     0.039 C 
ATOM      8  C   UNL     1      19.569  32.351  30.589  1.00  0.00    -0.023 CG0
ATOM      9  G   UNL     1      19.020  31.772  29.307  1.00  0.00     0.000 G0
ENDBRANCH   5   6
ENDBRANCH   4   5
ENDBRANCH   2   4
BRANCH   1  10
ATOM     10  C   UNL     1      18.981  28.643  30.425  1.00  0.00     0.111 C 
BRANCH  10  11
ATOM     11  C   UNL     1      18.053  29.364  29.480  1.00  0.00     0.163 C 
ATOM     12  O   UNL     1      17.414  28.668  28.645  1.00  0.00    -0.294 OA
BRANCH  11  13
ATOM     13  C   UNL     1      17.827  30.847  29.539  1.00  0.00    -0.002 C 
ATOM     14  C   UNL     1      16.573  31.355  29.753  1.00  0.00    -0.069 C 
ATOM     15  C   UNL     1      16.301  32.843  29.721  1.00  0.00     0.039 C 
ATOM     16  C   UNL     1      15.398  30.461  30.084  1.00  0.00     0.039 C 
BRANCH  13  17
ATOM     17  C   UNL     1      19.012  31.781  29.300  1.00  0.00     0.066 CG0
ATOM     18  G   UNL     1      19.559  32.350  30.587  1.00  0.00     0.000 G0
ENDBRANCH  13  17
ENDBRANCH  11  13
ENDBRANCH  10  11
ENDBRANCH   1  10
TORSDOF 0
ENDMDL
