MODEL 1
REMARK VINA RESULT:    -2.956      0.000      0.000
REMARK INTER + INTRA:          -4.977
REMARK INTER:                  -4.166
REMARK INTRA:                  -0.811
REMARK UNBOUND:                -0.811
REMARK SMILES CCCCCCCCC(=O)[O-]
REMARK SMILES IDX 6 1 7 2 8 3 9 4 10 5 11 6 5 7 4 8 3 9 2 10 1 11
REMARK H PARENT
REMARK Flexibility Score: inf
ROOT
ATOM      1  C   UNL     1      -3.652   7.254  40.384  1.00  0.00     0.000 C 
ENDROOT
BRANCH   1   2
ATOM      2  C   UNL     1      -2.378   8.056  40.090  1.00  0.00     0.006 C 
BRANCH   2   3
ATOM      3  C   UNL     1      -2.607   9.052  38.949  1.00  0.00     0.053 C 
BRANCH   3   4
ATOM      4  C   UNL     1      -1.770   8.690  37.764  1.00  0.00     0.041 C 
ATOM      5  O   UNL     1      -2.218   8.851  36.598  1.00  0.00    -0.550 OA
ATOM      6  O   UNL     1      -0.476   8.220  37.944  1.00  0.00    -0.550 OA
ENDBRANCH   3   4
ENDBRANCH   2   3
ENDBRANCH   1   2
BRANCH   1   7
ATOM      7  C   UNL     1      -3.510   5.803  39.909  1.00  0.00     0.000 C 
BRANCH   7   8
ATOM      8  C   UNL     1      -2.040   5.367  39.896  1.00  0.00    -0.000 C 
BRANCH   8   9
ATOM      9  C   UNL     1      -1.614   4.912  38.492  1.00  0.00    -0.000 C 
BRANCH   9  10
ATOM     10  C   UNL     1      -2.782   4.906  37.494  1.00  0.00    -0.003 C 
ATOM     11  C   UNL     1      -2.358   5.328  36.087  1.00  0.00     0.004 C 
ENDBRANCH   9  10
ENDBRANCH   8   9
ENDBRANCH   7   8
ENDBRANCH   1   7
TORSDOF 7
ENDMDL
MODEL 2
REMARK VINA RESULT:    -2.939      2.027      3.658
REMARK INTER + INTRA:          -4.952
REMARK INTER:                  -4.368
REMARK INTRA:                  -0.584
REMARK UNBOUND:                -0.811
REMARK SMILES CCCCCCCCC(=O)[O-]
REMARK SMILES IDX 6 1 7 2 8 3 9 4 10 5 11 6 5 7 4 8 3 9 2 10 1 11
REMARK H PARENT
REMARK Flexibility Score: inf
ROOT
ATOM      1  C   UNL     1      -2.017   8.897  37.544  1.00  0.00     0.000 C 
ENDROOT
BRANCH   1   2
ATOM      2  C   UNL     1      -1.569   7.447  37.323  1.00  0.00     0.006 C 
BRANCH   2   3
ATOM      3  C   UNL     1      -0.423   7.375  36.310  1.00  0.00     0.053 C 
BRANCH   3   4
ATOM      4  C   UNL     1       0.865   7.055  37.000  1.00  0.00     0.041 C 
ATOM      5  O   UNL     1       1.200   7.681  38.040  1.00  0.00    -0.550 OA
ATOM      6  O   UNL     1       1.675   6.033  36.521  1.00  0.00    -0.550 OA
ENDBRANCH   3   4
ENDBRANCH   2   3
ENDBRANCH   1   2
BRANCH   1   7
ATOM      7  C   UNL     1      -2.528   9.104  38.975  1.00  0.00     0.000 C 
BRANCH   7   8
ATOM      8  C   UNL     1      -1.747   8.238  39.970  1.00  0.00    -0.000 C 
BRANCH   8   9
ATOM      9  C   UNL     1      -2.643   7.800  41.139  1.00  0.00    -0.000 C 
BRANCH   9  10
ATOM     10  C   UNL     1      -3.978   7.205  40.668  1.00  0.00    -0.003 C 
ATOM     11  C   UNL     1      -3.851   5.747  40.223  1.00  0.00     0.004 C 
ENDBRANCH   9  10
ENDBRANCH   8   9
ENDBRANCH   7   8
ENDBRANCH   1   7
TORSDOF 7
ENDMDL
MODEL 3
REMARK VINA RESULT:    -2.934      1.302      2.459
REMARK INTER + INTRA:          -4.945
REMARK INTER:                  -4.194
REMARK INTRA:                  -0.751
REMARK UNBOUND:                -0.811
REMARK SMILES CCCCCCCCC(=O)[O-]
REMARK SMILES IDX 6 1 7 2 8 3 9 4 10 5 11 6 5 7 4 8 3 9 2 10 1 11
REMARK H PARENT
REMARK Flexibility Score: inf
ROOT
ATOM      1  C   UNL     1      -2.740   9.111  38.977  1.00  0.00     0.000 C 
ENDROOT
BRANCH   1   2
ATOM      2  C   UNL     1      -1.710   9.000  37.847  1.00  0.00     0.006 C 
BRANCH   2   3
ATOM      3  C   UNL     1      -0.470   8.229  38.307  1.00  0.00     0.053 C 
BRANCH   3   4
ATOM      4  C   UNL     1       0.103   7.435  37.176  1.00  0.00     0.041 C 
ATOM      5  O   UNL     1      -0.582   7.224  36.140  1.00  0.00    -0.550 OA
ATOM      6  O   UNL     1       1.409   6.969  37.245  1.00  0.00    -0.550 OA
ENDBRANCH   3   4
ENDBRANCH   2   3
ENDBRANCH   1   2
BRANCH   1   7
ATOM      7  C   UNL     1      -2.468   8.074  40.074  1.00  0.00     0.000 C 
BRANCH   7   8
ATOM      8  C   UNL     1      -3.772   7.432  40.562  1.00  0.00    -0.000 C 
BRANCH   8   9
ATOM      9  C   UNL     1      -3.827   5.944  40.185  1.00  0.00    -0.000 C 
BRANCH   9  10
ATOM     10  C   UNL     1      -2.515   5.446  39.560  1.00  0.00    -0.003 C 
ATOM     11  C   UNL     1      -2.678   5.030  38.098  1.00  0.00     0.004 C 
ENDBRANCH   9  10
ENDBRANCH   8   9
ENDBRANCH   7   8
ENDBRANCH   1   7
TORSDOF 7
ENDMDL
MODEL 4
REMARK VINA RESULT:    -2.902      1.706      3.334
REMARK INTER + INTRA:          -4.900
REMARK INTER:                  -4.301
REMARK INTRA:                  -0.599
REMARK UNBOUND:                -0.811
REMARK SMILES CCCCCCCCC(=O)[O-]
REMARK SMILES IDX 6 1 7 2 8 3 9 4 10 5 11 6 5 7 4 8 3 9 2 10 1 11
REMARK H PARENT
REMARK Flexibility Score: inf
ROOT
ATOM      1  C   UNL     1      -2.472   9.025  38.949  1.00  0.00     0.000 C 
ENDROOT
BRANCH   1   2
ATOM      2  C   UNL     1      -1.909   8.700  37.560  1.00  0.00     0.006 C 
BRANCH   2   3
ATOM      3  C   UNL     1      -1.073   7.417  37.593  1.00  0.00     0.053 C 
BRANCH   3   4
ATOM      4  C   UNL     1      -1.813   6.294  36.940  1.00  0.00     0.041 C 
ATOM      5  O   UNL     1      -2.354   6.461  35.814  1.00  0.00    -0.550 OA
ATOM      6  O   UNL     1      -1.867   5.048  37.550  1.00  0.00    -0.550 OA
ENDBRANCH   3   4
ENDBRANCH   2   3
ENDBRANCH   1   2
BRANCH   1   7
ATOM      7  C   UNL     1      -1.648   8.347  40.050  1.00  0.00     0.000 C 
BRANCH   7   8
ATOM      8  C   UNL     1      -2.550   7.836  41.179  1.00  0.00    -0.000 C 
BRANCH   8   9
ATOM      9  C   UNL     1      -3.894   7.337  40.625  1.00  0.00    -0.000 C 
BRANCH   9  10
ATOM     10  C   UNL     1      -3.892   5.827  40.344  1.00  0.00    -0.003 C 
ATOM     11  C   UNL     1      -3.880   4.988  41.622  1.00  0.00     0.004 C 
ENDBRANCH   9  10
ENDBRANCH   8   9
ENDBRANCH   7   8
ENDBRANCH   1   7
TORSDOF 7
ENDMDL
MODEL 5
REMARK VINA RESULT:    -2.898      2.230      3.280
REMARK INTER + INTRA:          -4.894
REMARK INTER:                  -4.056
REMARK INTRA:                  -0.839
REMARK UNBOUND:                -0.811
REMARK SMILES CCCCCCCCC(=O)[O-]
REMARK SMILES IDX 6 1 7 2 8 3 9 4 10 5 11 6 5 7 4 8 3 9 2 10 1 11
REMARK H PARENT
REMARK Flexibility Score: inf
ROOT
ATOM      1  C   UNL     1      -2.664   9.063  38.732  1.00  0.00     0.000 C 
ENDROOT
BRANCH   1   2
ATOM      2  C   UNL     1      -2.379   8.311  40.037  1.00  0.00     0.006 C 
BRANCH   2   3
ATOM      3  C   UNL     1      -3.623   7.560  40.522  1.00  0.00     0.053 C 
BRANCH   3   4
ATOM      4  C   UNL     1      -3.469   6.090  40.292  1.00  0.00     0.041 C 
ATOM      5  O   UNL     1      -2.345   5.541  40.434  1.00  0.00    -0.550 OA
ATOM      6  O   UNL     1      -4.577   5.318  39.969  1.00  0.00    -0.550 OA
ENDBRANCH   3   4
ENDBRANCH   2   3
ENDBRANCH   1   2
BRANCH   1   7
ATOM      7  C   UNL     1      -1.723   8.600  37.612  1.00  0.00     0.000 C 
BRANCH   7   8
ATOM      8  C   UNL     1      -0.658   7.637  38.150  1.00  0.00    -0.000 C 
BRANCH   8   9
ATOM      9  C   UNL     1      -0.671   6.313  37.371  1.00  0.00    -0.000 C 
BRANCH   9  10
ATOM     10  C   UNL     1      -1.967   6.111  36.572  1.00  0.00    -0.003 C 
ATOM     11  C   UNL     1      -2.652   4.780  36.884  1.00  0.00     0.004 C 
ENDBRANCH   9  10
ENDBRANCH   8   9
ENDBRANCH   7   8
ENDBRANCH   1   7
TORSDOF 7
ENDMDL
MODEL 6
REMARK VINA RESULT:    -2.799      2.714      4.116
REMARK INTER + INTRA:          -4.756
REMARK INTER:                  -3.970
REMARK INTRA:                  -0.786
REMARK UNBOUND:                -0.811
REMARK SMILES CCCCCCCCC(=O)[O-]
REMARK SMILES IDX 6 1 7 2 8 3 9 4 10 5 11 6 5 7 4 8 3 9 2 10 1 11
REMARK H PARENT
REMARK Flexibility Score: inf
ROOT
ATOM      1  C   UNL     1      -2.496   5.443  39.798  1.00  0.00     0.000 C 
ENDROOT
BRANCH   1   2
ATOM      2  C   UNL     1      -3.896   5.872  40.253  1.00  0.00     0.006 C 
BRANCH   2   3
ATOM      3  C   UNL     1      -3.904   7.338  40.695  1.00  0.00     0.053 C 
BRANCH   3   4
ATOM      4  C   UNL     1      -3.565   7.448  42.147  1.00  0.00     0.041 C 
ATOM      5  O   UNL     1      -4.350   6.986  43.018  1.00  0.00    -0.550 OA
ATOM      6  O   UNL     1      -2.361   8.018  42.539  1.00  0.00    -0.550 OA
ENDBRANCH   3   4
ENDBRANCH   2   3
ENDBRANCH   1   2
BRANCH   1   7
ATOM      7  C   UNL     1      -2.328   5.624  38.285  1.00  0.00     0.000 C 
BRANCH   7   8
ATOM      8  C   UNL     1      -1.233   6.652  37.971  1.00  0.00    -0.000 C 
BRANCH   8   9
ATOM      9  C   UNL     1      -1.846   8.015  37.615  1.00  0.00    -0.000 C 
BRANCH   9  10
ATOM     10  C   UNL     1      -1.435   9.121  38.599  1.00  0.00    -0.003 C 
ATOM     11  C   UNL     1      -0.452   8.630  39.663  1.00  0.00     0.004 C 
ENDBRANCH   9  10
ENDBRANCH   8   9
ENDBRANCH   7   8
ENDBRANCH   1   7
TORSDOF 7
ENDMDL
MODEL 7
REMARK VINA RESULT:    -2.785      2.541      3.884
REMARK INTER + INTRA:          -4.735
REMARK INTER:                  -4.144
REMARK INTRA:                  -0.591
REMARK UNBOUND:                -0.811
REMARK SMILES CCCCCCCCC(=O)[O-]
REMARK SMILES IDX 6 1 7 2 8 3 9 4 10 5 11 6 5 7 4 8 3 9 2 10 1 11
REMARK H PARENT
REMARK Flexibility Score: inf
ROOT
ATOM      1  C   UNL     1      -1.702   8.379  39.868  1.00  0.00     0.000 C 
ENDROOT
BRANCH   1   2
ATOM      2  C   UNL     1      -2.516   7.931  41.088  1.00  0.00     0.006 C 
BRANCH   2   3
ATOM      3  C   UNL     1      -3.847   7.305  40.660  1.00  0.00     0.053 C 
BRANCH   3   4
ATOM      4  C   UNL     1      -3.696   5.829  40.473  1.00  0.00     0.041 C 
ATOM      5  O   UNL     1      -3.907   5.044  41.435  1.00  0.00    -0.550 OA
ATOM      6  O   UNL     1      -3.367   5.317  39.225  1.00  0.00    -0.550 OA
ENDBRANCH   3   4
ENDBRANCH   2   3
ENDBRANCH   1   2
BRANCH   1   7
ATOM      7  C   UNL     1      -2.585   9.123  38.859  1.00  0.00     0.000 C 
BRANCH   7   8
ATOM      8  C   UNL     1      -2.021   9.002  37.438  1.00  0.00    -0.000 C 
BRANCH   8   9
ATOM      9  C   UNL     1      -1.565   7.564  37.149  1.00  0.00    -0.000 C 
BRANCH   9  10
ATOM     10  C   UNL     1      -0.233   7.510  36.386  1.00  0.00    -0.003 C 
ATOM     11  C   UNL     1       0.981   7.668  37.303  1.00  0.00     0.004 C 
ENDBRANCH   9  10
ENDBRANCH   8   9
ENDBRANCH   7   8
ENDBRANCH   1   7
TORSDOF 7
ENDMDL
MODEL 8
REMARK VINA RESULT:    -2.704      9.353     11.454
REMARK INTER + INTRA:          -4.621
REMARK INTER:                  -4.112
REMARK INTRA:                  -0.509
REMARK UNBOUND:                -0.811
REMARK SMILES CCCCCCCCC(=O)[O-]
REMARK SMILES IDX 6 1 7 2 8 3 9 4 10 5 11 6 5 7 4 8 3 9 2 10 1 11
REMARK H PARENT
REMARK Flexibility Score: inf
ROOT
ATOM      1  C   UNL     1       1.496   7.081  27.698  1.00  0.00     0.000 C 
ENDROOT
BRANCH   1   2
ATOM      2  C   UNL     1       1.413   6.326  29.030  1.00  0.00     0.006 C 
BRANCH   2   3
ATOM      3  C   UNL     1       1.325   7.300  30.209  1.00  0.00     0.053 C 
BRANCH   3   4
ATOM      4  C   UNL     1       1.101   6.556  31.486  1.00  0.00     0.041 C 
ATOM      5  O   UNL     1      -0.037   6.091  31.758  1.00  0.00    -0.550 OA
ATOM      6  O   UNL     1       2.161   6.334  32.356  1.00  0.00    -0.550 OA
ENDBRANCH   3   4
ENDBRANCH   2   3
ENDBRANCH   1   2
BRANCH   1   7
ATOM      7  C   UNL     1       2.151   8.455  27.883  1.00  0.00     0.000 C 
BRANCH   7   8
ATOM      8  C   UNL     1       3.553   8.486  27.261  1.00  0.00    -0.000 C 
BRANCH   8   9
ATOM      9  C   UNL     1       3.757   7.299  26.307  1.00  0.00    -0.000 C 
BRANCH   9  10
ATOM     10  C   UNL     1       5.058   6.533  26.589  1.00  0.00    -0.003 C 
ATOM     11  C   UNL     1       4.850   5.019  26.657  1.00  0.00     0.004 C 
ENDBRANCH   9  10
ENDBRANCH   8   9
ENDBRANCH   7   8
ENDBRANCH   1   7
TORSDOF 7
ENDMDL
MODEL 9
REMARK VINA RESULT:    -2.700      3.195      4.765
REMARK INTER + INTRA:          -4.615
REMARK INTER:                  -3.796
REMARK INTRA:                  -0.819
REMARK UNBOUND:                -0.811
REMARK SMILES CCCCCCCCC(=O)[O-]
REMARK SMILES IDX 6 1 7 2 8 3 9 4 10 5 11 6 5 7 4 8 3 9 2 10 1 11
REMARK H PARENT
REMARK Flexibility Score: inf
ROOT
ATOM      1  C   UNL     1      -2.523   6.027  39.177  1.00  0.00     0.000 C 
ENDROOT
BRANCH   1   2
ATOM      2  C   UNL     1      -3.614   5.893  40.245  1.00  0.00     0.006 C 
BRANCH   2   3
ATOM      3  C   UNL     1      -3.952   7.255  40.860  1.00  0.00     0.053 C 
BRANCH   3   4
ATOM      4  C   UNL     1      -3.892   7.185  42.352  1.00  0.00     0.041 C 
ATOM      5  O   UNL     1      -3.181   6.312  42.917  1.00  0.00    -0.550 OA
ATOM      6  O   UNL     1      -4.583   8.112  43.121  1.00  0.00    -0.550 OA
ENDBRANCH   3   4
ENDBRANCH   2   3
ENDBRANCH   1   2
BRANCH   1   7
ATOM      7  C   UNL     1      -2.117   7.493  38.985  1.00  0.00     0.000 C 
BRANCH   7   8
ATOM      8  C   UNL     1      -0.597   7.664  39.100  1.00  0.00    -0.000 C 
BRANCH   8   9
ATOM      9  C   UNL     1      -0.245   8.850  40.010  1.00  0.00    -0.000 C 
BRANCH   9  10
ATOM     10  C   UNL     1      -0.471   8.540  41.498  1.00  0.00    -0.003 C 
ATOM     11  C   UNL     1       0.146   7.207  41.924  1.00  0.00     0.004 C 
ENDBRANCH   9  10
ENDBRANCH   8   9
ENDBRANCH   7   8
ENDBRANCH   1   7
TORSDOF 7
ENDMDL
