MODEL 1
REMARK VINA RESULT:    -3.493      0.000      0.000
REMARK INTER + INTRA:          -4.214
REMARK INTER:                  -4.004
REMARK INTRA:                  -0.210
REMARK UNBOUND:                -0.210
REMARK SMILES CC=Cc1ccc(O)c(OC)c1
REMARK SMILES IDX 4 1 12 2 9 3 7 4 6 5 5 6 3 7 1 8 2 9 10 10 11 11 8 12
REMARK H PARENT 8 13
REMARK Flexibility Score: inf
ROOT
ATOM      1  C   UNL     1     147.538 140.832 137.732  1.00  0.00    -0.022 A 
ATOM      2  C   UNL     1     148.465 140.891 138.782  1.00  0.00     0.058 A 
ATOM      3  C   UNL     1     148.488 139.895 139.779  1.00  0.00     0.161 A 
ATOM      4  C   UNL     1     147.579 138.823 139.698  1.00  0.00     0.157 A 
ATOM      5  C   UNL     1     146.675 138.751 138.635  1.00  0.00     0.051 A 
ATOM      6  C   UNL     1     146.658 139.742 137.652  1.00  0.00     0.012 A 
ENDROOT
BRANCH   1   7
ATOM      7  C   UNL     1     147.560 141.878 136.690  1.00  0.00     0.003 C 
ATOM      8  C   UNL     1     149.348 140.775 135.318  1.00  0.00     0.035 C 
ATOM      9  C   UNL     1     148.375 141.874 135.626  1.00  0.00    -0.030 C 
ENDBRANCH   1   7
BRANCH   3  10
ATOM     10  O   UNL     1     149.393 139.937 140.852  1.00  0.00    -0.493 OA
ATOM     11  C   UNL     1     149.727 141.113 141.580  1.00  0.00     0.278 C 
ENDBRANCH   3  10
BRANCH   4  12
ATOM     12  O   UNL     1     147.564 137.817 140.663  1.00  0.00    -0.504 OA
ATOM     13  H   UNL     1     146.764 137.209 140.798  1.00  0.00     0.293 HD
ENDBRANCH   4  12
TORSDOF 3
ENDMDL
MODEL 2
REMARK VINA RESULT:    -3.443      9.534     10.514
REMARK INTER + INTRA:          -4.157
REMARK INTER:                  -3.942
REMARK INTRA:                  -0.215
REMARK UNBOUND:                -0.210
REMARK SMILES CC=Cc1ccc(O)c(OC)c1
REMARK SMILES IDX 4 1 12 2 9 3 7 4 6 5 5 6 3 7 1 8 2 9 10 10 11 11 8 12
REMARK H PARENT 8 13
REMARK Flexibility Score: inf
ROOT
ATOM      1  C   UNL     1     140.975 134.045 137.695  1.00  0.00    -0.022 A 
ATOM      2  C   UNL     1     141.034 133.096 138.726  1.00  0.00     0.058 A 
ATOM      3  C   UNL     1     140.050 133.068 139.734  1.00  0.00     0.161 A 
ATOM      4  C   UNL     1     138.990 133.993 139.685  1.00  0.00     0.157 A 
ATOM      5  C   UNL     1     138.918 134.918 138.640  1.00  0.00     0.051 A 
ATOM      6  C   UNL     1     139.897 134.941 137.646  1.00  0.00     0.012 A 
ENDROOT
BRANCH   1   7
ATOM      7  C   UNL     1     142.008 134.028 136.639  1.00  0.00     0.003 C 
ATOM      8  C   UNL     1     140.858 132.290 135.242  1.00  0.00     0.035 C 
ATOM      9  C   UNL     1     141.977 133.238 135.558  1.00  0.00    -0.030 C 
ENDBRANCH   1   7
BRANCH   3  10
ATOM     10  O   UNL     1     140.092 132.141 140.789  1.00  0.00    -0.493 OA
ATOM     11  C   UNL     1     141.240 131.879 141.588  1.00  0.00     0.278 C 
ENDBRANCH   3  10
BRANCH   4  12
ATOM     12  O   UNL     1     137.996 134.003 140.663  1.00  0.00    -0.504 OA
ATOM     13  H   UNL     1     137.119 133.507 140.548  1.00  0.00     0.293 HD
ENDBRANCH   4  12
TORSDOF 3
ENDMDL
MODEL 3
REMARK VINA RESULT:    -3.442      9.689     10.698
REMARK INTER + INTRA:          -4.155
REMARK INTER:                  -3.962
REMARK INTRA:                  -0.194
REMARK UNBOUND:                -0.210
REMARK SMILES CC=Cc1ccc(O)c(OC)c1
REMARK SMILES IDX 4 1 12 2 9 3 7 4 6 5 5 6 3 7 1 8 2 9 10 10 11 11 8 12
REMARK H PARENT 8 13
REMARK Flexibility Score: inf
ROOT
ATOM      1  C   UNL     1     140.776 147.710 137.649  1.00  0.00    -0.022 A 
ATOM      2  C   UNL     1     140.705 148.593 138.736  1.00  0.00     0.058 A 
ATOM      3  C   UNL     1     141.666 148.545 139.765  1.00  0.00     0.161 A 
ATOM      4  C   UNL     1     142.716 147.611 139.681  1.00  0.00     0.157 A 
ATOM      5  C   UNL     1     142.800 146.751 138.582  1.00  0.00     0.051 A 
ATOM      6  C   UNL     1     141.844 146.804 137.567  1.00  0.00     0.012 A 
ENDROOT
BRANCH   1   7
ATOM      7  C   UNL     1     139.767 147.806 136.574  1.00  0.00     0.003 C 
ATOM      8  C   UNL     1     140.893 149.713 135.394  1.00  0.00     0.035 C 
ATOM      9  C   UNL     1     139.799 148.705 135.581  1.00  0.00    -0.030 C 
ENDBRANCH   1   7
BRANCH   3  10
ATOM     10  O   UNL     1     141.611 149.404 140.875  1.00  0.00    -0.493 OA
ATOM     11  C   UNL     1     140.438 149.663 141.638  1.00  0.00     0.278 C 
ENDBRANCH   3  10
BRANCH   4  12
ATOM     12  O   UNL     1     143.687 147.526 140.678  1.00  0.00    -0.504 OA
ATOM     13  H   UNL     1     143.550 146.980 141.521  1.00  0.00     0.293 HD
ENDBRANCH   4  12
TORSDOF 3
ENDMDL
MODEL 4
REMARK VINA RESULT:    -3.424     13.826     15.093
REMARK INTER + INTRA:          -4.135
REMARK INTER:                  -3.928
REMARK INTRA:                  -0.207
REMARK UNBOUND:                -0.210
REMARK SMILES CC=Cc1ccc(O)c(OC)c1
REMARK SMILES IDX 4 1 12 2 9 3 7 4 6 5 5 6 3 7 1 8 2 9 10 10 11 11 8 12
REMARK H PARENT 8 13
REMARK Flexibility Score: inf
ROOT
ATOM      1  C   UNL     1     133.930 140.828 137.663  1.00  0.00    -0.022 A 
ATOM      2  C   UNL     1     133.050 140.739 138.750  1.00  0.00     0.058 A 
ATOM      3  C   UNL     1     133.074 141.706 139.776  1.00  0.00     0.161 A 
ATOM      4  C   UNL     1     133.981 142.778 139.687  1.00  0.00     0.157 A 
ATOM      5  C   UNL     1     134.837 142.880 138.587  1.00  0.00     0.051 A 
ATOM      6  C   UNL     1     134.809 141.918 137.576  1.00  0.00     0.012 A 
ENDROOT
BRANCH   1   7
ATOM      7  C   UNL     1     133.859 139.813 136.592  1.00  0.00     0.003 C 
ATOM      8  C   UNL     1     131.989 140.938 135.354  1.00  0.00     0.035 C 
ATOM      9  C   UNL     1     132.988 139.841 135.575  1.00  0.00    -0.030 C 
ENDBRANCH   1   7
BRANCH   3  10
ATOM     10  O   UNL     1     132.217 141.633 140.886  1.00  0.00    -0.493 OA
ATOM     11  C   UNL     1     131.946 140.445 141.621  1.00  0.00     0.278 C 
ENDBRANCH   3  10
BRANCH   4  12
ATOM     12  O   UNL     1     134.041 143.756 140.680  1.00  0.00    -0.504 OA
ATOM     13  H   UNL     1     133.907 143.539 141.661  1.00  0.00     0.293 HD
ENDBRANCH   4  12
TORSDOF 3
ENDMDL
MODEL 5
REMARK VINA RESULT:    -3.399      6.316      8.118
REMARK INTER + INTRA:          -4.106
REMARK INTER:                  -3.865
REMARK INTRA:                  -0.241
REMARK UNBOUND:                -0.210
REMARK SMILES CC=Cc1ccc(O)c(OC)c1
REMARK SMILES IDX 4 1 12 2 9 3 7 4 6 5 5 6 3 7 1 8 2 9 10 10 11 11 8 12
REMARK H PARENT 8 13
REMARK Flexibility Score: inf
ROOT
ATOM      1  C   UNL     1     140.897 139.599 142.134  1.00  0.00    -0.022 A 
ATOM      2  C   UNL     1     141.247 139.561 140.777  1.00  0.00     0.058 A 
ATOM      3  C   UNL     1     142.600 139.501 140.385  1.00  0.00     0.161 A 
ATOM      4  C   UNL     1     143.599 139.458 141.375  1.00  0.00     0.157 A 
ATOM      5  C   UNL     1     143.246 139.466 142.727  1.00  0.00     0.051 A 
ATOM      6  C   UNL     1     141.904 139.527 143.107  1.00  0.00     0.012 A 
ENDROOT
BRANCH   1   7
ATOM      7  C   UNL     1     139.468 139.635 142.509  1.00  0.00     0.003 C 
ATOM      8  C   UNL     1     139.351 142.137 142.661  1.00  0.00     0.035 C 
ATOM      9  C   UNL     1     138.778 140.755 142.766  1.00  0.00    -0.030 C 
ENDBRANCH   1   7
BRANCH   3  10
ATOM     10  O   UNL     1     142.983 139.480 139.034  1.00  0.00    -0.493 OA
ATOM     11  C   UNL     1     142.260 138.822 138.000  1.00  0.00     0.278 C 
ENDBRANCH   3  10
BRANCH   4  12
ATOM     12  O   UNL     1     144.950 139.400 141.033  1.00  0.00    -0.504 OA
ATOM     13  H   UNL     1     145.419 138.526 140.825  1.00  0.00     0.293 HD
ENDBRANCH   4  12
TORSDOF 3
ENDMDL
MODEL 6
REMARK VINA RESULT:    -3.396      8.521      9.786
REMARK INTER + INTRA:          -4.103
REMARK INTER:                  -3.862
REMARK INTRA:                  -0.241
REMARK UNBOUND:                -0.210
REMARK SMILES CC=Cc1ccc(O)c(OC)c1
REMARK SMILES IDX 4 1 12 2 9 3 7 4 6 5 5 6 3 7 1 8 2 9 10 10 11 11 8 12
REMARK H PARENT 8 13
REMARK Flexibility Score: inf
ROOT
ATOM      1  C   UNL     1     140.725 142.057 142.069  1.00  0.00    -0.022 A 
ATOM      2  C   UNL     1     140.378 142.111 140.712  1.00  0.00     0.058 A 
ATOM      3  C   UNL     1     139.026 142.143 140.316  1.00  0.00     0.161 A 
ATOM      4  C   UNL     1     138.022 142.140 141.302  1.00  0.00     0.157 A 
ATOM      5  C   UNL     1     138.371 142.115 142.655  1.00  0.00     0.051 A 
ATOM      6  C   UNL     1     139.712 142.083 143.039  1.00  0.00     0.012 A 
ENDROOT
BRANCH   1   7
ATOM      7  C   UNL     1     142.152 142.052 142.449  1.00  0.00     0.003 C 
ATOM      8  C   UNL     1     142.324 139.553 142.603  1.00  0.00     0.035 C 
ATOM      9  C   UNL     1     142.866 140.947 142.709  1.00  0.00    -0.030 C 
ENDBRANCH   1   7
BRANCH   3  10
ATOM     10  O   UNL     1     138.647 142.179 138.964  1.00  0.00    -0.493 OA
ATOM     11  C   UNL     1     139.378 142.843 137.939  1.00  0.00     0.278 C 
ENDBRANCH   3  10
BRANCH   4  12
ATOM     12  O   UNL     1     136.671 142.168 140.956  1.00  0.00    -0.504 OA
ATOM     13  H   UNL     1     136.277 141.538 140.267  1.00  0.00     0.293 HD
ENDBRANCH   4  12
TORSDOF 3
ENDMDL
MODEL 7
REMARK VINA RESULT:    -3.380      1.801      3.260
REMARK INTER + INTRA:          -4.084
REMARK INTER:                  -3.869
REMARK INTRA:                  -0.215
REMARK UNBOUND:                -0.210
REMARK SMILES CC=Cc1ccc(O)c(OC)c1
REMARK SMILES IDX 4 1 12 2 9 3 7 4 6 5 5 6 3 7 1 8 2 9 10 10 11 11 8 12
REMARK H PARENT 8 13
REMARK Flexibility Score: inf
ROOT
ATOM      1  C   UNL     1     148.564 140.638 138.687  1.00  0.00    -0.022 A 
ATOM      2  C   UNL     1     149.324 139.460 138.661  1.00  0.00     0.058 A 
ATOM      3  C   UNL     1     150.089 139.073 139.780  1.00  0.00     0.161 A 
ATOM      4  C   UNL     1     150.066 139.874 140.937  1.00  0.00     0.157 A 
ATOM      5  C   UNL     1     149.285 141.033 140.970  1.00  0.00     0.051 A 
ATOM      6  C   UNL     1     148.531 141.410 139.857  1.00  0.00     0.012 A 
ENDROOT
BRANCH   1   7
ATOM      7  C   UNL     1     147.753 140.998 137.506  1.00  0.00     0.003 C 
ATOM      8  C   UNL     1     145.712 139.747 138.259  1.00  0.00     0.035 C 
ATOM      9  C   UNL     1     146.493 140.591 137.297  1.00  0.00    -0.030 C 
ENDBRANCH   1   7
BRANCH   3  10
ATOM     10  O   UNL     1     150.874 137.908 139.778  1.00  0.00    -0.493 OA
ATOM     11  C   UNL     1     151.070 137.070 138.645  1.00  0.00     0.278 C 
ENDBRANCH   3  10
BRANCH   4  12
ATOM     12  O   UNL     1     150.810 139.532 142.066  1.00  0.00    -0.504 OA
ATOM     13  H   UNL     1     151.769 139.210 142.004  1.00  0.00     0.293 HD
ENDBRANCH   4  12
TORSDOF 3
ENDMDL
MODEL 8
REMARK VINA RESULT:    -3.353      6.887      8.425
REMARK INTER + INTRA:          -4.054
REMARK INTER:                  -3.815
REMARK INTRA:                  -0.238
REMARK UNBOUND:                -0.210
REMARK SMILES CC=Cc1ccc(O)c(OC)c1
REMARK SMILES IDX 4 1 12 2 9 3 7 4 6 5 5 6 3 7 1 8 2 9 10 10 11 11 8 12
REMARK H PARENT 8 13
REMARK Flexibility Score: inf
ROOT
ATOM      1  C   UNL     1     142.062 140.883 142.056  1.00  0.00    -0.022 A 
ATOM      2  C   UNL     1     142.103 141.212 140.694  1.00  0.00     0.058 A 
ATOM      3  C   UNL     1     142.120 142.559 140.279  1.00  0.00     0.161 A 
ATOM      4  C   UNL     1     142.116 143.576 141.252  1.00  0.00     0.157 A 
ATOM      5  C   UNL     1     142.105 143.245 142.610  1.00  0.00     0.051 A 
ATOM      6  C   UNL     1     142.087 141.909 143.013  1.00  0.00     0.012 A 
ENDROOT
BRANCH   1   7
ATOM      7  C   UNL     1     142.073 139.461 142.455  1.00  0.00     0.003 C 
ATOM      8  C   UNL     1     139.577 139.268 142.627  1.00  0.00     0.035 C 
ATOM      9  C   UNL     1     140.977 138.741 142.731  1.00  0.00    -0.030 C 
ENDBRANCH   1   7
BRANCH   3  10
ATOM     10  O   UNL     1     142.142 142.920 138.922  1.00  0.00    -0.493 OA
ATOM     11  C   UNL     1     142.684 142.114 137.882  1.00  0.00     0.278 C 
ENDBRANCH   3  10
BRANCH   4  12
ATOM     12  O   UNL     1     142.129 144.922 140.888  1.00  0.00    -0.504 OA
ATOM     13  H   UNL     1     142.974 145.391 140.583  1.00  0.00     0.293 HD
ENDBRANCH   4  12
TORSDOF 3
ENDMDL
MODEL 9
REMARK VINA RESULT:    -3.349      8.732      9.703
REMARK INTER + INTRA:          -4.048
REMARK INTER:                  -3.810
REMARK INTRA:                  -0.238
REMARK UNBOUND:                -0.210
REMARK SMILES CC=Cc1ccc(O)c(OC)c1
REMARK SMILES IDX 4 1 12 2 9 3 7 4 6 5 5 6 3 7 1 8 2 9 10 10 11 11 8 12
REMARK H PARENT 8 13
REMARK Flexibility Score: inf
ROOT
ATOM      1  C   UNL     1     139.171 140.308 141.944  1.00  0.00    -0.022 A 
ATOM      2  C   UNL     1     139.143 140.270 140.542  1.00  0.00     0.058 A 
ATOM      3  C   UNL     1     139.528 139.106 139.847  1.00  0.00     0.161 A 
ATOM      4  C   UNL     1     139.921 137.969 140.577  1.00  0.00     0.157 A 
ATOM      5  C   UNL     1     139.920 138.000 141.974  1.00  0.00     0.051 A 
ATOM      6  C   UNL     1     139.540 139.157 142.656  1.00  0.00     0.012 A 
ENDROOT
BRANCH   1   7
ATOM      7  C   UNL     1     138.735 141.535 142.641  1.00  0.00     0.003 C 
ATOM      8  C   UNL     1     141.053 142.459 142.913  1.00  0.00     0.035 C 
ATOM      9  C   UNL     1     139.564 142.486 143.094  1.00  0.00    -0.030 C 
ENDBRANCH   1   7
BRANCH   3  10
ATOM     10  O   UNL     1     139.527 139.044 138.444  1.00  0.00    -0.493 OA
ATOM     11  C   UNL     1     138.568 139.681 137.607  1.00  0.00     0.278 C 
ENDBRANCH   3  10
BRANCH   4  12
ATOM     12  O   UNL     1     140.312 136.797 139.930  1.00  0.00    -0.504 OA
ATOM     13  H   UNL     1     141.175 136.316 140.158  1.00  0.00     0.293 HD
ENDBRANCH   4  12
TORSDOF 3
ENDMDL
