MODEL 1
REMARK VINA RESULT:    -4.038      0.000      0.000
REMARK INTER + INTRA:          -5.061
REMARK INTER:                  -4.982
REMARK INTRA:                  -0.079
REMARK UNBOUND:                -0.079
REMARK SMILES CCCCCC(=O)[O-]
REMARK SMILES IDX 4 1 5 2 6 3 7 4 8 5 3 6 2 7 1 8
REMARK H PARENT
REMARK Flexibility Score: inf
ROOT
ATOM      1  C   UNL     1      -1.149   0.147   6.259  1.00  0.00     0.006 C 
ENDROOT
BRANCH   1   2
ATOM      2  C   UNL     1      -1.575   0.164   7.730  1.00  0.00     0.053 C 
BRANCH   2   3
ATOM      3  C   UNL     1      -0.438  -0.255   8.609  1.00  0.00     0.041 C 
ATOM      4  O   UNL     1       0.446   0.577   8.942  1.00  0.00    -0.550 OA
ATOM      5  O   UNL     1      -0.329  -1.578   9.020  1.00  0.00    -0.550 OA
ENDBRANCH   2   3
ENDBRANCH   1   2
BRANCH   1   6
ATOM      6  C   UNL     1      -1.396  -1.229   5.631  1.00  0.00     0.000 C 
BRANCH   6   7
ATOM      7  C   UNL     1      -1.555  -1.119   4.109  1.00  0.00    -0.003 C 
ATOM      8  C   UNL     1      -1.417  -2.485   3.441  1.00  0.00     0.004 C 
ENDBRANCH   6   7
ENDBRANCH   1   6
TORSDOF 4
ENDMDL
MODEL 2
REMARK VINA RESULT:    -3.945      4.322      5.157
REMARK INTER + INTRA:          -4.947
REMARK INTER:                  -4.882
REMARK INTRA:                  -0.064
REMARK UNBOUND:                -0.079
REMARK SMILES CCCCCC(=O)[O-]
REMARK SMILES IDX 4 1 5 2 6 3 7 4 8 5 3 6 2 7 1 8
REMARK H PARENT
REMARK Flexibility Score: inf
ROOT
ATOM      1  C   UNL     1      -1.136  -4.184   5.635  1.00  0.00     0.006 C 
ENDROOT
BRANCH   1   2
ATOM      2  C   UNL     1      -1.342  -2.668   5.705  1.00  0.00     0.053 C 
BRANCH   2   3
ATOM      3  C   UNL     1      -1.517  -2.099   4.333  1.00  0.00     0.041 C 
ATOM      4  O   UNL     1      -1.433  -2.845   3.321  1.00  0.00    -0.550 OA
ATOM      5  O   UNL     1      -1.725  -0.736   4.167  1.00  0.00    -0.550 OA
ENDBRANCH   2   3
ENDBRANCH   1   2
BRANCH   1   6
ATOM      6  C   UNL     1      -0.334  -4.687   6.840  1.00  0.00     0.000 C 
BRANCH   6   7
ATOM      7  C   UNL     1      -0.030  -6.185   6.713  1.00  0.00    -0.003 C 
ATOM      8  C   UNL     1      -1.111  -7.026   7.386  1.00  0.00     0.004 C 
ENDBRANCH   6   7
ENDBRANCH   1   6
TORSDOF 4
ENDMDL
MODEL 3
REMARK VINA RESULT:    -3.879      2.858      4.622
REMARK INTER + INTRA:          -4.866
REMARK INTER:                  -4.777
REMARK INTRA:                  -0.088
REMARK UNBOUND:                -0.079
REMARK SMILES CCCCCC(=O)[O-]
REMARK SMILES IDX 4 1 5 2 6 3 7 4 8 5 3 6 2 7 1 8
REMARK H PARENT
REMARK Flexibility Score: inf
ROOT
ATOM      1  C   UNL     1      -1.202  -1.241   6.329  1.00  0.00     0.006 C 
ENDROOT
BRANCH   1   2
ATOM      2  C   UNL     1      -1.523  -1.202   4.833  1.00  0.00     0.053 C 
BRANCH   2   3
ATOM      3  C   UNL     1      -1.552  -2.587   4.267  1.00  0.00     0.041 C 
ATOM      4  O   UNL     1      -1.786  -3.572   5.016  1.00  0.00    -0.550 OA
ATOM      5  O   UNL     1      -1.272  -2.794   2.922  1.00  0.00    -0.550 OA
ENDBRANCH   2   3
ENDBRANCH   1   2
BRANCH   1   6
ATOM      6  C   UNL     1      -1.271   0.162   6.944  1.00  0.00     0.000 C 
BRANCH   6   7
ATOM      7  C   UNL     1      -0.876   0.134   8.426  1.00  0.00    -0.003 C 
ATOM      8  C   UNL     1      -0.404  -1.256   8.844  1.00  0.00     0.004 C 
ENDBRANCH   6   7
ENDBRANCH   1   6
TORSDOF 4
ENDMDL
MODEL 4
REMARK VINA RESULT:    -3.667      1.705      2.502
REMARK INTER + INTRA:          -4.604
REMARK INTER:                  -4.558
REMARK INTRA:                  -0.046
REMARK UNBOUND:                -0.079
REMARK SMILES CCCCCC(=O)[O-]
REMARK SMILES IDX 4 1 5 2 6 3 7 4 8 5 3 6 2 7 1 8
REMARK H PARENT
REMARK Flexibility Score: inf
ROOT
ATOM      1  C   UNL     1      -1.583  -1.288   4.672  1.00  0.00     0.006 C 
ENDROOT
BRANCH   1   2
ATOM      2  C   UNL     1      -1.283  -1.312   6.173  1.00  0.00     0.053 C 
BRANCH   2   3
ATOM      3  C   UNL     1      -1.230   0.079   6.720  1.00  0.00     0.041 C 
ATOM      4  O   UNL     1      -1.330   0.278   7.960  1.00  0.00    -0.550 OA
ATOM      5  O   UNL     1      -1.119   1.162   5.856  1.00  0.00    -0.550 OA
ENDBRANCH   2   3
ENDBRANCH   1   2
BRANCH   1   6
ATOM      6  C   UNL     1      -1.531  -2.699   4.077  1.00  0.00     0.000 C 
BRANCH   6   7
ATOM      7  C   UNL     1      -1.120  -2.659   2.600  1.00  0.00    -0.003 C 
ATOM      8  C   UNL     1      -1.572  -3.919   1.868  1.00  0.00     0.004 C 
ENDBRANCH   6   7
ENDBRANCH   1   6
TORSDOF 4
ENDMDL
MODEL 5
REMARK VINA RESULT:    -3.519      6.412      7.406
REMARK INTER + INTRA:          -4.422
REMARK INTER:                  -4.319
REMARK INTRA:                  -0.103
REMARK UNBOUND:                -0.079
REMARK SMILES CCCCCC(=O)[O-]
REMARK SMILES IDX 4 1 5 2 6 3 7 4 8 5 3 6 2 7 1 8
REMARK H PARENT
REMARK Flexibility Score: inf
ROOT
ATOM      1  C   UNL     1      -0.760  -7.157   7.026  1.00  0.00     0.006 C 
ENDROOT
BRANCH   1   2
ATOM      2  C   UNL     1      -1.657  -7.062   8.263  1.00  0.00     0.053 C 
BRANCH   2   3
ATOM      3  C   UNL     1      -2.828  -7.984   8.133  1.00  0.00     0.041 C 
ATOM      4  O   UNL     1      -2.676  -9.226   8.271  1.00  0.00    -0.550 OA
ATOM      5  O   UNL     1      -4.080  -7.476   7.810  1.00  0.00    -0.550 OA
ENDBRANCH   2   3
ENDBRANCH   1   2
BRANCH   1   6
ATOM      6  C   UNL     1       0.131  -5.916   6.896  1.00  0.00     0.000 C 
BRANCH   6   7
ATOM      7  C   UNL     1       0.498  -5.355   8.275  1.00  0.00    -0.003 C 
ATOM      8  C   UNL     1       2.012  -5.254   8.444  1.00  0.00     0.004 C 
ENDBRANCH   6   7
ENDBRANCH   1   6
TORSDOF 4
ENDMDL
MODEL 6
REMARK VINA RESULT:    -3.459     11.512     12.355
REMARK INTER + INTRA:          -4.347
REMARK INTER:                  -4.195
REMARK INTRA:                  -0.152
REMARK UNBOUND:                -0.079
REMARK SMILES CCCCCC(=O)[O-]
REMARK SMILES IDX 4 1 5 2 6 3 7 4 8 5 3 6 2 7 1 8
REMARK H PARENT
REMARK Flexibility Score: inf
ROOT
ATOM      1  C   UNL     1       5.498   9.834   6.319  1.00  0.00     0.006 C 
ENDROOT
BRANCH   1   2
ATOM      2  C   UNL     1       6.983   9.751   5.955  1.00  0.00     0.053 C 
BRANCH   2   3
ATOM      3  C   UNL     1       7.796   9.376   7.154  1.00  0.00     0.041 C 
ATOM      4  O   UNL     1       7.242   8.848   8.155  1.00  0.00    -0.550 OA
ATOM      5  O   UNL     1       9.156   9.653   7.187  1.00  0.00    -0.550 OA
ENDBRANCH   2   3
ENDBRANCH   1   2
BRANCH   1   6
ATOM      6  C   UNL     1       4.649   8.992   5.359  1.00  0.00     0.000 C 
BRANCH   6   7
ATOM      7  C   UNL     1       5.483   8.510   4.165  1.00  0.00    -0.003 C 
ATOM      8  C   UNL     1       4.990   7.157   3.659  1.00  0.00     0.004 C 
ENDBRANCH   6   7
ENDBRANCH   1   6
TORSDOF 4
ENDMDL
MODEL 7
REMARK VINA RESULT:    -3.395      6.017      6.651
REMARK INTER + INTRA:          -4.269
REMARK INTER:                  -4.142
REMARK INTRA:                  -0.127
REMARK UNBOUND:                -0.079
REMARK SMILES CCCCCC(=O)[O-]
REMARK SMILES IDX 4 1 5 2 6 3 7 4 8 5 3 6 2 7 1 8
REMARK H PARENT
REMARK Flexibility Score: inf
ROOT
ATOM      1  C   UNL     1      -0.715  -7.283   7.158  1.00  0.00     0.006 C 
ENDROOT
BRANCH   1   2
ATOM      2  C   UNL     1      -0.393  -5.827   6.808  1.00  0.00     0.053 C 
BRANCH   2   3
ATOM      3  C   UNL     1       0.276  -5.147   7.961  1.00  0.00     0.041 C 
ATOM      4  O   UNL     1      -0.314  -4.223   8.580  1.00  0.00    -0.550 OA
ATOM      5  O   UNL     1       1.570  -5.500   8.320  1.00  0.00    -0.550 OA
ENDBRANCH   2   3
ENDBRANCH   1   2
BRANCH   1   6
ATOM      6  C   UNL     1      -2.044  -7.386   7.916  1.00  0.00     0.000 C 
BRANCH   6   7
ATOM      7  C   UNL     1      -2.337  -8.836   8.319  1.00  0.00    -0.003 C 
ATOM      8  C   UNL     1      -1.525  -9.817   7.476  1.00  0.00     0.004 C 
ENDBRANCH   6   7
ENDBRANCH   1   6
TORSDOF 4
ENDMDL
MODEL 8
REMARK VINA RESULT:    -3.346     13.827     14.876
REMARK INTER + INTRA:          -4.208
REMARK INTER:                  -4.133
REMARK INTRA:                  -0.074
REMARK UNBOUND:                -0.079
REMARK SMILES CCCCCC(=O)[O-]
REMARK SMILES IDX 4 1 5 2 6 3 7 4 8 5 3 6 2 7 1 8
REMARK H PARENT
REMARK Flexibility Score: inf
ROOT
ATOM      1  C   UNL     1       5.289   4.062  -3.893  1.00  0.00     0.006 C 
ENDROOT
BRANCH   1   2
ATOM      2  C   UNL     1       4.121   3.450  -4.671  1.00  0.00     0.053 C 
BRANCH   2   3
ATOM      3  C   UNL     1       4.506   3.224  -6.100  1.00  0.00     0.041 C 
ATOM      4  O   UNL     1       5.283   2.282  -6.405  1.00  0.00    -0.550 OA
ATOM      5  O   UNL     1       4.044   4.085  -7.088  1.00  0.00    -0.550 OA
ENDBRANCH   2   3
ENDBRANCH   1   2
BRANCH   1   6
ATOM      6  C   UNL     1       5.605   5.475  -4.395  1.00  0.00     0.000 C 
BRANCH   6   7
ATOM      7  C   UNL     1       6.884   6.017  -3.745  1.00  0.00    -0.003 C 
ATOM      8  C   UNL     1       6.697   7.458  -3.276  1.00  0.00     0.004 C 
ENDBRANCH   6   7
ENDBRANCH   1   6
TORSDOF 4
ENDMDL
MODEL 9
REMARK VINA RESULT:    -3.309      5.882      6.902
REMARK INTER + INTRA:          -4.162
REMARK INTER:                  -3.994
REMARK INTRA:                  -0.167
REMARK UNBOUND:                -0.079
REMARK SMILES CCCCCC(=O)[O-]
REMARK SMILES IDX 4 1 5 2 6 3 7 4 8 5 3 6 2 7 1 8
REMARK H PARENT
REMARK Flexibility Score: inf
ROOT
ATOM      1  C   UNL     1       0.456  -4.965   8.857  1.00  0.00     0.006 C 
ENDROOT
BRANCH   1   2
ATOM      2  C   UNL     1      -0.662  -6.010   8.919  1.00  0.00     0.053 C 
BRANCH   2   3
ATOM      3  C   UNL     1      -0.847  -6.658   7.583  1.00  0.00     0.041 C 
ATOM      4  O   UNL     1      -1.733  -7.539   7.423  1.00  0.00    -0.550 OA
ATOM      5  O   UNL     1      -0.010  -6.324   6.526  1.00  0.00    -0.550 OA
ENDBRANCH   2   3
ENDBRANCH   1   2
BRANCH   1   6
ATOM      6  C   UNL     1       1.316  -5.004  10.125  1.00  0.00     0.000 C 
BRANCH   6   7
ATOM      7  C   UNL     1       2.781  -5.310   9.787  1.00  0.00    -0.003 C 
ATOM      8  C   UNL     1       3.016  -5.282   8.279  1.00  0.00     0.004 C 
ENDBRANCH   6   7
ENDBRANCH   1   6
TORSDOF 4
ENDMDL
