MODEL 1
REMARK VINA RESULT:    -4.697      0.000      0.000
REMARK INTER + INTRA:          -8.011
REMARK INTER:                  -6.619
REMARK INTRA:                  -1.392
REMARK UNBOUND:                -1.392
REMARK SMILES C=CC(=C)CCC=C(C)CCC=C(C)C
REMARK SMILES IDX 8 1 7 2 9 3 10 4 11 5 12 6 14 7 13 8 15 9 6 10 5 11 3 12
REMARK SMILES IDX 4 13 2 14 1 15
REMARK H PARENT
REMARK Flexibility Score: inf
ROOT
ATOM      1  C   UNL     1     135.821 132.222 133.230  1.00  0.00    -0.077 C 
ATOM      2  C   UNL     1     134.872 131.996 134.168  1.00  0.00    -0.028 C 
ATOM      3  C   UNL     1     135.935 131.253 132.082  1.00  0.00     0.039 C 
ENDROOT
BRANCH   1   4
ATOM      4  C   UNL     1     136.749 133.425 133.267  1.00  0.00     0.034 C 
BRANCH   4   5
ATOM      5  C   UNL     1     138.176 133.035 133.681  1.00  0.00     0.032 C 
BRANCH   5   6
ATOM      6  C   UNL     1     138.573 133.665 134.994  1.00  0.00    -0.028 C 
ATOM      7  C   UNL     1     137.926 131.661 136.349  1.00  0.00     0.039 C 
ATOM      8  C   UNL     1     138.496 133.051 136.194  1.00  0.00    -0.080 C 
ATOM      9  C   UNL     1     138.980 133.794 137.413  1.00  0.00     0.039 C 
ENDBRANCH   5   6
ENDBRANCH   4   5
ENDBRANCH   1   4
BRANCH   2  10
ATOM     10  C   UNL     1     134.667 132.833 135.406  1.00  0.00     0.032 C 
BRANCH  10  11
ATOM     11  C   UNL     1     133.182 132.891 135.780  1.00  0.00     0.039 C 
BRANCH  11  12
ATOM     12  C   UNL     1     132.618 134.273 135.528  1.00  0.00    -0.055 C 
ATOM     13  C   UNL     1     131.782 134.806 136.426  1.00  0.00     0.012 C 
BRANCH  12  14
ATOM     14  C   UNL     1     133.000 135.081 134.341  1.00  0.00    -0.005 C 
ATOM     15  C   UNL     1     132.624 134.800 133.094  1.00  0.00     0.009 C 
ENDBRANCH  12  14
ENDBRANCH  11  12
ENDBRANCH  10  11
ENDBRANCH   2  10
TORSDOF 7
ENDMDL
MODEL 2
REMARK VINA RESULT:    -4.593      3.462      5.877
REMARK INTER + INTRA:          -7.864
REMARK INTER:                  -6.623
REMARK INTRA:                  -1.241
REMARK UNBOUND:                -1.392
REMARK SMILES C=CC(=C)CCC=C(C)CCC=C(C)C
REMARK SMILES IDX 8 1 7 2 9 3 10 4 11 5 12 6 14 7 13 8 15 9 6 10 5 11 3 12
REMARK SMILES IDX 4 13 2 14 1 15
REMARK H PARENT
REMARK Flexibility Score: inf
ROOT
ATOM      1  C   UNL     1     140.477 135.766 133.186  1.00  0.00    -0.077 C 
ATOM      2  C   UNL     1     140.646 134.850 134.168  1.00  0.00    -0.028 C 
ATOM      3  C   UNL     1     141.463 135.780 132.046  1.00  0.00     0.039 C 
ENDROOT
BRANCH   1   4
ATOM      4  C   UNL     1     139.321 136.752 133.166  1.00  0.00     0.034 C 
BRANCH   4   5
ATOM      5  C   UNL     1     139.754 138.151 133.628  1.00  0.00     0.032 C 
BRANCH   5   6
ATOM      6  C   UNL     1     139.072 138.554 134.914  1.00  0.00    -0.028 C 
ATOM      7  C   UNL     1     141.039 137.956 136.345  1.00  0.00     0.039 C 
ATOM      8  C   UNL     1     139.646 138.502 136.135  1.00  0.00    -0.080 C 
ATOM      9  C   UNL     1     138.853 138.989 137.321  1.00  0.00     0.039 C 
ENDBRANCH   5   6
ENDBRANCH   4   5
ENDBRANCH   1   4
BRANCH   2  10
ATOM     10  C   UNL     1     139.787 134.743 135.402  1.00  0.00     0.032 C 
BRANCH  10  11
ATOM     11  C   UNL     1     139.817 133.316 135.961  1.00  0.00     0.039 C 
BRANCH  11  12
ATOM     12  C   UNL     1     138.601 132.536 135.509  1.00  0.00    -0.055 C 
ATOM     13  C   UNL     1     137.944 131.785 136.401  1.00  0.00     0.012 C 
BRANCH  12  14
ATOM     14  C   UNL     1     138.079 132.615 134.120  1.00  0.00    -0.005 C 
ATOM     15  C   UNL     1     136.885 133.113 133.798  1.00  0.00     0.009 C 
ENDBRANCH  12  14
ENDBRANCH  11  12
ENDBRANCH  10  11
ENDBRANCH   2  10
TORSDOF 7
ENDMDL
MODEL 3
REMARK VINA RESULT:    -4.512      5.231      6.635
REMARK INTER + INTRA:          -7.750
REMARK INTER:                  -5.554
REMARK INTRA:                  -2.196
REMARK UNBOUND:                -1.392
REMARK SMILES C=CC(=C)CCC=C(C)CCC=C(C)C
REMARK SMILES IDX 8 1 7 2 9 3 10 4 11 5 12 6 14 7 13 8 15 9 6 10 5 11 3 12
REMARK SMILES IDX 4 13 2 14 1 15
REMARK H PARENT
REMARK Flexibility Score: inf
ROOT
ATOM      1  C   UNL     1     138.948 139.245 134.951  1.00  0.00    -0.077 C 
ATOM      2  C   UNL     1     137.920 139.591 134.142  1.00  0.00    -0.028 C 
ATOM      3  C   UNL     1     140.002 138.315 134.407  1.00  0.00     0.039 C 
ENDROOT
BRANCH   1   4
ATOM      4  C   UNL     1     139.104 139.780 136.364  1.00  0.00     0.034 C 
BRANCH   4   5
ATOM      5  C   UNL     1     138.910 138.680 137.418  1.00  0.00     0.032 C 
BRANCH   5   6
ATOM      6  C   UNL     1     137.485 138.620 137.914  1.00  0.00    -0.028 C 
ATOM      7  C   UNL     1     136.884 136.662 136.472  1.00  0.00     0.039 C 
ATOM      8  C   UNL     1     136.574 137.703 137.522  1.00  0.00    -0.080 C 
ATOM      9  C   UNL     1     135.203 137.741 138.147  1.00  0.00     0.039 C 
ENDBRANCH   5   6
ENDBRANCH   4   5
ENDBRANCH   1   4
BRANCH   2  10
ATOM     10  C   UNL     1     136.758 140.461 134.550  1.00  0.00     0.032 C 
BRANCH  10  11
ATOM     11  C   UNL     1     135.435 139.701 134.404  1.00  0.00     0.039 C 
BRANCH  11  12
ATOM     12  C   UNL     1     134.465 140.096 135.497  1.00  0.00    -0.055 C 
ATOM     13  C   UNL     1     134.840 141.012 136.397  1.00  0.00     0.012 C 
BRANCH  12  14
ATOM     14  C   UNL     1     133.090 139.538 135.577  1.00  0.00    -0.005 C 
ATOM     15  C   UNL     1     132.744 138.337 135.114  1.00  0.00     0.009 C 
ENDBRANCH  12  14
ENDBRANCH  11  12
ENDBRANCH  10  11
ENDBRANCH   2  10
TORSDOF 7
ENDMDL
MODEL 4
REMARK VINA RESULT:    -4.507      4.626      7.718
REMARK INTER + INTRA:          -7.743
REMARK INTER:                  -5.912
REMARK INTRA:                  -1.830
REMARK UNBOUND:                -1.392
REMARK SMILES C=CC(=C)CCC=C(C)CCC=C(C)C
REMARK SMILES IDX 8 1 7 2 9 3 10 4 11 5 12 6 14 7 13 8 15 9 6 10 5 11 3 12
REMARK SMILES IDX 4 13 2 14 1 15
REMARK H PARENT
REMARK Flexibility Score: inf
ROOT
ATOM      1  C   UNL     1     133.823 139.162 137.037  1.00  0.00    -0.077 C 
ATOM      2  C   UNL     1     134.864 140.018 136.912  1.00  0.00    -0.028 C 
ATOM      3  C   UNL     1     133.750 138.306 138.275  1.00  0.00     0.039 C 
ENDROOT
BRANCH   1   4
ATOM      4  C   UNL     1     132.713 139.055 136.006  1.00  0.00     0.034 C 
BRANCH   4   5
ATOM      5  C   UNL     1     132.667 137.664 135.357  1.00  0.00     0.032 C 
BRANCH   5   6
ATOM      6  C   UNL     1     131.825 137.655 134.103  1.00  0.00    -0.028 C 
ATOM      7  C   UNL     1     133.228 135.918 132.968  1.00  0.00     0.039 C 
ATOM      8  C   UNL     1     132.046 136.857 133.037  1.00  0.00    -0.080 C 
ATOM      9  C   UNL     1     131.085 136.926 131.877  1.00  0.00     0.039 C 
ENDBRANCH   5   6
ENDBRANCH   4   5
ENDBRANCH   1   4
BRANCH   2  10
ATOM     10  C   UNL     1     135.115 140.898 135.713  1.00  0.00     0.032 C 
BRANCH  10  11
ATOM     11  C   UNL     1     136.264 140.343 134.865  1.00  0.00     0.039 C 
BRANCH  11  12
ATOM     12  C   UNL     1     135.765 139.271 133.920  1.00  0.00    -0.055 C 
ATOM     13  C   UNL     1     136.166 138.008 134.102  1.00  0.00     0.012 C 
BRANCH  12  14
ATOM     14  C   UNL     1     134.803 139.564 132.826  1.00  0.00    -0.005 C 
ATOM     15  C   UNL     1     134.891 140.620 132.017  1.00  0.00     0.009 C 
ENDBRANCH  12  14
ENDBRANCH  11  12
ENDBRANCH  10  11
ENDBRANCH   2  10
TORSDOF 7
ENDMDL
MODEL 5
REMARK VINA RESULT:    -4.465      2.002      4.888
REMARK INTER + INTRA:          -7.683
REMARK INTER:                  -5.244
REMARK INTRA:                  -2.439
REMARK UNBOUND:                -1.392
REMARK SMILES C=CC(=C)CCC=C(C)CCC=C(C)C
REMARK SMILES IDX 8 1 7 2 9 3 10 4 11 5 12 6 14 7 13 8 15 9 6 10 5 11 3 12
REMARK SMILES IDX 4 13 2 14 1 15
REMARK H PARENT
REMARK Flexibility Score: inf
ROOT
ATOM      1  C   UNL     1     132.996 133.910 136.335  1.00  0.00    -0.077 C 
ATOM      2  C   UNL     1     133.203 133.217 135.192  1.00  0.00    -0.028 C 
ATOM      3  C   UNL     1     131.801 134.825 136.408  1.00  0.00     0.039 C 
ENDROOT
BRANCH   1   4
ATOM      4  C   UNL     1     133.892 133.778 137.555  1.00  0.00     0.034 C 
BRANCH   4   5
ATOM      5  C   UNL     1     134.528 135.120 137.946  1.00  0.00     0.032 C 
BRANCH   5   6
ATOM      6  C   UNL     1     135.966 135.214 137.494  1.00  0.00    -0.028 C 
ATOM      7  C   UNL     1     135.412 136.526 135.434  1.00  0.00     0.039 C 
ATOM      8  C   UNL     1     136.381 135.867 136.387  1.00  0.00    -0.080 C 
ATOM      9  C   UNL     1     137.859 135.916 136.095  1.00  0.00     0.039 C 
ENDBRANCH   5   6
ENDBRANCH   4   5
ENDBRANCH   1   4
BRANCH   2  10
ATOM     10  C   UNL     1     134.380 132.309 134.936  1.00  0.00     0.032 C 
BRANCH  10  11
ATOM     11  C   UNL     1     135.429 133.012 134.067  1.00  0.00     0.039 C 
BRANCH  11  12
ATOM     12  C   UNL     1     136.828 132.671 134.533  1.00  0.00    -0.055 C 
ATOM     13  C   UNL     1     137.867 132.993 133.755  1.00  0.00     0.012 C 
BRANCH  12  14
ATOM     14  C   UNL     1     137.092 132.036 135.851  1.00  0.00    -0.005 C 
ATOM     15  C   UNL     1     138.201 132.232 136.565  1.00  0.00     0.009 C 
ENDBRANCH  12  14
ENDBRANCH  11  12
ENDBRANCH  10  11
ENDBRANCH   2  10
TORSDOF 7
ENDMDL
MODEL 6
REMARK VINA RESULT:    -4.464      3.199      5.537
REMARK INTER + INTRA:          -7.682
REMARK INTER:                  -5.440
REMARK INTRA:                  -2.242
REMARK UNBOUND:                -1.392
REMARK SMILES C=CC(=C)CCC=C(C)CCC=C(C)C
REMARK SMILES IDX 8 1 7 2 9 3 10 4 11 5 12 6 14 7 13 8 15 9 6 10 5 11 3 12
REMARK SMILES IDX 4 13 2 14 1 15
REMARK H PARENT
REMARK Flexibility Score: inf
ROOT
ATOM      1  C   UNL     1     133.276 138.960 135.244  1.00  0.00    -0.077 C 
ATOM      2  C   UNL     1     132.788 138.038 134.383  1.00  0.00    -0.028 C 
ATOM      3  C   UNL     1     134.137 140.067 134.692  1.00  0.00     0.039 C 
ENDROOT
BRANCH   1   4
ATOM      4  C   UNL     1     132.965 138.948 136.731  1.00  0.00     0.034 C 
BRANCH   4   5
ATOM      5  C   UNL     1     134.225 138.716 137.578  1.00  0.00     0.032 C 
BRANCH   5   6
ATOM      6  C   UNL     1     134.398 137.261 137.944  1.00  0.00    -0.028 C 
ATOM      7  C   UNL     1     136.032 136.815 136.099  1.00  0.00     0.039 C 
ATOM      8  C   UNL     1     135.227 136.404 137.310  1.00  0.00    -0.080 C 
ATOM      9  C   UNL     1     135.330 134.992 137.825  1.00  0.00     0.039 C 
ENDBRANCH   5   6
ENDBRANCH   4   5
ENDBRANCH   1   4
BRANCH   2  10
ATOM     10  C   UNL     1     131.964 136.839 134.779  1.00  0.00     0.032 C 
BRANCH  10  11
ATOM     11  C   UNL     1     132.711 135.539 134.461  1.00  0.00     0.039 C 
BRANCH  11  12
ATOM     12  C   UNL     1     132.512 134.521 135.564  1.00  0.00    -0.055 C 
ATOM     13  C   UNL     1     131.810 134.869 136.648  1.00  0.00     0.012 C 
BRANCH  12  14
ATOM     14  C   UNL     1     133.027 133.131 135.462  1.00  0.00    -0.005 C 
ATOM     15  C   UNL     1     134.232 132.814 134.987  1.00  0.00     0.009 C 
ENDBRANCH  12  14
ENDBRANCH  11  12
ENDBRANCH  10  11
ENDBRANCH   2  10
TORSDOF 7
ENDMDL
MODEL 7
REMARK VINA RESULT:    -4.464      3.748      6.394
REMARK INTER + INTRA:          -7.682
REMARK INTER:                  -5.694
REMARK INTRA:                  -1.988
REMARK UNBOUND:                -1.392
REMARK SMILES C=CC(=C)CCC=C(C)CCC=C(C)C
REMARK SMILES IDX 8 1 7 2 9 3 10 4 11 5 12 6 14 7 13 8 15 9 6 10 5 11 3 12
REMARK SMILES IDX 4 13 2 14 1 15
REMARK H PARENT
REMARK Flexibility Score: inf
ROOT
ATOM      1  C   UNL     1     140.027 137.938 135.389  1.00  0.00    -0.077 C 
ATOM      2  C   UNL     1     139.897 136.950 134.473  1.00  0.00    -0.028 C 
ATOM      3  C   UNL     1     139.498 139.306 135.044  1.00  0.00     0.039 C 
ENDROOT
BRANCH   1   4
ATOM      4  C   UNL     1     140.649 137.718 136.758  1.00  0.00     0.034 C 
BRANCH   4   5
ATOM      5  C   UNL     1     139.614 137.848 137.885  1.00  0.00     0.032 C 
BRANCH   5   6
ATOM      6  C   UNL     1     139.403 136.540 138.609  1.00  0.00    -0.028 C 
ATOM      7  C   UNL     1     137.406 135.905 137.236  1.00  0.00     0.039 C 
ATOM      8  C   UNL     1     138.437 135.645 138.309  1.00  0.00    -0.080 C 
ATOM      9  C   UNL     1     138.385 134.357 139.091  1.00  0.00     0.039 C 
ENDBRANCH   5   6
ENDBRANCH   4   5
ENDBRANCH   1   4
BRANCH   2  10
ATOM     10  C   UNL     1     140.424 135.547 134.638  1.00  0.00     0.032 C 
BRANCH  10  11
ATOM     11  C   UNL     1     139.382 134.520 134.180  1.00  0.00     0.039 C 
BRANCH  11  12
ATOM     12  C   UNL     1     139.234 133.414 135.202  1.00  0.00    -0.055 C 
ATOM     13  C   UNL     1     140.150 133.297 136.170  1.00  0.00     0.012 C 
BRANCH  12  14
ATOM     14  C   UNL     1     138.077 132.481 135.199  1.00  0.00    -0.005 C 
ATOM     15  C   UNL     1     137.531 131.964 136.300  1.00  0.00     0.009 C 
ENDBRANCH  12  14
ENDBRANCH  11  12
ENDBRANCH  10  11
ENDBRANCH   2  10
TORSDOF 7
ENDMDL
MODEL 8
REMARK VINA RESULT:    -4.432      2.507      5.416
REMARK INTER + INTRA:          -7.637
REMARK INTER:                  -5.392
REMARK INTRA:                  -2.245
REMARK UNBOUND:                -1.392
REMARK SMILES C=CC(=C)CCC=C(C)CCC=C(C)C
REMARK SMILES IDX 8 1 7 2 9 3 10 4 11 5 12 6 14 7 13 8 15 9 6 10 5 11 3 12
REMARK SMILES IDX 4 13 2 14 1 15
REMARK H PARENT
REMARK Flexibility Score: inf
ROOT
ATOM      1  C   UNL     1     132.502 136.151 135.842  1.00  0.00    -0.077 C 
ATOM      2  C   UNL     1     133.537 136.756 136.469  1.00  0.00    -0.028 C 
ATOM      3  C   UNL     1     131.976 136.771 134.573  1.00  0.00     0.039 C 
ENDROOT
BRANCH   1   4
ATOM      4  C   UNL     1     131.874 134.860 136.341  1.00  0.00     0.034 C 
BRANCH   4   5
ATOM      5  C   UNL     1     132.051 133.712 135.336  1.00  0.00     0.032 C 
BRANCH   5   6
ATOM      6  C   UNL     1     133.351 132.975 135.547  1.00  0.00    -0.028 C 
ATOM      7  C   UNL     1     134.438 133.962 133.518  1.00  0.00     0.039 C 
ATOM      8  C   UNL     1     134.440 133.099 134.758  1.00  0.00    -0.080 C 
ATOM      9  C   UNL     1     135.685 132.334 135.128  1.00  0.00     0.039 C 
ENDBRANCH   5   6
ENDBRANCH   4   5
ENDBRANCH   1   4
BRANCH   2  10
ATOM     10  C   UNL     1     134.139 136.300 137.774  1.00  0.00     0.032 C 
BRANCH  10  11
ATOM     11  C   UNL     1     135.394 135.455 137.525  1.00  0.00     0.039 C 
BRANCH  11  12
ATOM     12  C   UNL     1     135.376 134.204 138.378  1.00  0.00    -0.055 C 
ATOM     13  C   UNL     1     136.521 133.543 138.582  1.00  0.00     0.012 C 
BRANCH  12  14
ATOM     14  C   UNL     1     134.140 133.712 139.038  1.00  0.00    -0.005 C 
ATOM     15  C   UNL     1     134.065 133.373 140.325  1.00  0.00     0.009 C 
ENDBRANCH  12  14
ENDBRANCH  11  12
ENDBRANCH  10  11
ENDBRANCH   2  10
TORSDOF 7
ENDMDL
MODEL 9
REMARK VINA RESULT:    -4.399      4.879      7.159
REMARK INTER + INTRA:          -7.590
REMARK INTER:                  -5.351
REMARK INTRA:                  -2.240
REMARK UNBOUND:                -1.392
REMARK SMILES C=CC(=C)CCC=C(C)CCC=C(C)C
REMARK SMILES IDX 8 1 7 2 9 3 10 4 11 5 12 6 14 7 13 8 15 9 6 10 5 11 3 12
REMARK SMILES IDX 4 13 2 14 1 15
REMARK H PARENT
REMARK Flexibility Score: inf
ROOT
ATOM      1  C   UNL     1     136.114 140.059 135.910  1.00  0.00    -0.077 C 
ATOM      2  C   UNL     1     136.695 139.041 136.587  1.00  0.00    -0.028 C 
ATOM      3  C   UNL     1     136.759 140.525 134.631  1.00  0.00     0.039 C 
ENDROOT
BRANCH   1   4
ATOM      4  C   UNL     1     134.826 140.725 136.365  1.00  0.00     0.034 C 
BRANCH   4   5
ATOM      5  C   UNL     1     133.683 140.502 135.365  1.00  0.00     0.032 C 
BRANCH   5   6
ATOM      6  C   UNL     1     132.981 139.185 135.596  1.00  0.00    -0.028 C 
ATOM      7  C   UNL     1     133.958 138.110 133.557  1.00  0.00     0.039 C 
ATOM      8  C   UNL     1     133.118 138.094 134.812  1.00  0.00    -0.080 C 
ATOM      9  C   UNL     1     132.390 136.834 135.202  1.00  0.00     0.039 C 
ENDBRANCH   5   6
ENDBRANCH   4   5
ENDBRANCH   1   4
BRANCH   2  10
ATOM     10  C   UNL     1     136.212 138.498 137.908  1.00  0.00     0.032 C 
BRANCH  10  11
ATOM     11  C   UNL     1     135.353 137.245 137.697  1.00  0.00     0.039 C 
BRANCH  11  12
ATOM     12  C   UNL     1     134.147 137.261 138.611  1.00  0.00    -0.055 C 
ATOM     13  C   UNL     1     133.741 138.426 139.130  1.00  0.00     0.012 C 
BRANCH  12  14
ATOM     14  C   UNL     1     133.365 136.034 138.913  1.00  0.00    -0.005 C 
ATOM     15  C   UNL     1     133.436 134.910 138.201  1.00  0.00     0.009 C 
ENDBRANCH  12  14
ENDBRANCH  11  12
ENDBRANCH  10  11
ENDBRANCH   2  10
TORSDOF 7
ENDMDL
