MODEL 1
REMARK VINA RESULT:    -3.334      0.000      0.000
REMARK INTER + INTRA:          -5.539
REMARK INTER:                  -5.088
REMARK INTRA:                  -0.451
REMARK UNBOUND:                -0.451
REMARK SMILES O=C([O-])CCCCCCCCC(=O)[O-]
REMARK SMILES IDX 7 1 6 2 5 3 4 4 2 5 1 6 3 7 8 8 9 9 10 10 11 11 12 12 13 13
REMARK SMILES IDX 14 14
REMARK H PARENT
REMARK Flexibility Score: inf
ROOT
ATOM      1  C   UNL     1      16.389  -7.006   7.193  1.00  0.00     0.000 C 
ENDROOT
BRANCH   1   2
ATOM      2  C   UNL     1      15.904  -6.793   5.750  1.00  0.00     0.000 C 
BRANCH   2   3
ATOM      3  C   UNL     1      14.987  -7.925   5.262  1.00  0.00     0.006 C 
BRANCH   3   4
ATOM      4  C   UNL     1      13.856  -8.183   6.263  1.00  0.00     0.053 C 
BRANCH   4   5
ATOM      5  C   UNL     1      12.542  -7.762   5.687  1.00  0.00     0.041 C 
ATOM      6  O   UNL     1      11.494  -7.829   6.383  1.00  0.00    -0.550 OA
ATOM      7  O   UNL     1      12.464  -7.339   4.366  1.00  0.00    -0.550 OA
ENDBRANCH   4   5
ENDBRANCH   3   4
ENDBRANCH   2   3
ENDBRANCH   1   2
BRANCH   1   8
ATOM      8  C   UNL     1      17.921  -7.051   7.303  1.00  0.00     0.000 C 
BRANCH   8   9
ATOM      9  C   UNL     1      18.556  -7.431   5.960  1.00  0.00     0.000 C 
BRANCH   9  10
ATOM     10  C   UNL     1      19.891  -6.706   5.756  1.00  0.00     0.006 C 
BRANCH  10  11
ATOM     11  C   UNL     1      19.917  -5.968   4.414  1.00  0.00     0.053 C 
BRANCH  11  12
ATOM     12  C   UNL     1      21.163  -5.151   4.289  1.00  0.00     0.041 C 
ATOM     13  O   UNL     1      21.089  -3.906   4.109  1.00  0.00    -0.550 OA
ATOM     14  O   UNL     1      22.407  -5.755   4.419  1.00  0.00    -0.550 OA
ENDBRANCH  11  12
ENDBRANCH  10  11
ENDBRANCH   9  10
ENDBRANCH   8   9
ENDBRANCH   1   8
TORSDOF 9
ENDMDL
MODEL 2
REMARK VINA RESULT:    -3.323      2.732      3.298
REMARK INTER + INTRA:          -5.523
REMARK INTER:                  -5.039
REMARK INTRA:                  -0.484
REMARK UNBOUND:                -0.451
REMARK SMILES O=C([O-])CCCCCCCCC(=O)[O-]
REMARK SMILES IDX 7 1 6 2 5 3 4 4 2 5 1 6 3 7 8 8 9 9 10 10 11 11 12 12 13 13
REMARK SMILES IDX 14 14
REMARK H PARENT
REMARK Flexibility Score: inf
ROOT
ATOM      1  C   UNL     1      15.257  -7.836   6.661  1.00  0.00     0.000 C 
ENDROOT
BRANCH   1   2
ATOM      2  C   UNL     1      13.830  -8.353   6.906  1.00  0.00     0.000 C 
BRANCH   2   3
ATOM      3  C   UNL     1      12.877  -8.030   5.746  1.00  0.00     0.006 C 
BRANCH   3   4
ATOM      4  C   UNL     1      11.454  -7.788   6.259  1.00  0.00     0.053 C 
BRANCH   4   5
ATOM      5  C   UNL     1      10.497  -7.672   5.115  1.00  0.00     0.041 C 
ATOM      6  O   UNL     1       9.926  -8.699   4.660  1.00  0.00    -0.550 OA
ATOM      7  O   UNL     1      10.272  -6.439   4.517  1.00  0.00    -0.550 OA
ENDBRANCH   4   5
ENDBRANCH   3   4
ENDBRANCH   2   3
ENDBRANCH   1   2
BRANCH   1   8
ATOM      8  C   UNL     1      15.438  -7.239   5.256  1.00  0.00     0.000 C 
BRANCH   8   9
ATOM      9  C   UNL     1      16.894  -6.822   5.022  1.00  0.00     0.000 C 
BRANCH   9  10
ATOM     10  C   UNL     1      17.864  -7.887   5.547  1.00  0.00     0.006 C 
BRANCH  10  11
ATOM     11  C   UNL     1      19.039  -7.244   6.288  1.00  0.00     0.053 C 
BRANCH  11  12
ATOM     12  C   UNL     1      18.920  -7.474   7.761  1.00  0.00     0.041 C 
ATOM     13  O   UNL     1      18.215  -6.706   8.468  1.00  0.00    -0.550 OA
ATOM     14  O   UNL     1      19.546  -8.567   8.347  1.00  0.00    -0.550 OA
ENDBRANCH  11  12
ENDBRANCH  10  11
ENDBRANCH   9  10
ENDBRANCH   8   9
ENDBRANCH   1   8
TORSDOF 9
ENDMDL
MODEL 3
REMARK VINA RESULT:    -3.293      2.429      6.938
REMARK INTER + INTRA:          -5.477
REMARK INTER:                  -4.857
REMARK INTRA:                  -0.620
REMARK UNBOUND:                -0.451
REMARK SMILES O=C([O-])CCCCCCCCC(=O)[O-]
REMARK SMILES IDX 7 1 6 2 5 3 4 4 2 5 1 6 3 7 8 8 9 9 10 10 11 11 12 12 13 13
REMARK SMILES IDX 14 14
REMARK H PARENT
REMARK Flexibility Score: inf
ROOT
ATOM      1  C   UNL     1      16.968  -7.722   4.646  1.00  0.00     0.000 C 
ENDROOT
BRANCH   1   2
ATOM      2  C   UNL     1      18.181  -6.777   4.628  1.00  0.00     0.000 C 
BRANCH   2   3
ATOM      3  C   UNL     1      19.391  -7.353   5.378  1.00  0.00     0.006 C 
BRANCH   3   4
ATOM      4  C   UNL     1      18.970  -8.511   6.288  1.00  0.00     0.053 C 
BRANCH   4   5
ATOM      5  C   UNL     1      19.146  -8.138   7.726  1.00  0.00     0.041 C 
ATOM      6  O   UNL     1      18.758  -7.014   8.141  1.00  0.00    -0.550 OA
ATOM      7  O   UNL     1      19.782  -9.011   8.599  1.00  0.00    -0.550 OA
ENDBRANCH   4   5
ENDBRANCH   3   4
ENDBRANCH   2   3
ENDBRANCH   1   2
BRANCH   1   8
ATOM      8  C   UNL     1      15.715  -7.066   5.246  1.00  0.00     0.000 C 
BRANCH   8   9
ATOM      9  C   UNL     1      15.372  -7.683   6.608  1.00  0.00     0.000 C 
BRANCH   9  10
ATOM     10  C   UNL     1      13.945  -8.243   6.615  1.00  0.00     0.006 C 
BRANCH  10  11
ATOM     11  C   UNL     1      13.305  -8.136   5.228  1.00  0.00     0.053 C 
BRANCH  11  12
ATOM     12  C   UNL     1      11.935  -7.545   5.327  1.00  0.00     0.041 C 
ATOM     13  O   UNL     1      11.461  -6.880   4.367  1.00  0.00    -0.550 OA
ATOM     14  O   UNL     1      11.160  -7.768   6.458  1.00  0.00    -0.550 OA
ENDBRANCH  11  12
ENDBRANCH  10  11
ENDBRANCH   9  10
ENDBRANCH   8   9
ENDBRANCH   1   8
TORSDOF 9
ENDMDL
MODEL 4
REMARK VINA RESULT:    -3.242      3.276      9.097
REMARK INTER + INTRA:          -5.398
REMARK INTER:                  -5.102
REMARK INTRA:                  -0.297
REMARK UNBOUND:                -0.451
REMARK SMILES O=C([O-])CCCCCCCCC(=O)[O-]
REMARK SMILES IDX 7 1 6 2 5 3 4 4 2 5 1 6 3 7 8 8 9 9 10 10 11 11 12 12 13 13
REMARK SMILES IDX 14 14
REMARK H PARENT
REMARK Flexibility Score: inf
ROOT
ATOM      1  C   UNL     1      13.152  -8.262   5.826  1.00  0.00     0.000 C 
ENDROOT
BRANCH   1   2
ATOM      2  C   UNL     1      14.260  -8.284   6.892  1.00  0.00     0.000 C 
BRANCH   2   3
ATOM      3  C   UNL     1      15.626  -7.859   6.333  1.00  0.00     0.006 C 
BRANCH   3   4
ATOM      4  C   UNL     1      16.317  -6.868   7.276  1.00  0.00     0.053 C 
BRANCH   4   5
ATOM      5  C   UNL     1      17.796  -7.091   7.276  1.00  0.00     0.041 C 
ATOM      6  O   UNL     1      18.381  -7.466   6.226  1.00  0.00    -0.550 OA
ATOM      7  O   UNL     1      18.524  -6.931   8.448  1.00  0.00    -0.550 OA
ENDBRANCH   4   5
ENDBRANCH   3   4
ENDBRANCH   2   3
ENDBRANCH   1   2
BRANCH   1   8
ATOM      8  C   UNL     1      11.776  -7.907   6.409  1.00  0.00     0.000 C 
BRANCH   8   9
ATOM      9  C   UNL     1      10.796  -7.509   5.298  1.00  0.00     0.000 C 
BRANCH   9  10
ATOM     10  C   UNL     1       9.606  -8.474   5.241  1.00  0.00     0.006 C 
BRANCH  10  11
ATOM     11  C   UNL     1       9.289  -9.039   6.629  1.00  0.00     0.053 C 
BRANCH  11  12
ATOM     12  C   UNL     1       7.919  -8.626   7.063  1.00  0.00     0.041 C 
ATOM     13  O   UNL     1       7.125  -8.101   6.239  1.00  0.00    -0.550 OA
ATOM     14  O   UNL     1       7.500  -8.867   8.365  1.00  0.00    -0.550 OA
ENDBRANCH  11  12
ENDBRANCH  10  11
ENDBRANCH   9  10
ENDBRANCH   8   9
ENDBRANCH   1   8
TORSDOF 9
ENDMDL
MODEL 5
REMARK VINA RESULT:    -3.203      2.729      7.804
REMARK INTER + INTRA:          -5.339
REMARK INTER:                  -4.841
REMARK INTRA:                  -0.498
REMARK UNBOUND:                -0.451
REMARK SMILES O=C([O-])CCCCCCCCC(=O)[O-]
REMARK SMILES IDX 7 1 6 2 5 3 4 4 2 5 1 6 3 7 8 8 9 9 10 10 11 11 12 12 13 13
REMARK SMILES IDX 14 14
REMARK H PARENT
REMARK Flexibility Score: inf
ROOT
ATOM      1  C   UNL     1      15.210  -7.764   6.802  1.00  0.00     0.000 C 
ENDROOT
BRANCH   1   2
ATOM      2  C   UNL     1      16.098  -7.024   5.789  1.00  0.00     0.000 C 
BRANCH   2   3
ATOM      3  C   UNL     1      17.367  -7.811   5.428  1.00  0.00     0.006 C 
BRANCH   3   4
ATOM      4  C   UNL     1      18.616  -7.116   5.979  1.00  0.00     0.053 C 
BRANCH   4   5
ATOM      5  C   UNL     1      18.893  -7.569   7.377  1.00  0.00     0.041 C 
ATOM      6  O   UNL     1      19.401  -8.702   7.588  1.00  0.00    -0.550 OA
ATOM      7  O   UNL     1      18.546  -6.761   8.453  1.00  0.00    -0.550 OA
ENDBRANCH   4   5
ENDBRANCH   3   4
ENDBRANCH   2   3
ENDBRANCH   1   2
BRANCH   1   8
ATOM      8  C   UNL     1      13.880  -8.235   6.193  1.00  0.00     0.000 C 
BRANCH   8   9
ATOM      9  C   UNL     1      13.634  -7.568   4.834  1.00  0.00     0.000 C 
BRANCH   9  10
ATOM     10  C   UNL     1      12.134  -7.473   4.531  1.00  0.00     0.006 C 
BRANCH  10  11
ATOM     11  C   UNL     1      11.308  -7.526   5.819  1.00  0.00     0.053 C 
BRANCH  11  12
ATOM     12  C   UNL     1       9.992  -8.192   5.572  1.00  0.00     0.041 C 
ATOM     13  O   UNL     1       9.470  -8.157   4.426  1.00  0.00    -0.550 OA
ATOM     14  O   UNL     1       9.365  -8.895   6.592  1.00  0.00    -0.550 OA
ENDBRANCH  11  12
ENDBRANCH  10  11
ENDBRANCH   9  10
ENDBRANCH   8   9
ENDBRANCH   1   8
TORSDOF 9
ENDMDL
MODEL 6
REMARK VINA RESULT:    -3.174      1.031      7.151
REMARK INTER + INTRA:          -5.295
REMARK INTER:                  -4.743
REMARK INTRA:                  -0.552
REMARK UNBOUND:                -0.451
REMARK SMILES O=C([O-])CCCCCCCCC(=O)[O-]
REMARK SMILES IDX 7 1 6 2 5 3 4 4 2 5 1 6 3 7 8 8 9 9 10 10 11 11 12 12 13 13
REMARK SMILES IDX 14 14
REMARK H PARENT
REMARK Flexibility Score: inf
ROOT
ATOM      1  C   UNL     1      17.854  -7.453   6.913  1.00  0.00     0.000 C 
ENDROOT
BRANCH   1   2
ATOM      2  C   UNL     1      19.193  -6.790   6.553  1.00  0.00     0.000 C 
BRANCH   2   3
ATOM      3  C   UNL     1      19.741  -7.262   5.197  1.00  0.00     0.006 C 
BRANCH   3   4
ATOM      4  C   UNL     1      19.799  -6.102   4.198  1.00  0.00     0.053 C 
BRANCH   4   5
ATOM      5  C   UNL     1      21.039  -5.293   4.407  1.00  0.00     0.041 C 
ATOM      6  O   UNL     1      22.141  -5.864   4.621  1.00  0.00    -0.550 OA
ATOM      7  O   UNL     1      20.973  -3.906   4.413  1.00  0.00    -0.550 OA
ENDBRANCH   4   5
ENDBRANCH   3   4
ENDBRANCH   2   3
ENDBRANCH   1   2
BRANCH   1   8
ATOM      8  C   UNL     1      17.024  -7.822   5.673  1.00  0.00     0.000 C 
BRANCH   8   9
ATOM      9  C   UNL     1      16.029  -6.707   5.328  1.00  0.00     0.000 C 
BRANCH   9  10
ATOM     10  C   UNL     1      14.779  -7.276   4.646  1.00  0.00     0.006 C 
BRANCH  10  11
ATOM     11  C   UNL     1      14.335  -8.581   5.313  1.00  0.00     0.053 C 
BRANCH  11  12
ATOM     12  C   UNL     1      13.433  -8.298   6.472  1.00  0.00     0.041 C 
ATOM     13  O   UNL     1      13.875  -8.370   7.649  1.00  0.00    -0.550 OA
ATOM     14  O   UNL     1      12.119  -7.907   6.252  1.00  0.00    -0.550 OA
ENDBRANCH  11  12
ENDBRANCH  10  11
ENDBRANCH   9  10
ENDBRANCH   8   9
ENDBRANCH   1   8
TORSDOF 9
ENDMDL
MODEL 7
REMARK VINA RESULT:    -3.136      3.219      4.523
REMARK INTER + INTRA:          -5.238
REMARK INTER:                  -5.054
REMARK INTRA:                  -0.184
REMARK UNBOUND:                -0.451
REMARK SMILES O=C([O-])CCCCCCCCC(=O)[O-]
REMARK SMILES IDX 7 1 6 2 5 3 4 4 2 5 1 6 3 7 8 8 9 9 10 10 11 11 12 12 13 13
REMARK SMILES IDX 14 14
REMARK H PARENT
REMARK Flexibility Score: inf
ROOT
ATOM      1  C   UNL     1      12.837  -8.217   5.705  1.00  0.00     0.000 C 
ENDROOT
BRANCH   1   2
ATOM      2  C   UNL     1      11.463  -7.799   6.254  1.00  0.00     0.000 C 
BRANCH   2   3
ATOM      3  C   UNL     1      10.299  -8.457   5.498  1.00  0.00     0.006 C 
BRANCH   3   4
ATOM      4  C   UNL     1       9.219  -8.940   6.471  1.00  0.00     0.053 C 
BRANCH   4   5
ATOM      5  C   UNL     1       7.870  -8.461   6.036  1.00  0.00     0.041 C 
ATOM      6  O   UNL     1       6.987  -8.190   6.892  1.00  0.00    -0.550 OA
ATOM      7  O   UNL     1       7.570  -8.360   4.684  1.00  0.00    -0.550 OA
ENDBRANCH   4   5
ENDBRANCH   3   4
ENDBRANCH   2   3
ENDBRANCH   1   2
BRANCH   1   8
ATOM      8  C   UNL     1      13.927  -8.232   6.787  1.00  0.00     0.000 C 
BRANCH   8   9
ATOM      9  C   UNL     1      15.322  -8.121   6.161  1.00  0.00     0.000 C 
BRANCH   9  10
ATOM     10  C   UNL     1      16.174  -7.078   6.895  1.00  0.00     0.006 C 
BRANCH  10  11
ATOM     11  C   UNL     1      17.623  -7.104   6.400  1.00  0.00     0.053 C 
BRANCH  11  12
ATOM     12  C   UNL     1      18.558  -7.397   7.529  1.00  0.00     0.041 C 
ATOM     13  O   UNL     1      18.629  -6.613   8.512  1.00  0.00    -0.550 OA
ATOM     14  O   UNL     1      19.316  -8.561   7.521  1.00  0.00    -0.550 OA
ENDBRANCH  11  12
ENDBRANCH  10  11
ENDBRANCH   9  10
ENDBRANCH   8   9
ENDBRANCH   1   8
TORSDOF 9
ENDMDL
MODEL 8
REMARK VINA RESULT:    -3.125      3.811      6.085
REMARK INTER + INTRA:          -5.221
REMARK INTER:                  -4.783
REMARK INTRA:                  -0.438
REMARK UNBOUND:                -0.451
REMARK SMILES O=C([O-])CCCCCCCCC(=O)[O-]
REMARK SMILES IDX 7 1 6 2 5 3 4 4 2 5 1 6 3 7 8 8 9 9 10 10 11 11 12 12 13 13
REMARK SMILES IDX 14 14
REMARK H PARENT
REMARK Flexibility Score: inf
ROOT
ATOM      1  C   UNL     1      10.736  -7.713   5.689  1.00  0.00     0.000 C 
ENDROOT
BRANCH   1   2
ATOM      2  C   UNL     1       9.427  -7.873   4.899  1.00  0.00     0.000 C 
BRANCH   2   3
ATOM      3  C   UNL     1       8.574  -9.049   5.398  1.00  0.00     0.006 C 
BRANCH   3   4
ATOM      4  C   UNL     1       8.804  -9.295   6.893  1.00  0.00     0.053 C 
BRANCH   4   5
ATOM      5  C   UNL     1       7.572  -8.961   7.673  1.00  0.00     0.041 C 
ATOM      6  O   UNL     1       6.875  -7.959   7.360  1.00  0.00    -0.550 OA
ATOM      7  O   UNL     1       7.218  -9.726   8.777  1.00  0.00    -0.550 OA
ENDBRANCH   4   5
ENDBRANCH   3   4
ENDBRANCH   2   3
ENDBRANCH   1   2
BRANCH   1   8
ATOM      8  C   UNL     1      11.958  -7.522   4.778  1.00  0.00     0.000 C 
BRANCH   8   9
ATOM      9  C   UNL     1      13.046  -8.555   5.096  1.00  0.00     0.000 C 
BRANCH   9  10
ATOM     10  C   UNL     1      13.697  -8.268   6.455  1.00  0.00     0.006 C 
BRANCH  10  11
ATOM     11  C   UNL     1      15.216  -8.450   6.387  1.00  0.00     0.053 C 
BRANCH  11  12
ATOM     12  C   UNL     1      15.906  -7.124   6.432  1.00  0.00     0.041 C 
ATOM     13  O   UNL     1      16.016  -6.431   5.386  1.00  0.00    -0.550 OA
ATOM     14  O   UNL     1      16.384  -6.629   7.638  1.00  0.00    -0.550 OA
ENDBRANCH  11  12
ENDBRANCH  10  11
ENDBRANCH   9  10
ENDBRANCH   8   9
ENDBRANCH   1   8
TORSDOF 9
ENDMDL
MODEL 9
REMARK VINA RESULT:    -3.014      4.838     10.115
REMARK INTER + INTRA:          -5.051
REMARK INTER:                  -4.440
REMARK INTRA:                  -0.611
REMARK UNBOUND:                -0.451
REMARK SMILES O=C([O-])CCCCCCCCC(=O)[O-]
REMARK SMILES IDX 7 1 6 2 5 3 4 4 2 5 1 6 3 7 8 8 9 9 10 10 11 11 12 12 13 13
REMARK SMILES IDX 14 14
REMARK H PARENT
REMARK Flexibility Score: inf
ROOT
ATOM      1  C   UNL     1       9.480  -8.936   5.260  1.00  0.00     0.000 C 
ENDROOT
BRANCH   1   2
ATOM      2  C   UNL     1      10.442  -7.788   4.915  1.00  0.00     0.000 C 
BRANCH   2   3
ATOM      3  C   UNL     1      11.593  -7.658   5.925  1.00  0.00     0.006 C 
BRANCH   3   4
ATOM      4  C   UNL     1      12.925  -8.070   5.291  1.00  0.00     0.053 C 
BRANCH   4   5
ATOM      5  C   UNL     1      14.010  -8.093   6.320  1.00  0.00     0.041 C 
ATOM      6  O   UNL     1      15.195  -7.809   6.000  1.00  0.00    -0.550 OA
ATOM      7  O   UNL     1      13.724  -8.476   7.625  1.00  0.00    -0.550 OA
ENDBRANCH   4   5
ENDBRANCH   3   4
ENDBRANCH   2   3
ENDBRANCH   1   2
BRANCH   1   8
ATOM      8  C   UNL     1       9.150  -9.002   6.759  1.00  0.00     0.000 C 
BRANCH   8   9
ATOM      9  C   UNL     1       7.699  -9.447   6.982  1.00  0.00     0.000 C 
BRANCH   9  10
ATOM     10  C   UNL     1       6.929  -9.495   5.658  1.00  0.00     0.006 C 
BRANCH  10  11
ATOM     11  C   UNL     1       5.726  -8.547   5.686  1.00  0.00     0.053 C 
BRANCH  11  12
ATOM     12  C   UNL     1       6.174  -7.127   5.539  1.00  0.00     0.041 C 
ATOM     13  O   UNL     1       5.914  -6.285   6.439  1.00  0.00    -0.550 OA
ATOM     14  O   UNL     1       6.921  -6.744   4.433  1.00  0.00    -0.550 OA
ENDBRANCH  11  12
ENDBRANCH  10  11
ENDBRANCH   9  10
ENDBRANCH   8   9
ENDBRANCH   1   8
TORSDOF 9
ENDMDL
