MODEL 1
REMARK VINA RESULT:    -3.884      0.000      0.000
REMARK INTER + INTRA:          -6.092
REMARK INTER:                  -5.927
REMARK INTRA:                  -0.165
REMARK UNBOUND:                -0.165
REMARK SMILES O=C([O-])CCCCCCCCC(=O)[O-]
REMARK SMILES IDX 7 1 6 2 5 3 4 4 2 5 1 6 3 7 8 8 9 9 10 10 11 11 12 12 13 13
REMARK SMILES IDX 14 14
REMARK H PARENT
REMARK Flexibility Score: inf
ROOT
ATOM      1  C   UNL     1      -2.555  37.624  19.191  1.00  0.00     0.000 C 
ENDROOT
BRANCH   1   2
ATOM      2  C   UNL     1      -4.088  37.502  19.175  1.00  0.00     0.000 C 
BRANCH   2   3
ATOM      3  C   UNL     1      -4.576  36.130  19.674  1.00  0.00     0.006 C 
BRANCH   3   4
ATOM      4  C   UNL     1      -5.125  36.197  21.105  1.00  0.00     0.053 C 
BRANCH   4   5
ATOM      5  C   UNL     1      -4.383  35.283  22.032  1.00  0.00     0.041 C 
ATOM      6  O   UNL     1      -3.243  34.849  21.715  1.00  0.00    -0.550 OA
ATOM      7  O   UNL     1      -4.961  34.887  23.231  1.00  0.00    -0.550 OA
ENDBRANCH   4   5
ENDBRANCH   3   4
ENDBRANCH   2   3
ENDBRANCH   1   2
BRANCH   1   8
ATOM      8  C   UNL     1      -1.938  37.512  17.786  1.00  0.00     0.000 C 
BRANCH   8   9
ATOM      9  C   UNL     1      -2.896  36.870  16.769  1.00  0.00     0.000 C 
BRANCH   9  10
ATOM     10  C   UNL     1      -2.154  36.200  15.600  1.00  0.00     0.006 C 
BRANCH  10  11
ATOM     11  C   UNL     1      -2.464  36.874  14.256  1.00  0.00     0.053 C 
BRANCH  11  12
ATOM     12  C   UNL     1      -3.824  37.500  14.247  1.00  0.00     0.041 C 
ATOM     13  O   UNL     1      -4.831  36.822  13.910  1.00  0.00    -0.550 OA
ATOM     14  O   UNL     1      -3.978  38.839  14.581  1.00  0.00    -0.550 OA
ENDBRANCH  11  12
ENDBRANCH  10  11
ENDBRANCH   9  10
ENDBRANCH   8   9
ENDBRANCH   1   8
TORSDOF 9
ENDMDL
MODEL 2
REMARK VINA RESULT:    -3.445      0.992      6.498
REMARK INTER + INTRA:          -5.423
REMARK INTER:                  -4.945
REMARK INTRA:                  -0.478
REMARK UNBOUND:                -0.165
REMARK SMILES O=C([O-])CCCCCCCCC(=O)[O-]
REMARK SMILES IDX 7 1 6 2 5 3 4 4 2 5 1 6 3 7 8 8 9 9 10 10 11 11 12 12 13 13
REMARK SMILES IDX 14 14
REMARK H PARENT
REMARK Flexibility Score: inf
ROOT
ATOM      1  C   UNL     1      -1.958  37.593  19.024  1.00  0.00     0.000 C 
ENDROOT
BRANCH   1   2
ATOM      2  C   UNL     1      -2.170  37.627  17.502  1.00  0.00     0.000 C 
BRANCH   2   3
ATOM      3  C   UNL     1      -2.266  36.220  16.887  1.00  0.00     0.006 C 
BRANCH   3   4
ATOM      4  C   UNL     1      -3.444  36.092  15.914  1.00  0.00     0.053 C 
BRANCH   4   5
ATOM      5  C   UNL     1      -3.227  36.893  14.666  1.00  0.00     0.041 C 
ATOM      6  O   UNL     1      -2.159  36.765  14.010  1.00  0.00    -0.550 OA
ATOM      7  O   UNL     1      -4.190  37.802  14.244  1.00  0.00    -0.550 OA
ENDBRANCH   4   5
ENDBRANCH   3   4
ENDBRANCH   2   3
ENDBRANCH   1   2
BRANCH   1   8
ATOM      8  C   UNL     1      -3.253  37.873  19.808  1.00  0.00     0.000 C 
BRANCH   8   9
ATOM      9  C   UNL     1      -4.494  37.266  19.136  1.00  0.00     0.000 C 
BRANCH   9  10
ATOM     10  C   UNL     1      -5.035  36.039  19.890  1.00  0.00     0.006 C 
BRANCH  10  11
ATOM     11  C   UNL     1      -5.125  36.282  21.402  1.00  0.00     0.053 C 
BRANCH  11  12
ATOM     12  C   UNL     1      -4.483  35.176  22.183  1.00  0.00     0.041 C 
ATOM     13  O   UNL     1      -5.055  34.707  23.203  1.00  0.00    -0.550 OA
ATOM     14  O   UNL     1      -3.242  34.683  21.802  1.00  0.00    -0.550 OA
ENDBRANCH  11  12
ENDBRANCH  10  11
ENDBRANCH   9  10
ENDBRANCH   8   9
ENDBRANCH   1   8
TORSDOF 9
ENDMDL
MODEL 3
REMARK VINA RESULT:    -3.319      0.932      1.558
REMARK INTER + INTRA:          -5.231
REMARK INTER:                  -5.128
REMARK INTRA:                  -0.103
REMARK UNBOUND:                -0.165
REMARK SMILES O=C([O-])CCCCCCCCC(=O)[O-]
REMARK SMILES IDX 7 1 6 2 5 3 4 4 2 5 1 6 3 7 8 8 9 9 10 10 11 11 12 12 13 13
REMARK SMILES IDX 14 14
REMARK H PARENT
REMARK Flexibility Score: inf
ROOT
ATOM      1  C   UNL     1      -2.516  37.379  19.952  1.00  0.00     0.000 C 
ENDROOT
BRANCH   1   2
ATOM      2  C   UNL     1      -4.000  37.649  19.653  1.00  0.00     0.000 C 
BRANCH   2   3
ATOM      3  C   UNL     1      -4.915  36.504  20.121  1.00  0.00     0.006 C 
BRANCH   3   4
ATOM      4  C   UNL     1      -5.125  36.516  21.641  1.00  0.00     0.053 C 
BRANCH   4   5
ATOM      5  C   UNL     1      -4.570  35.286  22.291  1.00  0.00     0.041 C 
ATOM      6  O   UNL     1      -5.086  34.841  23.350  1.00  0.00    -0.550 OA
ATOM      7  O   UNL     1      -3.463  34.647  21.744  1.00  0.00    -0.550 OA
ENDBRANCH   4   5
ENDBRANCH   3   4
ENDBRANCH   2   3
ENDBRANCH   1   2
BRANCH   1   8
ATOM      8  C   UNL     1      -1.576  38.034  18.925  1.00  0.00     0.000 C 
BRANCH   8   9
ATOM      9  C   UNL     1      -1.386  37.174  17.665  1.00  0.00     0.000 C 
BRANCH   9  10
ATOM     10  C   UNL     1      -2.723  36.748  17.033  1.00  0.00     0.006 C 
BRANCH  10  11
ATOM     11  C   UNL     1      -3.204  37.743  15.969  1.00  0.00     0.053 C 
BRANCH  11  12
ATOM     12  C   UNL     1      -3.348  37.096  14.626  1.00  0.00     0.041 C 
ATOM     13  O   UNL     1      -2.415  36.389  14.160  1.00  0.00    -0.550 OA
ATOM     14  O   UNL     1      -4.500  37.296  13.876  1.00  0.00    -0.550 OA
ENDBRANCH  11  12
ENDBRANCH  10  11
ENDBRANCH   9  10
ENDBRANCH   8   9
ENDBRANCH   1   8
TORSDOF 9
ENDMDL
MODEL 4
REMARK VINA RESULT:    -1.775      2.398      5.857
REMARK INTER + INTRA:          -2.875
REMARK INTER:                  -2.796
REMARK INTRA:                  -0.079
REMARK UNBOUND:                -0.165
REMARK SMILES O=C([O-])CCCCCCCCC(=O)[O-]
REMARK SMILES IDX 7 1 6 2 5 3 4 4 2 5 1 6 3 7 8 8 9 9 10 10 11 11 12 12 13 13
REMARK SMILES IDX 14 14
REMARK H PARENT
REMARK Flexibility Score: inf
ROOT
ATOM      1  C   UNL     1      -4.574  35.904  17.774  1.00  0.00     0.000 C 
ENDROOT
BRANCH   1   2
ATOM      2  C   UNL     1      -3.694  35.167  16.751  1.00  0.00     0.000 C 
BRANCH   2   3
ATOM      3  C   UNL     1      -2.591  36.066  16.165  1.00  0.00     0.006 C 
BRANCH   3   4
ATOM      4  C   UNL     1      -2.827  36.378  14.682  1.00  0.00     0.053 C 
BRANCH   4   5
ATOM      5  C   UNL     1      -3.873  37.434  14.493  1.00  0.00     0.041 C 
ATOM      6  O   UNL     1      -4.940  37.166  13.879  1.00  0.00    -0.550 OA
ATOM      7  O   UNL     1      -3.658  38.722  14.969  1.00  0.00    -0.550 OA
ENDBRANCH   4   5
ENDBRANCH   3   4
ENDBRANCH   2   3
ENDBRANCH   1   2
BRANCH   1   8
ATOM      8  C   UNL     1      -4.724  35.126  19.094  1.00  0.00     0.000 C 
BRANCH   8   9
ATOM      9  C   UNL     1      -4.482  36.007  20.329  1.00  0.00     0.000 C 
BRANCH   9  10
ATOM     10  C   UNL     1      -3.938  37.399  19.966  1.00  0.00     0.006 C 
BRANCH  10  11
ATOM     11  C   UNL     1      -2.446  37.541  20.295  1.00  0.00     0.053 C 
BRANCH  11  12
ATOM     12  C   UNL     1      -1.629  37.816  19.070  1.00  0.00     0.041 C 
ATOM     13  O   UNL     1      -2.195  38.112  17.984  1.00  0.00    -0.550 OA
ATOM     14  O   UNL     1      -0.244  37.717  19.118  1.00  0.00    -0.550 OA
ENDBRANCH  11  12
ENDBRANCH  10  11
ENDBRANCH   9  10
ENDBRANCH   8   9
ENDBRANCH   1   8
TORSDOF 9
ENDMDL
MODEL 5
REMARK VINA RESULT:    -1.541      1.263      6.170
REMARK INTER + INTRA:          -2.518
REMARK INTER:                  -2.371
REMARK INTRA:                  -0.147
REMARK UNBOUND:                -0.165
REMARK SMILES O=C([O-])CCCCCCCCC(=O)[O-]
REMARK SMILES IDX 7 1 6 2 5 3 4 4 2 5 1 6 3 7 8 8 9 9 10 10 11 11 12 12 13 13
REMARK SMILES IDX 14 14
REMARK H PARENT
REMARK Flexibility Score: inf
ROOT
ATOM      1  C   UNL     1      -1.588  36.530  17.153  1.00  0.00     0.000 C 
ENDROOT
BRANCH   1   2
ATOM      2  C   UNL     1      -1.971  35.749  15.885  1.00  0.00     0.000 C 
BRANCH   2   3
ATOM      3  C   UNL     1      -2.214  36.670  14.675  1.00  0.00     0.006 C 
BRANCH   3   4
ATOM      4  C   UNL     1      -3.706  36.940  14.445  1.00  0.00     0.053 C 
BRANCH   4   5
ATOM      5  C   UNL     1      -4.033  38.397  14.557  1.00  0.00     0.041 C 
ATOM      6  O   UNL     1      -3.338  39.148  15.292  1.00  0.00    -0.550 OA
ATOM      7  O   UNL     1      -5.125  38.922  13.875  1.00  0.00    -0.550 OA
ENDBRANCH   4   5
ENDBRANCH   3   4
ENDBRANCH   2   3
ENDBRANCH   1   2
BRANCH   1   8
ATOM      8  C   UNL     1      -2.777  37.298  17.757  1.00  0.00     0.000 C 
BRANCH   8   9
ATOM      9  C   UNL     1      -2.601  37.573  19.259  1.00  0.00     0.000 C 
BRANCH   9  10
ATOM     10  C   UNL     1      -3.866  38.164  19.904  1.00  0.00     0.006 C 
BRANCH  10  11
ATOM     11  C   UNL     1      -5.101  37.285  19.671  1.00  0.00     0.053 C 
BRANCH  11  12
ATOM     12  C   UNL     1      -4.867  35.870  20.103  1.00  0.00     0.041 C 
ATOM     13  O   UNL     1      -4.718  35.597  21.323  1.00  0.00    -0.550 OA
ATOM     14  O   UNL     1      -4.785  34.857  19.156  1.00  0.00    -0.550 OA
ENDBRANCH  11  12
ENDBRANCH  10  11
ENDBRANCH   9  10
ENDBRANCH   8   9
ENDBRANCH   1   8
TORSDOF 9
ENDMDL
MODEL 6
REMARK VINA RESULT:    -1.538      2.653      6.255
REMARK INTER + INTRA:          -2.513
REMARK INTER:                  -2.136
REMARK INTRA:                  -0.377
REMARK UNBOUND:                -0.165
REMARK SMILES O=C([O-])CCCCCCCCC(=O)[O-]
REMARK SMILES IDX 7 1 6 2 5 3 4 4 2 5 1 6 3 7 8 8 9 9 10 10 11 11 12 12 13 13
REMARK SMILES IDX 14 14
REMARK H PARENT
REMARK Flexibility Score: inf
ROOT
ATOM      1  C   UNL     1      -3.675  35.334  17.370  1.00  0.00     0.000 C 
ENDROOT
BRANCH   1   2
ATOM      2  C   UNL     1      -3.631  36.625  16.537  1.00  0.00     0.000 C 
BRANCH   2   3
ATOM      3  C   UNL     1      -2.219  37.233  16.464  1.00  0.00     0.006 C 
BRANCH   3   4
ATOM      4  C   UNL     1      -1.334  36.780  17.632  1.00  0.00     0.053 C 
BRANCH   4   5
ATOM      5  C   UNL     1      -1.213  37.840  18.685  1.00  0.00     0.041 C 
ATOM      6  O   UNL     1      -0.461  38.833  18.500  1.00  0.00    -0.550 OA
ATOM      7  O   UNL     1      -1.908  37.716  19.882  1.00  0.00    -0.550 OA
ENDBRANCH   4   5
ENDBRANCH   3   4
ENDBRANCH   2   3
ENDBRANCH   1   2
BRANCH   1   8
ATOM      8  C   UNL     1      -4.738  35.383  18.482  1.00  0.00     0.000 C 
BRANCH   8   9
ATOM      9  C   UNL     1      -4.645  36.659  19.333  1.00  0.00     0.000 C 
BRANCH   9  10
ATOM     10  C   UNL     1      -5.125  36.443  20.778  1.00  0.00     0.006 C 
BRANCH  10  11
ATOM     11  C   UNL     1      -4.264  35.418  21.528  1.00  0.00     0.053 C 
BRANCH  11  12
ATOM     12  C   UNL     1      -4.843  35.076  22.867  1.00  0.00     0.041 C 
ATOM     13  O   UNL     1      -5.090  35.987  23.701  1.00  0.00    -0.550 OA
ATOM     14  O   UNL     1      -5.083  33.751  23.205  1.00  0.00    -0.550 OA
ENDBRANCH  11  12
ENDBRANCH  10  11
ENDBRANCH   9  10
ENDBRANCH   8   9
ENDBRANCH   1   8
TORSDOF 9
ENDMDL
MODEL 7
REMARK VINA RESULT:    -1.436      2.126      5.518
REMARK INTER + INTRA:          -2.356
REMARK INTER:                  -2.052
REMARK INTRA:                  -0.304
REMARK UNBOUND:                -0.165
REMARK SMILES O=C([O-])CCCCCCCCC(=O)[O-]
REMARK SMILES IDX 7 1 6 2 5 3 4 4 2 5 1 6 3 7 8 8 9 9 10 10 11 11 12 12 13 13
REMARK SMILES IDX 14 14
REMARK H PARENT
REMARK Flexibility Score: inf
ROOT
ATOM      1  C   UNL     1      -1.539  37.633  19.986  1.00  0.00     0.000 C 
ENDROOT
BRANCH   1   2
ATOM      2  C   UNL     1      -1.096  37.958  18.550  1.00  0.00     0.000 C 
BRANCH   2   3
ATOM      3  C   UNL     1      -2.239  37.808  17.531  1.00  0.00     0.006 C 
BRANCH   3   4
ATOM      4  C   UNL     1      -2.020  36.616  16.589  1.00  0.00     0.053 C 
BRANCH   4   5
ATOM      5  C   UNL     1      -2.582  36.873  15.225  1.00  0.00     0.041 C 
ATOM      6  O   UNL     1      -2.019  36.390  14.207  1.00  0.00    -0.550 OA
ATOM      7  O   UNL     1      -3.711  37.670  15.074  1.00  0.00    -0.550 OA
ENDBRANCH   4   5
ENDBRANCH   3   4
ENDBRANCH   2   3
ENDBRANCH   1   2
BRANCH   1   8
ATOM      8  C   UNL     1      -3.068  37.512  20.121  1.00  0.00     0.000 C 
BRANCH   8   9
ATOM      9  C   UNL     1      -3.491  36.336  21.014  1.00  0.00     0.000 C 
BRANCH   9  10
ATOM     10  C   UNL     1      -4.966  35.946  20.820  1.00  0.00     0.006 C 
BRANCH  10  11
ATOM     11  C   UNL     1      -5.120  34.581  20.136  1.00  0.00     0.053 C 
BRANCH  11  12
ATOM     12  C   UNL     1      -5.027  34.691  18.645  1.00  0.00     0.041 C 
ATOM     13  O   UNL     1      -5.002  33.651  17.935  1.00  0.00    -0.550 OA
ATOM     14  O   UNL     1      -4.938  35.939  18.042  1.00  0.00    -0.550 OA
ENDBRANCH  11  12
ENDBRANCH  10  11
ENDBRANCH   9  10
ENDBRANCH   8   9
ENDBRANCH   1   8
TORSDOF 9
ENDMDL
