MODEL 1
REMARK VINA RESULT:    -3.595      0.000      0.000
REMARK INTER + INTRA:          -4.053
REMARK INTER:                  -4.015
REMARK INTRA:                  -0.037
REMARK UNBOUND:                -0.037
REMARK SMILES CCCC(=O)[O-]
REMARK SMILES IDX 3 1 4 2 5 3 6 4 2 5 1 6
REMARK H PARENT
REMARK Flexibility Score: inf
ROOT
ATOM      1  C   UNL     1       9.144 -17.371 -27.298  1.00  0.00     0.052 C 
ENDROOT
BRANCH   1   2
ATOM      2  C   UNL     1       9.294 -17.965 -28.662  1.00  0.00     0.041 C 
ATOM      3  O   UNL     1      10.258 -18.733 -28.916  1.00  0.00    -0.550 OA
ATOM      4  O   UNL     1       8.341 -17.710 -29.640  1.00  0.00    -0.550 OA
ENDBRANCH   1   2
BRANCH   1   5
ATOM      5  C   UNL     1       7.666 -17.128 -26.979  1.00  0.00     0.003 C 
ATOM      6  C   UNL     1       7.355 -15.635 -26.916  1.00  0.00     0.004 C 
ENDBRANCH   1   5
TORSDOF 2
ENDMDL
MODEL 2
REMARK VINA RESULT:    -3.583      2.341      2.854
REMARK INTER + INTRA:          -4.039
REMARK INTER:                  -4.008
REMARK INTRA:                  -0.031
REMARK UNBOUND:                -0.037
REMARK SMILES CCCC(=O)[O-]
REMARK SMILES IDX 3 1 4 2 5 3 6 4 2 5 1 6
REMARK H PARENT
REMARK Flexibility Score: inf
ROOT
ATOM      1  C   UNL     1       8.354 -16.943 -29.214  1.00  0.00     0.052 C 
ENDROOT
BRANCH   1   2
ATOM      2  C   UNL     1       7.740 -15.905 -30.098  1.00  0.00     0.041 C 
ATOM      3  O   UNL     1       7.342 -14.814 -29.613  1.00  0.00    -0.550 OA
ATOM      4  O   UNL     1       7.653 -16.122 -31.468  1.00  0.00    -0.550 OA
ENDBRANCH   1   2
BRANCH   1   5
ATOM      5  C   UNL     1       8.285 -16.507 -27.748  1.00  0.00     0.003 C 
ATOM      6  C   UNL     1       7.535 -17.532 -26.903  1.00  0.00     0.004 C 
ENDBRANCH   1   5
TORSDOF 2
ENDMDL
MODEL 3
REMARK VINA RESULT:    -3.476      3.449      3.992
REMARK INTER + INTRA:          -3.919
REMARK INTER:                  -3.909
REMARK INTRA:                  -0.010
REMARK UNBOUND:                -0.037
REMARK SMILES CCCC(=O)[O-]
REMARK SMILES IDX 3 1 4 2 5 3 6 4 2 5 1 6
REMARK H PARENT
REMARK Flexibility Score: inf
ROOT
ATOM      1  C   UNL     1      12.281 -18.302 -27.522  1.00  0.00     0.052 C 
ENDROOT
BRANCH   1   2
ATOM      2  C   UNL     1      11.429 -19.084 -28.472  1.00  0.00     0.041 C 
ATOM      3  O   UNL     1      11.824 -20.196 -28.909  1.00  0.00    -0.550 OA
ATOM      4  O   UNL     1      10.176 -18.607 -28.836  1.00  0.00    -0.550 OA
ENDBRANCH   1   2
BRANCH   1   5
ATOM      5  C   UNL     1      12.773 -19.199 -26.383  1.00  0.00     0.003 C 
ATOM      6  C   UNL     1      12.539 -18.542 -25.025  1.00  0.00     0.004 C 
ENDBRANCH   1   5
TORSDOF 2
ENDMDL
MODEL 4
REMARK VINA RESULT:    -3.451      3.411      4.158
REMARK INTER + INTRA:          -3.892
REMARK INTER:                  -3.884
REMARK INTRA:                  -0.008
REMARK UNBOUND:                -0.037
REMARK SMILES CCCC(=O)[O-]
REMARK SMILES IDX 3 1 4 2 5 3 6 4 2 5 1 6
REMARK H PARENT
REMARK Flexibility Score: inf
ROOT
ATOM      1  C   UNL     1      12.182 -18.312 -27.463  1.00  0.00     0.052 C 
ENDROOT
BRANCH   1   2
ATOM      2  C   UNL     1      11.353 -19.102 -28.425  1.00  0.00     0.041 C 
ATOM      3  O   UNL     1      10.245 -18.656 -28.823  1.00  0.00    -0.550 OA
ATOM      4  O   UNL     1      11.828 -20.309 -28.923  1.00  0.00    -0.550 OA
ENDBRANCH   1   2
BRANCH   1   5
ATOM      5  C   UNL     1      12.674 -19.205 -26.321  1.00  0.00     0.003 C 
ATOM      6  C   UNL     1      12.526 -18.506 -24.972  1.00  0.00     0.004 C 
ENDBRANCH   1   5
TORSDOF 2
ENDMDL
MODEL 5
REMARK VINA RESULT:    -3.394      2.940      4.035
REMARK INTER + INTRA:          -3.828
REMARK INTER:                  -3.758
REMARK INTRA:                  -0.070
REMARK UNBOUND:                -0.037
REMARK SMILES CCCC(=O)[O-]
REMARK SMILES IDX 3 1 4 2 5 3 6 4 2 5 1 6
REMARK H PARENT
REMARK Flexibility Score: inf
ROOT
ATOM      1  C   UNL     1      12.207 -18.232 -27.816  1.00  0.00     0.052 C 
ENDROOT
BRANCH   1   2
ATOM      2  C   UNL     1      10.717 -18.094 -27.820  1.00  0.00     0.041 C 
ATOM      3  O   UNL     1      10.132 -17.520 -26.865  1.00  0.00    -0.550 OA
ATOM      4  O   UNL     1       9.978 -18.556 -28.902  1.00  0.00    -0.550 OA
ENDBRANCH   1   2
BRANCH   1   5
ATOM      5  C   UNL     1      12.668 -19.027 -26.591  1.00  0.00     0.003 C 
ATOM      6  C   UNL     1      12.131 -20.455 -26.627  1.00  0.00     0.004 C 
ENDBRANCH   1   5
TORSDOF 2
ENDMDL
MODEL 6
REMARK VINA RESULT:    -3.304      4.159      5.366
REMARK INTER + INTRA:          -3.728
REMARK INTER:                  -3.693
REMARK INTRA:                  -0.035
REMARK UNBOUND:                -0.037
REMARK SMILES CCCC(=O)[O-]
REMARK SMILES IDX 3 1 4 2 5 3 6 4 2 5 1 6
REMARK H PARENT
REMARK Flexibility Score: inf
ROOT
ATOM      1  C   UNL     1      12.752 -18.921 -26.109  1.00  0.00     0.052 C 
ENDROOT
BRANCH   1   2
ATOM      2  C   UNL     1      11.644 -18.316 -25.306  1.00  0.00     0.041 C 
ATOM      3  O   UNL     1      10.450 -18.428 -25.688  1.00  0.00    -0.550 OA
ATOM      4  O   UNL     1      11.925 -17.670 -24.109  1.00  0.00    -0.550 OA
ENDBRANCH   1   2
BRANCH   1   5
ATOM      5  C   UNL     1      12.186 -19.725 -27.283  1.00  0.00     0.003 C 
ATOM      6  C   UNL     1      12.519 -21.208 -27.146  1.00  0.00     0.004 C 
ENDBRANCH   1   5
TORSDOF 2
ENDMDL
MODEL 7
REMARK VINA RESULT:    -3.301      4.608      5.711
REMARK INTER + INTRA:          -3.724
REMARK INTER:                  -3.693
REMARK INTRA:                  -0.031
REMARK UNBOUND:                -0.037
REMARK SMILES CCCC(=O)[O-]
REMARK SMILES IDX 3 1 4 2 5 3 6 4 2 5 1 6
REMARK H PARENT
REMARK Flexibility Score: inf
ROOT
ATOM      1  C   UNL     1      12.523 -20.801 -27.206  1.00  0.00     0.052 C 
ENDROOT
BRANCH   1   2
ATOM      2  C   UNL     1      11.885 -20.476 -28.519  1.00  0.00     0.041 C 
ATOM      3  O   UNL     1      11.814 -19.282 -28.912  1.00  0.00    -0.550 OA
ATOM      4  O   UNL     1      11.412 -21.497 -29.334  1.00  0.00    -0.550 OA
ENDBRANCH   1   2
BRANCH   1   5
ATOM      5  C   UNL     1      12.971 -22.265 -27.176  1.00  0.00     0.003 C 
ATOM      6  C   UNL     1      12.065 -23.100 -26.276  1.00  0.00     0.004 C 
ENDBRANCH   1   5
TORSDOF 2
ENDMDL
MODEL 8
REMARK VINA RESULT:    -3.198      5.774      6.401
REMARK INTER + INTRA:          -3.609
REMARK INTER:                  -3.544
REMARK INTRA:                  -0.065
REMARK UNBOUND:                -0.037
REMARK SMILES CCCC(=O)[O-]
REMARK SMILES IDX 3 1 4 2 5 3 6 4 2 5 1 6
REMARK H PARENT
REMARK Flexibility Score: inf
ROOT
ATOM      1  C   UNL     1      13.140 -22.707 -28.698  1.00  0.00     0.052 C 
ENDROOT
BRANCH   1   2
ATOM      2  C   UNL     1      11.994 -21.957 -29.301  1.00  0.00     0.041 C 
ATOM      3  O   UNL     1      11.901 -20.712 -29.147  1.00  0.00    -0.550 OA
ATOM      4  O   UNL     1      11.055 -22.628 -30.075  1.00  0.00    -0.550 OA
ENDBRANCH   1   2
BRANCH   1   5
ATOM      5  C   UNL     1      13.056 -22.675 -27.170  1.00  0.00     0.003 C 
ATOM      6  C   UNL     1      11.739 -23.268 -26.678  1.00  0.00     0.004 C 
ENDBRANCH   1   5
TORSDOF 2
ENDMDL
MODEL 9
REMARK VINA RESULT:    -3.129      1.918      2.607
REMARK INTER + INTRA:          -3.532
REMARK INTER:                  -3.520
REMARK INTRA:                  -0.012
REMARK UNBOUND:                -0.037
REMARK SMILES CCCC(=O)[O-]
REMARK SMILES IDX 3 1 4 2 5 3 6 4 2 5 1 6
REMARK H PARENT
REMARK Flexibility Score: inf
ROOT
ATOM      1  C   UNL     1       9.963 -18.091 -28.270  1.00  0.00     0.052 C 
ENDROOT
BRANCH   1   2
ATOM      2  C   UNL     1       8.799 -17.414 -28.919  1.00  0.00     0.041 C 
ATOM      3  O   UNL     1       8.474 -17.704 -30.100  1.00  0.00    -0.550 OA
ATOM      4  O   UNL     1       8.040 -16.496 -28.203  1.00  0.00    -0.550 OA
ENDBRANCH   1   2
BRANCH   1   5
ATOM      5  C   UNL     1      10.070 -17.680 -26.799  1.00  0.00     0.003 C 
ATOM      6  C   UNL     1      10.883 -18.696 -26.001  1.00  0.00     0.004 C 
ENDBRANCH   1   5
TORSDOF 2
ENDMDL
