MODEL 1
REMARK VINA RESULT:    22.973      0.000      0.000
REMARK INTER + INTRA:          48.813
REMARK INTER:                  49.833
REMARK INTRA:                  -1.020
REMARK UNBOUND:                -1.020
REMARK SMILES CCCCCCCCCCCCCCCCCCCCCC(=O)[O-]
REMARK SMILES IDX 12 1 11 2 10 3 9 4 8 5 7 6 6 7 5 8 4 9 3 10 2 11 1 12 13 13
REMARK SMILES IDX 14 14 15 15 16 16 17 17 18 18 19 19 20 20 21 21 22 22 23 23
REMARK SMILES IDX 24 24
REMARK H PARENT
REMARK Flexibility Score: inf
ROOT
ATOM      1  C   UNL     1      55.635  52.791  18.139  1.00  0.00     0.000 C 
ENDROOT
BRANCH   1   2
ATOM      2  C   UNL     1      54.625  53.336  19.156  1.00  0.00     0.000 C 
BRANCH   2   3
ATOM      3  C   UNL     1      55.030  52.966  20.591  1.00  0.00     0.000 C 
BRANCH   3   4
ATOM      4  C   UNL     1      53.861  53.079  21.583  1.00  0.00    -0.000 C 
BRANCH   4   5
ATOM      5  C   UNL     1      54.141  54.080  22.718  1.00  0.00    -0.000 C 
BRANCH   5   6
ATOM      6  C   UNL     1      52.897  54.897  23.101  1.00  0.00    -0.000 C 
BRANCH   6   7
ATOM      7  C   UNL     1      53.250  56.190  23.857  1.00  0.00    -0.000 C 
BRANCH   7   8
ATOM      8  C   UNL     1      54.066  55.929  25.136  1.00  0.00    -0.000 C 
BRANCH   8   9
ATOM      9  C   UNL     1      55.231  56.911  25.370  1.00  0.00    -0.000 C 
BRANCH   9  10
ATOM     10  C   UNL     1      56.603  56.437  24.850  1.00  0.00    -0.000 C 
BRANCH  10  11
ATOM     11  C   UNL     1      57.747  56.513  25.877  1.00  0.00    -0.003 C 
ATOM     12  C   UNL     1      58.421  55.162  26.118  1.00  0.00     0.004 C 
ENDBRANCH  10  11
ENDBRANCH   9  10
ENDBRANCH   8   9
ENDBRANCH   7   8
ENDBRANCH   6   7
ENDBRANCH   5   6
ENDBRANCH   4   5
ENDBRANCH   3   4
ENDBRANCH   2   3
ENDBRANCH   1   2
BRANCH   1  13
ATOM     13  C   UNL     1      55.087  51.542  17.434  1.00  0.00     0.000 C 
BRANCH  13  14
ATOM     14  C   UNL     1      55.538  51.446  15.968  1.00  0.00     0.000 C 
BRANCH  14  15
ATOM     15  C   UNL     1      55.016  50.176  15.270  1.00  0.00     0.000 C 
BRANCH  15  16
ATOM     16  C   UNL     1      55.419  48.889  16.013  1.00  0.00     0.000 C 
BRANCH  16  17
ATOM     17  C   UNL     1      56.869  48.903  16.549  1.00  0.00     0.000 C 
BRANCH  17  18
ATOM     18  C   UNL     1      57.100  47.961  17.743  1.00  0.00     0.000 C 
BRANCH  18  19
ATOM     19  C   UNL     1      56.210  48.234  18.970  1.00  0.00     0.000 C 
BRANCH  19  20
ATOM     20  C   UNL     1      56.404  47.260  20.147  1.00  0.00     0.006 C 
BRANCH  20  21
ATOM     21  C   UNL     1      56.379  47.958  21.512  1.00  0.00     0.053 C 
BRANCH  21  22
ATOM     22  C   UNL     1      57.291  47.264  22.472  1.00  0.00     0.041 C 
ATOM     23  O   UNL     1      56.817  46.641  23.460  1.00  0.00    -0.550 OA
ATOM     24  O   UNL     1      58.662  47.261  22.249  1.00  0.00    -0.550 OA
ENDBRANCH  21  22
ENDBRANCH  20  21
ENDBRANCH  19  20
ENDBRANCH  18  19
ENDBRANCH  17  18
ENDBRANCH  16  17
ENDBRANCH  15  16
ENDBRANCH  14  15
ENDBRANCH  13  14
ENDBRANCH   1  13
TORSDOF 20
ENDMDL
MODEL 2
REMARK VINA RESULT:    23.479      4.501      5.736
REMARK INTER + INTRA:          49.912
REMARK INTER:                  50.871
REMARK INTRA:                  -0.959
REMARK UNBOUND:                -1.020
REMARK SMILES CCCCCCCCCCCCCCCCCCCCCC(=O)[O-]
REMARK SMILES IDX 12 1 11 2 10 3 9 4 8 5 7 6 6 7 5 8 4 9 3 10 2 11 1 12 13 13
REMARK SMILES IDX 14 14 15 15 16 16 17 17 18 18 19 19 20 20 21 21 22 22 23 23
REMARK SMILES IDX 24 24
REMARK H PARENT
REMARK Flexibility Score: inf
ROOT
ATOM      1  C   UNL     1      55.524  48.048  19.662  1.00  0.00     0.000 C 
ENDROOT
BRANCH   1   2
ATOM      2  C   UNL     1      54.882  49.437  19.758  1.00  0.00     0.000 C 
BRANCH   2   3
ATOM      3  C   UNL     1      55.537  50.273  20.870  1.00  0.00     0.000 C 
BRANCH   3   4
ATOM      4  C   UNL     1      55.115  51.750  20.826  1.00  0.00    -0.000 C 
BRANCH   4   5
ATOM      5  C   UNL     1      53.857  52.034  21.666  1.00  0.00    -0.000 C 
BRANCH   5   6
ATOM      6  C   UNL     1      53.552  53.536  21.782  1.00  0.00    -0.000 C 
BRANCH   6   7
ATOM      7  C   UNL     1      53.971  54.119  23.142  1.00  0.00    -0.000 C 
BRANCH   7   8
ATOM      8  C   UNL     1      53.237  55.431  23.479  1.00  0.00    -0.000 C 
BRANCH   8   9
ATOM      9  C   UNL     1      54.032  56.405  24.371  1.00  0.00    -0.000 C 
BRANCH   9  10
ATOM     10  C   UNL     1      55.555  56.165  24.409  1.00  0.00    -0.000 C 
BRANCH  10  11
ATOM     11  C   UNL     1      56.258  56.667  25.683  1.00  0.00    -0.003 C 
ATOM     12  C   UNL     1      57.745  56.314  25.721  1.00  0.00     0.004 C 
ENDBRANCH  10  11
ENDBRANCH   9  10
ENDBRANCH   8   9
ENDBRANCH   7   8
ENDBRANCH   6   7
ENDBRANCH   5   6
ENDBRANCH   4   5
ENDBRANCH   3   4
ENDBRANCH   2   3
ENDBRANCH   1   2
BRANCH   1  13
ATOM     13  C   UNL     1      56.299  47.710  20.945  1.00  0.00     0.000 C 
BRANCH  13  14
ATOM     14  C   UNL     1      56.408  46.197  21.187  1.00  0.00     0.000 C 
BRANCH  14  15
ATOM     15  C   UNL     1      55.771  45.370  20.055  1.00  0.00     0.000 C 
BRANCH  15  16
ATOM     16  C   UNL     1      56.499  44.033  19.823  1.00  0.00     0.000 C 
BRANCH  16  17
ATOM     17  C   UNL     1      56.069  42.909  20.793  1.00  0.00     0.000 C 
BRANCH  17  18
ATOM     18  C   UNL     1      54.565  42.587  20.745  1.00  0.00     0.000 C 
BRANCH  18  19
ATOM     19  C   UNL     1      54.211  41.103  20.957  1.00  0.00     0.000 C 
BRANCH  19  20
ATOM     20  C   UNL     1      55.295  40.103  20.513  1.00  0.00     0.006 C 
BRANCH  20  21
ATOM     21  C   UNL     1      55.833  39.250  21.667  1.00  0.00     0.053 C 
BRANCH  21  22
ATOM     22  C   UNL     1      57.000  38.432  21.215  1.00  0.00     0.041 C 
ATOM     23  O   UNL     1      58.064  38.998  20.844  1.00  0.00    -0.550 OA
ATOM     24  O   UNL     1      56.933  37.046  21.250  1.00  0.00    -0.550 OA
ENDBRANCH  21  22
ENDBRANCH  20  21
ENDBRANCH  19  20
ENDBRANCH  18  19
ENDBRANCH  17  18
ENDBRANCH  16  17
ENDBRANCH  15  16
ENDBRANCH  14  15
ENDBRANCH  13  14
ENDBRANCH   1  13
TORSDOF 20
ENDMDL
MODEL 3
REMARK VINA RESULT:    23.700      2.948      8.348
REMARK INTER + INTRA:          50.389
REMARK INTER:                  51.658
REMARK INTRA:                  -1.268
REMARK UNBOUND:                -1.020
REMARK SMILES CCCCCCCCCCCCCCCCCCCCCC(=O)[O-]
REMARK SMILES IDX 12 1 11 2 10 3 9 4 8 5 7 6 6 7 5 8 4 9 3 10 2 11 1 12 13 13
REMARK SMILES IDX 14 14 15 15 16 16 17 17 18 18 19 19 20 20 21 21 22 22 23 23
REMARK SMILES IDX 24 24
REMARK H PARENT
REMARK Flexibility Score: inf
ROOT
ATOM      1  C   UNL     1      54.956  51.788  17.883  1.00  0.00     0.000 C 
ENDROOT
BRANCH   1   2
ATOM      2  C   UNL     1      55.708  51.631  16.556  1.00  0.00     0.000 C 
BRANCH   2   3
ATOM      3  C   UNL     1      55.093  50.513  15.700  1.00  0.00     0.000 C 
BRANCH   3   4
ATOM      4  C   UNL     1      55.339  49.114  16.287  1.00  0.00    -0.000 C 
BRANCH   4   5
ATOM      5  C   UNL     1      56.835  48.778  16.414  1.00  0.00    -0.000 C 
BRANCH   5   6
ATOM      6  C   UNL     1      57.154  47.982  17.689  1.00  0.00    -0.000 C 
BRANCH   6   7
ATOM      7  C   UNL     1      56.072  48.143  18.771  1.00  0.00    -0.000 C 
BRANCH   7   8
ATOM      8  C   UNL     1      56.392  47.358  20.056  1.00  0.00    -0.000 C 
BRANCH   8   9
ATOM      9  C   UNL     1      56.456  48.214  21.337  1.00  0.00    -0.000 C 
BRANCH   9  10
ATOM     10  C   UNL     1      56.592  47.418  22.651  1.00  0.00    -0.000 C 
BRANCH  10  11
ATOM     11  C   UNL     1      57.998  46.854  22.923  1.00  0.00    -0.003 C 
ATOM     12  C   UNL     1      59.101  47.635  22.209  1.00  0.00     0.004 C 
ENDBRANCH  10  11
ENDBRANCH   9  10
ENDBRANCH   8   9
ENDBRANCH   7   8
ENDBRANCH   6   7
ENDBRANCH   5   6
ENDBRANCH   4   5
ENDBRANCH   3   4
ENDBRANCH   2   3
ENDBRANCH   1   2
BRANCH   1  13
ATOM     13  C   UNL     1      55.291  53.131  18.550  1.00  0.00     0.000 C 
BRANCH  13  14
ATOM     14  C   UNL     1      55.515  52.998  20.064  1.00  0.00     0.000 C 
BRANCH  14  15
ATOM     15  C   UNL     1      54.422  52.157  20.751  1.00  0.00     0.000 C 
BRANCH  15  16
ATOM     16  C   UNL     1      54.019  52.728  22.123  1.00  0.00     0.000 C 
BRANCH  16  17
ATOM     17  C   UNL     1      53.050  53.929  22.041  1.00  0.00     0.000 C 
BRANCH  17  18
ATOM     18  C   UNL     1      53.634  55.240  22.598  1.00  0.00     0.000 C 
BRANCH  18  19
ATOM     19  C   UNL     1      53.678  55.331  24.134  1.00  0.00     0.000 C 
BRANCH  19  20
ATOM     20  C   UNL     1      54.131  56.693  24.694  1.00  0.00     0.006 C 
BRANCH  20  21
ATOM     21  C   UNL     1      55.161  56.564  25.823  1.00  0.00     0.053 C 
BRANCH  21  22
ATOM     22  C   UNL     1      56.550  56.588  25.269  1.00  0.00     0.041 C 
ATOM     23  O   UNL     1      57.526  56.864  26.018  1.00  0.00    -0.550 OA
ATOM     24  O   UNL     1      56.774  56.257  23.939  1.00  0.00    -0.550 OA
ENDBRANCH  21  22
ENDBRANCH  20  21
ENDBRANCH  19  20
ENDBRANCH  18  19
ENDBRANCH  17  18
ENDBRANCH  16  17
ENDBRANCH  15  16
ENDBRANCH  14  15
ENDBRANCH  13  14
ENDBRANCH   1  13
TORSDOF 20
ENDMDL
MODEL 4
REMARK VINA RESULT:    24.088      0.946      1.996
REMARK INTER + INTRA:          51.232
REMARK INTER:                  51.779
REMARK INTRA:                  -0.547
REMARK UNBOUND:                -1.020
REMARK SMILES CCCCCCCCCCCCCCCCCCCCCC(=O)[O-]
REMARK SMILES IDX 12 1 11 2 10 3 9 4 8 5 7 6 6 7 5 8 4 9 3 10 2 11 1 12 13 13
REMARK SMILES IDX 14 14 15 15 16 16 17 17 18 18 19 19 20 20 21 21 22 22 23 23
REMARK SMILES IDX 24 24
REMARK H PARENT
REMARK Flexibility Score: inf
ROOT
ATOM      1  C   UNL     1      54.291  51.530  16.684  1.00  0.00     0.000 C 
ENDROOT
BRANCH   1   2
ATOM      2  C   UNL     1      55.352  51.802  17.757  1.00  0.00     0.000 C 
BRANCH   2   3
ATOM      3  C   UNL     1      54.983  53.032  18.601  1.00  0.00     0.000 C 
BRANCH   3   4
ATOM      4  C   UNL     1      54.967  52.732  20.108  1.00  0.00    -0.000 C 
BRANCH   4   5
ATOM      5  C   UNL     1      53.781  53.392  20.833  1.00  0.00    -0.000 C 
BRANCH   5   6
ATOM      6  C   UNL     1      53.984  53.459  22.354  1.00  0.00    -0.000 C 
BRANCH   6   7
ATOM      7  C   UNL     1      53.361  54.720  22.977  1.00  0.00    -0.000 C 
BRANCH   7   8
ATOM      8  C   UNL     1      54.416  55.691  23.540  1.00  0.00    -0.000 C 
BRANCH   8   9
ATOM      9  C   UNL     1      54.083  56.272  24.928  1.00  0.00    -0.000 C 
BRANCH   9  10
ATOM     10  C   UNL     1      55.294  56.801  25.724  1.00  0.00    -0.000 C 
BRANCH  10  11
ATOM     11  C   UNL     1      56.667  56.434  25.134  1.00  0.00    -0.003 C 
ATOM     12  C   UNL     1      57.831  56.851  26.033  1.00  0.00     0.004 C 
ENDBRANCH  10  11
ENDBRANCH   9  10
ENDBRANCH   8   9
ENDBRANCH   7   8
ENDBRANCH   6   7
ENDBRANCH   5   6
ENDBRANCH   4   5
ENDBRANCH   3   4
ENDBRANCH   2   3
ENDBRANCH   1   2
BRANCH   1  13
ATOM     13  C   UNL     1      54.886  50.736  15.510  1.00  0.00     0.000 C 
BRANCH  13  14
ATOM     14  C   UNL     1      56.293  50.200  15.815  1.00  0.00     0.000 C 
BRANCH  14  15
ATOM     15  C   UNL     1      56.270  48.770  16.388  1.00  0.00     0.000 C 
BRANCH  15  16
ATOM     16  C   UNL     1      57.475  48.484  17.303  1.00  0.00     0.000 C 
BRANCH  16  17
ATOM     17  C   UNL     1      57.198  47.419  18.389  1.00  0.00     0.000 C 
BRANCH  17  18
ATOM     18  C   UNL     1      56.013  47.762  19.308  1.00  0.00     0.000 C 
BRANCH  18  19
ATOM     19  C   UNL     1      56.142  47.248  20.754  1.00  0.00     0.000 C 
BRANCH  19  20
ATOM     20  C   UNL     1      57.147  48.017  21.632  1.00  0.00     0.006 C 
BRANCH  20  21
ATOM     21  C   UNL     1      56.862  47.877  23.132  1.00  0.00     0.053 C 
BRANCH  21  22
ATOM     22  C   UNL     1      56.785  46.434  23.518  1.00  0.00     0.041 C 
ATOM     23  O   UNL     1      57.288  45.551  22.773  1.00  0.00    -0.550 OA
ATOM     24  O   UNL     1      56.202  46.068  24.724  1.00  0.00    -0.550 OA
ENDBRANCH  21  22
ENDBRANCH  20  21
ENDBRANCH  19  20
ENDBRANCH  18  19
ENDBRANCH  17  18
ENDBRANCH  16  17
ENDBRANCH  15  16
ENDBRANCH  14  15
ENDBRANCH  13  14
ENDBRANCH   1  13
TORSDOF 20
ENDMDL
MODEL 5
REMARK VINA RESULT:    24.169      3.149      8.295
REMARK INTER + INTRA:          51.409
REMARK INTER:                  52.621
REMARK INTRA:                  -1.213
REMARK UNBOUND:                -1.020
REMARK SMILES CCCCCCCCCCCCCCCCCCCCCC(=O)[O-]
REMARK SMILES IDX 12 1 11 2 10 3 9 4 8 5 7 6 6 7 5 8 4 9 3 10 2 11 1 12 13 13
REMARK SMILES IDX 14 14 15 15 16 16 17 17 18 18 19 19 20 20 21 21 22 22 23 23
REMARK SMILES IDX 24 24
REMARK H PARENT
REMARK Flexibility Score: inf
ROOT
ATOM      1  C   UNL     1      54.423  51.162  17.429  1.00  0.00     0.000 C 
ENDROOT
BRANCH   1   2
ATOM      2  C   UNL     1      54.893  50.434  16.164  1.00  0.00     0.000 C 
BRANCH   2   3
ATOM      3  C   UNL     1      56.372  50.733  15.870  1.00  0.00     0.000 C 
BRANCH   3   4
ATOM      4  C   UNL     1      57.302  49.579  16.276  1.00  0.00    -0.000 C 
BRANCH   4   5
ATOM      5  C   UNL     1      56.539  48.383  16.872  1.00  0.00    -0.000 C 
BRANCH   5   6
ATOM      6  C   UNL     1      57.122  47.926  18.218  1.00  0.00    -0.000 C 
BRANCH   6   7
ATOM      7  C   UNL     1      56.110  48.049  19.371  1.00  0.00    -0.000 C 
BRANCH   7   8
ATOM      8  C   UNL     1      56.292  46.958  20.442  1.00  0.00    -0.000 C 
BRANCH   8   9
ATOM      9  C   UNL     1      57.264  47.326  21.581  1.00  0.00    -0.000 C 
BRANCH   9  10
ATOM     10  C   UNL     1      56.600  47.896  22.851  1.00  0.00    -0.000 C 
BRANCH  10  11
ATOM     11  C   UNL     1      56.601  46.947  24.063  1.00  0.00    -0.003 C 
ATOM     12  C   UNL     1      56.629  45.472  23.663  1.00  0.00     0.004 C 
ENDBRANCH  10  11
ENDBRANCH   9  10
ENDBRANCH   8   9
ENDBRANCH   7   8
ENDBRANCH   6   7
ENDBRANCH   5   6
ENDBRANCH   4   5
ENDBRANCH   3   4
ENDBRANCH   2   3
ENDBRANCH   1   2
BRANCH   1  13
ATOM     13  C   UNL     1      55.366  52.325  17.776  1.00  0.00     0.000 C 
BRANCH  13  14
ATOM     14  C   UNL     1      54.886  53.129  18.994  1.00  0.00     0.000 C 
BRANCH  14  15
ATOM     15  C   UNL     1      55.363  52.524  20.328  1.00  0.00     0.000 C 
BRANCH  15  16
ATOM     16  C   UNL     1      55.046  53.430  21.531  1.00  0.00     0.000 C 
BRANCH  16  17
ATOM     17  C   UNL     1      53.600  53.287  22.059  1.00  0.00     0.000 C 
BRANCH  17  18
ATOM     18  C   UNL     1      53.030  54.578  22.673  1.00  0.00     0.000 C 
BRANCH  18  19
ATOM     19  C   UNL     1      53.829  55.139  23.864  1.00  0.00     0.000 C 
BRANCH  19  20
ATOM     20  C   UNL     1      54.768  56.312  23.526  1.00  0.00     0.006 C 
BRANCH  20  21
ATOM     21  C   UNL     1      56.215  56.068  23.969  1.00  0.00     0.053 C 
BRANCH  21  22
ATOM     22  C   UNL     1      56.426  56.563  25.364  1.00  0.00     0.041 C 
ATOM     23  O   UNL     1      55.439  56.894  26.076  1.00  0.00    -0.550 OA
ATOM     24  O   UNL     1      57.707  56.613  25.897  1.00  0.00    -0.550 OA
ENDBRANCH  21  22
ENDBRANCH  20  21
ENDBRANCH  19  20
ENDBRANCH  18  19
ENDBRANCH  17  18
ENDBRANCH  16  17
ENDBRANCH  15  16
ENDBRANCH  14  15
ENDBRANCH  13  14
ENDBRANCH   1  13
TORSDOF 20
ENDMDL
MODEL 6
REMARK VINA RESULT:    24.297      3.268      4.863
REMARK INTER + INTRA:          51.685
REMARK INTER:                  51.824
REMARK INTRA:                  -0.138
REMARK UNBOUND:                -1.020
REMARK SMILES CCCCCCCCCCCCCCCCCCCCCC(=O)[O-]
REMARK SMILES IDX 12 1 11 2 10 3 9 4 8 5 7 6 6 7 5 8 4 9 3 10 2 11 1 12 13 13
REMARK SMILES IDX 14 14 15 15 16 16 17 17 18 18 19 19 20 20 21 21 22 22 23 23
REMARK SMILES IDX 24 24
REMARK H PARENT
REMARK Flexibility Score: inf
ROOT
ATOM      1  C   UNL     1      54.875  48.982  19.332  1.00  0.00     0.000 C 
ENDROOT
BRANCH   1   2
ATOM      2  C   UNL     1      54.965  49.920  20.542  1.00  0.00     0.000 C 
BRANCH   2   3
ATOM      3  C   UNL     1      54.752  51.384  20.124  1.00  0.00     0.000 C 
BRANCH   3   4
ATOM      4  C   UNL     1      55.832  52.323  20.684  1.00  0.00    -0.000 C 
BRANCH   4   5
ATOM      5  C   UNL     1      55.266  53.350  21.681  1.00  0.00    -0.000 C 
BRANCH   5   6
ATOM      6  C   UNL     1      53.749  53.206  21.877  1.00  0.00    -0.000 C 
BRANCH   6   7
ATOM      7  C   UNL     1      53.143  54.379  22.667  1.00  0.00    -0.000 C 
BRANCH   7   8
ATOM      8  C   UNL     1      54.197  55.413  23.103  1.00  0.00    -0.000 C 
BRANCH   8   9
ATOM      9  C   UNL     1      54.098  55.856  24.576  1.00  0.00    -0.000 C 
BRANCH   9  10
ATOM     10  C   UNL     1      55.242  56.767  25.065  1.00  0.00    -0.000 C 
BRANCH  10  11
ATOM     11  C   UNL     1      56.546  56.033  25.425  1.00  0.00    -0.003 C 
ATOM     12  C   UNL     1      57.611  56.964  26.005  1.00  0.00     0.004 C 
ENDBRANCH  10  11
ENDBRANCH   9  10
ENDBRANCH   8   9
ENDBRANCH   7   8
ENDBRANCH   6   7
ENDBRANCH   5   6
ENDBRANCH   4   5
ENDBRANCH   3   4
ENDBRANCH   2   3
ENDBRANCH   1   2
BRANCH   1  13
ATOM     13  C   UNL     1      56.115  48.078  19.245  1.00  0.00     0.000 C 
BRANCH  13  14
ATOM     14  C   UNL     1      56.250  47.145  20.458  1.00  0.00     0.000 C 
BRANCH  14  15
ATOM     15  C   UNL     1      57.084  47.769  21.593  1.00  0.00     0.000 C 
BRANCH  15  16
ATOM     16  C   UNL     1      57.707  46.706  22.516  1.00  0.00     0.000 C 
BRANCH  16  17
ATOM     17  C   UNL     1      56.751  45.542  22.866  1.00  0.00     0.000 C 
BRANCH  17  18
ATOM     18  C   UNL     1      56.973  44.278  22.017  1.00  0.00     0.000 C 
BRANCH  18  19
ATOM     19  C   UNL     1      56.195  44.242  20.689  1.00  0.00     0.000 C 
BRANCH  19  20
ATOM     20  C   UNL     1      55.680  42.851  20.272  1.00  0.00     0.006 C 
BRANCH  20  21
ATOM     21  C   UNL     1      55.809  41.805  21.386  1.00  0.00     0.053 C 
BRANCH  21  22
ATOM     22  C   UNL     1      55.395  40.457  20.889  1.00  0.00     0.041 C 
ATOM     23  O   UNL     1      56.191  39.482  20.964  1.00  0.00    -0.550 OA
ATOM     24  O   UNL     1      54.114  40.264  20.389  1.00  0.00    -0.550 OA
ENDBRANCH  21  22
ENDBRANCH  20  21
ENDBRANCH  19  20
ENDBRANCH  18  19
ENDBRANCH  17  18
ENDBRANCH  16  17
ENDBRANCH  15  16
ENDBRANCH  14  15
ENDBRANCH  13  14
ENDBRANCH   1  13
TORSDOF 20
ENDMDL
MODEL 7
REMARK VINA RESULT:    24.623      4.211     10.381
REMARK INTER + INTRA:          52.393
REMARK INTER:                  52.148
REMARK INTRA:                   0.245
REMARK UNBOUND:                -1.020
REMARK SMILES CCCCCCCCCCCCCCCCCCCCCC(=O)[O-]
REMARK SMILES IDX 12 1 11 2 10 3 9 4 8 5 7 6 6 7 5 8 4 9 3 10 2 11 1 12 13 13
REMARK SMILES IDX 14 14 15 15 16 16 17 17 18 18 19 19 20 20 21 21 22 22 23 23
REMARK SMILES IDX 24 24
REMARK H PARENT
REMARK Flexibility Score: inf
ROOT
ATOM      1  C   UNL     1      55.146  48.716  19.773  1.00  0.00     0.000 C 
ENDROOT
BRANCH   1   2
ATOM      2  C   UNL     1      55.871  47.543  20.444  1.00  0.00     0.000 C 
BRANCH   2   3
ATOM      3  C   UNL     1      57.368  47.845  20.619  1.00  0.00     0.000 C 
BRANCH   3   4
ATOM      4  C   UNL     1      57.766  48.028  22.092  1.00  0.00    -0.000 C 
BRANCH   4   5
ATOM      5  C   UNL     1      57.442  46.794  22.953  1.00  0.00    -0.000 C 
BRANCH   5   6
ATOM      6  C   UNL     1      56.467  45.831  22.257  1.00  0.00    -0.000 C 
BRANCH   6   7
ATOM      7  C   UNL     1      57.069  44.431  22.046  1.00  0.00    -0.000 C 
BRANCH   7   8
ATOM      8  C   UNL     1      56.396  43.660  20.896  1.00  0.00    -0.000 C 
BRANCH   8   9
ATOM      9  C   UNL     1      56.279  42.139  21.120  1.00  0.00    -0.000 C 
BRANCH   9  10
ATOM     10  C   UNL     1      54.879  41.545  20.865  1.00  0.00    -0.000 C 
BRANCH  10  11
ATOM     11  C   UNL     1      54.811  40.008  20.910  1.00  0.00    -0.003 C 
ATOM     12  C   UNL     1      56.181  39.346  20.754  1.00  0.00     0.004 C 
ENDBRANCH  10  11
ENDBRANCH   9  10
ENDBRANCH   8   9
ENDBRANCH   7   8
ENDBRANCH   6   7
ENDBRANCH   5   6
ENDBRANCH   4   5
ENDBRANCH   3   4
ENDBRANCH   2   3
ENDBRANCH   1   2
BRANCH   1  13
ATOM     13  C   UNL     1      55.449  50.036  20.498  1.00  0.00     0.000 C 
BRANCH  13  14
ATOM     14  C   UNL     1      54.246  50.991  20.510  1.00  0.00     0.000 C 
BRANCH  14  15
ATOM     15  C   UNL     1      54.517  52.274  21.318  1.00  0.00     0.000 C 
BRANCH  15  16
ATOM     16  C   UNL     1      53.233  52.867  21.928  1.00  0.00     0.000 C 
BRANCH  16  17
ATOM     17  C   UNL     1      53.332  54.375  22.251  1.00  0.00     0.000 C 
BRANCH  17  18
ATOM     18  C   UNL     1      53.888  54.676  23.654  1.00  0.00     0.000 C 
BRANCH  18  19
ATOM     19  C   UNL     1      53.284  55.916  24.340  1.00  0.00     0.000 C 
BRANCH  19  20
ATOM     20  C   UNL     1      54.311  56.951  24.838  1.00  0.00     0.006 C 
BRANCH  20  21
ATOM     21  C   UNL     1      55.331  56.359  25.818  1.00  0.00     0.053 C 
BRANCH  21  22
ATOM     22  C   UNL     1      56.724  56.576  25.320  1.00  0.00     0.041 C 
ATOM     23  O   UNL     1      57.586  57.118  26.063  1.00  0.00    -0.550 OA
ATOM     24  O   UNL     1      57.085  56.137  24.053  1.00  0.00    -0.550 OA
ENDBRANCH  21  22
ENDBRANCH  20  21
ENDBRANCH  19  20
ENDBRANCH  18  19
ENDBRANCH  17  18
ENDBRANCH  16  17
ENDBRANCH  15  16
ENDBRANCH  14  15
ENDBRANCH  13  14
ENDBRANCH   1  13
TORSDOF 20
ENDMDL
MODEL 8
REMARK VINA RESULT:    24.686      3.615      4.560
REMARK INTER + INTRA:          52.529
REMARK INTER:                  53.305
REMARK INTRA:                  -0.776
REMARK UNBOUND:                -1.020
REMARK SMILES CCCCCCCCCCCCCCCCCCCCCC(=O)[O-]
REMARK SMILES IDX 12 1 11 2 10 3 9 4 8 5 7 6 6 7 5 8 4 9 3 10 2 11 1 12 13 13
REMARK SMILES IDX 14 14 15 15 16 16 17 17 18 18 19 19 20 20 21 21 22 22 23 23
REMARK SMILES IDX 24 24
REMARK H PARENT
REMARK Flexibility Score: inf
ROOT
ATOM      1  C   UNL     1      55.375  50.775  20.902  1.00  0.00     0.000 C 
ENDROOT
BRANCH   1   2
ATOM      2  C   UNL     1      54.641  52.066  20.520  1.00  0.00     0.000 C 
BRANCH   2   3
ATOM      3  C   UNL     1      54.804  53.138  21.609  1.00  0.00     0.000 C 
BRANCH   3   4
ATOM      4  C   UNL     1      53.472  53.807  21.985  1.00  0.00    -0.000 C 
BRANCH   4   5
ATOM      5  C   UNL     1      53.523  54.499  23.358  1.00  0.00    -0.000 C 
BRANCH   5   6
ATOM      6  C   UNL     1      53.572  56.031  23.245  1.00  0.00    -0.000 C 
BRANCH   6   7
ATOM      7  C   UNL     1      53.539  56.725  24.617  1.00  0.00    -0.000 C 
BRANCH   7   8
ATOM      8  C   UNL     1      54.736  56.346  25.507  1.00  0.00    -0.000 C 
BRANCH   8   9
ATOM      9  C   UNL     1      56.078  56.208  24.761  1.00  0.00    -0.000 C 
BRANCH   9  10
ATOM     10  C   UNL     1      57.254  56.993  25.377  1.00  0.00    -0.000 C 
BRANCH  10  11
ATOM     11  C   UNL     1      58.018  56.248  26.486  1.00  0.00    -0.003 C 
ATOM     12  C   UNL     1      58.343  54.800  26.116  1.00  0.00     0.004 C 
ENDBRANCH  10  11
ENDBRANCH   9  10
ENDBRANCH   8   9
ENDBRANCH   7   8
ENDBRANCH   6   7
ENDBRANCH   5   6
ENDBRANCH   4   5
ENDBRANCH   3   4
ENDBRANCH   2   3
ENDBRANCH   1   2
BRANCH   1  13
ATOM     13  C   UNL     1      55.002  49.628  19.949  1.00  0.00     0.000 C 
BRANCH  13  14
ATOM     14  C   UNL     1      56.053  48.508  19.936  1.00  0.00     0.000 C 
BRANCH  14  15
ATOM     15  C   UNL     1      56.249  47.865  21.322  1.00  0.00     0.000 C 
BRANCH  15  16
ATOM     16  C   UNL     1      56.360  46.331  21.248  1.00  0.00     0.000 C 
BRANCH  16  17
ATOM     17  C   UNL     1      55.930  45.737  19.887  1.00  0.00     0.000 C 
BRANCH  17  18
ATOM     18  C   UNL     1      55.205  44.384  20.000  1.00  0.00     0.000 C 
BRANCH  18  19
ATOM     19  C   UNL     1      56.054  43.238  20.580  1.00  0.00     0.000 C 
BRANCH  19  20
ATOM     20  C   UNL     1      55.253  42.115  21.266  1.00  0.00     0.006 C 
BRANCH  20  21
ATOM     21  C   UNL     1      56.112  40.893  21.614  1.00  0.00     0.053 C 
BRANCH  21  22
ATOM     22  C   UNL     1      55.669  39.701  20.827  1.00  0.00     0.041 C 
ATOM     23  O   UNL     1      56.225  38.583  21.002  1.00  0.00    -0.550 OA
ATOM     24  O   UNL     1      54.610  39.811  19.936  1.00  0.00    -0.550 OA
ENDBRANCH  21  22
ENDBRANCH  20  21
ENDBRANCH  19  20
ENDBRANCH  18  19
ENDBRANCH  17  18
ENDBRANCH  16  17
ENDBRANCH  15  16
ENDBRANCH  14  15
ENDBRANCH  13  14
ENDBRANCH   1  13
TORSDOF 20
ENDMDL
MODEL 9
REMARK VINA RESULT:    24.831      4.814     10.891
REMARK INTER + INTRA:          52.844
REMARK INTER:                  53.947
REMARK INTRA:                  -1.103
REMARK UNBOUND:                -1.020
REMARK SMILES CCCCCCCCCCCCCCCCCCCCCC(=O)[O-]
REMARK SMILES IDX 12 1 11 2 10 3 9 4 8 5 7 6 6 7 5 8 4 9 3 10 2 11 1 12 13 13
REMARK SMILES IDX 14 14 15 15 16 16 17 17 18 18 19 19 20 20 21 21 22 22 23 23
REMARK SMILES IDX 24 24
REMARK H PARENT
REMARK Flexibility Score: inf
ROOT
ATOM      1  C   UNL     1      56.053  47.522  20.416  1.00  0.00     0.000 C 
ENDROOT
BRANCH   1   2
ATOM      2  C   UNL     1      56.839  47.867  21.686  1.00  0.00     0.000 C 
BRANCH   2   3
ATOM      3  C   UNL     1      57.035  46.625  22.571  1.00  0.00     0.000 C 
BRANCH   3   4
ATOM      4  C   UNL     1      56.963  45.313  21.773  1.00  0.00    -0.000 C 
BRANCH   4   5
ATOM      5  C   UNL     1      57.084  44.067  22.668  1.00  0.00    -0.000 C 
BRANCH   5   6
ATOM      6  C   UNL     1      57.081  42.760  21.861  1.00  0.00    -0.000 C 
BRANCH   6   7
ATOM      7  C   UNL     1      56.100  42.801  20.676  1.00  0.00    -0.000 C 
BRANCH   7   8
ATOM      8  C   UNL     1      54.760  42.110  20.988  1.00  0.00    -0.000 C 
BRANCH   8   9
ATOM      9  C   UNL     1      54.881  40.650  21.469  1.00  0.00    -0.000 C 
BRANCH   9  10
ATOM     10  C   UNL     1      55.583  39.692  20.485  1.00  0.00    -0.000 C 
BRANCH  10  11
ATOM     11  C   UNL     1      57.034  39.336  20.852  1.00  0.00    -0.003 C 
ATOM     12  C   UNL     1      57.173  37.929  21.434  1.00  0.00     0.004 C 
ENDBRANCH  10  11
ENDBRANCH   9  10
ENDBRANCH   8   9
ENDBRANCH   7   8
ENDBRANCH   6   7
ENDBRANCH   5   6
ENDBRANCH   4   5
ENDBRANCH   3   4
ENDBRANCH   2   3
ENDBRANCH   1   2
BRANCH   1  13
ATOM     13  C   UNL     1      55.340  48.763  19.857  1.00  0.00     0.000 C 
BRANCH  13  14
ATOM     14  C   UNL     1      55.705  50.046  20.619  1.00  0.00     0.000 C 
BRANCH  14  15
ATOM     15  C   UNL     1      54.570  51.087  20.603  1.00  0.00     0.000 C 
BRANCH  15  16
ATOM     16  C   UNL     1      55.099  52.532  20.561  1.00  0.00     0.000 C 
BRANCH  16  17
ATOM     17  C   UNL     1      54.888  53.315  21.877  1.00  0.00     0.000 C 
BRANCH  17  18
ATOM     18  C   UNL     1      53.420  53.687  22.151  1.00  0.00     0.000 C 
BRANCH  18  19
ATOM     19  C   UNL     1      53.218  54.991  22.945  1.00  0.00     0.000 C 
BRANCH  19  20
ATOM     20  C   UNL     1      53.876  55.016  24.337  1.00  0.00     0.006 C 
BRANCH  20  21
ATOM     21  C   UNL     1      54.373  56.410  24.740  1.00  0.00     0.053 C 
BRANCH  21  22
ATOM     22  C   UNL     1      55.866  56.470  24.685  1.00  0.00     0.041 C 
ATOM     23  O   UNL     1      56.471  56.231  23.604  1.00  0.00    -0.550 OA
ATOM     24  O   UNL     1      56.589  56.838  25.812  1.00  0.00    -0.550 OA
ENDBRANCH  21  22
ENDBRANCH  20  21
ENDBRANCH  19  20
ENDBRANCH  18  19
ENDBRANCH  17  18
ENDBRANCH  16  17
ENDBRANCH  15  16
ENDBRANCH  14  15
ENDBRANCH  13  14
ENDBRANCH   1  13
TORSDOF 20
ENDMDL
