MODEL 1
REMARK VINA RESULT:    -5.624      0.000      0.000
REMARK INTER + INTRA:          -8.553
REMARK INTER:                  -7.925
REMARK INTRA:                  -0.628
REMARK UNBOUND:                -0.628
REMARK SMILES CCCCCCCCC(=O)[O-]
REMARK SMILES IDX 6 1 7 2 8 3 9 4 10 5 11 6 5 7 4 8 3 9 2 10 1 11
REMARK H PARENT
REMARK Flexibility Score: inf
ROOT
ATOM      1  C   UNL     1      28.883   2.841   4.255  1.00  0.00     0.000 C 
ENDROOT
BRANCH   1   2
ATOM      2  C   UNL     1      28.831   1.891   5.461  1.00  0.00     0.006 C 
BRANCH   2   3
ATOM      3  C   UNL     1      27.805   0.777   5.239  1.00  0.00     0.053 C 
BRANCH   3   4
ATOM      4  C   UNL     1      28.379  -0.303   4.377  1.00  0.00     0.041 C 
ATOM      5  O   UNL     1      29.150  -1.166   4.871  1.00  0.00    -0.550 OA
ATOM      6  O   UNL     1      28.023  -0.385   3.037  1.00  0.00    -0.550 OA
ENDBRANCH   3   4
ENDBRANCH   2   3
ENDBRANCH   1   2
BRANCH   1   7
ATOM      7  C   UNL     1      27.642   3.755   4.177  1.00  0.00     0.000 C 
BRANCH   7   8
ATOM      8  C   UNL     1      27.708   4.966   5.123  1.00  0.00    -0.000 C 
BRANCH   8   9
ATOM      9  C   UNL     1      29.048   5.715   5.042  1.00  0.00    -0.000 C 
BRANCH   9  10
ATOM     10  C   UNL     1      29.772   5.774   6.395  1.00  0.00    -0.003 C 
ATOM     11  C   UNL     1      29.038   5.003   7.492  1.00  0.00     0.004 C 
ENDBRANCH   9  10
ENDBRANCH   8   9
ENDBRANCH   7   8
ENDBRANCH   1   7
TORSDOF 7
ENDMDL
MODEL 2
REMARK VINA RESULT:    -5.358      3.178      5.367
REMARK INTER + INTRA:          -8.179
REMARK INTER:                  -7.873
REMARK INTRA:                  -0.305
REMARK UNBOUND:                -0.628
REMARK SMILES CCCCCCCCC(=O)[O-]
REMARK SMILES IDX 6 1 7 2 8 3 9 4 10 5 11 6 5 7 4 8 3 9 2 10 1 11
REMARK H PARENT
REMARK Flexibility Score: inf
ROOT
ATOM      1  C   UNL     1      27.546   3.717   4.000  1.00  0.00     0.000 C 
ENDROOT
BRANCH   1   2
ATOM      2  C   UNL     1      27.620   4.725   5.157  1.00  0.00     0.006 C 
BRANCH   2   3
ATOM      3  C   UNL     1      28.829   4.446   6.054  1.00  0.00     0.053 C 
BRANCH   3   4
ATOM      4  C   UNL     1      29.961   5.361   5.709  1.00  0.00     0.041 C 
ATOM      5  O   UNL     1      30.927   4.943   5.021  1.00  0.00    -0.550 OA
ATOM      6  O   UNL     1      29.923   6.692   6.106  1.00  0.00    -0.550 OA
ENDBRANCH   3   4
ENDBRANCH   2   3
ENDBRANCH   1   2
BRANCH   1   7
ATOM      7  C   UNL     1      28.457   2.493   4.232  1.00  0.00     0.000 C 
BRANCH   7   8
ATOM      8  C   UNL     1      27.699   1.242   4.707  1.00  0.00    -0.000 C 
BRANCH   8   9
ATOM      9  C   UNL     1      28.581   0.282   5.522  1.00  0.00    -0.000 C 
BRANCH   9  10
ATOM     10  C   UNL     1      28.845  -1.041   4.788  1.00  0.00    -0.003 C 
ATOM     11  C   UNL     1      28.586  -0.945   3.285  1.00  0.00     0.004 C 
ENDBRANCH   9  10
ENDBRANCH   8   9
ENDBRANCH   7   8
ENDBRANCH   1   7
TORSDOF 7
ENDMDL
MODEL 3
REMARK VINA RESULT:    -3.131     17.755     18.529
REMARK INTER + INTRA:          -5.041
REMARK INTER:                  -4.582
REMARK INTRA:                  -0.459
REMARK UNBOUND:                -0.628
REMARK SMILES CCCCCCCCC(=O)[O-]
REMARK SMILES IDX 6 1 7 2 8 3 9 4 10 5 11 6 5 7 4 8 3 9 2 10 1 11
REMARK H PARENT
REMARK Flexibility Score: inf
ROOT
ATOM      1  C   UNL     1      28.572  13.026  20.370  1.00  0.00     0.000 C 
ENDROOT
BRANCH   1   2
ATOM      2  C   UNL     1      27.775  11.713  20.419  1.00  0.00     0.006 C 
BRANCH   2   3
ATOM      3  C   UNL     1      27.705  11.166  21.847  1.00  0.00     0.053 C 
BRANCH   3   4
ATOM      4  C   UNL     1      28.444   9.870  21.950  1.00  0.00     0.041 C 
ATOM      5  O   UNL     1      27.813   8.784  22.024  1.00  0.00    -0.550 OA
ATOM      6  O   UNL     1      29.833   9.857  21.912  1.00  0.00    -0.550 OA
ENDBRANCH   3   4
ENDBRANCH   2   3
ENDBRANCH   1   2
BRANCH   1   7
ATOM      7  C   UNL     1      29.144  13.311  18.965  1.00  0.00     0.000 C 
BRANCH   7   8
ATOM      8  C   UNL     1      30.660  13.570  18.958  1.00  0.00    -0.000 C 
BRANCH   8   9
ATOM      9  C   UNL     1      31.381  12.923  20.152  1.00  0.00    -0.000 C 
BRANCH   9  10
ATOM     10  C   UNL     1      32.330  13.899  20.865  1.00  0.00    -0.003 C 
ATOM     11  C   UNL     1      32.194  15.334  20.355  1.00  0.00     0.004 C 
ENDBRANCH   9  10
ENDBRANCH   8   9
ENDBRANCH   7   8
ENDBRANCH   1   7
TORSDOF 7
ENDMDL
MODEL 4
REMARK VINA RESULT:    -3.080     17.299     18.082
REMARK INTER + INTRA:          -4.969
REMARK INTER:                  -4.508
REMARK INTRA:                  -0.461
REMARK UNBOUND:                -0.628
REMARK SMILES CCCCCCCCC(=O)[O-]
REMARK SMILES IDX 6 1 7 2 8 3 9 4 10 5 11 6 5 7 4 8 3 9 2 10 1 11
REMARK H PARENT
REMARK Flexibility Score: inf
ROOT
ATOM      1  C   UNL     1      28.358  12.923  20.108  1.00  0.00     0.000 C 
ENDROOT
BRANCH   1   2
ATOM      2  C   UNL     1      27.701  11.568  20.411  1.00  0.00     0.006 C 
BRANCH   2   3
ATOM      3  C   UNL     1      27.920  11.165  21.872  1.00  0.00     0.053 C 
BRANCH   3   4
ATOM      4  C   UNL     1      28.538   9.806  21.956  1.00  0.00     0.041 C 
ATOM      5  O   UNL     1      29.790   9.676  21.936  1.00  0.00    -0.550 OA
ATOM      6  O   UNL     1      27.732   8.684  22.107  1.00  0.00    -0.550 OA
ENDBRANCH   3   4
ENDBRANCH   2   3
ENDBRANCH   1   2
BRANCH   1   7
ATOM      7  C   UNL     1      29.825  12.981  20.584  1.00  0.00     0.000 C 
BRANCH   7   8
ATOM      8  C   UNL     1      30.822  13.332  19.467  1.00  0.00    -0.000 C 
BRANCH   8   9
ATOM      9  C   UNL     1      30.168  13.384  18.077  1.00  0.00    -0.000 C 
BRANCH   9  10
ATOM     10  C   UNL     1      30.285  14.769  17.423  1.00  0.00    -0.003 C 
ATOM     11  C   UNL     1      28.934  15.327  16.975  1.00  0.00     0.004 C 
ENDBRANCH   9  10
ENDBRANCH   8   9
ENDBRANCH   7   8
ENDBRANCH   1   7
TORSDOF 7
ENDMDL
MODEL 5
REMARK VINA RESULT:    -3.062      2.926      5.028
REMARK INTER + INTRA:          -4.944
REMARK INTER:                  -5.080
REMARK INTRA:                   0.136
REMARK UNBOUND:                -0.628
REMARK SMILES CCCCCCCCC(=O)[O-]
REMARK SMILES IDX 6 1 7 2 8 3 9 4 10 5 11 6 5 7 4 8 3 9 2 10 1 11
REMARK H PARENT
REMARK Flexibility Score: inf
ROOT
ATOM      1  C   UNL     1      30.191   4.223   4.513  1.00  0.00     0.000 C 
ENDROOT
BRANCH   1   2
ATOM      2  C   UNL     1      30.253   5.429   5.463  1.00  0.00     0.006 C 
BRANCH   2   3
ATOM      3  C   UNL     1      28.911   5.643   6.168  1.00  0.00     0.053 C 
BRANCH   3   4
ATOM      4  C   UNL     1      28.846   4.840   7.429  1.00  0.00     0.041 C 
ATOM      5  O   UNL     1      29.034   5.393   8.543  1.00  0.00    -0.550 OA
ATOM      6  O   UNL     1      28.526   3.489   7.376  1.00  0.00    -0.550 OA
ENDBRANCH   3   4
ENDBRANCH   2   3
ENDBRANCH   1   2
BRANCH   1   7
ATOM      7  C   UNL     1      28.756   3.680   4.351  1.00  0.00     0.000 C 
BRANCH   7   8
ATOM      8  C   UNL     1      28.701   2.212   3.891  1.00  0.00    -0.000 C 
BRANCH   8   9
ATOM      9  C   UNL     1      27.772   1.349   4.760  1.00  0.00    -0.000 C 
BRANCH   9  10
ATOM     10  C   UNL     1      28.539   0.299   5.578  1.00  0.00    -0.003 C 
ATOM     11  C   UNL     1      28.798  -0.987   4.795  1.00  0.00     0.004 C 
ENDBRANCH   9  10
ENDBRANCH   8   9
ENDBRANCH   7   8
ENDBRANCH   1   7
TORSDOF 7
ENDMDL
MODEL 6
REMARK VINA RESULT:    -2.990     16.845     18.384
REMARK INTER + INTRA:          -4.842
REMARK INTER:                  -4.512
REMARK INTRA:                  -0.330
REMARK UNBOUND:                -0.628
REMARK SMILES CCCCCCCCC(=O)[O-]
REMARK SMILES IDX 6 1 7 2 8 3 9 4 10 5 11 6 5 7 4 8 3 9 2 10 1 11
REMARK H PARENT
REMARK Flexibility Score: inf
ROOT
ATOM      1  C   UNL     1      31.721  13.458  20.117  1.00  0.00     0.000 C 
ENDROOT
BRANCH   1   2
ATOM      2  C   UNL     1      30.746  14.249  19.233  1.00  0.00     0.006 C 
BRANCH   2   3
ATOM      3  C   UNL     1      30.366  13.451  17.983  1.00  0.00     0.053 C 
BRANCH   3   4
ATOM      4  C   UNL     1      30.140  14.369  16.823  1.00  0.00     0.041 C 
ATOM      5  O   UNL     1      30.981  14.428  15.888  1.00  0.00    -0.550 OA
ATOM      6  O   UNL     1      28.975  15.121  16.748  1.00  0.00    -0.550 OA
ENDBRANCH   3   4
ENDBRANCH   2   3
ENDBRANCH   1   2
BRANCH   1   7
ATOM      7  C   UNL     1      31.016  12.331  20.902  1.00  0.00     0.000 C 
BRANCH   7   8
ATOM      8  C   UNL     1      29.670  12.756  21.514  1.00  0.00    -0.000 C 
BRANCH   8   9
ATOM      9  C   UNL     1      28.624  11.630  21.496  1.00  0.00    -0.000 C 
BRANCH   9  10
ATOM     10  C   UNL     1      29.199  10.287  21.970  1.00  0.00    -0.003 C 
ATOM     11  C   UNL     1      28.131   9.201  22.102  1.00  0.00     0.004 C 
ENDBRANCH   9  10
ENDBRANCH   8   9
ENDBRANCH   7   8
ENDBRANCH   1   7
TORSDOF 7
ENDMDL
MODEL 7
REMARK VINA RESULT:    -2.924     16.808     18.136
REMARK INTER + INTRA:          -4.749
REMARK INTER:                  -4.462
REMARK INTRA:                  -0.286
REMARK UNBOUND:                -0.628
REMARK SMILES CCCCCCCCC(=O)[O-]
REMARK SMILES IDX 6 1 7 2 8 3 9 4 10 5 11 6 5 7 4 8 3 9 2 10 1 11
REMARK H PARENT
REMARK Flexibility Score: inf
ROOT
ATOM      1  C   UNL     1      30.851  14.116  18.995  1.00  0.00     0.000 C 
ENDROOT
BRANCH   1   2
ATOM      2  C   UNL     1      30.423  13.612  17.608  1.00  0.00     0.006 C 
BRANCH   2   3
ATOM      3  C   UNL     1      30.039  14.778  16.694  1.00  0.00     0.053 C 
BRANCH   3   4
ATOM      4  C   UNL     1      31.227  15.250  15.918  1.00  0.00     0.041 C 
ATOM      5  O   UNL     1      31.581  14.647  14.871  1.00  0.00    -0.550 OA
ATOM      6  O   UNL     1      31.914  16.388  16.322  1.00  0.00    -0.550 OA
ENDBRANCH   3   4
ENDBRANCH   2   3
ENDBRANCH   1   2
BRANCH   1   7
ATOM      7  C   UNL     1      31.289  12.965  19.926  1.00  0.00     0.000 C 
BRANCH   7   8
ATOM      8  C   UNL     1      30.281  12.665  21.050  1.00  0.00    -0.000 C 
BRANCH   8   9
ATOM      9  C   UNL     1      28.828  12.619  20.552  1.00  0.00    -0.000 C 
BRANCH   9  10
ATOM     10  C   UNL     1      28.095  11.344  20.994  1.00  0.00    -0.003 C 
ATOM     11  C   UNL     1      28.951  10.452  21.892  1.00  0.00     0.004 C 
ENDBRANCH   9  10
ENDBRANCH   8   9
ENDBRANCH   7   8
ENDBRANCH   1   7
TORSDOF 7
ENDMDL
MODEL 8
REMARK VINA RESULT:    -2.906     17.686     18.614
REMARK INTER + INTRA:          -4.724
REMARK INTER:                  -4.236
REMARK INTRA:                  -0.488
REMARK UNBOUND:                -0.628
REMARK SMILES CCCCCCCCC(=O)[O-]
REMARK SMILES IDX 6 1 7 2 8 3 9 4 10 5 11 6 5 7 4 8 3 9 2 10 1 11
REMARK H PARENT
REMARK Flexibility Score: inf
ROOT
ATOM      1  C   UNL     1      30.632  12.222  21.459  1.00  0.00     0.000 C 
ENDROOT
BRANCH   1   2
ATOM      2  C   UNL     1      30.135  11.284  22.570  1.00  0.00     0.006 C 
BRANCH   2   3
ATOM      3  C   UNL     1      29.669   9.945  21.991  1.00  0.00     0.053 C 
BRANCH   3   4
ATOM      4  C   UNL     1      28.207   9.747  22.235  1.00  0.00     0.041 C 
ATOM      5  O   UNL     1      27.472  10.730  22.513  1.00  0.00    -0.550 OA
ATOM      6  O   UNL     1      27.646   8.483  22.106  1.00  0.00    -0.550 OA
ENDBRANCH   3   4
ENDBRANCH   2   3
ENDBRANCH   1   2
BRANCH   1   7
ATOM      7  C   UNL     1      29.586  13.293  21.086  1.00  0.00     0.000 C 
BRANCH   7   8
ATOM      8  C   UNL     1      28.810  12.973  19.797  1.00  0.00    -0.000 C 
BRANCH   8   9
ATOM      9  C   UNL     1      29.072  13.989  18.674  1.00  0.00    -0.000 C 
BRANCH   9  10
ATOM     10  C   UNL     1      30.537  13.992  18.213  1.00  0.00    -0.003 C 
ATOM     11  C   UNL     1      31.238  15.324  18.482  1.00  0.00     0.004 C 
ENDBRANCH   9  10
ENDBRANCH   8   9
ENDBRANCH   7   8
ENDBRANCH   1   7
TORSDOF 7
ENDMDL
