MODEL 1
REMARK VINA RESULT:    -4.468      0.000      0.000
REMARK INTER + INTRA:          -5.429
REMARK INTER:                  -6.296
REMARK INTRA:                   0.867
REMARK UNBOUND:                 0.867
REMARK SMILES CC1=CCC(=C(C)C)C(=O)CC(C)=CCC1
REMARK SMILES IDX 12 1 14 2 13 3 15 4 16 5 2 6 1 7 3 8 11 10 9 11 10 12 5 13
REMARK SMILES IDX 6 14 7 15 8 16 4 17
REMARK H PARENT
REMARK Flexibility Score: 60.00
ROOT
ATOM      1  C   UNL     1     -13.445  14.986 -30.828  1.00  0.00    -0.070 C 
ATOM      2  C   UNL     1     -12.664  14.887 -29.728  1.00  0.00    -0.027 C 
ATOM      3  C   UNL     1     -14.498  16.064 -30.855  1.00  0.00     0.039 C 
ENDROOT
BRANCH   2   4
ATOM      4  C   UNL     1     -11.603  13.834 -29.505  1.00  0.00     0.032 C 
BRANCH   4   5
ATOM      5  C   UNL     1     -12.215  12.430 -29.381  1.00  0.00     0.034 C 
BRANCH   5   6
ATOM      6  C   UNL     1     -13.510  12.401 -28.581  1.00  0.00    -0.077 C 
ATOM      7  C   UNL     1     -13.477  12.802 -27.127  1.00  0.00     0.039 C 
ATOM      8  C   UNL     1     -14.697  12.013 -29.101  1.00  0.00    -0.023 CG0
ATOM      9  G   UNL     1     -14.942  11.645 -30.546  1.00  0.00     0.000 G0
ENDBRANCH   5   6
ENDBRANCH   4   5
ENDBRANCH   2   4
BRANCH   1  10
ATOM     10  C   UNL     1     -13.304  14.068 -32.027  1.00  0.00     0.111 C 
BRANCH  10  11
ATOM     11  C   UNL     1     -14.627  13.462 -32.403  1.00  0.00     0.163 C 
ATOM     12  O   UNL     1     -15.017  13.521 -33.599  1.00  0.00    -0.294 OA
BRANCH  11  13
ATOM     13  C   UNL     1     -15.496  12.815 -31.386  1.00  0.00    -0.002 C 
ATOM     14  C   UNL     1     -16.772  13.249 -31.199  1.00  0.00    -0.069 C 
ATOM     15  C   UNL     1     -17.307  14.450 -31.946  1.00  0.00     0.039 C 
ATOM     16  C   UNL     1     -17.688  12.572 -30.207  1.00  0.00     0.039 C 
BRANCH  13  17
ATOM     17  C   UNL     1     -14.939  11.664 -30.555  1.00  0.00     0.066 CG0
ATOM     18  G   UNL     1     -14.683  12.025 -29.111  1.00  0.00     0.000 G0
ENDBRANCH  13  17
ENDBRANCH  11  13
ENDBRANCH  10  11
ENDBRANCH   1  10
TORSDOF 0
ENDMDL
MODEL 2
REMARK VINA RESULT:    -4.392      1.684      3.884
REMARK INTER + INTRA:          -5.322
REMARK INTER:                  -5.927
REMARK INTRA:                   0.605
REMARK UNBOUND:                 0.867
REMARK SMILES CC1=CCC(=C(C)C)C(=O)CC(C)=CCC1
REMARK SMILES IDX 12 1 14 2 13 3 15 4 16 5 2 6 1 7 3 8 11 10 9 11 10 12 5 13
REMARK SMILES IDX 6 14 7 15 8 16 4 17
REMARK H PARENT
REMARK Flexibility Score: 60.00
ROOT
ATOM      1  C   UNL     1     -13.716  12.638 -28.521  1.00  0.00    -0.070 C 
ATOM      2  C   UNL     1     -14.655  12.444 -27.566  1.00  0.00    -0.027 C 
ATOM      3  C   UNL     1     -12.567  13.562 -28.207  1.00  0.00     0.039 C 
ENDROOT
BRANCH   2   4
ATOM      4  C   UNL     1     -15.900  11.604 -27.729  1.00  0.00     0.032 C 
BRANCH   4   5
ATOM      5  C   UNL     1     -17.166  12.472 -27.800  1.00  0.00     0.034 C 
BRANCH   5   6
ATOM      6  C   UNL     1     -17.725  12.617 -29.208  1.00  0.00    -0.077 C 
ATOM      7  C   UNL     1     -18.866  11.726 -29.633  1.00  0.00     0.039 C 
ATOM      8  C   UNL     1     -17.241  13.496 -30.115  1.00  0.00    -0.023 CG0
ATOM      9  G   UNL     1     -16.155  14.514 -29.854  1.00  0.00     0.000 G0
ENDBRANCH   5   6
ENDBRANCH   4   5
ENDBRANCH   2   4
BRANCH   1  10
ATOM     10  C   UNL     1     -13.767  11.966 -29.879  1.00  0.00     0.111 C 
BRANCH  10  11
ATOM     11  C   UNL     1     -14.478  12.831 -30.883  1.00  0.00     0.163 C 
ATOM     12  O   UNL     1     -14.755  12.361 -32.018  1.00  0.00    -0.294 OA
BRANCH  11  13
ATOM     13  C   UNL     1     -14.837  14.239 -30.571  1.00  0.00    -0.002 C 
ATOM     14  C   UNL     1     -14.001  15.253 -30.922  1.00  0.00    -0.069 C 
ATOM     15  C   UNL     1     -12.653  14.975 -31.548  1.00  0.00     0.039 C 
ATOM     16  C   UNL     1     -14.372  16.695 -30.661  1.00  0.00     0.039 C 
BRANCH  13  17
ATOM     17  C   UNL     1     -16.151  14.530 -29.853  1.00  0.00     0.066 CG0
ATOM     18  G   UNL     1     -17.225  13.498 -30.110  1.00  0.00     0.000 G0
ENDBRANCH  13  17
ENDBRANCH  11  13
ENDBRANCH  10  11
ENDBRANCH   1  10
TORSDOF 0
ENDMDL
MODEL 3
REMARK VINA RESULT:    -3.962      1.620      2.072
REMARK INTER + INTRA:          -4.716
REMARK INTER:                  -5.549
REMARK INTRA:                   0.834
REMARK UNBOUND:                 0.867
REMARK SMILES CC1=CCC(=C(C)C)C(=O)CC(C)=CCC1
REMARK SMILES IDX 12 1 14 2 13 3 15 4 16 5 2 6 1 7 3 8 11 10 9 11 10 12 5 13
REMARK SMILES IDX 6 14 7 15 8 16 4 17
REMARK H PARENT
REMARK Flexibility Score: 60.00
ROOT
ATOM      1  C   UNL     1     -13.923  14.938 -30.996  1.00  0.00    -0.070 C 
ATOM      2  C   UNL     1     -12.715  14.400 -30.709  1.00  0.00    -0.027 C 
ATOM      3  C   UNL     1     -14.046  16.440 -31.000  1.00  0.00     0.039 C 
ENDROOT
BRANCH   2   4
ATOM      4  C   UNL     1     -12.424  12.920 -30.602  1.00  0.00     0.032 C 
BRANCH   4   5
ATOM      5  C   UNL     1     -11.959  12.535 -29.190  1.00  0.00     0.034 C 
BRANCH   5   6
ATOM      6  C   UNL     1     -12.822  13.123 -28.083  1.00  0.00    -0.077 C 
ATOM      7  C   UNL     1     -12.183  14.043 -27.072  1.00  0.00     0.039 C 
ATOM      8  C   UNL     1     -14.140  12.852 -27.943  1.00  0.00    -0.023 CG0
ATOM      9  G   UNL     1     -14.967  12.015 -28.891  1.00  0.00     0.000 G0
ENDBRANCH   5   6
ENDBRANCH   4   5
ENDBRANCH   2   4
BRANCH   1  10
ATOM     10  C   UNL     1     -15.146  14.100 -31.315  1.00  0.00     0.111 C 
BRANCH  10  11
ATOM     11  C   UNL     1     -16.071  14.021 -30.133  1.00  0.00     0.163 C 
ATOM     12  O   UNL     1     -16.703  15.049 -29.773  1.00  0.00    -0.294 OA
BRANCH  11  13
ATOM     13  C   UNL     1     -16.234  12.759 -29.366  1.00  0.00    -0.002 C 
ATOM     14  C   UNL     1     -17.478  12.271 -29.106  1.00  0.00    -0.069 C 
ATOM     15  C   UNL     1     -18.718  13.039 -29.505  1.00  0.00     0.039 C 
ATOM     16  C   UNL     1     -17.665  10.963 -28.373  1.00  0.00     0.039 C 
BRANCH  13  17
ATOM     17  C   UNL     1     -14.994  12.022 -28.872  1.00  0.00     0.066 CG0
ATOM     18  G   UNL     1     -14.125  12.845 -27.950  1.00  0.00     0.000 G0
ENDBRANCH  13  17
ENDBRANCH  11  13
ENDBRANCH  10  11
ENDBRANCH   1  10
TORSDOF 0
ENDMDL
MODEL 4
REMARK VINA RESULT:    -3.946      1.510      2.967
REMARK INTER + INTRA:          -4.693
REMARK INTER:                  -5.215
REMARK INTRA:                   0.521
REMARK UNBOUND:                 0.867
REMARK SMILES CC1=CCC(=C(C)C)C(=O)CC(C)=CCC1
REMARK SMILES IDX 12 1 14 2 13 3 15 4 16 5 2 6 1 7 3 8 11 10 9 11 10 12 5 13
REMARK SMILES IDX 6 14 7 15 8 16 4 17
REMARK H PARENT
REMARK Flexibility Score: 60.00
ROOT
ATOM      1  C   UNL     1     -14.876  13.938 -32.255  1.00  0.00    -0.070 C 
ATOM      2  C   UNL     1     -13.858  14.742 -31.873  1.00  0.00    -0.027 C 
ATOM      3  C   UNL     1     -14.914  13.476 -33.690  1.00  0.00     0.039 C 
ENDROOT
BRANCH   2   4
ATOM      4  C   UNL     1     -13.695  15.346 -30.497  1.00  0.00     0.032 C 
BRANCH   4   5
ATOM      5  C   UNL     1     -12.362  14.936 -29.852  1.00  0.00     0.034 C 
BRANCH   5   6
ATOM      6  C   UNL     1     -12.086  13.441 -29.923  1.00  0.00    -0.077 C 
ATOM      7  C   UNL     1     -10.899  12.957 -30.718  1.00  0.00     0.039 C 
ATOM      8  C   UNL     1     -12.863  12.511 -29.321  1.00  0.00    -0.023 CG0
ATOM      9  G   UNL     1     -14.047  12.803 -28.429  1.00  0.00     0.000 G0
ENDBRANCH   5   6
ENDBRANCH   4   5
ENDBRANCH   2   4
BRANCH   1  10
ATOM     10  C   UNL     1     -15.970  13.482 -31.309  1.00  0.00     0.111 C 
BRANCH  10  11
ATOM     11  C   UNL     1     -15.526  12.294 -30.502  1.00  0.00     0.163 C 
ATOM     12  O   UNL     1     -15.285  11.204 -31.087  1.00  0.00    -0.294 OA
BRANCH  11  13
ATOM     13  C   UNL     1     -15.391  12.372 -29.025  1.00  0.00    -0.002 C 
ATOM     14  C   UNL     1     -16.450  12.079 -28.222  1.00  0.00    -0.069 C 
ATOM     15  C   UNL     1     -17.809  11.761 -28.806  1.00  0.00     0.039 C 
ATOM     16  C   UNL     1     -16.318  12.102 -26.717  1.00  0.00     0.039 C 
BRANCH  13  17
ATOM     17  C   UNL     1     -14.052  12.784 -28.421  1.00  0.00     0.066 CG0
ATOM     18  G   UNL     1     -12.868  12.494 -29.314  1.00  0.00     0.000 G0
ENDBRANCH  13  17
ENDBRANCH  11  13
ENDBRANCH  10  11
ENDBRANCH   1  10
TORSDOF 0
ENDMDL
MODEL 5
REMARK VINA RESULT:    -3.775      2.255      4.881
REMARK INTER + INTRA:          -4.452
REMARK INTER:                  -5.254
REMARK INTRA:                   0.802
REMARK UNBOUND:                 0.867
REMARK SMILES CC1=CCC(=C(C)C)C(=O)CC(C)=CCC1
REMARK SMILES IDX 12 1 14 2 13 3 15 4 16 5 2 6 1 7 3 8 11 10 9 11 10 12 5 13
REMARK SMILES IDX 6 14 7 15 8 16 4 17
REMARK H PARENT
REMARK Flexibility Score: 60.00
ROOT
ATOM      1  C   UNL     1     -14.597  11.931 -29.121  1.00  0.00    -0.070 C 
ATOM      2  C   UNL     1     -15.791  11.797 -29.742  1.00  0.00    -0.027 C 
ATOM      3  C   UNL     1     -13.547  10.878 -29.369  1.00  0.00     0.039 C 
ENDROOT
BRANCH   2   4
ATOM      4  C   UNL     1     -16.974  12.720 -29.562  1.00  0.00     0.032 C 
BRANCH   4   5
ATOM      5  C   UNL     1     -16.577  14.193 -29.746  1.00  0.00     0.034 C 
BRANCH   5   6
ATOM      6  C   UNL     1     -16.171  14.539 -31.172  1.00  0.00    -0.077 C 
ATOM      7  C   UNL     1     -17.145  14.270 -32.292  1.00  0.00     0.039 C 
ATOM      8  C   UNL     1     -14.967  15.065 -31.496  1.00  0.00    -0.023 CG0
ATOM      9  G   UNL     1     -13.893  15.466 -30.512  1.00  0.00     0.000 G0
ENDBRANCH   5   6
ENDBRANCH   4   5
ENDBRANCH   2   4
BRANCH   1  10
ATOM     10  C   UNL     1     -14.271  13.090 -28.198  1.00  0.00     0.111 C 
BRANCH  10  11
ATOM     11  C   UNL     1     -13.056  13.836 -28.674  1.00  0.00     0.163 C 
ATOM     12  O   UNL     1     -12.114  14.061 -27.869  1.00  0.00    -0.294 OA
BRANCH  11  13
ATOM     13  C   UNL     1     -12.956  14.336 -30.070  1.00  0.00    -0.002 C 
ATOM     14  C   UNL     1     -12.055  13.790 -30.930  1.00  0.00    -0.069 C 
ATOM     15  C   UNL     1     -11.073  12.736 -30.470  1.00  0.00     0.039 C 
ATOM     16  C   UNL     1     -11.973  14.248 -32.368  1.00  0.00     0.039 C 
BRANCH  13  17
ATOM     17  C   UNL     1     -13.875  15.466 -30.523  1.00  0.00     0.066 CG0
ATOM     18  G   UNL     1     -14.954  15.023 -31.484  1.00  0.00     0.000 G0
ENDBRANCH  13  17
ENDBRANCH  11  13
ENDBRANCH  10  11
ENDBRANCH   1  10
TORSDOF 0
ENDMDL
MODEL 6
REMARK VINA RESULT:    -3.076      1.931      4.187
REMARK INTER + INTRA:          -3.467
REMARK INTER:                  -5.364
REMARK INTRA:                   1.897
REMARK UNBOUND:                 0.867
REMARK SMILES CC1=CCC(=C(C)C)C(=O)CC(C)=CCC1
REMARK SMILES IDX 12 1 14 2 13 3 15 4 16 5 2 6 1 7 3 8 11 10 9 11 10 12 5 13
REMARK SMILES IDX 6 14 7 15 8 16 4 17
REMARK H PARENT
REMARK Flexibility Score: 60.00
ROOT
ATOM      1  C   UNL     1     -15.959  14.062 -31.420  1.00  0.00    -0.070 C 
ATOM      2  C   UNL     1     -15.376  15.280 -31.503  1.00  0.00    -0.027 C 
ATOM      3  C   UNL     1     -17.348  13.901 -31.984  1.00  0.00     0.039 C 
ENDROOT
BRANCH   2   4
ATOM      4  C   UNL     1     -14.020  15.636 -30.939  1.00  0.00     0.032 C 
BRANCH   4   5
ATOM      5  C   UNL     1     -12.895  15.356 -31.947  1.00  0.00     0.034 C 
BRANCH   5   6
ATOM      6  C   UNL     1     -12.071  14.122 -31.611  1.00  0.00    -0.077 C 
ATOM      7  C   UNL     1     -11.210  13.506 -32.686  1.00  0.00     0.039 C 
ATOM      8  C   UNL     1     -12.079  13.529 -30.394  1.00  0.00    -0.023 CG0
ATOM      9  G   UNL     1     -12.820  14.036 -29.179  1.00  0.00     0.000 G0
ENDBRANCH   5   6
ENDBRANCH   4   5
ENDBRANCH   2   4
BRANCH   1  10
ATOM     10  C   UNL     1     -15.278  12.861 -30.793  1.00  0.00     0.111 C 
BRANCH  10  11
ATOM     11  C   UNL     1     -15.181  13.012 -29.300  1.00  0.00     0.163 C 
ATOM     12  O   UNL     1     -16.236  13.101 -28.617  1.00  0.00    -0.294 OA
BRANCH  11  13
ATOM     13  C   UNL     1     -13.863  13.085 -28.617  1.00  0.00    -0.002 C 
ATOM     14  C   UNL     1     -13.615  12.316 -27.523  1.00  0.00    -0.069 C 
ATOM     15  C   UNL     1     -14.692  11.443 -26.920  1.00  0.00     0.039 C 
ATOM     16  C   UNL     1     -12.264  12.336 -26.845  1.00  0.00     0.039 C 
BRANCH  13  17
ATOM     17  C   UNL     1     -12.797  14.033 -29.156  1.00  0.00     0.066 CG0
ATOM     18  G   UNL     1     -12.088  13.514 -30.385  1.00  0.00     0.000 G0
ENDBRANCH  13  17
ENDBRANCH  11  13
ENDBRANCH  10  11
ENDBRANCH   1  10
TORSDOF 0
ENDMDL
MODEL 7
REMARK VINA RESULT:    -2.995      1.687      3.673
REMARK INTER + INTRA:          -3.353
REMARK INTER:                  -5.039
REMARK INTRA:                   1.686
REMARK UNBOUND:                 0.867
REMARK SMILES CC1=CCC(=C(C)C)C(=O)CC(C)=CCC1
REMARK SMILES IDX 12 1 14 2 13 3 15 4 16 5 2 6 1 7 3 8 11 10 9 11 10 12 5 13
REMARK SMILES IDX 6 14 7 15 8 16 4 17
REMARK H PARENT
REMARK Flexibility Score: 60.00
ROOT
ATOM      1  C   UNL     1     -13.054  12.923 -27.441  1.00  0.00    -0.070 C 
ATOM      2  C   UNL     1     -14.243  12.545 -26.916  1.00  0.00    -0.027 C 
ATOM      3  C   UNL     1     -12.027  13.520 -26.512  1.00  0.00     0.039 C 
ENDROOT
BRANCH   2   4
ATOM      4  C   UNL     1     -15.405  11.986 -27.705  1.00  0.00     0.032 C 
BRANCH   4   5
ATOM      5  C   UNL     1     -16.384  13.091 -28.130  1.00  0.00     0.034 C 
BRANCH   5   6
ATOM      6  C   UNL     1     -17.198  12.739 -29.367  1.00  0.00    -0.077 C 
ATOM      7  C   UNL     1     -18.691  12.952 -29.342  1.00  0.00     0.039 C 
ATOM      8  C   UNL     1     -16.654  12.225 -30.494  1.00  0.00    -0.023 CG0
ATOM      9  G   UNL     1     -15.178  12.007 -30.734  1.00  0.00     0.000 G0
ENDBRANCH   5   6
ENDBRANCH   4   5
ENDBRANCH   2   4
BRANCH   1  10
ATOM     10  C   UNL     1     -12.713  12.768 -28.910  1.00  0.00     0.111 C 
BRANCH  10  11
ATOM     11  C   UNL     1     -13.497  13.736 -29.752  1.00  0.00     0.163 C 
ATOM     12  O   UNL     1     -13.452  14.966 -29.483  1.00  0.00    -0.294 OA
BRANCH  11  13
ATOM     13  C   UNL     1     -14.342  13.268 -30.880  1.00  0.00    -0.002 C 
ATOM     14  C   UNL     1     -14.382  13.971 -32.045  1.00  0.00    -0.069 C 
ATOM     15  C   UNL     1     -13.649  15.286 -32.190  1.00  0.00     0.039 C 
ATOM     16  C   UNL     1     -15.195  13.485 -33.222  1.00  0.00     0.039 C 
BRANCH  13  17
ATOM     17  C   UNL     1     -15.164  11.994 -30.716  1.00  0.00     0.066 CG0
ATOM     18  G   UNL     1     -16.638  12.245 -30.503  1.00  0.00     0.000 G0
ENDBRANCH  13  17
ENDBRANCH  11  13
ENDBRANCH  10  11
ENDBRANCH   1  10
TORSDOF 0
ENDMDL
MODEL 8
REMARK VINA RESULT:    -2.647     11.387     13.604
REMARK INTER + INTRA:          -2.863
REMARK INTER:                  -3.320
REMARK INTRA:                   0.457
REMARK UNBOUND:                 0.867
REMARK SMILES CC1=CCC(=C(C)C)C(=O)CC(C)=CCC1
REMARK SMILES IDX 12 1 14 2 13 3 15 4 16 5 2 6 1 7 3 8 11 10 9 11 10 12 5 13
REMARK SMILES IDX 6 14 7 15 8 16 4 17
REMARK H PARENT
REMARK Flexibility Score: 60.00
ROOT
ATOM      1  C   UNL     1     -26.373  17.143 -30.867  1.00  0.00    -0.070 C 
ATOM      2  C   UNL     1     -27.534  17.435 -31.496  1.00  0.00    -0.027 C 
ATOM      3  C   UNL     1     -26.118  15.708 -30.481  1.00  0.00     0.039 C 
ENDROOT
BRANCH   2   4
ATOM      4  C   UNL     1     -27.979  18.822 -31.901  1.00  0.00     0.032 C 
BRANCH   4   5
ATOM      5  C   UNL     1     -27.691  19.100 -33.384  1.00  0.00     0.034 C 
BRANCH   5   6
ATOM      6  C   UNL     1     -27.160  20.502 -33.647  1.00  0.00    -0.077 C 
ATOM      7  C   UNL     1     -28.134  21.653 -33.698  1.00  0.00     0.039 C 
ATOM      8  C   UNL     1     -25.852  20.775 -33.859  1.00  0.00    -0.023 CG0
ATOM      9  G   UNL     1     -24.724  19.772 -33.779  1.00  0.00     0.000 G0
ENDBRANCH   5   6
ENDBRANCH   4   5
ENDBRANCH   2   4
BRANCH   1  10
ATOM     10  C   UNL     1     -25.323  18.187 -30.541  1.00  0.00     0.111 C 
BRANCH  10  11
ATOM     11  C   UNL     1     -24.328  18.322 -31.659  1.00  0.00     0.163 C 
ATOM     12  O   UNL     1     -23.626  17.328 -31.986  1.00  0.00    -0.294 OA
BRANCH  11  13
ATOM     13  C   UNL     1     -24.137  19.613 -32.371  1.00  0.00    -0.002 C 
ATOM     14  C   UNL     1     -23.455  20.629 -31.777  1.00  0.00    -0.069 C 
ATOM     15  C   UNL     1     -22.957  20.510 -30.354  1.00  0.00     0.039 C 
ATOM     16  C   UNL     1     -23.205  21.930 -32.503  1.00  0.00     0.039 C 
BRANCH  13  17
ATOM     17  C   UNL     1     -24.717  19.783 -33.771  1.00  0.00     0.066 CG0
ATOM     18  G   UNL     1     -25.848  20.782 -33.843  1.00  0.00     0.000 G0
ENDBRANCH  13  17
ENDBRANCH  11  13
ENDBRANCH  10  11
ENDBRANCH   1  10
TORSDOF 0
ENDMDL
MODEL 9
REMARK VINA RESULT:    -1.660      2.100      4.582
REMARK INTER + INTRA:          -1.472
REMARK INTER:                  -3.591
REMARK INTRA:                   2.119
REMARK UNBOUND:                 0.867
REMARK SMILES CC1=CCC(=C(C)C)C(=O)CC(C)=CCC1
REMARK SMILES IDX 12 1 14 2 13 3 15 4 16 5 2 6 1 7 3 8 11 10 9 11 10 12 5 13
REMARK SMILES IDX 6 14 7 15 8 16 4 17
REMARK H PARENT
REMARK Flexibility Score: 60.00
ROOT
ATOM      1  C   UNL     1     -15.899  12.453 -29.895  1.00  0.00    -0.070 C 
ATOM      2  C   UNL     1     -16.636  13.573 -29.715  1.00  0.00    -0.027 C 
ATOM      3  C   UNL     1     -16.049  11.337 -28.893  1.00  0.00     0.039 C 
ENDROOT
BRANCH   2   4
ATOM      4  C   UNL     1     -16.568  14.809 -30.583  1.00  0.00     0.032 C 
BRANCH   4   5
ATOM      5  C   UNL     1     -15.179  14.982 -31.215  1.00  0.00     0.034 C 
BRANCH   5   6
ATOM      6  C   UNL     1     -14.323  16.034 -30.524  1.00  0.00    -0.077 C 
ATOM      7  C   UNL     1     -14.611  17.492 -30.783  1.00  0.00     0.039 C 
ATOM      8  C   UNL     1     -13.297  15.732 -29.695  1.00  0.00    -0.023 CG0
ATOM      9  G   UNL     1     -12.903  14.339 -29.262  1.00  0.00     0.000 G0
ENDBRANCH   5   6
ENDBRANCH   4   5
ENDBRANCH   2   4
BRANCH   1  10
ATOM     10  C   UNL     1     -14.939  12.273 -31.055  1.00  0.00     0.111 C 
BRANCH  10  11
ATOM     11  C   UNL     1     -13.518  12.187 -30.573  1.00  0.00     0.163 C 
ATOM     12  O   UNL     1     -13.042  11.067 -30.246  1.00  0.00    -0.294 OA
BRANCH  11  13
ATOM     13  C   UNL     1     -12.670  13.401 -30.450  1.00  0.00    -0.002 C 
ATOM     14  C   UNL     1     -11.712  13.665 -31.380  1.00  0.00    -0.069 C 
ATOM     15  C   UNL     1     -11.421  12.693 -32.501  1.00  0.00     0.039 C 
ATOM     16  C   UNL     1     -10.876  14.921 -31.302  1.00  0.00     0.039 C 
BRANCH  13  17
ATOM     17  C   UNL     1     -12.887  14.343 -29.271  1.00  0.00     0.066 CG0
ATOM     18  G   UNL     1     -13.293  15.741 -29.676  1.00  0.00     0.000 G0
ENDBRANCH  13  17
ENDBRANCH  11  13
ENDBRANCH  10  11
ENDBRANCH   1  10
TORSDOF 0
ENDMDL
