MODEL 1
REMARK VINA RESULT:    -2.766      0.000      0.000
REMARK INTER + INTRA:          -3.268
REMARK INTER:                  -3.251
REMARK INTRA:                  -0.017
REMARK UNBOUND:                -0.017
REMARK SMILES CCCCC(=O)[O-]
REMARK SMILES IDX 4 1 5 2 6 3 7 4 3 5 2 6 1 7
REMARK H PARENT
REMARK Flexibility Score: inf
ROOT
ATOM      1  C   UNL     1      42.695  33.023  -0.333  1.00  0.00     0.053 C 
ENDROOT
BRANCH   1   2
ATOM      2  C   UNL     1      41.600  32.510  -1.218  1.00  0.00     0.041 C 
ATOM      3  O   UNL     1      41.858  31.674  -2.125  1.00  0.00    -0.550 OA
ATOM      4  O   UNL     1      40.302  32.979  -1.063  1.00  0.00    -0.550 OA
ENDBRANCH   1   2
BRANCH   1   5
ATOM      5  C   UNL     1      42.565  32.492   1.101  1.00  0.00     0.006 C 
BRANCH   5   6
ATOM      6  C   UNL     1      43.931  32.192   1.735  1.00  0.00    -0.003 C 
ATOM      7  C   UNL     1      43.772  31.655   3.155  1.00  0.00     0.004 C 
ENDBRANCH   5   6
ENDBRANCH   1   5
TORSDOF 3
ENDMDL
MODEL 2
REMARK VINA RESULT:    -2.728      0.869      1.445
REMARK INTER + INTRA:          -3.223
REMARK INTER:                  -3.181
REMARK INTRA:                  -0.042
REMARK UNBOUND:                -0.017
REMARK SMILES CCCCC(=O)[O-]
REMARK SMILES IDX 4 1 5 2 6 3 7 4 3 5 2 6 1 7
REMARK H PARENT
REMARK Flexibility Score: inf
ROOT
ATOM      1  C   UNL     1      41.963  32.818   0.085  1.00  0.00     0.053 C 
ENDROOT
BRANCH   1   2
ATOM      2  C   UNL     1      41.530  32.746  -1.348  1.00  0.00     0.041 C 
ATOM      3  O   UNL     1      40.840  33.674  -1.849  1.00  0.00    -0.550 OA
ATOM      4  O   UNL     1      41.859  31.639  -2.121  1.00  0.00    -0.550 OA
ENDBRANCH   1   2
BRANCH   1   5
ATOM      5  C   UNL     1      43.491  32.862   0.217  1.00  0.00     0.006 C 
BRANCH   5   6
ATOM      6  C   UNL     1      43.977  32.263   1.544  1.00  0.00    -0.003 C 
ATOM      7  C   UNL     1      42.801  31.829   2.415  1.00  0.00     0.004 C 
ENDBRANCH   5   6
ENDBRANCH   1   5
TORSDOF 3
ENDMDL
MODEL 3
REMARK VINA RESULT:    -2.714     17.499     18.611
REMARK INTER + INTRA:          -3.207
REMARK INTER:                  -3.137
REMARK INTRA:                  -0.070
REMARK UNBOUND:                -0.017
REMARK SMILES CCCCC(=O)[O-]
REMARK SMILES IDX 4 1 5 2 6 3 7 4 3 5 2 6 1 7
REMARK H PARENT
REMARK Flexibility Score: inf
ROOT
ATOM      1  C   UNL     1      25.834  39.285   0.266  1.00  0.00     0.053 C 
ENDROOT
BRANCH   1   2
ATOM      2  C   UNL     1      26.260  39.459  -1.160  1.00  0.00     0.041 C 
ATOM      3  O   UNL     1      25.788  40.401  -1.852  1.00  0.00    -0.550 OA
ATOM      4  O   UNL     1      27.152  38.562  -1.735  1.00  0.00    -0.550 OA
ENDBRANCH   1   2
BRANCH   1   5
ATOM      5  C   UNL     1      24.312  39.415   0.425  1.00  0.00     0.006 C 
BRANCH   5   6
ATOM      6  C   UNL     1      23.927  40.298   1.621  1.00  0.00    -0.003 C 
ATOM      7  C   UNL     1      25.168  40.806   2.352  1.00  0.00     0.004 C 
ENDBRANCH   5   6
ENDBRANCH   1   5
TORSDOF 3
ENDMDL
MODEL 4
REMARK VINA RESULT:    -2.649     17.628     18.886
REMARK INTER + INTRA:          -3.131
REMARK INTER:                  -3.096
REMARK INTRA:                  -0.035
REMARK UNBOUND:                -0.017
REMARK SMILES CCCCC(=O)[O-]
REMARK SMILES IDX 4 1 5 2 6 3 7 4 3 5 2 6 1 7
REMARK H PARENT
REMARK Flexibility Score: inf
ROOT
ATOM      1  C   UNL     1      25.896  39.758   1.087  1.00  0.00     0.053 C 
ENDROOT
BRANCH   1   2
ATOM      2  C   UNL     1      25.257  40.668   2.091  1.00  0.00     0.041 C 
ATOM      3  O   UNL     1      25.966  41.277   2.936  1.00  0.00    -0.550 OA
ATOM      4  O   UNL     1      23.876  40.818   2.116  1.00  0.00    -0.550 OA
ENDBRANCH   1   2
BRANCH   1   5
ATOM      5  C   UNL     1      25.024  39.589  -0.165  1.00  0.00     0.006 C 
BRANCH   5   6
ATOM      6  C   UNL     1      25.803  39.871  -1.458  1.00  0.00    -0.003 C 
ATOM      7  C   UNL     1      27.181  39.214  -1.424  1.00  0.00     0.004 C 
ENDBRANCH   5   6
ENDBRANCH   1   5
TORSDOF 3
ENDMDL
MODEL 5
REMARK VINA RESULT:    -2.576     18.720     19.396
REMARK INTER + INTRA:          -3.045
REMARK INTER:                  -3.012
REMARK INTRA:                  -0.033
REMARK UNBOUND:                -0.017
REMARK SMILES CCCCC(=O)[O-]
REMARK SMILES IDX 4 1 5 2 6 3 7 4 3 5 2 6 1 7
REMARK H PARENT
REMARK Flexibility Score: inf
ROOT
ATOM      1  C   UNL     1      25.383  40.319   1.608  1.00  0.00     0.053 C 
ENDROOT
BRANCH   1   2
ATOM      2  C   UNL     1      25.037  39.782   0.253  1.00  0.00     0.041 C 
ATOM      3  O   UNL     1      23.998  39.086   0.094  1.00  0.00    -0.550 OA
ATOM      4  O   UNL     1      25.877  40.021  -0.827  1.00  0.00    -0.550 OA
ENDBRANCH   1   2
BRANCH   1   5
ATOM      5  C   UNL     1      24.136  40.779   2.375  1.00  0.00     0.006 C 
BRANCH   5   6
ATOM      6  C   UNL     1      24.491  41.497   3.685  1.00  0.00    -0.003 C 
ATOM      7  C   UNL     1      25.845  42.195   3.580  1.00  0.00     0.004 C 
ENDBRANCH   5   6
ENDBRANCH   1   5
TORSDOF 3
ENDMDL
MODEL 6
REMARK VINA RESULT:    -2.566      1.549      2.139
REMARK INTER + INTRA:          -3.033
REMARK INTER:                  -3.003
REMARK INTRA:                  -0.030
REMARK UNBOUND:                -0.017
REMARK SMILES CCCCC(=O)[O-]
REMARK SMILES IDX 4 1 5 2 6 3 7 4 3 5 2 6 1 7
REMARK H PARENT
REMARK Flexibility Score: inf
ROOT
ATOM      1  C   UNL     1      42.646  32.383   1.467  1.00  0.00     0.053 C 
ENDROOT
BRANCH   1   2
ATOM      2  C   UNL     1      42.930  32.677   0.026  1.00  0.00     0.041 C 
ATOM      3  O   UNL     1      43.977  33.299  -0.299  1.00  0.00    -0.550 OA
ATOM      4  O   UNL     1      42.025  32.296  -0.956  1.00  0.00    -0.550 OA
ENDBRANCH   1   2
BRANCH   1   5
ATOM      5  C   UNL     1      43.900  31.899   2.208  1.00  0.00     0.006 C 
BRANCH   5   6
ATOM      6  C   UNL     1      43.593  31.473   3.651  1.00  0.00    -0.003 C 
ATOM      7  C   UNL     1      42.267  30.721   3.732  1.00  0.00     0.004 C 
ENDBRANCH   5   6
ENDBRANCH   1   5
TORSDOF 3
ENDMDL
MODEL 7
REMARK VINA RESULT:    -2.528      1.854      2.479
REMARK INTER + INTRA:          -2.988
REMARK INTER:                  -2.883
REMARK INTRA:                  -0.105
REMARK UNBOUND:                -0.017
REMARK SMILES CCCCC(=O)[O-]
REMARK SMILES IDX 4 1 5 2 6 3 7 4 3 5 2 6 1 7
REMARK H PARENT
REMARK Flexibility Score: inf
ROOT
ATOM      1  C   UNL     1      40.978  33.499  -1.682  1.00  0.00     0.053 C 
ENDROOT
BRANCH   1   2
ATOM      2  C   UNL     1      39.637  33.433  -1.015  1.00  0.00     0.041 C 
ATOM      3  O   UNL     1      38.587  33.395  -1.710  1.00  0.00    -0.550 OA
ATOM      4  O   UNL     1      39.546  33.449   0.370  1.00  0.00    -0.550 OA
ENDBRANCH   1   2
BRANCH   1   5
ATOM      5  C   UNL     1      41.914  32.387  -1.189  1.00  0.00     0.006 C 
BRANCH   5   6
ATOM      6  C   UNL     1      43.032  32.926  -0.285  1.00  0.00    -0.003 C 
ATOM      7  C   UNL     1      42.849  32.455   1.156  1.00  0.00     0.004 C 
ENDBRANCH   5   6
ENDBRANCH   1   5
TORSDOF 3
ENDMDL
MODEL 8
REMARK VINA RESULT:    -2.419     16.451     17.787
REMARK INTER + INTRA:          -2.860
REMARK INTER:                  -2.838
REMARK INTRA:                  -0.023
REMARK UNBOUND:                -0.017
REMARK SMILES CCCCC(=O)[O-]
REMARK SMILES IDX 4 1 5 2 6 3 7 4 3 5 2 6 1 7
REMARK H PARENT
REMARK Flexibility Score: inf
ROOT
ATOM      1  C   UNL     1      25.711  39.733  -1.225  1.00  0.00     0.053 C 
ENDROOT
BRANCH   1   2
ATOM      2  C   UNL     1      24.953  39.674   0.067  1.00  0.00     0.041 C 
ATOM      3  O   UNL     1      23.875  39.025   0.140  1.00  0.00    -0.550 OA
ATOM      4  O   UNL     1      25.418  40.363   1.180  1.00  0.00    -0.550 OA
ENDBRANCH   1   2
BRANCH   1   5
ATOM      5  C   UNL     1      27.209  39.472  -1.019  1.00  0.00     0.006 C 
BRANCH   5   6
ATOM      6  C   UNL     1      27.686  38.213  -1.756  1.00  0.00    -0.003 C 
ATOM      7  C   UNL     1      29.169  38.309  -2.106  1.00  0.00     0.004 C 
ENDBRANCH   5   6
ENDBRANCH   1   5
TORSDOF 3
ENDMDL
