MODEL 1
REMARK VINA RESULT:    -4.331      0.000      0.000
REMARK INTER + INTRA:          -4.458
REMARK INTER:                  -4.458
REMARK INTRA:                   0.000
REMARK UNBOUND:                 0.000
REMARK SMILES Oc1ccc2[nH]ccc2c1
REMARK SMILES IDX 3 1 4 2 5 3 9 4 8 5 7 6 6 7 10 8 2 9 1 11
REMARK H PARENT 6 10 1 12
REMARK Flexibility Score: inf
ROOT
ATOM      1  C   UNL     1      -5.607  -1.744   6.331  1.00  0.00     0.048 A 
ATOM      2  C   UNL     1      -4.818  -2.822   5.890  1.00  0.00     0.030 A 
ATOM      3  C   UNL     1      -5.466  -4.010   5.560  1.00  0.00     0.046 A 
ATOM      4  C   UNL     1      -6.827  -4.139   5.656  1.00  0.00     0.003 A 
ATOM      5  C   UNL     1      -7.148  -5.420   5.261  1.00  0.00     0.028 A 
ATOM      6  C   UNL     1      -5.934  -6.016   4.937  1.00  0.00     0.083 A 
ATOM      7  N   UNL     1      -4.910  -5.151   5.122  1.00  0.00    -0.361 N 
ATOM      8  C   UNL     1      -7.637  -3.092   6.089  1.00  0.00     0.056 A 
ATOM      9  C   UNL     1      -7.011  -1.874   6.431  1.00  0.00     0.116 A 
ATOM     10  H   UNL     1      -3.895  -5.337   4.957  1.00  0.00     0.166 HD
ENDROOT
BRANCH   9  11
ATOM     11  O   UNL     1      -7.769  -0.790   6.871  1.00  0.00    -0.508 OA
ATOM     12  H   UNL     1      -8.136  -0.103   6.221  1.00  0.00     0.293 HD
ENDBRANCH   9  11
TORSDOF 1
ENDMDL
MODEL 2
REMARK VINA RESULT:    -4.163     14.384     15.526
REMARK INTER + INTRA:          -4.284
REMARK INTER:                  -4.284
REMARK INTRA:                   0.000
REMARK UNBOUND:                 0.000
REMARK SMILES Oc1ccc2[nH]ccc2c1
REMARK SMILES IDX 3 1 4 2 5 3 9 4 8 5 7 6 6 7 10 8 2 9 1 11
REMARK H PARENT 6 10 1 12
REMARK Flexibility Score: inf
ROOT
ATOM      1  C   UNL     1       7.449  -6.539  -0.324  1.00  0.00     0.048 A 
ATOM      2  C   UNL     1       8.420  -5.665  -0.845  1.00  0.00     0.030 A 
ATOM      3  C   UNL     1       8.527  -4.397  -0.278  1.00  0.00     0.046 A 
ATOM      4  C   UNL     1       7.721  -4.000   0.756  1.00  0.00     0.003 A 
ATOM      5  C   UNL     1       8.075  -2.710   1.084  1.00  0.00     0.028 A 
ATOM      6  C   UNL     1       9.107  -2.383   0.210  1.00  0.00     0.083 A 
ATOM      7  N   UNL     1       9.379  -3.417  -0.620  1.00  0.00    -0.361 N 
ATOM      8  C   UNL     1       6.749  -4.841   1.295  1.00  0.00     0.056 A 
ATOM      9  C   UNL     1       6.615  -6.132   0.742  1.00  0.00     0.116 A 
ATOM     10  H   UNL     1      10.104  -3.442  -1.372  1.00  0.00     0.166 HD
ENDROOT
BRANCH   9  11
ATOM     11  O   UNL     1       5.660  -7.017   1.240  1.00  0.00    -0.508 OA
ATOM     12  H   UNL     1       4.679  -6.925   1.003  1.00  0.00     0.293 HD
ENDBRANCH   9  11
TORSDOF 1
ENDMDL
MODEL 3
REMARK VINA RESULT:    -4.087     11.898     12.911
REMARK INTER + INTRA:          -4.206
REMARK INTER:                  -4.206
REMARK INTRA:                   0.000
REMARK UNBOUND:                 0.000
REMARK SMILES Oc1ccc2[nH]ccc2c1
REMARK SMILES IDX 3 1 4 2 5 3 9 4 8 5 7 6 6 7 10 8 2 9 1 11
REMARK H PARENT 6 10 1 12
REMARK Flexibility Score: inf
ROOT
ATOM      1  C   UNL     1      -1.552   7.402   2.709  1.00  0.00     0.048 A 
ATOM      2  C   UNL     1      -1.169   8.396   3.628  1.00  0.00     0.030 A 
ATOM      3  C   UNL     1      -0.183   8.077   4.559  1.00  0.00     0.046 A 
ATOM      4  C   UNL     1       0.404   6.840   4.591  1.00  0.00     0.003 A 
ATOM      5  C   UNL     1       1.327   6.847   5.614  1.00  0.00     0.028 A 
ATOM      6  C   UNL     1       1.249   8.123   6.164  1.00  0.00     0.083 A 
ATOM      7  N   UNL     1       0.325   8.869   5.516  1.00  0.00    -0.361 N 
ATOM      8  C   UNL     1       0.048   5.833   3.695  1.00  0.00     0.056 A 
ATOM      9  C   UNL     1      -0.948   6.124   2.739  1.00  0.00     0.116 A 
ATOM     10  H   UNL     1       0.064   9.860   5.723  1.00  0.00     0.166 HD
ENDROOT
BRANCH   9  11
ATOM     11  O   UNL     1      -1.345   5.158   1.817  1.00  0.00    -0.508 OA
ATOM     12  H   UNL     1      -2.325   4.959   1.649  1.00  0.00     0.293 HD
ENDBRANCH   9  11
TORSDOF 1
ENDMDL
MODEL 4
REMARK VINA RESULT:    -4.029     12.125     13.482
REMARK INTER + INTRA:          -4.147
REMARK INTER:                  -4.147
REMARK INTRA:                   0.000
REMARK UNBOUND:                 0.000
REMARK SMILES Oc1ccc2[nH]ccc2c1
REMARK SMILES IDX 3 1 4 2 5 3 9 4 8 5 7 6 6 7 10 8 2 9 1 11
REMARK H PARENT 6 10 1 12
REMARK Flexibility Score: inf
ROOT
ATOM      1  C   UNL     1       1.854   8.984   5.203  1.00  0.00     0.048 A 
ATOM      2  C   UNL     1       0.889   9.266   4.220  1.00  0.00     0.030 A 
ATOM      3  C   UNL     1       0.111   8.211   3.750  1.00  0.00     0.046 A 
ATOM      4  C   UNL     1       0.267   6.934   4.222  1.00  0.00     0.003 A 
ATOM      5  C   UNL     1      -0.643   6.137   3.563  1.00  0.00     0.028 A 
ATOM      6  C   UNL     1      -1.323   6.994   2.704  1.00  0.00     0.083 A 
ATOM      7  N   UNL     1      -0.859   8.259   2.822  1.00  0.00    -0.361 N 
ATOM      8  C   UNL     1       1.213   6.621   5.195  1.00  0.00     0.056 A 
ATOM      9  C   UNL     1       2.019   7.667   5.692  1.00  0.00     0.116 A 
ATOM     10  H   UNL     1      -1.190   9.099   2.296  1.00  0.00     0.166 HD
ENDROOT
BRANCH   9  11
ATOM     11  O   UNL     1       2.982   7.415   6.667  1.00  0.00    -0.508 OA
ATOM     12  H   UNL     1       3.964   7.604   6.501  1.00  0.00     0.293 HD
ENDBRANCH   9  11
TORSDOF 1
ENDMDL
MODEL 5
REMARK VINA RESULT:    -4.013     11.887     13.193
REMARK INTER + INTRA:          -4.131
REMARK INTER:                  -4.131
REMARK INTRA:                   0.000
REMARK UNBOUND:                 0.000
REMARK SMILES Oc1ccc2[nH]ccc2c1
REMARK SMILES IDX 3 1 4 2 5 3 9 4 8 5 7 6 6 7 10 8 2 9 1 11
REMARK H PARENT 6 10 1 12
REMARK Flexibility Score: inf
ROOT
ATOM      1  C   UNL     1       0.074   5.690   3.624  1.00  0.00     0.048 A 
ATOM      2  C   UNL     1       0.555   6.596   4.587  1.00  0.00     0.030 A 
ATOM      3  C   UNL     1       0.065   7.900   4.557  1.00  0.00     0.046 A 
ATOM      4  C   UNL     1      -0.858   8.301   3.627  1.00  0.00     0.003 A 
ATOM      5  C   UNL     1      -1.133   9.630   3.866  1.00  0.00     0.028 A 
ATOM      6  C   UNL     1      -0.343   9.974   4.958  1.00  0.00     0.083 A 
ATOM      7  N   UNL     1       0.387   8.914   5.376  1.00  0.00    -0.361 N 
ATOM      8  C   UNL     1      -1.355   7.430   2.660  1.00  0.00     0.056 A 
ATOM      9  C   UNL     1      -0.878   6.102   2.663  1.00  0.00     0.116 A 
ATOM     10  H   UNL     1       1.062   8.893   6.173  1.00  0.00     0.166 HD
ENDROOT
BRANCH   9  11
ATOM     11  O   UNL     1      -1.339   5.184   1.721  1.00  0.00    -0.508 OA
ATOM     12  H   UNL     1      -1.620   5.477   0.792  1.00  0.00     0.293 HD
ENDBRANCH   9  11
TORSDOF 1
ENDMDL
MODEL 6
REMARK VINA RESULT:    -3.896     14.805     15.809
REMARK INTER + INTRA:          -4.010
REMARK INTER:                  -4.010
REMARK INTRA:                   0.000
REMARK UNBOUND:                 0.000
REMARK SMILES Oc1ccc2[nH]ccc2c1
REMARK SMILES IDX 3 1 4 2 5 3 9 4 8 5 7 6 6 7 10 8 2 9 1 11
REMARK H PARENT 6 10 1 12
REMARK Flexibility Score: inf
ROOT
ATOM      1  C   UNL     1       6.768  -4.974   1.365  1.00  0.00     0.048 A 
ATOM      2  C   UNL     1       7.603  -4.000   0.789  1.00  0.00     0.030 A 
ATOM      3  C   UNL     1       8.357  -4.364  -0.324  1.00  0.00     0.046 A 
ATOM      4  C   UNL     1       8.296  -5.626  -0.854  1.00  0.00     0.003 A 
ATOM      5  C   UNL     1       9.149  -5.662  -1.935  1.00  0.00     0.028 A 
ATOM      6  C   UNL     1       9.697  -4.385  -2.007  1.00  0.00     0.083 A 
ATOM      7  N   UNL     1       9.210  -3.597  -1.022  1.00  0.00    -0.361 N 
ATOM      8  C   UNL     1       7.478  -6.614  -0.308  1.00  0.00     0.056 A 
ATOM      9  C   UNL     1       6.702  -6.277   0.821  1.00  0.00     0.116 A 
ATOM     10  H   UNL     1       9.453  -2.596  -0.843  1.00  0.00     0.166 HD
ENDROOT
BRANCH   9  11
ATOM     11  O   UNL     1       5.866  -7.223   1.410  1.00  0.00    -0.508 OA
ATOM     12  H   UNL     1       5.245  -6.978   2.173  1.00  0.00     0.293 HD
ENDBRANCH   9  11
TORSDOF 1
ENDMDL
MODEL 7
REMARK VINA RESULT:    -3.869     14.426     15.370
REMARK INTER + INTRA:          -3.982
REMARK INTER:                  -3.982
REMARK INTRA:                   0.000
REMARK UNBOUND:                 0.000
REMARK SMILES Oc1ccc2[nH]ccc2c1
REMARK SMILES IDX 3 1 4 2 5 3 9 4 8 5 7 6 6 7 10 8 2 9 1 11
REMARK H PARENT 6 10 1 12
REMARK Flexibility Score: inf
ROOT
ATOM      1  C   UNL     1       7.614  -3.231   0.964  1.00  0.00     0.048 A 
ATOM      2  C   UNL     1       6.841  -4.337   1.362  1.00  0.00     0.030 A 
ATOM      3  C   UNL     1       7.045  -5.546   0.700  1.00  0.00     0.046 A 
ATOM      4  C   UNL     1       7.965  -5.670  -0.307  1.00  0.00     0.003 A 
ATOM      5  C   UNL     1       7.924  -6.975  -0.746  1.00  0.00     0.028 A 
ATOM      6  C   UNL     1       6.954  -7.591   0.038  1.00  0.00     0.083 A 
ATOM      7  N   UNL     1       6.420  -6.714   0.920  1.00  0.00    -0.361 N 
ATOM      8  C   UNL     1       8.748  -4.595  -0.725  1.00  0.00     0.056 A 
ATOM      9  C   UNL     1       8.565  -3.356  -0.074  1.00  0.00     0.116 A 
ATOM     10  H   UNL     1       5.674  -6.910   1.625  1.00  0.00     0.166 HD
ENDROOT
BRANCH   9  11
ATOM     11  O   UNL     1       9.319  -2.245  -0.449  1.00  0.00    -0.508 OA
ATOM     12  H   UNL     1       9.560  -2.072  -1.418  1.00  0.00     0.293 HD
ENDBRANCH   9  11
TORSDOF 1
ENDMDL
MODEL 8
REMARK VINA RESULT:    -3.844     14.133     15.030
REMARK INTER + INTRA:          -3.956
REMARK INTER:                  -3.956
REMARK INTRA:                   0.000
REMARK UNBOUND:                 0.000
REMARK SMILES Oc1ccc2[nH]ccc2c1
REMARK SMILES IDX 3 1 4 2 5 3 9 4 8 5 7 6 6 7 10 8 2 9 1 11
REMARK H PARENT 6 10 1 12
REMARK Flexibility Score: inf
ROOT
ATOM      1  C   UNL     1       8.145  -2.767   0.346  1.00  0.00     0.048 A 
ATOM      2  C   UNL     1       8.688  -3.767  -0.480  1.00  0.00     0.030 A 
ATOM      3  C   UNL     1       8.236  -5.073  -0.303  1.00  0.00     0.046 A 
ATOM      4  C   UNL     1       7.294  -5.388   0.639  1.00  0.00     0.003 A 
ATOM      5  C   UNL     1       7.067  -6.745   0.559  1.00  0.00     0.028 A 
ATOM      6  C   UNL     1       7.906  -7.194  -0.456  1.00  0.00     0.083 A 
ATOM      7  N   UNL     1       8.618  -6.169  -0.979  1.00  0.00    -0.361 N 
ATOM      8  C   UNL     1       6.736  -4.422   1.474  1.00  0.00     0.056 A 
ATOM      9  C   UNL     1       7.172  -3.088   1.320  1.00  0.00     0.116 A 
ATOM     10  H   UNL     1       9.320  -6.224  -1.751  1.00  0.00     0.166 HD
ENDROOT
BRANCH   9  11
ATOM     11  O   UNL     1       6.651  -2.078   2.126  1.00  0.00    -0.508 OA
ATOM     12  H   UNL     1       7.253  -1.480   2.681  1.00  0.00     0.293 HD
ENDBRANCH   9  11
TORSDOF 1
ENDMDL
MODEL 9
REMARK VINA RESULT:    -3.832     14.598     15.708
REMARK INTER + INTRA:          -3.944
REMARK INTER:                  -3.944
REMARK INTRA:                   0.000
REMARK UNBOUND:                 0.000
REMARK SMILES Oc1ccc2[nH]ccc2c1
REMARK SMILES IDX 3 1 4 2 5 3 9 4 8 5 7 6 6 7 10 8 2 9 1 11
REMARK H PARENT 6 10 1 12
REMARK Flexibility Score: inf
ROOT
ATOM      1  C   UNL     1       7.152  -7.004   0.043  1.00  0.00     0.048 A 
ATOM      2  C   UNL     1       6.595  -6.073   0.939  1.00  0.00     0.030 A 
ATOM      3  C   UNL     1       7.087  -4.770   0.913  1.00  0.00     0.046 A 
ATOM      4  C   UNL     1       8.080  -4.392   0.048  1.00  0.00     0.003 A 
ATOM      5  C   UNL     1       8.335  -3.057   0.271  1.00  0.00     0.028 A 
ATOM      6  C   UNL     1       7.459  -2.684   1.287  1.00  0.00     0.083 A 
ATOM      7  N   UNL     1       6.699  -3.734   1.675  1.00  0.00    -0.361 N 
ATOM      8  C   UNL     1       8.653  -5.288  -0.852  1.00  0.00     0.056 A 
ATOM      9  C   UNL     1       8.177  -6.617  -0.851  1.00  0.00     0.116 A 
ATOM     10  H   UNL     1       5.964  -3.735   2.417  1.00  0.00     0.166 HD
ENDROOT
BRANCH   9  11
ATOM     11  O   UNL     1       8.711  -7.559  -1.728  1.00  0.00    -0.508 OA
ATOM     12  H   UNL     1       9.712  -7.693  -1.814  1.00  0.00     0.293 HD
ENDBRANCH   9  11
TORSDOF 1
ENDMDL
