MODEL 1
REMARK VINA RESULT:    -2.818      0.000      0.000
REMARK INTER + INTRA:          -3.416
REMARK INTER:                  -3.313
REMARK INTRA:                  -0.103
REMARK UNBOUND:                -0.103
REMARK SMILES O=C([O-])CCC(=O)[O-]
REMARK SMILES IDX 4 1 2 2 1 3 3 4 5 5 6 6 7 7 8 8
REMARK H PARENT
REMARK Flexibility Score: inf
ROOT
ATOM      1  C   UNL     1      -6.340  -3.559   0.973  1.00  0.00     0.059 C 
ENDROOT
BRANCH   1   2
ATOM      2  C   UNL     1      -4.858  -3.689   1.144  1.00  0.00     0.042 C 
ATOM      3  O   UNL     1      -4.359  -3.786   2.296  1.00  0.00    -0.550 OA
ATOM      4  O   UNL     1      -4.031  -3.741   0.029  1.00  0.00    -0.550 OA
ENDBRANCH   1   2
BRANCH   1   5
ATOM      5  C   UNL     1      -6.741  -2.130   0.592  1.00  0.00     0.059 C 
BRANCH   5   6
ATOM      6  C   UNL     1      -7.383  -1.412   1.739  1.00  0.00     0.042 C 
ATOM      7  O   UNL     1      -8.399  -0.694   1.549  1.00  0.00    -0.550 OA
ATOM      8  O   UNL     1      -6.832  -1.503   3.013  1.00  0.00    -0.550 OA
ENDBRANCH   5   6
ENDBRANCH   1   5
TORSDOF 3
ENDMDL
MODEL 2
REMARK VINA RESULT:    -2.813      0.105      3.955
REMARK INTER + INTRA:          -3.409
REMARK INTER:                  -3.301
REMARK INTRA:                  -0.108
REMARK UNBOUND:                -0.103
REMARK SMILES O=C([O-])CCC(=O)[O-]
REMARK SMILES IDX 4 1 2 2 1 3 3 4 5 5 6 6 7 7 8 8
REMARK H PARENT
REMARK Flexibility Score: inf
ROOT
ATOM      1  C   UNL     1      -6.752  -2.027   0.572  1.00  0.00     0.059 C 
ENDROOT
BRANCH   1   2
ATOM      2  C   UNL     1      -7.425  -1.364   1.733  1.00  0.00     0.042 C 
ATOM      3  O   UNL     1      -8.495  -0.721   1.564  1.00  0.00    -0.550 OA
ATOM      4  O   UNL     1      -6.891  -1.488   3.010  1.00  0.00    -0.550 OA
ENDBRANCH   1   2
BRANCH   1   5
ATOM      5  C   UNL     1      -6.362  -3.473   0.897  1.00  0.00     0.059 C 
BRANCH   5   6
ATOM      6  C   UNL     1      -4.881  -3.621   1.066  1.00  0.00     0.042 C 
ATOM      7  O   UNL     1      -4.381  -3.721   2.217  1.00  0.00    -0.550 OA
ATOM      8  O   UNL     1      -4.048  -3.607  -0.047  1.00  0.00    -0.550 OA
ENDBRANCH   5   6
ENDBRANCH   1   5
TORSDOF 3
ENDMDL
MODEL 3
REMARK VINA RESULT:    -2.749      0.554      1.693
REMARK INTER + INTRA:          -3.334
REMARK INTER:                  -3.254
REMARK INTRA:                  -0.080
REMARK UNBOUND:                -0.103
REMARK SMILES O=C([O-])CCC(=O)[O-]
REMARK SMILES IDX 4 1 2 2 1 3 3 4 5 5 6 6 7 7 8 8
REMARK H PARENT
REMARK Flexibility Score: inf
ROOT
ATOM      1  C   UNL     1      -6.395  -3.754   1.584  1.00  0.00     0.059 C 
ENDROOT
BRANCH   1   2
ATOM      2  C   UNL     1      -4.920  -3.979   1.717  1.00  0.00     0.042 C 
ATOM      3  O   UNL     1      -4.149  -3.717   0.757  1.00  0.00    -0.550 OA
ATOM      4  O   UNL     1      -4.394  -4.441   2.917  1.00  0.00    -0.550 OA
ENDBRANCH   1   2
BRANCH   1   5
ATOM      5  C   UNL     1      -6.703  -2.398   0.940  1.00  0.00     0.059 C 
BRANCH   5   6
ATOM      6  C   UNL     1      -7.357  -1.462   1.911  1.00  0.00     0.042 C 
ATOM      7  O   UNL     1      -6.934  -1.378   3.093  1.00  0.00    -0.550 OA
ATOM      8  O   UNL     1      -8.460  -0.713   1.519  1.00  0.00    -0.550 OA
ENDBRANCH   5   6
ENDBRANCH   1   5
TORSDOF 3
ENDMDL
MODEL 4
REMARK VINA RESULT:    -2.464     11.267     11.886
REMARK INTER + INTRA:          -2.999
REMARK INTER:                  -2.807
REMARK INTRA:                  -0.192
REMARK UNBOUND:                -0.103
REMARK SMILES O=C([O-])CCC(=O)[O-]
REMARK SMILES IDX 4 1 2 2 1 3 3 4 5 5 6 6 7 7 8 8
REMARK H PARENT
REMARK Flexibility Score: inf
ROOT
ATOM      1  C   UNL     1       4.412   2.834   3.003  1.00  0.00     0.059 C 
ENDROOT
BRANCH   1   2
ATOM      2  C   UNL     1       3.352   3.261   2.035  1.00  0.00     0.042 C 
ATOM      3  O   UNL     1       2.301   2.582   1.904  1.00  0.00    -0.550 OA
ATOM      4  O   UNL     1       3.510   4.433   1.305  1.00  0.00    -0.550 OA
ENDBRANCH   1   2
BRANCH   1   5
ATOM      5  C   UNL     1       4.668   3.906   4.068  1.00  0.00     0.059 C 
BRANCH   5   6
ATOM      6  C   UNL     1       3.454   4.149   4.911  1.00  0.00     0.042 C 
ATOM      7  O   UNL     1       2.976   3.222   5.616  1.00  0.00    -0.550 OA
ATOM      8  O   UNL     1       2.825   5.388   4.886  1.00  0.00    -0.550 OA
ENDBRANCH   5   6
ENDBRANCH   1   5
TORSDOF 3
ENDMDL
MODEL 5
REMARK VINA RESULT:    -2.448     11.048     11.939
REMARK INTER + INTRA:          -2.981
REMARK INTER:                  -2.868
REMARK INTRA:                  -0.113
REMARK UNBOUND:                -0.103
REMARK SMILES O=C([O-])CCC(=O)[O-]
REMARK SMILES IDX 4 1 2 2 1 3 3 4 5 5 6 6 7 7 8 8
REMARK H PARENT
REMARK Flexibility Score: inf
ROOT
ATOM      1  C   UNL     1       3.844   4.456   3.411  1.00  0.00     0.059 C 
ENDROOT
BRANCH   1   2
ATOM      2  C   UNL     1       3.256   4.462   4.789  1.00  0.00     0.042 C 
ATOM      3  O   UNL     1       2.989   5.551   5.361  1.00  0.00    -0.550 OA
ATOM      4  O   UNL     1       2.968   3.261   5.426  1.00  0.00    -0.550 OA
ENDBRANCH   1   2
BRANCH   1   5
ATOM      5  C   UNL     1       4.229   3.041   2.968  1.00  0.00     0.059 C 
BRANCH   5   6
ATOM      6  C   UNL     1       3.397   2.578   1.812  1.00  0.00     0.042 C 
ATOM      7  O   UNL     1       2.142   2.547   1.906  1.00  0.00    -0.550 OA
ATOM      8  O   UNL     1       4.011   2.141   0.644  1.00  0.00    -0.550 OA
ENDBRANCH   5   6
ENDBRANCH   1   5
TORSDOF 3
ENDMDL
MODEL 6
REMARK VINA RESULT:    -2.430     10.965     11.750
REMARK INTER + INTRA:          -2.959
REMARK INTER:                  -2.910
REMARK INTRA:                  -0.048
REMARK UNBOUND:                -0.103
REMARK SMILES O=C([O-])CCC(=O)[O-]
REMARK SMILES IDX 4 1 2 2 1 3 3 4 5 5 6 6 7 7 8 8
REMARK H PARENT
REMARK Flexibility Score: inf
ROOT
ATOM      1  C   UNL     1       4.338   2.895   3.096  1.00  0.00     0.059 C 
ENDROOT
BRANCH   1   2
ATOM      2  C   UNL     1       3.525   2.720   1.851  1.00  0.00     0.042 C 
ATOM      3  O   UNL     1       2.268   2.698   1.912  1.00  0.00    -0.550 OA
ATOM      4  O   UNL     1       4.156   2.618   0.617  1.00  0.00    -0.550 OA
ENDBRANCH   1   2
BRANCH   1   5
ATOM      5  C   UNL     1       3.535   3.590   4.201  1.00  0.00     0.059 C 
BRANCH   5   6
ATOM      6  C   UNL     1       3.788   2.968   5.541  1.00  0.00     0.042 C 
ATOM      7  O   UNL     1       2.855   2.870   6.380  1.00  0.00    -0.550 OA
ATOM      8  O   UNL     1       5.065   2.536   5.877  1.00  0.00    -0.550 OA
ENDBRANCH   5   6
ENDBRANCH   1   5
TORSDOF 3
ENDMDL
MODEL 7
REMARK VINA RESULT:    -2.416      9.397     10.509
REMARK INTER + INTRA:          -2.942
REMARK INTER:                  -2.888
REMARK INTRA:                  -0.054
REMARK UNBOUND:                -0.103
REMARK SMILES O=C([O-])CCC(=O)[O-]
REMARK SMILES IDX 4 1 2 2 1 3 3 4 5 5 6 6 7 7 8 8
REMARK H PARENT
REMARK Flexibility Score: inf
ROOT
ATOM      1  C   UNL     1      -4.425   5.719   5.710  1.00  0.00     0.059 C 
ENDROOT
BRANCH   1   2
ATOM      2  C   UNL     1      -3.987   5.141   7.020  1.00  0.00     0.042 C 
ATOM      3  O   UNL     1      -3.679   5.899   7.977  1.00  0.00    -0.550 OA
ATOM      4  O   UNL     1      -3.957   3.763   7.196  1.00  0.00    -0.550 OA
ENDBRANCH   1   2
BRANCH   1   5
ATOM      5  C   UNL     1      -3.311   6.546   5.058  1.00  0.00     0.059 C 
BRANCH   5   6
ATOM      6  C   UNL     1      -3.856   7.751   4.356  1.00  0.00     0.042 C 
ATOM      7  O   UNL     1      -3.216   8.277   3.408  1.00  0.00    -0.550 OA
ATOM      8  O   UNL     1      -5.052   8.320   4.778  1.00  0.00    -0.550 OA
ENDBRANCH   5   6
ENDBRANCH   1   5
TORSDOF 3
ENDMDL
MODEL 8
REMARK VINA RESULT:    -2.401      4.429      5.863
REMARK INTER + INTRA:          -2.925
REMARK INTER:                  -2.811
REMARK INTRA:                  -0.114
REMARK UNBOUND:                -0.103
REMARK SMILES O=C([O-])CCC(=O)[O-]
REMARK SMILES IDX 4 1 2 2 1 3 3 4 5 5 6 6 7 7 8 8
REMARK H PARENT
REMARK Flexibility Score: inf
ROOT
ATOM      1  C   UNL     1      -4.122  -5.396   6.125  1.00  0.00     0.059 C 
ENDROOT
BRANCH   1   2
ATOM      2  C   UNL     1      -2.791  -4.821   6.501  1.00  0.00     0.042 C 
ATOM      3  O   UNL     1      -2.245  -3.954   5.770  1.00  0.00    -0.550 OA
ATOM      4  O   UNL     1      -2.172  -5.216   7.680  1.00  0.00    -0.550 OA
ENDBRANCH   1   2
BRANCH   1   5
ATOM      5  C   UNL     1      -4.033  -6.233   4.844  1.00  0.00     0.059 C 
BRANCH   5   6
ATOM      6  C   UNL     1      -4.860  -5.645   3.742  1.00  0.00     0.042 C 
ATOM      7  O   UNL     1      -5.959  -6.170   3.425  1.00  0.00    -0.550 OA
ATOM      8  O   UNL     1      -4.395  -4.542   3.036  1.00  0.00    -0.550 OA
ENDBRANCH   5   6
ENDBRANCH   1   5
TORSDOF 3
ENDMDL
MODEL 9
REMARK VINA RESULT:    -2.368     11.226     12.256
REMARK INTER + INTRA:          -2.886
REMARK INTER:                  -2.794
REMARK INTRA:                  -0.092
REMARK UNBOUND:                -0.103
REMARK SMILES O=C([O-])CCC(=O)[O-]
REMARK SMILES IDX 4 1 2 2 1 3 3 4 5 5 6 6 7 7 8 8
REMARK H PARENT
REMARK Flexibility Score: inf
ROOT
ATOM      1  C   UNL     1       4.740   2.605   2.182  1.00  0.00     0.059 C 
ENDROOT
BRANCH   1   2
ATOM      2  C   UNL     1       3.349   2.836   2.686  1.00  0.00     0.042 C 
ATOM      3  O   UNL     1       3.160   3.273   3.851  1.00  0.00    -0.550 OA
ATOM      4  O   UNL     1       2.261   2.605   1.853  1.00  0.00    -0.550 OA
ENDBRANCH   1   2
BRANCH   1   5
ATOM      5  C   UNL     1       4.751   2.282   0.683  1.00  0.00     0.059 C 
BRANCH   5   6
ATOM      6  C   UNL     1       5.039   3.499  -0.142  1.00  0.00     0.042 C 
ATOM      7  O   UNL     1       5.464   4.550   0.405  1.00  0.00    -0.550 OA
ATOM      8  O   UNL     1       4.799   3.484  -1.511  1.00  0.00    -0.550 OA
ENDBRANCH   5   6
ENDBRANCH   1   5
TORSDOF 3
ENDMDL
