MODEL 1
REMARK VINA RESULT:    26.080      0.000      0.000
REMARK INTER + INTRA:          28.883
REMARK INTER:                  29.129
REMARK INTRA:                  -0.246
REMARK UNBOUND:                -0.246
REMARK SMILES CC1(C)CC[C@]2(C(=O)[O-])[C@H](C1)C1=CC[C@H]3[C@@]4(C)CC[C@@H](O)C(C)(C)[C@H]4CC[C@]3(C)[C@@]1(C)C[C@@H]2O
REMARK SMILES IDX 6 1 5 2 10 3 33 4 4 5 11 6 12 7 32 8 2 9 13 10 30 11 1 12
REMARK SMILES IDX 3 13 14 14 28 15 31 16 15 17 27 18 29 19 16 20 26 21 18 22
REMARK SMILES IDX 17 23 25 24 19 25 22 26 20 27 23 28 24 29 7 30 8 31 9 32
REMARK SMILES IDX 34 33 21 35
REMARK H PARENT 34 34 21 36
REMARK Flexibility Score: inf
ROOT
ATOM      1  C   UNL     1     -21.735   0.280  24.524  1.00  0.00     0.042 C 
ATOM      2  C   UNL     1     -23.238  -0.195  24.646  1.00  0.00     0.017 C 
ATOM      3  C   UNL     1     -20.978   0.024  25.869  1.00  0.00     0.030 C 
ATOM      4  C   UNL     1     -21.717   1.796  24.125  1.00  0.00     0.127 C 
ATOM      5  C   UNL     1     -23.420  -1.331  25.666  1.00  0.00     0.007 C 
ATOM      6  C   UNL     1     -21.899   0.183  27.100  1.00  0.00     0.015 C 
ATOM      7  C   UNL     1     -19.669   0.799  26.034  1.00  0.00    -0.063 C 
ATOM      8  C   UNL     1     -20.327   2.465  24.193  1.00  0.00     0.044 C 
ATOM      9  C   UNL     1     -23.041  -0.884  27.114  1.00  0.00    -0.035 C 
ATOM     10  C   UNL     1     -18.675   0.175  26.730  1.00  0.00    -0.027 C 
ATOM     11  C   UNL     1     -19.505   2.251  25.521  1.00  0.00    -0.003 C 
ATOM     12  C   UNL     1     -24.284  -0.283  27.805  1.00  0.00     0.011 C 
ATOM     13  C   UNL     1     -22.586  -2.117  27.923  1.00  0.00     0.011 C 
ATOM     14  C   UNL     1     -17.263   0.685  26.900  1.00  0.00     0.032 C 
ATOM     15  C   UNL     1     -17.934   2.539  25.275  1.00  0.00    -0.020 C 
ATOM     16  C   UNL     1     -20.123   3.208  26.588  1.00  0.00     0.017 C 
ATOM     17  C   UNL     1     -17.146   2.192  26.595  1.00  0.00     0.006 C 
ATOM     18  C   UNL     1     -17.627   4.028  24.884  1.00  0.00     0.008 C 
ATOM     19  C   UNL     1     -17.453   1.607  24.094  1.00  0.00     0.012 C 
ATOM     20  C   UNL     1     -15.721   2.885  26.777  1.00  0.00    -0.025 C 
ATOM     21  C   UNL     1     -17.203   4.932  26.056  1.00  0.00     0.005 C 
ATOM     22  C   UNL     1     -14.730   2.552  25.621  1.00  0.00     0.010 C 
ATOM     23  C   UNL     1     -15.113   2.347  28.108  1.00  0.00     0.012 C 
ATOM     24  C   UNL     1     -15.948   4.457  26.883  1.00  0.00     0.003 C 
ATOM     25  C   UNL     1     -13.431   3.356  25.666  1.00  0.00     0.033 C 
ATOM     26  C   UNL     1     -14.626   5.361  26.755  1.00  0.00    -0.006 C 
ATOM     27  C   UNL     1     -13.710   4.868  25.593  1.00  0.00     0.120 C 
ATOM     28  C   UNL     1     -14.960   6.864  26.512  1.00  0.00     0.014 C 
ATOM     29  C   UNL     1     -13.811   5.351  28.096  1.00  0.00     0.014 C 
ENDROOT
BRANCH   1  30
ATOM     30  C   UNL     1     -21.074  -0.573  23.431  1.00  0.00     0.051 C 
ATOM     31  O   UNL     1     -20.374  -1.573  23.745  1.00  0.00    -0.549 OA
ATOM     32  O   UNL     1     -21.160  -0.236  22.085  1.00  0.00    -0.549 OA
ENDBRANCH   1  30
BRANCH   4  33
ATOM     33  O   UNL     1     -22.610   2.547  24.914  1.00  0.00    -0.392 OA
ATOM     34  H   UNL     1     -22.128   3.352  25.242  1.00  0.00     0.210 HD
ENDBRANCH   4  33
BRANCH  27  35
ATOM     35  O   UNL     1     -14.294   5.162  24.347  1.00  0.00    -0.393 OA
ATOM     36  H   UNL     1     -15.149   4.661  24.294  1.00  0.00     0.210 HD
ENDBRANCH  27  35
TORSDOF 3
ENDMDL
