MODEL 1
REMARK VINA RESULT:    -4.261      0.000      0.000
REMARK INTER + INTRA:          -5.334
REMARK INTER:                  -5.009
REMARK INTRA:                  -0.325
REMARK UNBOUND:                -0.325
REMARK SMILES COc1ccc(C=CC(=O)[O-])cc1
REMARK SMILES IDX 6 1 5 2 12 3 4 4 13 5 3 6 7 7 8 8 9 9 10 10 11 11 2 12 1 13
REMARK H PARENT
REMARK Flexibility Score: inf
ROOT
ATOM      1  C   UNL     1       3.495  38.459   7.005  1.00  0.00    -0.025 A 
ATOM      2  C   UNL     1       4.008  37.653   8.030  1.00  0.00     0.012 A 
ATOM      3  C   UNL     1       4.361  39.326   6.316  1.00  0.00     0.012 A 
ATOM      4  C   UNL     1       5.374  37.670   8.327  1.00  0.00     0.047 A 
ATOM      5  C   UNL     1       5.727  39.344   6.612  1.00  0.00     0.047 A 
ATOM      6  C   UNL     1       6.245  38.509   7.621  1.00  0.00     0.118 A 
ENDROOT
BRANCH   1   7
ATOM      7  C   UNL     1       2.041  38.464   6.744  1.00  0.00     0.010 C 
ATOM      8  C   UNL     1       1.413  37.704   5.834  1.00  0.00     0.025 C 
BRANCH   8   9
ATOM      9  C   UNL     1       2.026  36.602   5.070  1.00  0.00     0.064 C 
ATOM     10  O   UNL     1       2.498  36.834   3.926  1.00  0.00    -0.545 OA
ATOM     11  O   UNL     1       2.032  35.299   5.553  1.00  0.00    -0.545 OA
ENDBRANCH   8   9
ENDBRANCH   1   7
BRANCH   6  12
ATOM     12  O   UNL     1       7.607  38.488   7.956  1.00  0.00    -0.497 OA
ATOM     13  C   UNL     1       8.106  38.456   9.290  1.00  0.00     0.278 C 
ENDBRANCH   6  12
TORSDOF 3
ENDMDL
MODEL 2
REMARK VINA RESULT:    -4.123      2.944      6.281
REMARK INTER + INTRA:          -5.172
REMARK INTER:                  -4.867
REMARK INTRA:                  -0.305
REMARK UNBOUND:                -0.325
REMARK SMILES COc1ccc(C=CC(=O)[O-])cc1
REMARK SMILES IDX 6 1 5 2 12 3 4 4 13 5 3 6 7 7 8 8 9 9 10 10 11 11 2 12 1 13
REMARK H PARENT
REMARK Flexibility Score: inf
ROOT
ATOM      1  C   UNL     1       1.374  36.630   4.892  1.00  0.00    -0.025 A 
ATOM      2  C   UNL     1       0.161  37.332   4.912  1.00  0.00     0.012 A 
ATOM      3  C   UNL     1       1.426  35.335   5.434  1.00  0.00     0.012 A 
ATOM      4  C   UNL     1      -0.995  36.731   5.417  1.00  0.00     0.047 A 
ATOM      5  C   UNL     1       0.270  34.733   5.940  1.00  0.00     0.047 A 
ATOM      6  C   UNL     1      -0.954  35.428   5.931  1.00  0.00     0.118 A 
ENDROOT
BRANCH   1   7
ATOM      7  C   UNL     1       2.593  37.304   4.402  1.00  0.00     0.010 C 
ATOM      8  C   UNL     1       3.326  38.187   5.099  1.00  0.00     0.025 C 
BRANCH   8   9
ATOM      9  C   UNL     1       3.157  38.498   6.530  1.00  0.00     0.064 C 
ATOM     10  O   UNL     1       2.476  39.503   6.865  1.00  0.00    -0.545 OA
ATOM     11  O   UNL     1       3.790  37.750   7.515  1.00  0.00    -0.545 OA
ENDBRANCH   8   9
ENDBRANCH   1   7
BRANCH   6  12
ATOM     12  O   UNL     1      -2.142  34.869   6.424  1.00  0.00    -0.497 OA
ATOM     13  C   UNL     1      -2.376  34.559   7.794  1.00  0.00     0.278 C 
ENDBRANCH   6  12
TORSDOF 3
ENDMDL
MODEL 3
REMARK VINA RESULT:    -4.103      2.938      6.179
REMARK INTER + INTRA:          -5.148
REMARK INTER:                  -4.847
REMARK INTRA:                  -0.301
REMARK UNBOUND:                -0.325
REMARK SMILES COc1ccc(C=CC(=O)[O-])cc1
REMARK SMILES IDX 6 1 5 2 12 3 4 4 13 5 3 6 7 7 8 8 9 9 10 10 11 11 2 12 1 13
REMARK H PARENT
REMARK Flexibility Score: inf
ROOT
ATOM      1  C   UNL     1       1.352  36.704   5.011  1.00  0.00    -0.025 A 
ATOM      2  C   UNL     1       1.387  35.369   5.433  1.00  0.00     0.012 A 
ATOM      3  C   UNL     1       0.133  37.403   5.045  1.00  0.00     0.012 A 
ATOM      4  C   UNL     1       0.235  34.755   5.934  1.00  0.00     0.047 A 
ATOM      5  C   UNL     1      -1.020  36.790   5.545  1.00  0.00     0.047 A 
ATOM      6  C   UNL     1      -0.975  35.458   5.999  1.00  0.00     0.118 A 
ENDROOT
BRANCH   1   7
ATOM      7  C   UNL     1       2.567  37.316   4.436  1.00  0.00     0.010 C 
ATOM      8  C   UNL     1       3.340  38.228   5.046  1.00  0.00     0.025 C 
BRANCH   8   9
ATOM      9  C   UNL     1       3.226  38.641   6.457  1.00  0.00     0.064 C 
ATOM     10  O   UNL     1       2.660  39.730   6.735  1.00  0.00    -0.545 OA
ATOM     11  O   UNL     1       3.791  37.890   7.481  1.00  0.00    -0.545 OA
ENDBRANCH   8   9
ENDBRANCH   1   7
BRANCH   6  12
ATOM     12  O   UNL     1      -2.101  34.798   6.511  1.00  0.00    -0.497 OA
ATOM     13  C   UNL     1      -2.308  34.515   7.892  1.00  0.00     0.278 C 
ENDBRANCH   6  12
TORSDOF 3
ENDMDL
MODEL 4
REMARK VINA RESULT:    -4.020      2.903      3.784
REMARK INTER + INTRA:          -5.051
REMARK INTER:                  -4.732
REMARK INTRA:                  -0.318
REMARK UNBOUND:                -0.325
REMARK SMILES COc1ccc(C=CC(=O)[O-])cc1
REMARK SMILES IDX 6 1 5 2 12 3 4 4 13 5 3 6 7 7 8 8 9 9 10 10 11 11 2 12 1 13
REMARK H PARENT
REMARK Flexibility Score: inf
ROOT
ATOM      1  C   UNL     1       2.338  36.795   5.297  1.00  0.00    -0.025 A 
ATOM      2  C   UNL     1       2.577  37.410   4.061  1.00  0.00     0.012 A 
ATOM      3  C   UNL     1       2.865  37.374   6.465  1.00  0.00     0.012 A 
ATOM      4  C   UNL     1       3.285  38.614   3.995  1.00  0.00     0.047 A 
ATOM      5  C   UNL     1       3.573  38.578   6.400  1.00  0.00     0.047 A 
ATOM      6  C   UNL     1       3.785  39.210   5.159  1.00  0.00     0.118 A 
ENDROOT
BRANCH   1   7
ATOM      7  C   UNL     1       1.634  35.497   5.338  1.00  0.00     0.010 C 
ATOM      8  C   UNL     1       0.347  35.322   5.674  1.00  0.00     0.025 C 
BRANCH   8   9
ATOM      9  C   UNL     1      -0.639  36.400   5.876  1.00  0.00     0.064 C 
ATOM     10  O   UNL     1      -1.057  36.640   7.039  1.00  0.00    -0.545 OA
ATOM     11  O   UNL     1      -1.169  37.109   4.806  1.00  0.00    -0.545 OA
ENDBRANCH   8   9
ENDBRANCH   1   7
BRANCH   6  12
ATOM     12  O   UNL     1       4.486  40.419   5.040  1.00  0.00    -0.497 OA
ATOM     13  C   UNL     1       4.758  41.300   6.126  1.00  0.00     0.278 C 
ENDBRANCH   6  12
TORSDOF 3
ENDMDL
MODEL 5
REMARK VINA RESULT:    -3.936      3.138      4.852
REMARK INTER + INTRA:          -4.951
REMARK INTER:                  -4.645
REMARK INTRA:                  -0.307
REMARK UNBOUND:                -0.325
REMARK SMILES COc1ccc(C=CC(=O)[O-])cc1
REMARK SMILES IDX 6 1 5 2 12 3 4 4 13 5 3 6 7 7 8 8 9 9 10 10 11 11 2 12 1 13
REMARK H PARENT
REMARK Flexibility Score: inf
ROOT
ATOM      1  C   UNL     1      -0.282  36.344   5.926  1.00  0.00    -0.025 A 
ATOM      2  C   UNL     1      -0.046  37.586   6.531  1.00  0.00     0.012 A 
ATOM      3  C   UNL     1       0.798  35.632   5.377  1.00  0.00     0.012 A 
ATOM      4  C   UNL     1       1.255  38.086   6.635  1.00  0.00     0.047 A 
ATOM      5  C   UNL     1       2.100  36.131   5.480  1.00  0.00     0.047 A 
ATOM      6  C   UNL     1       2.338  37.365   6.117  1.00  0.00     0.118 A 
ENDROOT
BRANCH   1   7
ATOM      7  C   UNL     1      -1.670  35.860   5.780  1.00  0.00     0.010 C 
ATOM      8  C   UNL     1      -2.298  35.032   6.629  1.00  0.00     0.025 C 
BRANCH   8   9
ATOM      9  C   UNL     1      -1.787  34.611   7.947  1.00  0.00     0.064 C 
ATOM     10  O   UNL     1      -0.983  33.646   8.015  1.00  0.00    -0.545 OA
ATOM     11  O   UNL     1      -2.229  35.209   9.122  1.00  0.00    -0.545 OA
ENDBRANCH   8   9
ENDBRANCH   1   7
BRANCH   6  12
ATOM     12  O   UNL     1       3.624  37.909   6.249  1.00  0.00    -0.497 OA
ATOM     13  C   UNL     1       4.317  38.042   7.486  1.00  0.00     0.278 C 
ENDBRANCH   6  12
TORSDOF 3
ENDMDL
MODEL 6
REMARK VINA RESULT:    -3.892      1.782      5.452
REMARK INTER + INTRA:          -4.899
REMARK INTER:                  -4.842
REMARK INTRA:                  -0.057
REMARK UNBOUND:                -0.325
REMARK SMILES COc1ccc(C=CC(=O)[O-])cc1
REMARK SMILES IDX 6 1 5 2 12 3 4 4 13 5 3 6 7 7 8 8 9 9 10 10 11 11 2 12 1 13
REMARK H PARENT
REMARK Flexibility Score: inf
ROOT
ATOM      1  C   UNL     1       2.559  38.419   5.928  1.00  0.00    -0.025 A 
ATOM      2  C   UNL     1       1.388  38.389   6.697  1.00  0.00     0.012 A 
ATOM      3  C   UNL     1       2.848  37.339   5.076  1.00  0.00     0.012 A 
ATOM      4  C   UNL     1       0.492  37.323   6.579  1.00  0.00     0.047 A 
ATOM      5  C   UNL     1       1.952  36.272   4.957  1.00  0.00     0.047 A 
ATOM      6  C   UNL     1       0.761  36.260   5.708  1.00  0.00     0.118 A 
ENDROOT
BRANCH   1   7
ATOM      7  C   UNL     1       3.517  39.528   6.108  1.00  0.00     0.010 C 
ATOM      8  C   UNL     1       4.604  39.496   6.893  1.00  0.00     0.025 C 
BRANCH   8   9
ATOM      9  C   UNL     1       5.140  38.296   7.563  1.00  0.00     0.064 C 
ATOM     10  O   UNL     1       4.396  37.641   8.338  1.00  0.00    -0.545 OA
ATOM     11  O   UNL     1       6.468  37.913   7.415  1.00  0.00    -0.545 OA
ENDBRANCH   8   9
ENDBRANCH   1   7
BRANCH   6  12
ATOM     12  O   UNL     1      -0.171  35.215   5.624  1.00  0.00    -0.497 OA
ATOM     13  C   UNL     1      -1.302  35.077   6.480  1.00  0.00     0.278 C 
ENDBRANCH   6  12
TORSDOF 3
ENDMDL
MODEL 7
REMARK VINA RESULT:    -3.761      2.325      5.660
REMARK INTER + INTRA:          -4.746
REMARK INTER:                  -4.415
REMARK INTRA:                  -0.331
REMARK UNBOUND:                -0.325
REMARK SMILES COc1ccc(C=CC(=O)[O-])cc1
REMARK SMILES IDX 6 1 5 2 12 3 4 4 13 5 3 6 7 7 8 8 9 9 10 10 11 11 2 12 1 13
REMARK H PARENT
REMARK Flexibility Score: inf
ROOT
ATOM      1  C   UNL     1       2.772  37.784   6.808  1.00  0.00    -0.025 A 
ATOM      2  C   UNL     1       1.716  38.500   7.387  1.00  0.00     0.012 A 
ATOM      3  C   UNL     1       2.505  36.919   5.733  1.00  0.00     0.012 A 
ATOM      4  C   UNL     1       0.422  38.396   6.869  1.00  0.00     0.047 A 
ATOM      5  C   UNL     1       1.212  36.814   5.213  1.00  0.00     0.047 A 
ATOM      6  C   UNL     1       0.158  37.558   5.778  1.00  0.00     0.118 A 
ENDROOT
BRANCH   1   7
ATOM      7  C   UNL     1       4.120  37.869   7.405  1.00  0.00     0.010 C 
ATOM      8  C   UNL     1       5.086  38.720   7.026  1.00  0.00     0.025 C 
BRANCH   8   9
ATOM      9  C   UNL     1       4.916  39.842   6.084  1.00  0.00     0.064 C 
ATOM     10  O   UNL     1       4.683  40.993   6.535  1.00  0.00    -0.545 OA
ATOM     11  O   UNL     1       4.937  39.644   4.709  1.00  0.00    -0.545 OA
ENDBRANCH   8   9
ENDBRANCH   1   7
BRANCH   6  12
ATOM     12  O   UNL     1      -1.156  37.491   5.293  1.00  0.00    -0.497 OA
ATOM     13  C   UNL     1      -2.320  37.604   6.107  1.00  0.00     0.278 C 
ENDBRANCH   6  12
TORSDOF 3
ENDMDL
MODEL 8
REMARK VINA RESULT:    -3.760      2.418      3.777
REMARK INTER + INTRA:          -4.745
REMARK INTER:                  -4.486
REMARK INTRA:                  -0.259
REMARK UNBOUND:                -0.325
REMARK SMILES COc1ccc(C=CC(=O)[O-])cc1
REMARK SMILES IDX 6 1 5 2 12 3 4 4 13 5 3 6 7 7 8 8 9 9 10 10 11 11 2 12 1 13
REMARK H PARENT
REMARK Flexibility Score: inf
ROOT
ATOM      1  C   UNL     1       0.480  37.539   5.716  1.00  0.00    -0.025 A 
ATOM      2  C   UNL     1       1.579  37.027   5.014  1.00  0.00     0.012 A 
ATOM      3  C   UNL     1       0.699  38.271   6.895  1.00  0.00     0.012 A 
ATOM      4  C   UNL     1       2.881  37.287   5.452  1.00  0.00     0.047 A 
ATOM      5  C   UNL     1       2.000  38.531   7.335  1.00  0.00     0.047 A 
ATOM      6  C   UNL     1       3.104  38.042   6.610  1.00  0.00     0.118 A 
ENDROOT
BRANCH   1   7
ATOM      7  C   UNL     1      -0.887  37.208   5.264  1.00  0.00     0.010 C 
ATOM      8  C   UNL     1      -1.590  36.128   5.641  1.00  0.00     0.025 C 
BRANCH   8   9
ATOM      9  C   UNL     1      -1.205  35.188   6.710  1.00  0.00     0.064 C 
ATOM     10  O   UNL     1      -0.305  34.336   6.485  1.00  0.00    -0.545 OA
ATOM     11  O   UNL     1      -1.861  35.172   7.935  1.00  0.00    -0.545 OA
ENDBRANCH   8   9
ENDBRANCH   1   7
BRANCH   6  12
ATOM     12  O   UNL     1       4.429  38.276   7.007  1.00  0.00    -0.497 OA
ATOM     13  C   UNL     1       5.014  37.760   8.199  1.00  0.00     0.278 C 
ENDBRANCH   6  12
TORSDOF 3
ENDMDL
MODEL 9
REMARK VINA RESULT:    -3.693      1.944      5.638
REMARK INTER + INTRA:          -4.666
REMARK INTER:                  -4.361
REMARK INTRA:                  -0.305
REMARK UNBOUND:                -0.325
REMARK SMILES COc1ccc(C=CC(=O)[O-])cc1
REMARK SMILES IDX 6 1 5 2 12 3 4 4 13 5 3 6 7 7 8 8 9 9 10 10 11 11 2 12 1 13
REMARK H PARENT
REMARK Flexibility Score: inf
ROOT
ATOM      1  C   UNL     1       5.683  38.715   7.274  1.00  0.00    -0.025 A 
ATOM      2  C   UNL     1       4.808  37.785   7.852  1.00  0.00     0.012 A 
ATOM      3  C   UNL     1       5.162  39.724   6.447  1.00  0.00     0.012 A 
ATOM      4  C   UNL     1       3.429  37.893   7.652  1.00  0.00     0.047 A 
ATOM      5  C   UNL     1       3.783  39.833   6.246  1.00  0.00     0.047 A 
ATOM      6  C   UNL     1       2.904  38.916   6.853  1.00  0.00     0.118 A 
ENDROOT
BRANCH   1   7
ATOM      7  C   UNL     1       7.139  38.550   7.456  1.00  0.00     0.010 C 
ATOM      8  C   UNL     1       7.881  39.170   8.387  1.00  0.00     0.025 C 
BRANCH   8   9
ATOM      9  C   UNL     1       7.353  39.972   9.507  1.00  0.00     0.064 C 
ATOM     10  O   UNL     1       7.325  39.472  10.662  1.00  0.00    -0.545 OA
ATOM     11  O   UNL     1       6.821  41.240   9.304  1.00  0.00    -0.545 OA
ENDBRANCH   8   9
ENDBRANCH   1   7
BRANCH   6  12
ATOM     12  O   UNL     1       1.513  38.983   6.685  1.00  0.00    -0.497 OA
ATOM     13  C   UNL     1       0.660  37.845   6.588  1.00  0.00     0.278 C 
ENDBRANCH   6  12
TORSDOF 3
ENDMDL
