MODEL 1
REMARK VINA RESULT:     8.968      0.000      0.000
REMARK INTER + INTRA:          17.814
REMARK INTER:                  19.454
REMARK INTRA:                  -1.641
REMARK UNBOUND:                -1.641
REMARK SMILES CCCCCCCCCCCCCCCCCCCCCC(=O)[O-]
REMARK SMILES IDX 12 1 11 2 10 3 9 4 8 5 7 6 6 7 5 8 4 9 3 10 2 11 1 12 13 13
REMARK SMILES IDX 14 14 15 15 16 16 17 17 18 18 19 19 20 20 21 21 22 22 23 23
REMARK SMILES IDX 24 24
REMARK H PARENT
REMARK Flexibility Score: inf
ROOT
ATOM      1  C   UNL     1      19.243   2.699  25.633  1.00  0.00     0.000 C 
ENDROOT
BRANCH   1   2
ATOM      2  C   UNL     1      20.647   2.174  25.312  1.00  0.00     0.000 C 
BRANCH   2   3
ATOM      3  C   UNL     1      20.740   0.661  25.546  1.00  0.00     0.000 C 
BRANCH   3   4
ATOM      4  C   UNL     1      20.901   0.350  27.043  1.00  0.00    -0.000 C 
BRANCH   4   5
ATOM      5  C   UNL     1      19.562   0.323  27.797  1.00  0.00    -0.000 C 
BRANCH   5   6
ATOM      6  C   UNL     1      19.612   1.102  29.124  1.00  0.00    -0.000 C 
BRANCH   6   7
ATOM      7  C   UNL     1      19.190   2.574  28.965  1.00  0.00    -0.000 C 
BRANCH   7   8
ATOM      8  C   UNL     1      19.364   3.439  30.227  1.00  0.00    -0.000 C 
BRANCH   8   9
ATOM      9  C   UNL     1      18.028   3.767  30.919  1.00  0.00    -0.000 C 
BRANCH   9  10
ATOM     10  C   UNL     1      17.365   5.033  30.338  1.00  0.00    -0.000 C 
BRANCH  10  11
ATOM     11  C   UNL     1      16.225   4.733  29.349  1.00  0.00    -0.003 C 
ATOM     12  C   UNL     1      14.911   5.415  29.725  1.00  0.00     0.004 C 
ENDBRANCH  10  11
ENDBRANCH   9  10
ENDBRANCH   8   9
ENDBRANCH   7   8
ENDBRANCH   6   7
ENDBRANCH   5   6
ENDBRANCH   4   5
ENDBRANCH   3   4
ENDBRANCH   2   3
ENDBRANCH   1   2
BRANCH   1  13
ATOM     13  C   UNL     1      18.166   1.776  25.052  1.00  0.00     0.000 C 
BRANCH  13  14
ATOM     14  C   UNL     1      16.893   2.560  24.701  1.00  0.00     0.000 C 
BRANCH  14  15
ATOM     15  C   UNL     1      16.466   3.541  25.809  1.00  0.00     0.000 C 
BRANCH  15  16
ATOM     16  C   UNL     1      14.990   3.446  26.237  1.00  0.00     0.000 C 
BRANCH  16  17
ATOM     17  C   UNL     1      14.336   2.112  25.839  1.00  0.00     0.000 C 
BRANCH  17  18
ATOM     18  C   UNL     1      12.966   2.302  25.167  1.00  0.00     0.000 C 
BRANCH  18  19
ATOM     19  C   UNL     1      13.045   2.259  23.632  1.00  0.00     0.000 C 
BRANCH  19  20
ATOM     20  C   UNL     1      13.747   3.512  23.086  1.00  0.00     0.006 C 
BRANCH  20  21
ATOM     21  C   UNL     1      12.755   4.634  22.748  1.00  0.00     0.053 C 
BRANCH  21  22
ATOM     22  C   UNL     1      13.275   5.977  23.159  1.00  0.00     0.041 C 
ATOM     23  O   UNL     1      13.139   6.373  24.346  1.00  0.00    -0.550 OA
ATOM     24  O   UNL     1      13.880   6.807  22.224  1.00  0.00    -0.550 OA
ENDBRANCH  21  22
ENDBRANCH  20  21
ENDBRANCH  19  20
ENDBRANCH  18  19
ENDBRANCH  17  18
ENDBRANCH  16  17
ENDBRANCH  15  16
ENDBRANCH  14  15
ENDBRANCH  13  14
ENDBRANCH   1  13
TORSDOF 20
ENDMDL
MODEL 2
REMARK VINA RESULT:     9.102      2.368      4.243
REMARK INTER + INTRA:          18.103
REMARK INTER:                  19.294
REMARK INTRA:                  -1.190
REMARK UNBOUND:                -1.641
REMARK SMILES CCCCCCCCCCCCCCCCCCCCCC(=O)[O-]
REMARK SMILES IDX 12 1 11 2 10 3 9 4 8 5 7 6 6 7 5 8 4 9 3 10 2 11 1 12 13 13
REMARK SMILES IDX 14 14 15 15 16 16 17 17 18 18 19 19 20 20 21 21 22 22 23 23
REMARK SMILES IDX 24 24
REMARK H PARENT
REMARK Flexibility Score: inf
ROOT
ATOM      1  C   UNL     1      14.948   3.479  26.073  1.00  0.00     0.000 C 
ENDROOT
BRANCH   1   2
ATOM      2  C   UNL     1      16.481   3.478  26.069  1.00  0.00     0.000 C 
BRANCH   2   3
ATOM      3  C   UNL     1      17.032   2.689  24.875  1.00  0.00     0.000 C 
BRANCH   3   4
ATOM      4  C   UNL     1      17.806   1.449  25.352  1.00  0.00    -0.000 C 
BRANCH   4   5
ATOM      5  C   UNL     1      19.306   1.516  25.022  1.00  0.00    -0.000 C 
BRANCH   5   6
ATOM      6  C   UNL     1      20.191   1.002  26.172  1.00  0.00    -0.000 C 
BRANCH   6   7
ATOM      7  C   UNL     1      19.424   0.876  27.501  1.00  0.00    -0.000 C 
BRANCH   7   8
ATOM      8  C   UNL     1      19.112   2.212  28.201  1.00  0.00    -0.000 C 
BRANCH   8   9
ATOM      9  C   UNL     1      19.461   2.199  29.700  1.00  0.00    -0.000 C 
BRANCH   9  10
ATOM     10  C   UNL     1      19.482   3.618  30.307  1.00  0.00    -0.000 C 
BRANCH  10  11
ATOM     11  C   UNL     1      18.149   4.031  30.952  1.00  0.00    -0.003 C 
ATOM     12  C   UNL     1      17.126   4.542  29.939  1.00  0.00     0.004 C 
ENDBRANCH  10  11
ENDBRANCH   9  10
ENDBRANCH   8   9
ENDBRANCH   7   8
ENDBRANCH   6   7
ENDBRANCH   5   6
ENDBRANCH   4   5
ENDBRANCH   3   4
ENDBRANCH   2   3
ENDBRANCH   1   2
BRANCH   1  13
ATOM     13  C   UNL     1      14.397   2.178  25.477  1.00  0.00     0.000 C 
BRANCH  13  14
ATOM     14  C   UNL     1      13.209   2.455  24.543  1.00  0.00     0.000 C 
BRANCH  14  15
ATOM     15  C   UNL     1      13.634   3.069  23.197  1.00  0.00     0.000 C 
BRANCH  15  16
ATOM     16  C   UNL     1      12.789   4.269  22.729  1.00  0.00     0.000 C 
BRANCH  16  17
ATOM     17  C   UNL     1      13.109   5.562  23.496  1.00  0.00     0.000 C 
BRANCH  17  18
ATOM     18  C   UNL     1      13.656   6.672  22.583  1.00  0.00     0.000 C 
BRANCH  18  19
ATOM     19  C   UNL     1      14.172   7.888  23.367  1.00  0.00     0.000 C 
BRANCH  19  20
ATOM     20  C   UNL     1      14.542   9.036  22.414  1.00  0.00     0.006 C 
BRANCH  20  21
ATOM     21  C   UNL     1      14.662  10.382  23.143  1.00  0.00     0.053 C 
BRANCH  21  22
ATOM     22  C   UNL     1      16.032  10.969  23.004  1.00  0.00     0.041 C 
ATOM     23  O   UNL     1      16.194  12.217  23.057  1.00  0.00    -0.550 OA
ATOM     24  O   UNL     1      17.126  10.143  22.780  1.00  0.00    -0.550 OA
ENDBRANCH  21  22
ENDBRANCH  20  21
ENDBRANCH  19  20
ENDBRANCH  18  19
ENDBRANCH  17  18
ENDBRANCH  16  17
ENDBRANCH  15  16
ENDBRANCH  14  15
ENDBRANCH  13  14
ENDBRANCH   1  13
TORSDOF 20
ENDMDL
MODEL 3
REMARK VINA RESULT:     9.116      3.239      7.850
REMARK INTER + INTRA:          18.134
REMARK INTER:                  19.146
REMARK INTRA:                  -1.012
REMARK UNBOUND:                -1.641
REMARK SMILES CCCCCCCCCCCCCCCCCCCCCC(=O)[O-]
REMARK SMILES IDX 12 1 11 2 10 3 9 4 8 5 7 6 6 7 5 8 4 9 3 10 2 11 1 12 13 13
REMARK SMILES IDX 14 14 15 15 16 16 17 17 18 18 19 19 20 20 21 21 22 22 23 23
REMARK SMILES IDX 24 24
REMARK H PARENT
REMARK Flexibility Score: inf
ROOT
ATOM      1  C   UNL     1      16.029   3.369  26.377  1.00  0.00     0.000 C 
ENDROOT
BRANCH   1   2
ATOM      2  C   UNL     1      14.646   3.608  25.760  1.00  0.00     0.000 C 
BRANCH   2   3
ATOM      3  C   UNL     1      13.939   2.283  25.452  1.00  0.00     0.000 C 
BRANCH   3   4
ATOM      4  C   UNL     1      13.174   2.370  24.122  1.00  0.00    -0.000 C 
BRANCH   4   5
ATOM      5  C   UNL     1      13.793   3.375  23.138  1.00  0.00    -0.000 C 
BRANCH   5   6
ATOM      6  C   UNL     1      12.825   4.509  22.758  1.00  0.00    -0.000 C 
BRANCH   6   7
ATOM      7  C   UNL     1      13.114   5.816  23.518  1.00  0.00    -0.000 C 
BRANCH   7   8
ATOM      8  C   UNL     1      13.785   6.920  22.680  1.00  0.00    -0.000 C 
BRANCH   8   9
ATOM      9  C   UNL     1      14.150   8.165  23.509  1.00  0.00    -0.000 C 
BRANCH   9  10
ATOM     10  C   UNL     1      14.894   9.227  22.672  1.00  0.00    -0.000 C 
BRANCH  10  11
ATOM     11  C   UNL     1      14.689  10.664  23.179  1.00  0.00    -0.003 C 
ATOM     12  C   UNL     1      15.945  11.526  23.062  1.00  0.00     0.004 C 
ENDBRANCH  10  11
ENDBRANCH   9  10
ENDBRANCH   8   9
ENDBRANCH   7   8
ENDBRANCH   6   7
ENDBRANCH   5   6
ENDBRANCH   4   5
ENDBRANCH   3   4
ENDBRANCH   2   3
ENDBRANCH   1   2
BRANCH   1  13
ATOM     13  C   UNL     1      17.055   3.005  25.297  1.00  0.00     0.000 C 
BRANCH  13  14
ATOM     14  C   UNL     1      17.382   1.504  25.325  1.00  0.00     0.000 C 
BRANCH  14  15
ATOM     15  C   UNL     1      18.721   1.167  24.644  1.00  0.00     0.000 C 
BRANCH  15  16
ATOM     16  C   UNL     1      19.949   1.900  25.214  1.00  0.00     0.000 C 
BRANCH  16  17
ATOM     17  C   UNL     1      21.010   0.942  25.780  1.00  0.00     0.000 C 
BRANCH  17  18
ATOM     18  C   UNL     1      20.699   0.500  27.220  1.00  0.00     0.000 C 
BRANCH  18  19
ATOM     19  C   UNL     1      19.337   1.009  27.718  1.00  0.00     0.000 C 
BRANCH  19  20
ATOM     20  C   UNL     1      19.497   1.812  29.018  1.00  0.00     0.006 C 
BRANCH  20  21
ATOM     21  C   UNL     1      18.685   3.115  29.001  1.00  0.00     0.053 C 
BRANCH  21  22
ATOM     22  C   UNL     1      18.646   3.763  30.351  1.00  0.00     0.041 C 
ATOM     23  O   UNL     1      17.658   4.466  30.687  1.00  0.00    -0.550 OA
ATOM     24  O   UNL     1      19.716   3.619  31.225  1.00  0.00    -0.550 OA
ENDBRANCH  21  22
ENDBRANCH  20  21
ENDBRANCH  19  20
ENDBRANCH  18  19
ENDBRANCH  17  18
ENDBRANCH  16  17
ENDBRANCH  15  16
ENDBRANCH  14  15
ENDBRANCH  13  14
ENDBRANCH   1  13
TORSDOF 20
ENDMDL
MODEL 4
REMARK VINA RESULT:     9.155      0.840      1.525
REMARK INTER + INTRA:          18.219
REMARK INTER:                  18.812
REMARK INTRA:                  -0.593
REMARK UNBOUND:                -1.641
REMARK SMILES CCCCCCCCCCCCCCCCCCCCCC(=O)[O-]
REMARK SMILES IDX 12 1 11 2 10 3 9 4 8 5 7 6 6 7 5 8 4 9 3 10 2 11 1 12 13 13
REMARK SMILES IDX 14 14 15 15 16 16 17 17 18 18 19 19 20 20 21 21 22 22 23 23
REMARK SMILES IDX 24 24
REMARK H PARENT
REMARK Flexibility Score: inf
ROOT
ATOM      1  C   UNL     1      20.065   0.392  25.220  1.00  0.00     0.000 C 
ENDROOT
BRANCH   1   2
ATOM      2  C   UNL     1      20.903   1.555  25.766  1.00  0.00     0.000 C 
BRANCH   2   3
ATOM      3  C   UNL     1      20.020   2.590  26.473  1.00  0.00     0.000 C 
BRANCH   3   4
ATOM      4  C   UNL     1      19.060   1.905  27.459  1.00  0.00    -0.000 C 
BRANCH   4   5
ATOM      5  C   UNL     1      19.790   1.176  28.599  1.00  0.00    -0.000 C 
BRANCH   5   6
ATOM      6  C   UNL     1      19.717   1.936  29.934  1.00  0.00    -0.000 C 
BRANCH   6   7
ATOM      7  C   UNL     1      19.139   3.355  29.779  1.00  0.00    -0.000 C 
BRANCH   7   8
ATOM      8  C   UNL     1      18.630   3.995  31.084  1.00  0.00    -0.000 C 
BRANCH   8   9
ATOM      9  C   UNL     1      17.302   4.753  30.902  1.00  0.00    -0.000 C 
BRANCH   9  10
ATOM     10  C   UNL     1      16.530   4.285  29.651  1.00  0.00    -0.000 C 
BRANCH  10  11
ATOM     11  C   UNL     1      15.365   5.213  29.264  1.00  0.00    -0.003 C 
ATOM     12  C   UNL     1      15.709   6.156  28.112  1.00  0.00     0.004 C 
ENDBRANCH  10  11
ENDBRANCH   9  10
ENDBRANCH   8   9
ENDBRANCH   7   8
ENDBRANCH   6   7
ENDBRANCH   5   6
ENDBRANCH   4   5
ENDBRANCH   3   4
ENDBRANCH   2   3
ENDBRANCH   1   2
BRANCH   1  13
ATOM     13  C   UNL     1      18.977   0.901  24.267  1.00  0.00     0.000 C 
BRANCH  13  14
ATOM     14  C   UNL     1      17.667   1.181  25.019  1.00  0.00     0.000 C 
BRANCH  14  15
ATOM     15  C   UNL     1      17.151   2.617  24.813  1.00  0.00     0.000 C 
BRANCH  15  16
ATOM     16  C   UNL     1      16.418   3.229  26.021  1.00  0.00     0.000 C 
BRANCH  16  17
ATOM     17  C   UNL     1      14.958   3.599  25.711  1.00  0.00     0.000 C 
BRANCH  17  18
ATOM     18  C   UNL     1      14.053   2.365  25.565  1.00  0.00     0.000 C 
BRANCH  18  19
ATOM     19  C   UNL     1      13.168   2.420  24.310  1.00  0.00     0.000 C 
BRANCH  19  20
ATOM     20  C   UNL     1      13.791   3.333  23.242  1.00  0.00     0.006 C 
BRANCH  20  21
ATOM     21  C   UNL     1      12.806   4.398  22.740  1.00  0.00     0.053 C 
BRANCH  21  22
ATOM     22  C   UNL     1      13.269   5.783  23.072  1.00  0.00     0.041 C 
ATOM     23  O   UNL     1      13.861   6.478  22.205  1.00  0.00    -0.550 OA
ATOM     24  O   UNL     1      13.078   6.296  24.349  1.00  0.00    -0.550 OA
ENDBRANCH  21  22
ENDBRANCH  20  21
ENDBRANCH  19  20
ENDBRANCH  18  19
ENDBRANCH  17  18
ENDBRANCH  16  17
ENDBRANCH  15  16
ENDBRANCH  14  15
ENDBRANCH  13  14
ENDBRANCH   1  13
TORSDOF 20
ENDMDL
MODEL 5
REMARK VINA RESULT:     9.448      1.435      3.280
REMARK INTER + INTRA:          18.855
REMARK INTER:                  20.667
REMARK INTRA:                  -1.812
REMARK UNBOUND:                -1.641
REMARK SMILES CCCCCCCCCCCCCCCCCCCCCC(=O)[O-]
REMARK SMILES IDX 12 1 11 2 10 3 9 4 8 5 7 6 6 7 5 8 4 9 3 10 2 11 1 12 13 13
REMARK SMILES IDX 14 14 15 15 16 16 17 17 18 18 19 19 20 20 21 21 22 22 23 23
REMARK SMILES IDX 24 24
REMARK H PARENT
REMARK Flexibility Score: inf
ROOT
ATOM      1  C   UNL     1      19.124   1.424  27.451  1.00  0.00     0.000 C 
ENDROOT
BRANCH   1   2
ATOM      2  C   UNL     1      19.556   0.757  28.762  1.00  0.00     0.000 C 
BRANCH   2   3
ATOM      3  C   UNL     1      19.933   1.803  29.818  1.00  0.00     0.000 C 
BRANCH   3   4
ATOM      4  C   UNL     1      19.349   3.178  29.456  1.00  0.00    -0.000 C 
BRANCH   4   5
ATOM      5  C   UNL     1      19.085   4.061  30.687  1.00  0.00    -0.000 C 
BRANCH   5   6
ATOM      6  C   UNL     1      17.588   4.326  30.918  1.00  0.00    -0.000 C 
BRANCH   6   7
ATOM      7  C   UNL     1      16.766   4.270  29.617  1.00  0.00    -0.000 C 
BRANCH   7   8
ATOM      8  C   UNL     1      15.933   5.531  29.321  1.00  0.00    -0.000 C 
BRANCH   8   9
ATOM      9  C   UNL     1      14.577   5.538  30.051  1.00  0.00    -0.000 C 
BRANCH   9  10
ATOM     10  C   UNL     1      13.824   6.874  29.871  1.00  0.00    -0.000 C 
BRANCH  10  11
ATOM     11  C   UNL     1      12.709   7.095  30.907  1.00  0.00    -0.003 C 
ATOM     12  C   UNL     1      13.157   7.940  32.098  1.00  0.00     0.004 C 
ENDBRANCH  10  11
ENDBRANCH   9  10
ENDBRANCH   8   9
ENDBRANCH   7   8
ENDBRANCH   6   7
ENDBRANCH   5   6
ENDBRANCH   4   5
ENDBRANCH   3   4
ENDBRANCH   2   3
ENDBRANCH   1   2
BRANCH   1  13
ATOM     13  C   UNL     1      19.963   0.913  26.273  1.00  0.00     0.000 C 
BRANCH  13  14
ATOM     14  C   UNL     1      19.412   1.429  24.935  1.00  0.00     0.000 C 
BRANCH  14  15
ATOM     15  C   UNL     1      17.883   1.294  24.822  1.00  0.00     0.000 C 
BRANCH  15  16
ATOM     16  C   UNL     1      17.121   2.618  24.625  1.00  0.00     0.000 C 
BRANCH  16  17
ATOM     17  C   UNL     1      16.710   3.276  25.953  1.00  0.00     0.000 C 
BRANCH  17  18
ATOM     18  C   UNL     1      15.185   3.405  26.101  1.00  0.00     0.000 C 
BRANCH  18  19
ATOM     19  C   UNL     1      14.425   2.215  25.495  1.00  0.00     0.000 C 
BRANCH  19  20
ATOM     20  C   UNL     1      13.287   2.701  24.583  1.00  0.00     0.006 C 
BRANCH  20  21
ATOM     21  C   UNL     1      13.812   3.370  23.305  1.00  0.00     0.053 C 
BRANCH  21  22
ATOM     22  C   UNL     1      12.994   4.567  22.928  1.00  0.00     0.041 C 
ATOM     23  O   UNL     1      13.317   5.710  23.343  1.00  0.00    -0.550 OA
ATOM     24  O   UNL     1      11.855   4.416  22.147  1.00  0.00    -0.550 OA
ENDBRANCH  21  22
ENDBRANCH  20  21
ENDBRANCH  19  20
ENDBRANCH  18  19
ENDBRANCH  17  18
ENDBRANCH  16  17
ENDBRANCH  15  16
ENDBRANCH  14  15
ENDBRANCH  13  14
ENDBRANCH   1  13
TORSDOF 20
ENDMDL
MODEL 6
REMARK VINA RESULT:     9.514      0.921      4.407
REMARK INTER + INTRA:          18.998
REMARK INTER:                  20.280
REMARK INTRA:                  -1.282
REMARK UNBOUND:                -1.641
REMARK SMILES CCCCCCCCCCCCCCCCCCCCCC(=O)[O-]
REMARK SMILES IDX 12 1 11 2 10 3 9 4 8 5 7 6 6 7 5 8 4 9 3 10 2 11 1 12 13 13
REMARK SMILES IDX 14 14 15 15 16 16 17 17 18 18 19 19 20 20 21 21 22 22 23 23
REMARK SMILES IDX 24 24
REMARK H PARENT
REMARK Flexibility Score: inf
ROOT
ATOM      1  C   UNL     1      17.199   4.623  29.550  1.00  0.00     0.000 C 
ENDROOT
BRANCH   1   2
ATOM      2  C   UNL     1      17.649   4.544  31.014  1.00  0.00     0.000 C 
BRANCH   2   3
ATOM      3  C   UNL     1      18.715   3.459  31.209  1.00  0.00     0.000 C 
BRANCH   3   4
ATOM      4  C   UNL     1      19.515   3.241  29.914  1.00  0.00    -0.000 C 
BRANCH   4   5
ATOM      5  C   UNL     1      19.780   1.757  29.615  1.00  0.00    -0.000 C 
BRANCH   5   6
ATOM      6  C   UNL     1      19.098   1.281  28.320  1.00  0.00    -0.000 C 
BRANCH   6   7
ATOM      7  C   UNL     1      19.080   2.363  27.225  1.00  0.00    -0.000 C 
BRANCH   7   8
ATOM      8  C   UNL     1      18.110   2.093  26.060  1.00  0.00    -0.000 C 
BRANCH   8   9
ATOM      9  C   UNL     1      18.832   1.732  24.750  1.00  0.00    -0.000 C 
BRANCH   9  10
ATOM     10  C   UNL     1      19.909   0.645  24.956  1.00  0.00    -0.000 C 
BRANCH  10  11
ATOM     11  C   UNL     1      21.284   1.209  25.352  1.00  0.00    -0.003 C 
ATOM     12  C   UNL     1      21.965   0.405  26.458  1.00  0.00     0.004 C 
ENDBRANCH  10  11
ENDBRANCH   9  10
ENDBRANCH   8   9
ENDBRANCH   7   8
ENDBRANCH   6   7
ENDBRANCH   5   6
ENDBRANCH   4   5
ENDBRANCH   3   4
ENDBRANCH   2   3
ENDBRANCH   1   2
BRANCH   1  13
ATOM     13  C   UNL     1      15.714   4.990  29.452  1.00  0.00     0.000 C 
BRANCH  13  14
ATOM     14  C   UNL     1      15.408   5.716  28.134  1.00  0.00     0.000 C 
BRANCH  14  15
ATOM     15  C   UNL     1      15.872   4.931  26.893  1.00  0.00     0.000 C 
BRANCH  15  16
ATOM     16  C   UNL     1      15.372   3.477  26.813  1.00  0.00     0.000 C 
BRANCH  16  17
ATOM     17  C   UNL     1      15.049   3.033  25.377  1.00  0.00     0.000 C 
BRANCH  17  18
ATOM     18  C   UNL     1      13.794   2.146  25.300  1.00  0.00     0.000 C 
BRANCH  18  19
ATOM     19  C   UNL     1      12.981   2.376  24.017  1.00  0.00     0.000 C 
BRANCH  19  20
ATOM     20  C   UNL     1      13.685   3.386  23.097  1.00  0.00     0.006 C 
BRANCH  20  21
ATOM     21  C   UNL     1      12.748   4.519  22.652  1.00  0.00     0.053 C 
BRANCH  21  22
ATOM     22  C   UNL     1      13.244   5.859  23.102  1.00  0.00     0.041 C 
ATOM     23  O   UNL     1      13.125   6.206  24.306  1.00  0.00    -0.550 OA
ATOM     24  O   UNL     1      13.807   6.738  22.186  1.00  0.00    -0.550 OA
ENDBRANCH  21  22
ENDBRANCH  20  21
ENDBRANCH  19  20
ENDBRANCH  18  19
ENDBRANCH  17  18
ENDBRANCH  16  17
ENDBRANCH  15  16
ENDBRANCH  14  15
ENDBRANCH  13  14
ENDBRANCH   1  13
TORSDOF 20
ENDMDL
MODEL 7
REMARK VINA RESULT:     9.541      2.995      7.199
REMARK INTER + INTRA:          19.057
REMARK INTER:                  19.613
REMARK INTRA:                  -0.556
REMARK UNBOUND:                -1.641
REMARK SMILES CCCCCCCCCCCCCCCCCCCCCC(=O)[O-]
REMARK SMILES IDX 12 1 11 2 10 3 9 4 8 5 7 6 6 7 5 8 4 9 3 10 2 11 1 12 13 13
REMARK SMILES IDX 14 14 15 15 16 16 17 17 18 18 19 19 20 20 21 21 22 22 23 23
REMARK SMILES IDX 24 24
REMARK H PARENT
REMARK Flexibility Score: inf
ROOT
ATOM      1  C   UNL     1      16.375   4.277  30.139  1.00  0.00     0.000 C 
ENDROOT
BRANCH   1   2
ATOM      2  C   UNL     1      15.545   5.388  29.484  1.00  0.00     0.000 C 
BRANCH   2   3
ATOM      3  C   UNL     1      15.827   5.478  27.980  1.00  0.00     0.000 C 
BRANCH   3   4
ATOM      4  C   UNL     1      15.427   4.175  27.271  1.00  0.00    -0.000 C 
BRANCH   4   5
ATOM      5  C   UNL     1      16.379   3.799  26.124  1.00  0.00    -0.000 C 
BRANCH   5   6
ATOM      6  C   UNL     1      15.723   2.871  25.087  1.00  0.00    -0.000 C 
BRANCH   6   7
ATOM      7  C   UNL     1      14.405   2.254  25.590  1.00  0.00    -0.000 C 
BRANCH   7   8
ATOM      8  C   UNL     1      13.175   2.538  24.707  1.00  0.00    -0.000 C 
BRANCH   8   9
ATOM      9  C   UNL     1      13.551   3.003  23.288  1.00  0.00    -0.000 C 
BRANCH   9  10
ATOM     10  C   UNL     1      12.718   4.219  22.832  1.00  0.00    -0.000 C 
BRANCH  10  11
ATOM     11  C   UNL     1      13.491   5.548  22.880  1.00  0.00    -0.003 C 
ATOM     12  C   UNL     1      13.190   6.370  24.132  1.00  0.00     0.004 C 
ENDBRANCH  10  11
ENDBRANCH   9  10
ENDBRANCH   8   9
ENDBRANCH   7   8
ENDBRANCH   6   7
ENDBRANCH   5   6
ENDBRANCH   4   5
ENDBRANCH   3   4
ENDBRANCH   2   3
ENDBRANCH   1   2
BRANCH   1  13
ATOM     13  C   UNL     1      17.520   4.867  30.972  1.00  0.00     0.000 C 
BRANCH  13  14
ATOM     14  C   UNL     1      18.765   3.970  30.916  1.00  0.00     0.000 C 
BRANCH  14  15
ATOM     15  C   UNL     1      18.907   3.220  29.578  1.00  0.00     0.000 C 
BRANCH  15  16
ATOM     16  C   UNL     1      19.509   1.806  29.680  1.00  0.00     0.000 C 
BRANCH  16  17
ATOM     17  C   UNL     1      19.670   1.124  28.312  1.00  0.00     0.000 C 
BRANCH  17  18
ATOM     18  C   UNL     1      19.087   1.961  27.161  1.00  0.00     0.000 C 
BRANCH  18  19
ATOM     19  C   UNL     1      18.210   1.135  26.208  1.00  0.00     0.000 C 
BRANCH  19  20
ATOM     20  C   UNL     1      18.839   1.065  24.808  1.00  0.00     0.006 C 
BRANCH  20  21
ATOM     21  C   UNL     1      20.224   0.403  24.825  1.00  0.00     0.053 C 
BRANCH  21  22
ATOM     22  C   UNL     1      21.263   1.302  25.421  1.00  0.00     0.041 C 
ATOM     23  O   UNL     1      22.189   0.819  26.124  1.00  0.00    -0.550 OA
ATOM     24  O   UNL     1      21.190   2.675  25.229  1.00  0.00    -0.550 OA
ENDBRANCH  21  22
ENDBRANCH  20  21
ENDBRANCH  19  20
ENDBRANCH  18  19
ENDBRANCH  17  18
ENDBRANCH  16  17
ENDBRANCH  15  16
ENDBRANCH  14  15
ENDBRANCH  13  14
ENDBRANCH   1  13
TORSDOF 20
ENDMDL
MODEL 8
REMARK VINA RESULT:     9.592      1.825      3.296
REMARK INTER + INTRA:          19.166
REMARK INTER:                  21.140
REMARK INTRA:                  -1.974
REMARK UNBOUND:                -1.641
REMARK SMILES CCCCCCCCCCCCCCCCCCCCCC(=O)[O-]
REMARK SMILES IDX 12 1 11 2 10 3 9 4 8 5 7 6 6 7 5 8 4 9 3 10 2 11 1 12 13 13
REMARK SMILES IDX 14 14 15 15 16 16 17 17 18 18 19 19 20 20 21 21 22 22 23 23
REMARK SMILES IDX 24 24
REMARK H PARENT
REMARK Flexibility Score: inf
ROOT
ATOM      1  C   UNL     1      16.618   3.333  26.081  1.00  0.00     0.000 C 
ENDROOT
BRANCH   1   2
ATOM      2  C   UNL     1      17.101   2.523  24.871  1.00  0.00     0.000 C 
BRANCH   2   3
ATOM      3  C   UNL     1      17.930   1.311  25.311  1.00  0.00     0.000 C 
BRANCH   3   4
ATOM      4  C   UNL     1      19.433   1.587  25.143  1.00  0.00    -0.000 C 
BRANCH   4   5
ATOM      5  C   UNL     1      20.272   1.081  26.327  1.00  0.00    -0.000 C 
BRANCH   5   6
ATOM      6  C   UNL     1      19.408   0.575  27.494  1.00  0.00    -0.000 C 
BRANCH   6   7
ATOM      7  C   UNL     1      19.744   1.268  28.828  1.00  0.00    -0.000 C 
BRANCH   7   8
ATOM      8  C   UNL     1      18.977   2.578  29.090  1.00  0.00    -0.000 C 
BRANCH   8   9
ATOM      9  C   UNL     1      19.530   3.365  30.293  1.00  0.00    -0.000 C 
BRANCH   9  10
ATOM     10  C   UNL     1      18.591   4.513  30.720  1.00  0.00    -0.000 C 
BRANCH  10  11
ATOM     11  C   UNL     1      17.102   4.132  30.697  1.00  0.00    -0.003 C 
ATOM     12  C   UNL     1      16.289   4.950  29.695  1.00  0.00     0.004 C 
ENDBRANCH  10  11
ENDBRANCH   9  10
ENDBRANCH   8   9
ENDBRANCH   7   8
ENDBRANCH   6   7
ENDBRANCH   5   6
ENDBRANCH   4   5
ENDBRANCH   3   4
ENDBRANCH   2   3
ENDBRANCH   1   2
BRANCH   1  13
ATOM     13  C   UNL     1      15.121   3.646  25.969  1.00  0.00     0.000 C 
BRANCH  13  14
ATOM     14  C   UNL     1      14.329   2.410  25.515  1.00  0.00     0.000 C 
BRANCH  14  15
ATOM     15  C   UNL     1      13.355   2.711  24.361  1.00  0.00     0.000 C 
BRANCH  15  16
ATOM     16  C   UNL     1      13.898   3.660  23.276  1.00  0.00     0.000 C 
BRANCH  16  17
ATOM     17  C   UNL     1      12.835   4.637  22.749  1.00  0.00     0.000 C 
BRANCH  17  18
ATOM     18  C   UNL     1      13.322   6.096  22.745  1.00  0.00     0.000 C 
BRANCH  18  19
ATOM     19  C   UNL     1      13.336   6.722  24.148  1.00  0.00     0.000 C 
BRANCH  19  20
ATOM     20  C   UNL     1      14.360   7.866  24.226  1.00  0.00     0.006 C 
BRANCH  20  21
ATOM     21  C   UNL     1      14.440   8.665  22.917  1.00  0.00     0.053 C 
BRANCH  21  22
ATOM     22  C   UNL     1      15.152   9.969  23.104  1.00  0.00     0.041 C 
ATOM     23  O   UNL     1      14.496  11.037  23.215  1.00  0.00    -0.550 OA
ATOM     24  O   UNL     1      16.540  10.009  23.123  1.00  0.00    -0.550 OA
ENDBRANCH  21  22
ENDBRANCH  20  21
ENDBRANCH  19  20
ENDBRANCH  18  19
ENDBRANCH  17  18
ENDBRANCH  16  17
ENDBRANCH  15  16
ENDBRANCH  14  15
ENDBRANCH  13  14
ENDBRANCH   1  13
TORSDOF 20
ENDMDL
MODEL 9
REMARK VINA RESULT:     9.603      1.201      4.676
REMARK INTER + INTRA:          19.190
REMARK INTER:                  20.061
REMARK INTRA:                  -0.871
REMARK UNBOUND:                -1.641
REMARK SMILES CCCCCCCCCCCCCCCCCCCCCC(=O)[O-]
REMARK SMILES IDX 12 1 11 2 10 3 9 4 8 5 7 6 6 7 5 8 4 9 3 10 2 11 1 12 13 13
REMARK SMILES IDX 14 14 15 15 16 16 17 17 18 18 19 19 20 20 21 21 22 22 23 23
REMARK SMILES IDX 24 24
REMARK H PARENT
REMARK Flexibility Score: inf
ROOT
ATOM      1  C   UNL     1      17.937   4.515  30.087  1.00  0.00     0.000 C 
ENDROOT
BRANCH   1   2
ATOM      2  C   UNL     1      18.744   3.371  30.714  1.00  0.00     0.000 C 
BRANCH   2   3
ATOM      3  C   UNL     1      19.890   2.932  29.794  1.00  0.00     0.000 C 
BRANCH   3   4
ATOM      4  C   UNL     1      19.681   1.487  29.315  1.00  0.00    -0.000 C 
BRANCH   4   5
ATOM      5  C   UNL     1      18.857   1.397  28.021  1.00  0.00    -0.000 C 
BRANCH   5   6
ATOM      6  C   UNL     1      18.887   2.702  27.206  1.00  0.00    -0.000 C 
BRANCH   6   7
ATOM      7  C   UNL     1      18.389   2.511  25.761  1.00  0.00    -0.000 C 
BRANCH   7   8
ATOM      8  C   UNL     1      18.429   1.061  25.245  1.00  0.00    -0.000 C 
BRANCH   8   9
ATOM      9  C   UNL     1      19.851   0.594  24.880  1.00  0.00    -0.000 C 
BRANCH   9  10
ATOM     10  C   UNL     1      20.933   1.578  25.372  1.00  0.00    -0.000 C 
BRANCH  10  11
ATOM     11  C   UNL     1      22.022   0.915  26.232  1.00  0.00    -0.003 C 
ATOM     12  C   UNL     1      22.009  -0.610  26.145  1.00  0.00     0.004 C 
ENDBRANCH  10  11
ENDBRANCH   9  10
ENDBRANCH   8   9
ENDBRANCH   7   8
ENDBRANCH   6   7
ENDBRANCH   5   6
ENDBRANCH   4   5
ENDBRANCH   3   4
ENDBRANCH   2   3
ENDBRANCH   1   2
BRANCH   1  13
ATOM     13  C   UNL     1      16.624   4.739  30.847  1.00  0.00     0.000 C 
BRANCH  13  14
ATOM     14  C   UNL     1      15.474   5.065  29.883  1.00  0.00     0.000 C 
BRANCH  14  15
ATOM     15  C   UNL     1      15.909   5.064  28.406  1.00  0.00     0.000 C 
BRANCH  15  16
ATOM     16  C   UNL     1      15.398   3.873  27.573  1.00  0.00     0.000 C 
BRANCH  16  17
ATOM     17  C   UNL     1      15.688   4.025  26.071  1.00  0.00     0.000 C 
BRANCH  17  18
ATOM     18  C   UNL     1      15.334   2.761  25.270  1.00  0.00     0.000 C 
BRANCH  18  19
ATOM     19  C   UNL     1      13.863   2.346  25.433  1.00  0.00     0.000 C 
BRANCH  19  20
ATOM     20  C   UNL     1      13.096   2.522  24.113  1.00  0.00     0.006 C 
BRANCH  20  21
ATOM     21  C   UNL     1      13.832   3.445  23.132  1.00  0.00     0.053 C 
BRANCH  21  22
ATOM     22  C   UNL     1      12.988   4.616  22.731  1.00  0.00     0.041 C 
ATOM     23  O   UNL     1      13.385   5.789  22.956  1.00  0.00    -0.550 OA
ATOM     24  O   UNL     1      11.747   4.411  22.141  1.00  0.00    -0.550 OA
ENDBRANCH  21  22
ENDBRANCH  20  21
ENDBRANCH  19  20
ENDBRANCH  18  19
ENDBRANCH  17  18
ENDBRANCH  16  17
ENDBRANCH  15  16
ENDBRANCH  14  15
ENDBRANCH  13  14
ENDBRANCH   1  13
TORSDOF 20
ENDMDL
