MODEL 1
REMARK VINA RESULT:    -2.482      0.000      0.000
REMARK INTER + INTRA:          -7.146
REMARK INTER:                  -6.254
REMARK INTRA:                  -0.893
REMARK UNBOUND:                -0.893
REMARK SMILES CCCCCCCCCCCCCCCCCCCCCCCCCCCC(=O)[O-]
REMARK SMILES IDX 15 1 16 2 17 3 18 4 19 5 20 6 21 7 22 8 23 9 24 10 25 11
REMARK SMILES IDX 26 12 27 13 28 14 29 15 30 16 14 17 13 18 12 19 11 20 10 21
REMARK SMILES IDX 9 22 8 23 7 24 6 25 5 26 4 27 3 28 2 29 1 30
REMARK H PARENT
REMARK Flexibility Score: inf
ROOT
ATOM      1  C   UNL     1       6.473   3.853   9.558  1.00  0.00     0.000 C 
ENDROOT
BRANCH   1   2
ATOM      2  C   UNL     1       6.038   3.170   8.249  1.00  0.00     0.000 C 
BRANCH   2   3
ATOM      3  C   UNL     1       4.667   2.483   8.372  1.00  0.00     0.000 C 
BRANCH   3   4
ATOM      4  C   UNL     1       4.403   1.938   9.786  1.00  0.00     0.000 C 
BRANCH   4   5
ATOM      5  C   UNL     1       5.249   0.694  10.110  1.00  0.00     0.000 C 
BRANCH   5   6
ATOM      6  C   UNL     1       4.552  -0.656   9.839  1.00  0.00     0.000 C 
BRANCH   6   7
ATOM      7  C   UNL     1       5.407  -1.904  10.125  1.00  0.00     0.000 C 
BRANCH   7   8
ATOM      8  C   UNL     1       5.373  -2.926   8.981  1.00  0.00     0.000 C 
BRANCH   8   9
ATOM      9  C   UNL     1       5.245  -4.357   9.527  1.00  0.00     0.000 C 
BRANCH   9  10
ATOM     10  C   UNL     1       5.875  -5.406   8.596  1.00  0.00     0.000 C 
BRANCH  10  11
ATOM     11  C   UNL     1       7.345  -5.695   8.941  1.00  0.00     0.000 C 
BRANCH  11  12
ATOM     12  C   UNL     1       8.325  -5.214   7.856  1.00  0.00     0.006 C 
BRANCH  12  13
ATOM     13  C   UNL     1       9.792  -5.595   8.122  1.00  0.00     0.053 C 
BRANCH  13  14
ATOM     14  C   UNL     1      10.597  -4.456   8.666  1.00  0.00     0.041 C 
ATOM     15  O   UNL     1      10.319  -3.270   8.344  1.00  0.00    -0.550 OA
ATOM     16  O   UNL     1      11.681  -4.704   9.500  1.00  0.00    -0.550 OA
ENDBRANCH  13  14
ENDBRANCH  12  13
ENDBRANCH  11  12
ENDBRANCH  10  11
ENDBRANCH   9  10
ENDBRANCH   8   9
ENDBRANCH   7   8
ENDBRANCH   6   7
ENDBRANCH   5   6
ENDBRANCH   4   5
ENDBRANCH   3   4
ENDBRANCH   2   3
ENDBRANCH   1   2
BRANCH   1  17
ATOM     17  C   UNL     1       7.999   4.007   9.663  1.00  0.00     0.000 C 
BRANCH  17  18
ATOM     18  C   UNL     1       8.446   5.479   9.710  1.00  0.00     0.000 C 
BRANCH  18  19
ATOM     19  C   UNL     1       8.326   6.180   8.346  1.00  0.00     0.000 C 
BRANCH  19  20
ATOM     20  C   UNL     1       9.493   7.128   7.990  1.00  0.00     0.000 C 
BRANCH  20  21
ATOM     21  C   UNL     1      10.611   7.240   9.047  1.00  0.00     0.000 C 
BRANCH  21  22
ATOM     22  C   UNL     1      10.580   8.532   9.894  1.00  0.00    -0.000 C 
BRANCH  22  23
ATOM     23  C   UNL     1       9.163   9.094  10.125  1.00  0.00    -0.000 C 
BRANCH  23  24
ATOM     24  C   UNL     1       8.562   9.863   8.934  1.00  0.00    -0.000 C 
BRANCH  24  25
ATOM     25  C   UNL     1       7.057  10.175   9.052  1.00  0.00    -0.000 C 
BRANCH  25  26
ATOM     26  C   UNL     1       6.556  11.132   7.961  1.00  0.00    -0.000 C 
BRANCH  26  27
ATOM     27  C   UNL     1       5.175  11.699   8.324  1.00  0.00    -0.000 C 
BRANCH  27  28
ATOM     28  C   UNL     1       4.472  12.363   7.128  1.00  0.00    -0.000 C 
BRANCH  28  29
ATOM     29  C   UNL     1       3.823  13.705   7.493  1.00  0.00    -0.003 C 
ATOM     30  C   UNL     1       2.715  13.515   8.526  1.00  0.00     0.004 C 
ENDBRANCH  28  29
ENDBRANCH  27  28
ENDBRANCH  26  27
ENDBRANCH  25  26
ENDBRANCH  24  25
ENDBRANCH  23  24
ENDBRANCH  22  23
ENDBRANCH  21  22
ENDBRANCH  20  21
ENDBRANCH  19  20
ENDBRANCH  18  19
ENDBRANCH  17  18
ENDBRANCH   1  17
TORSDOF 26
ENDMDL
MODEL 2
REMARK VINA RESULT:    -2.165      4.213      7.834
REMARK INTER + INTRA:          -6.349
REMARK INTER:                  -6.643
REMARK INTRA:                   0.294
REMARK UNBOUND:                -0.893
REMARK SMILES CCCCCCCCCCCCCCCCCCCCCCCCCCCC(=O)[O-]
REMARK SMILES IDX 15 1 16 2 17 3 18 4 19 5 20 6 21 7 22 8 23 9 24 10 25 11
REMARK SMILES IDX 26 12 27 13 28 14 29 15 30 16 14 17 13 18 12 19 11 20 10 21
REMARK SMILES IDX 9 22 8 23 7 24 6 25 5 26 4 27 3 28 2 29 1 30
REMARK H PARENT
REMARK Flexibility Score: inf
ROOT
ATOM      1  C   UNL     1       8.482   8.746   9.687  1.00  0.00     0.000 C 
ENDROOT
BRANCH   1   2
ATOM      2  C   UNL     1       8.161   7.608   8.701  1.00  0.00     0.000 C 
BRANCH   2   3
ATOM      3  C   UNL     1       9.425   6.882   8.211  1.00  0.00     0.000 C 
BRANCH   3   4
ATOM      4  C   UNL     1      10.575   7.850   7.886  1.00  0.00     0.000 C 
BRANCH   4   5
ATOM      5  C   UNL     1      11.713   7.788   8.921  1.00  0.00     0.000 C 
BRANCH   5   6
ATOM      6  C   UNL     1      12.717   6.635   8.718  1.00  0.00     0.000 C 
BRANCH   6   7
ATOM      7  C   UNL     1      12.221   5.247   9.164  1.00  0.00     0.000 C 
BRANCH   7   8
ATOM      8  C   UNL     1      11.025   5.320  10.123  1.00  0.00     0.000 C 
BRANCH   8   9
ATOM      9  C   UNL     1      10.122   4.087   9.969  1.00  0.00     0.000 C 
BRANCH   9  10
ATOM     10  C   UNL     1       8.750   4.429   9.364  1.00  0.00     0.000 C 
BRANCH  10  11
ATOM     11  C   UNL     1       7.659   3.423   9.769  1.00  0.00     0.000 C 
BRANCH  11  12
ATOM     12  C   UNL     1       6.720   3.054   8.606  1.00  0.00     0.006 C 
BRANCH  12  13
ATOM     13  C   UNL     1       5.735   1.918   8.934  1.00  0.00     0.053 C 
BRANCH  13  14
ATOM     14  C   UNL     1       4.873   1.545   7.768  1.00  0.00     0.041 C 
ATOM     15  O   UNL     1       5.163   0.548   7.055  1.00  0.00    -0.550 OA
ATOM     16  O   UNL     1       3.767   2.322   7.442  1.00  0.00    -0.550 OA
ENDBRANCH  13  14
ENDBRANCH  12  13
ENDBRANCH  11  12
ENDBRANCH  10  11
ENDBRANCH   9  10
ENDBRANCH   8   9
ENDBRANCH   7   8
ENDBRANCH   6   7
ENDBRANCH   5   6
ENDBRANCH   4   5
ENDBRANCH   3   4
ENDBRANCH   2   3
ENDBRANCH   1   2
BRANCH   1  17
ATOM     17  C   UNL     1       8.147  10.133   9.113  1.00  0.00     0.000 C 
BRANCH  17  18
ATOM     18  C   UNL     1       6.663  10.503   9.282  1.00  0.00     0.000 C 
BRANCH  18  19
ATOM     19  C   UNL     1       6.237  11.676   8.383  1.00  0.00     0.000 C 
BRANCH  19  20
ATOM     20  C   UNL     1       5.423  11.282   7.130  1.00  0.00     0.000 C 
BRANCH  20  21
ATOM     21  C   UNL     1       3.936  11.694   7.142  1.00  0.00     0.000 C 
BRANCH  21  22
ATOM     22  C   UNL     1       3.614  12.993   6.369  1.00  0.00    -0.000 C 
BRANCH  22  23
ATOM     23  C   UNL     1       3.030  14.115   7.249  1.00  0.00    -0.000 C 
BRANCH  23  24
ATOM     24  C   UNL     1       1.620  13.845   7.804  1.00  0.00    -0.000 C 
BRANCH  24  25
ATOM     25  C   UNL     1       1.522  13.791   9.341  1.00  0.00    -0.000 C 
BRANCH  25  26
ATOM     26  C   UNL     1       2.164  12.531   9.940  1.00  0.00    -0.000 C 
BRANCH  26  27
ATOM     27  C   UNL     1       1.765  11.281   9.140  1.00  0.00    -0.000 C 
BRANCH  27  28
ATOM     28  C   UNL     1       1.907   9.985   9.955  1.00  0.00    -0.000 C 
BRANCH  28  29
ATOM     29  C   UNL     1       0.966   8.874   9.468  1.00  0.00    -0.003 C 
ATOM     30  C   UNL     1       1.541   7.494   9.779  1.00  0.00     0.004 C 
ENDBRANCH  28  29
ENDBRANCH  27  28
ENDBRANCH  26  27
ENDBRANCH  25  26
ENDBRANCH  24  25
ENDBRANCH  23  24
ENDBRANCH  22  23
ENDBRANCH  21  22
ENDBRANCH  20  21
ENDBRANCH  19  20
ENDBRANCH  18  19
ENDBRANCH  17  18
ENDBRANCH   1  17
TORSDOF 26
ENDMDL
MODEL 3
REMARK VINA RESULT:    -2.146      5.449     10.007
REMARK INTER + INTRA:          -6.300
REMARK INTER:                  -6.507
REMARK INTRA:                   0.207
REMARK UNBOUND:                -0.893
REMARK SMILES CCCCCCCCCCCCCCCCCCCCCCCCCCCC(=O)[O-]
REMARK SMILES IDX 15 1 16 2 17 3 18 4 19 5 20 6 21 7 22 8 23 9 24 10 25 11
REMARK SMILES IDX 26 12 27 13 28 14 29 15 30 16 14 17 13 18 12 19 11 20 10 21
REMARK SMILES IDX 9 22 8 23 7 24 6 25 5 26 4 27 3 28 2 29 1 30
REMARK H PARENT
REMARK Flexibility Score: inf
ROOT
ATOM      1  C   UNL     1       3.603   3.188   9.212  1.00  0.00     0.000 C 
ENDROOT
BRANCH   1   2
ATOM      2  C   UNL     1       5.136   3.300   9.304  1.00  0.00     0.000 C 
BRANCH   2   3
ATOM      3  C   UNL     1       5.852   2.108   8.647  1.00  0.00     0.000 C 
BRANCH   3   4
ATOM      4  C   UNL     1       7.345   2.042   9.011  1.00  0.00     0.000 C 
BRANCH   4   5
ATOM      5  C   UNL     1       7.772   3.167   9.970  1.00  0.00     0.000 C 
BRANCH   5   6
ATOM      6  C   UNL     1       7.072   4.522   9.738  1.00  0.00     0.000 C 
BRANCH   6   7
ATOM      7  C   UNL     1       7.966   5.762   9.923  1.00  0.00     0.000 C 
BRANCH   7   8
ATOM      8  C   UNL     1       8.825   6.069   8.689  1.00  0.00     0.000 C 
BRANCH   8   9
ATOM      9  C   UNL     1      10.312   6.166   9.066  1.00  0.00     0.000 C 
BRANCH   9  10
ATOM     10  C   UNL     1      10.894   7.568   8.827  1.00  0.00     0.000 C 
BRANCH  10  11
ATOM     11  C   UNL     1      10.116   8.665   9.573  1.00  0.00     0.000 C 
BRANCH  11  12
ATOM     12  C   UNL     1       9.059   9.358   8.694  1.00  0.00     0.006 C 
BRANCH  12  13
ATOM     13  C   UNL     1       7.845   9.891   9.476  1.00  0.00     0.053 C 
BRANCH  13  14
ATOM     14  C   UNL     1       6.841  10.568   8.595  1.00  0.00     0.041 C 
ATOM     15  O   UNL     1       6.944  10.497   7.341  1.00  0.00    -0.550 OA
ATOM     16  O   UNL     1       5.809  11.311   9.158  1.00  0.00    -0.550 OA
ENDBRANCH  13  14
ENDBRANCH  12  13
ENDBRANCH  11  12
ENDBRANCH  10  11
ENDBRANCH   9  10
ENDBRANCH   8   9
ENDBRANCH   7   8
ENDBRANCH   6   7
ENDBRANCH   5   6
ENDBRANCH   4   5
ENDBRANCH   3   4
ENDBRANCH   2   3
ENDBRANCH   1   2
BRANCH   1  17
ATOM     17  C   UNL     1       3.147   1.876   8.553  1.00  0.00     0.000 C 
BRANCH  17  18
ATOM     18  C   UNL     1       1.917   1.261   9.243  1.00  0.00     0.000 C 
BRANCH  18  19
ATOM     19  C   UNL     1       1.064   2.306   9.980  1.00  0.00     0.000 C 
BRANCH  19  20
ATOM     20  C   UNL     1       0.307   3.298   9.069  1.00  0.00     0.000 C 
BRANCH  20  21
ATOM     21  C   UNL     1      -1.203   3.033   8.900  1.00  0.00     0.000 C 
BRANCH  21  22
ATOM     22  C   UNL     1      -2.123   4.190   9.352  1.00  0.00    -0.000 C 
BRANCH  22  23
ATOM     23  C   UNL     1      -1.391   5.305  10.124  1.00  0.00    -0.000 C 
BRANCH  23  24
ATOM     24  C   UNL     1      -2.026   6.703  10.015  1.00  0.00    -0.000 C 
BRANCH  24  25
ATOM     25  C   UNL     1      -1.193   7.740   9.238  1.00  0.00    -0.000 C 
BRANCH  25  26
ATOM     26  C   UNL     1      -0.190   8.492  10.125  1.00  0.00    -0.000 C 
BRANCH  26  27
ATOM     27  C   UNL     1       1.166   8.635   9.417  1.00  0.00    -0.000 C 
BRANCH  27  28
ATOM     28  C   UNL     1       1.360  10.021   8.782  1.00  0.00    -0.000 C 
BRANCH  28  29
ATOM     29  C   UNL     1       1.680  11.108   9.818  1.00  0.00    -0.003 C 
ATOM     30  C   UNL     1       1.709  12.491   9.170  1.00  0.00     0.004 C 
ENDBRANCH  28  29
ENDBRANCH  27  28
ENDBRANCH  26  27
ENDBRANCH  25  26
ENDBRANCH  24  25
ENDBRANCH  23  24
ENDBRANCH  22  23
ENDBRANCH  21  22
ENDBRANCH  20  21
ENDBRANCH  19  20
ENDBRANCH  18  19
ENDBRANCH  17  18
ENDBRANCH   1  17
TORSDOF 26
ENDMDL
MODEL 4
REMARK VINA RESULT:    -2.011      2.159      2.727
REMARK INTER + INTRA:          -5.960
REMARK INTER:                  -4.702
REMARK INTRA:                  -1.258
REMARK UNBOUND:                -0.893
REMARK SMILES CCCCCCCCCCCCCCCCCCCCCCCCCCCC(=O)[O-]
REMARK SMILES IDX 15 1 16 2 17 3 18 4 19 5 20 6 21 7 22 8 23 9 24 10 25 11
REMARK SMILES IDX 26 12 27 13 28 14 29 15 30 16 14 17 13 18 12 19 11 20 10 21
REMARK SMILES IDX 9 22 8 23 7 24 6 25 5 26 4 27 3 28 2 29 1 30
REMARK H PARENT
REMARK Flexibility Score: inf
ROOT
ATOM      1  C   UNL     1       6.723   3.960   9.292  1.00  0.00     0.000 C 
ENDROOT
BRANCH   1   2
ATOM      2  C   UNL     1       6.027   3.103   8.219  1.00  0.00     0.000 C 
BRANCH   2   3
ATOM      3  C   UNL     1       4.645   2.602   8.673  1.00  0.00     0.000 C 
BRANCH   3   4
ATOM      4  C   UNL     1       4.678   1.964  10.072  1.00  0.00     0.000 C 
BRANCH   4   5
ATOM      5  C   UNL     1       5.545   0.693  10.124  1.00  0.00     0.000 C 
BRANCH   5   6
ATOM      6  C   UNL     1       4.762  -0.634  10.050  1.00  0.00     0.000 C 
BRANCH   6   7
ATOM      7  C   UNL     1       5.566  -1.842   9.536  1.00  0.00     0.000 C 
BRANCH   7   8
ATOM      8  C   UNL     1       4.767  -3.152   9.576  1.00  0.00     0.000 C 
BRANCH   8   9
ATOM      9  C   UNL     1       5.651  -4.320  10.042  1.00  0.00     0.000 C 
BRANCH   9  10
ATOM     10  C   UNL     1       5.512  -5.562   9.147  1.00  0.00     0.000 C 
BRANCH  10  11
ATOM     11  C   UNL     1       6.837  -5.954   8.470  1.00  0.00     0.000 C 
BRANCH  11  12
ATOM     12  C   UNL     1       6.838  -5.693   6.953  1.00  0.00     0.006 C 
BRANCH  12  13
ATOM     13  C   UNL     1       5.456  -5.336   6.377  1.00  0.00     0.053 C 
BRANCH  13  14
ATOM     14  C   UNL     1       5.347  -5.624   4.912  1.00  0.00     0.041 C 
ATOM     15  O   UNL     1       6.386  -5.754   4.211  1.00  0.00    -0.550 OA
ATOM     16  O   UNL     1       4.098  -5.712   4.310  1.00  0.00    -0.550 OA
ENDBRANCH  13  14
ENDBRANCH  12  13
ENDBRANCH  11  12
ENDBRANCH  10  11
ENDBRANCH   9  10
ENDBRANCH   8   9
ENDBRANCH   7   8
ENDBRANCH   6   7
ENDBRANCH   5   6
ENDBRANCH   4   5
ENDBRANCH   3   4
ENDBRANCH   2   3
ENDBRANCH   1   2
BRANCH   1  17
ATOM     17  C   UNL     1       8.143   4.380   8.879  1.00  0.00     0.000 C 
BRANCH  17  18
ATOM     18  C   UNL     1       8.420   5.872   9.136  1.00  0.00     0.000 C 
BRANCH  18  19
ATOM     19  C   UNL     1       8.794   6.637   7.855  1.00  0.00     0.000 C 
BRANCH  19  20
ATOM     20  C   UNL     1       9.537   7.972   8.081  1.00  0.00     0.000 C 
BRANCH  20  21
ATOM     21  C   UNL     1       9.953   8.269   9.536  1.00  0.00     0.000 C 
BRANCH  21  22
ATOM     22  C   UNL     1       9.379   9.579  10.123  1.00  0.00    -0.000 C 
BRANCH  22  23
ATOM     23  C   UNL     1       7.877   9.782   9.847  1.00  0.00    -0.000 C 
BRANCH  23  24
ATOM     24  C   UNL     1       7.547  10.804   8.744  1.00  0.00    -0.000 C 
BRANCH  24  25
ATOM     25  C   UNL     1       6.159  11.465   8.860  1.00  0.00    -0.000 C 
BRANCH  25  26
ATOM     26  C   UNL     1       5.438  11.588   7.511  1.00  0.00    -0.000 C 
BRANCH  26  27
ATOM     27  C   UNL     1       3.916  11.659   7.709  1.00  0.00    -0.000 C 
BRANCH  27  28
ATOM     28  C   UNL     1       3.479  12.893   8.515  1.00  0.00    -0.000 C 
BRANCH  28  29
ATOM     29  C   UNL     1       2.840  13.978   7.636  1.00  0.00    -0.003 C 
ATOM     30  C   UNL     1       3.387  13.923   6.212  1.00  0.00     0.004 C 
ENDBRANCH  28  29
ENDBRANCH  27  28
ENDBRANCH  26  27
ENDBRANCH  25  26
ENDBRANCH  24  25
ENDBRANCH  23  24
ENDBRANCH  22  23
ENDBRANCH  21  22
ENDBRANCH  20  21
ENDBRANCH  19  20
ENDBRANCH  18  19
ENDBRANCH  17  18
ENDBRANCH   1  17
TORSDOF 26
ENDMDL
MODEL 5
REMARK VINA RESULT:    -2.001      1.805      2.321
REMARK INTER + INTRA:          -5.936
REMARK INTER:                  -4.732
REMARK INTRA:                  -1.204
REMARK UNBOUND:                -0.893
REMARK SMILES CCCCCCCCCCCCCCCCCCCCCCCCCCCC(=O)[O-]
REMARK SMILES IDX 15 1 16 2 17 3 18 4 19 5 20 6 21 7 22 8 23 9 24 10 25 11
REMARK SMILES IDX 26 12 27 13 28 14 29 15 30 16 14 17 13 18 12 19 11 20 10 21
REMARK SMILES IDX 9 22 8 23 7 24 6 25 5 26 4 27 3 28 2 29 1 30
REMARK H PARENT
REMARK Flexibility Score: inf
ROOT
ATOM      1  C   UNL     1       6.705   3.429   8.724  1.00  0.00     0.000 C 
ENDROOT
BRANCH   1   2
ATOM      2  C   UNL     1       6.171   2.339   9.670  1.00  0.00     0.000 C 
BRANCH   2   3
ATOM      3  C   UNL     1       7.270   1.364  10.125  1.00  0.00     0.000 C 
BRANCH   3   4
ATOM      4  C   UNL     1       6.819  -0.105  10.067  1.00  0.00     0.000 C 
BRANCH   4   5
ATOM      5  C   UNL     1       5.321  -0.253   9.746  1.00  0.00     0.000 C 
BRANCH   5   6
ATOM      6  C   UNL     1       4.710  -1.623  10.106  1.00  0.00     0.000 C 
BRANCH   6   7
ATOM      7  C   UNL     1       5.679  -2.816  10.019  1.00  0.00     0.000 C 
BRANCH   7   8
ATOM      8  C   UNL     1       5.244  -3.865   8.986  1.00  0.00     0.000 C 
BRANCH   8   9
ATOM      9  C   UNL     1       6.194  -5.073   8.997  1.00  0.00     0.000 C 
BRANCH   9  10
ATOM     10  C   UNL     1       7.669  -4.665   9.145  1.00  0.00     0.000 C 
BRANCH  10  11
ATOM     11  C   UNL     1       8.636  -5.776   8.702  1.00  0.00     0.000 C 
BRANCH  11  12
ATOM     12  C   UNL     1       8.624  -6.014   7.181  1.00  0.00     0.006 C 
BRANCH  12  13
ATOM     13  C   UNL     1       9.978  -5.754   6.496  1.00  0.00     0.053 C 
BRANCH  13  14
ATOM     14  C   UNL     1       9.859  -5.625   5.009  1.00  0.00     0.041 C 
ATOM     15  O   UNL     1      10.880  -5.723   4.278  1.00  0.00    -0.550 OA
ATOM     16  O   UNL     1       8.624  -5.356   4.429  1.00  0.00    -0.550 OA
ENDBRANCH  13  14
ENDBRANCH  12  13
ENDBRANCH  11  12
ENDBRANCH  10  11
ENDBRANCH   9  10
ENDBRANCH   8   9
ENDBRANCH   7   8
ENDBRANCH   6   7
ENDBRANCH   5   6
ENDBRANCH   4   5
ENDBRANCH   3   4
ENDBRANCH   2   3
ENDBRANCH   1   2
BRANCH   1  17
ATOM     17  C   UNL     1       7.439   4.552   9.475  1.00  0.00     0.000 C 
BRANCH  17  18
ATOM     18  C   UNL     1       8.720   5.010   8.756  1.00  0.00     0.000 C 
BRANCH  18  19
ATOM     19  C   UNL     1       8.664   6.486   8.325  1.00  0.00     0.000 C 
BRANCH  19  20
ATOM     20  C   UNL     1       9.960   7.291   8.570  1.00  0.00     0.000 C 
BRANCH  20  21
ATOM     21  C   UNL     1       9.876   8.377   9.662  1.00  0.00     0.000 C 
BRANCH  21  22
ATOM     22  C   UNL     1       8.446   8.864   9.989  1.00  0.00    -0.000 C 
BRANCH  22  23
ATOM     23  C   UNL     1       7.917   9.941   9.022  1.00  0.00    -0.000 C 
BRANCH  23  24
ATOM     24  C   UNL     1       7.171  11.111   9.691  1.00  0.00    -0.000 C 
BRANCH  24  25
ATOM     25  C   UNL     1       5.725  10.802  10.124  1.00  0.00    -0.000 C 
BRANCH  25  26
ATOM     26  C   UNL     1       4.714  11.845   9.630  1.00  0.00    -0.000 C 
BRANCH  26  27
ATOM     27  C   UNL     1       3.282  11.446  10.018  1.00  0.00    -0.000 C 
BRANCH  27  28
ATOM     28  C   UNL     1       2.214  12.233   9.240  1.00  0.00    -0.000 C 
BRANCH  28  29
ATOM     29  C   UNL     1       2.562  12.392   7.753  1.00  0.00    -0.003 C 
ATOM     30  C   UNL     1       2.918  13.840   7.426  1.00  0.00     0.004 C 
ENDBRANCH  28  29
ENDBRANCH  27  28
ENDBRANCH  26  27
ENDBRANCH  25  26
ENDBRANCH  24  25
ENDBRANCH  23  24
ENDBRANCH  22  23
ENDBRANCH  21  22
ENDBRANCH  20  21
ENDBRANCH  19  20
ENDBRANCH  18  19
ENDBRANCH  17  18
ENDBRANCH   1  17
TORSDOF 26
ENDMDL
MODEL 6
REMARK VINA RESULT:    -1.919      4.408     12.822
REMARK INTER + INTRA:          -5.729
REMARK INTER:                  -3.910
REMARK INTRA:                  -1.819
REMARK UNBOUND:                -0.893
REMARK SMILES CCCCCCCCCCCCCCCCCCCCCCCCCCCC(=O)[O-]
REMARK SMILES IDX 15 1 16 2 17 3 18 4 19 5 20 6 21 7 22 8 23 9 24 10 25 11
REMARK SMILES IDX 26 12 27 13 28 14 29 15 30 16 14 17 13 18 12 19 11 20 10 21
REMARK SMILES IDX 9 22 8 23 7 24 6 25 5 26 4 27 3 28 2 29 1 30
REMARK H PARENT
REMARK Flexibility Score: inf
ROOT
ATOM      1  C   UNL     1       4.230   2.774   8.275  1.00  0.00     0.000 C 
ENDROOT
BRANCH   1   2
ATOM      2  C   UNL     1       4.839   2.937   9.679  1.00  0.00     0.000 C 
BRANCH   2   3
ATOM      3  C   UNL     1       5.058   4.412  10.057  1.00  0.00     0.000 C 
BRANCH   3   4
ATOM      4  C   UNL     1       6.547   4.792  10.118  1.00  0.00     0.000 C 
BRANCH   4   5
ATOM      5  C   UNL     1       7.283   4.523   8.793  1.00  0.00     0.000 C 
BRANCH   5   6
ATOM      6  C   UNL     1       8.725   3.997   8.945  1.00  0.00     0.000 C 
BRANCH   6   7
ATOM      7  C   UNL     1       9.649   4.861   9.822  1.00  0.00     0.000 C 
BRANCH   7   8
ATOM      8  C   UNL     1      10.941   5.275   9.103  1.00  0.00     0.000 C 
BRANCH   8   9
ATOM      9  C   UNL     1      11.525   6.557   9.718  1.00  0.00     0.000 C 
BRANCH   9  10
ATOM     10  C   UNL     1      10.908   7.833   9.122  1.00  0.00     0.000 C 
BRANCH  10  11
ATOM     11  C   UNL     1       9.935   8.527  10.090  1.00  0.00     0.000 C 
BRANCH  11  12
ATOM     12  C   UNL     1       8.473   8.481   9.610  1.00  0.00     0.006 C 
BRANCH  12  13
ATOM     13  C   UNL     1       8.148   9.491   8.495  1.00  0.00     0.053 C 
BRANCH  13  14
ATOM     14  C   UNL     1       7.203  10.563   8.943  1.00  0.00     0.041 C 
ATOM     15  O   UNL     1       6.312  10.309   9.797  1.00  0.00    -0.550 OA
ATOM     16  O   UNL     1       7.279  11.835   8.387  1.00  0.00    -0.550 OA
ENDBRANCH  13  14
ENDBRANCH  12  13
ENDBRANCH  11  12
ENDBRANCH  10  11
ENDBRANCH   9  10
ENDBRANCH   8   9
ENDBRANCH   7   8
ENDBRANCH   6   7
ENDBRANCH   5   6
ENDBRANCH   4   5
ENDBRANCH   3   4
ENDBRANCH   2   3
ENDBRANCH   1   2
BRANCH   1  17
ATOM     17  C   UNL     1       3.651   1.368   8.045  1.00  0.00     0.000 C 
BRANCH  17  18
ATOM     18  C   UNL     1       3.888   0.425   9.237  1.00  0.00     0.000 C 
BRANCH  18  19
ATOM     19  C   UNL     1       4.888  -0.698   8.917  1.00  0.00     0.000 C 
BRANCH  19  20
ATOM     20  C   UNL     1       5.312  -1.565  10.124  1.00  0.00     0.000 C 
BRANCH  20  21
ATOM     21  C   UNL     1       5.420  -3.080   9.854  1.00  0.00     0.000 C 
BRANCH  21  22
ATOM     22  C   UNL     1       6.864  -3.625   9.768  1.00  0.00    -0.000 C 
BRANCH  22  23
ATOM     23  C   UNL     1       6.982  -4.965   9.016  1.00  0.00    -0.000 C 
BRANCH  23  24
ATOM     24  C   UNL     1       5.648  -5.571   8.544  1.00  0.00    -0.000 C 
BRANCH  24  25
ATOM     25  C   UNL     1       5.652  -6.117   7.103  1.00  0.00    -0.000 C 
BRANCH  25  26
ATOM     26  C   UNL     1       6.654  -5.395   6.190  1.00  0.00    -0.000 C 
BRANCH  26  27
ATOM     27  C   UNL     1       6.337  -5.663   4.711  1.00  0.00    -0.000 C 
BRANCH  27  28
ATOM     28  C   UNL     1       4.859  -6.016   4.475  1.00  0.00    -0.000 C 
BRANCH  28  29
ATOM     29  C   UNL     1       4.260  -5.281   3.268  1.00  0.00    -0.003 C 
ATOM     30  C   UNL     1       2.746  -5.468   3.209  1.00  0.00     0.004 C 
ENDBRANCH  28  29
ENDBRANCH  27  28
ENDBRANCH  26  27
ENDBRANCH  25  26
ENDBRANCH  24  25
ENDBRANCH  23  24
ENDBRANCH  22  23
ENDBRANCH  21  22
ENDBRANCH  20  21
ENDBRANCH  19  20
ENDBRANCH  18  19
ENDBRANCH  17  18
ENDBRANCH   1  17
TORSDOF 26
ENDMDL
MODEL 7
REMARK VINA RESULT:    -1.906      4.801     13.759
REMARK INTER + INTRA:          -5.697
REMARK INTER:                  -4.636
REMARK INTRA:                  -1.061
REMARK UNBOUND:                -0.893
REMARK SMILES CCCCCCCCCCCCCCCCCCCCCCCCCCCC(=O)[O-]
REMARK SMILES IDX 15 1 16 2 17 3 18 4 19 5 20 6 21 7 22 8 23 9 24 10 25 11
REMARK SMILES IDX 26 12 27 13 28 14 29 15 30 16 14 17 13 18 12 19 11 20 10 21
REMARK SMILES IDX 9 22 8 23 7 24 6 25 5 26 4 27 3 28 2 29 1 30
REMARK H PARENT
REMARK Flexibility Score: inf
ROOT
ATOM      1  C   UNL     1       7.462   5.191   8.800  1.00  0.00     0.000 C 
ENDROOT
BRANCH   1   2
ATOM      2  C   UNL     1       8.466   6.350   8.933  1.00  0.00     0.000 C 
BRANCH   2   3
ATOM      3  C   UNL     1       9.061   6.771   7.579  1.00  0.00     0.000 C 
BRANCH   3   4
ATOM      4  C   UNL     1       9.757   8.141   7.639  1.00  0.00     0.000 C 
BRANCH   4   5
ATOM      5  C   UNL     1      10.425   8.408   9.000  1.00  0.00     0.000 C 
BRANCH   5   6
ATOM      6  C   UNL     1       9.462   8.842  10.124  1.00  0.00     0.000 C 
BRANCH   6   7
ATOM      7  C   UNL     1       8.629  10.102   9.824  1.00  0.00     0.000 C 
BRANCH   7   8
ATOM      8  C   UNL     1       7.176   9.781   9.448  1.00  0.00     0.000 C 
BRANCH   8   9
ATOM      9  C   UNL     1       6.844  10.307   8.043  1.00  0.00     0.000 C 
BRANCH   9  10
ATOM     10  C   UNL     1       6.511  11.808   8.035  1.00  0.00     0.000 C 
BRANCH  10  11
ATOM     11  C   UNL     1       5.651  12.229   9.238  1.00  0.00     0.000 C 
BRANCH  11  12
ATOM     12  C   UNL     1       4.237  12.688   8.836  1.00  0.00     0.006 C 
BRANCH  12  13
ATOM     13  C   UNL     1       3.365  11.574   8.231  1.00  0.00     0.053 C 
BRANCH  13  14
ATOM     14  C   UNL     1       1.937  11.651   8.674  1.00  0.00     0.041 C 
ATOM     15  O   UNL     1       1.317  12.747   8.636  1.00  0.00    -0.550 OA
ATOM     16  O   UNL     1       1.299  10.519   9.168  1.00  0.00    -0.550 OA
ENDBRANCH  13  14
ENDBRANCH  12  13
ENDBRANCH  11  12
ENDBRANCH  10  11
ENDBRANCH   9  10
ENDBRANCH   8   9
ENDBRANCH   7   8
ENDBRANCH   6   7
ENDBRANCH   5   6
ENDBRANCH   4   5
ENDBRANCH   3   4
ENDBRANCH   2   3
ENDBRANCH   1   2
BRANCH   1  17
ATOM     17  C   UNL     1       8.098   3.824   9.103  1.00  0.00     0.000 C 
BRANCH  17  18
ATOM     18  C   UNL     1       7.227   2.954  10.025  1.00  0.00     0.000 C 
BRANCH  18  19
ATOM     19  C   UNL     1       6.265   2.041   9.247  1.00  0.00     0.000 C 
BRANCH  19  20
ATOM     20  C   UNL     1       5.864   0.738   9.973  1.00  0.00     0.000 C 
BRANCH  20  21
ATOM     21  C   UNL     1       4.485   0.158   9.595  1.00  0.00     0.000 C 
BRANCH  21  22
ATOM     22  C   UNL     1       4.210  -1.267  10.125  1.00  0.00    -0.000 C 
BRANCH  22  23
ATOM     23  C   UNL     1       5.322  -2.281   9.796  1.00  0.00    -0.000 C 
BRANCH  23  24
ATOM     24  C   UNL     1       4.923  -3.761   9.942  1.00  0.00    -0.000 C 
BRANCH  24  25
ATOM     25  C   UNL     1       5.708  -4.740   9.048  1.00  0.00    -0.000 C 
BRANCH  25  26
ATOM     26  C   UNL     1       5.677  -4.354   7.562  1.00  0.00    -0.000 C 
BRANCH  26  27
ATOM     27  C   UNL     1       6.339  -5.440   6.700  1.00  0.00    -0.000 C 
BRANCH  27  28
ATOM     28  C   UNL     1       5.673  -5.593   5.323  1.00  0.00    -0.000 C 
BRANCH  28  29
ATOM     29  C   UNL     1       4.196  -5.174   5.329  1.00  0.00    -0.003 C 
ATOM     30  C   UNL     1       3.448  -5.784   4.146  1.00  0.00     0.004 C 
ENDBRANCH  28  29
ENDBRANCH  27  28
ENDBRANCH  26  27
ENDBRANCH  25  26
ENDBRANCH  24  25
ENDBRANCH  23  24
ENDBRANCH  22  23
ENDBRANCH  21  22
ENDBRANCH  20  21
ENDBRANCH  19  20
ENDBRANCH  18  19
ENDBRANCH  17  18
ENDBRANCH   1  17
TORSDOF 26
ENDMDL
MODEL 8
REMARK VINA RESULT:    -1.784      1.236      1.997
REMARK INTER + INTRA:          -5.389
REMARK INTER:                  -4.010
REMARK INTRA:                  -1.380
REMARK UNBOUND:                -0.893
REMARK SMILES CCCCCCCCCCCCCCCCCCCCCCCCCCCC(=O)[O-]
REMARK SMILES IDX 15 1 16 2 17 3 18 4 19 5 20 6 21 7 22 8 23 9 24 10 25 11
REMARK SMILES IDX 26 12 27 13 28 14 29 15 30 16 14 17 13 18 12 19 11 20 10 21
REMARK SMILES IDX 9 22 8 23 7 24 6 25 5 26 4 27 3 28 2 29 1 30
REMARK H PARENT
REMARK Flexibility Score: inf
ROOT
ATOM      1  C   UNL     1       6.376   2.610   8.246  1.00  0.00     0.000 C 
ENDROOT
BRANCH   1   2
ATOM      2  C   UNL     1       5.815   1.743   9.386  1.00  0.00     0.000 C 
BRANCH   2   3
ATOM      3  C   UNL     1       6.899   0.887  10.062  1.00  0.00     0.000 C 
BRANCH   3   4
ATOM      4  C   UNL     1       6.576  -0.616  10.025  1.00  0.00     0.000 C 
BRANCH   4   5
ATOM      5  C   UNL     1       5.110  -0.898   9.650  1.00  0.00     0.000 C 
BRANCH   5   6
ATOM      6  C   UNL     1       4.603  -2.308  10.016  1.00  0.00     0.000 C 
BRANCH   6   7
ATOM      7  C   UNL     1       5.690  -3.397  10.087  1.00  0.00     0.000 C 
BRANCH   7   8
ATOM      8  C   UNL     1       5.216  -4.750   9.538  1.00  0.00     0.000 C 
BRANCH   8   9
ATOM      9  C   UNL     1       6.401  -5.570   9.003  1.00  0.00     0.000 C 
BRANCH   9  10
ATOM     10  C   UNL     1       7.588  -5.604   9.979  1.00  0.00     0.000 C 
BRANCH  10  11
ATOM     11  C   UNL     1       8.878  -6.123   9.323  1.00  0.00     0.000 C 
BRANCH  11  12
ATOM     12  C   UNL     1       9.734  -5.000   8.707  1.00  0.00     0.006 C 
BRANCH  12  13
ATOM     13  C   UNL     1       9.536  -3.626   9.372  1.00  0.00     0.053 C 
BRANCH  13  14
ATOM     14  C   UNL     1      10.784  -2.798   9.370  1.00  0.00     0.041 C 
ATOM     15  O   UNL     1      11.908  -3.341   9.545  1.00  0.00    -0.550 OA
ATOM     16  O   UNL     1      10.705  -1.419   9.215  1.00  0.00    -0.550 OA
ENDBRANCH  13  14
ENDBRANCH  12  13
ENDBRANCH  11  12
ENDBRANCH  10  11
ENDBRANCH   9  10
ENDBRANCH   8   9
ENDBRANCH   7   8
ENDBRANCH   6   7
ENDBRANCH   5   6
ENDBRANCH   4   5
ENDBRANCH   3   4
ENDBRANCH   2   3
ENDBRANCH   1   2
BRANCH   1  17
ATOM     17  C   UNL     1       6.710   4.040   8.703  1.00  0.00     0.000 C 
BRANCH  17  18
ATOM     18  C   UNL     1       7.831   4.080   9.756  1.00  0.00     0.000 C 
BRANCH  18  19
ATOM     19  C   UNL     1       8.926   5.107   9.420  1.00  0.00     0.000 C 
BRANCH  19  20
ATOM     20  C   UNL     1       8.567   6.576   9.732  1.00  0.00     0.000 C 
BRANCH  20  21
ATOM     21  C   UNL     1       8.631   7.549   8.536  1.00  0.00     0.000 C 
BRANCH  21  22
ATOM     22  C   UNL     1       8.967   9.012   8.903  1.00  0.00    -0.000 C 
BRANCH  22  23
ATOM     23  C   UNL     1       8.188   9.545  10.120  1.00  0.00    -0.000 C 
BRANCH  23  24
ATOM     24  C   UNL     1       7.751  11.019  10.024  1.00  0.00    -0.000 C 
BRANCH  24  25
ATOM     25  C   UNL     1       6.232  11.242   9.890  1.00  0.00    -0.000 C 
BRANCH  25  26
ATOM     26  C   UNL     1       5.843  11.956   8.588  1.00  0.00    -0.000 C 
BRANCH  26  27
ATOM     27  C   UNL     1       4.415  11.578   8.163  1.00  0.00    -0.000 C 
BRANCH  27  28
ATOM     28  C   UNL     1       3.413  12.726   8.365  1.00  0.00    -0.000 C 
BRANCH  28  29
ATOM     29  C   UNL     1       2.024  12.231   8.793  1.00  0.00    -0.003 C 
ATOM     30  C   UNL     1       1.020  13.380   8.829  1.00  0.00     0.004 C 
ENDBRANCH  28  29
ENDBRANCH  27  28
ENDBRANCH  26  27
ENDBRANCH  25  26
ENDBRANCH  24  25
ENDBRANCH  23  24
ENDBRANCH  22  23
ENDBRANCH  21  22
ENDBRANCH  20  21
ENDBRANCH  19  20
ENDBRANCH  18  19
ENDBRANCH  17  18
ENDBRANCH   1  17
TORSDOF 26
ENDMDL
