MODEL 1
REMARK VINA RESULT:    -1.721      0.000      0.000
REMARK INTER + INTRA:          -2.290
REMARK INTER:                  -2.023
REMARK INTRA:                  -0.267
REMARK UNBOUND:                -0.267
REMARK SMILES O=c1cc(-c2ccc(O)c(O)c2)oc2cc(O)cc(O)c12
REMARK SMILES IDX 4 1 3 2 2 3 1 4 21 5 19 6 18 7 16 8 15 9 14 10 13 11 5 12
REMARK SMILES IDX 6 13 7 14 8 15 12 16 10 17 9 18 11 20 20 22 17 24
REMARK H PARENT 9 19 11 21 20 23 17 25
REMARK Flexibility Score: inf
ROOT
ATOM      1  C   UNL     1      12.944 -12.869  28.873  1.00  0.00     0.138 A 
ATOM      2  C   UNL     1      13.097 -13.351  27.562  1.00  0.00     0.100 A 
ATOM      3  C   UNL     1      13.811 -14.530  27.343  1.00  0.00     0.197 A 
ATOM      4  O   UNL     1      13.944 -14.953  26.163  1.00  0.00    -0.289 OA
ATOM      5  C   UNL     1      14.370 -15.218  28.438  1.00  0.00     0.107 A 
ATOM      6  C   UNL     1      15.106 -16.420  28.304  1.00  0.00     0.134 A 
ATOM      7  C   UNL     1      15.635 -17.042  29.444  1.00  0.00     0.093 A 
ATOM      8  C   UNL     1      15.444 -16.487  30.712  1.00  0.00     0.123 A 
ATOM      9  C   UNL     1      14.717 -15.300  30.851  1.00  0.00     0.094 A 
ATOM     10  C   UNL     1      14.181 -14.665  29.727  1.00  0.00     0.146 A 
ATOM     11  O   UNL     1      13.492 -13.538  29.885  1.00  0.00    -0.456 OA
ENDROOT
BRANCH   1  12
ATOM     12  C   UNL     1      12.196 -11.621  29.166  1.00  0.00     0.021 A 
ATOM     13  C   UNL     1      12.883 -10.508  29.675  1.00  0.00     0.016 A 
ATOM     14  C   UNL     1      12.202  -9.324  29.964  1.00  0.00     0.051 A 
ATOM     15  C   UNL     1      10.822  -9.227  29.764  1.00  0.00     0.157 A 
ATOM     16  C   UNL     1      10.804 -11.529  28.978  1.00  0.00     0.062 A 
ATOM     17  C   UNL     1      10.112 -10.346  29.269  1.00  0.00     0.158 A 
BRANCH  15  18
ATOM     18  O   UNL     1      10.201  -8.013  30.068  1.00  0.00    -0.504 OA
ATOM     19  H   UNL     1       9.784  -7.801  30.962  1.00  0.00     0.293 HD
ENDBRANCH  15  18
BRANCH  17  20
ATOM     20  O   UNL     1       8.731 -10.330  29.059  1.00  0.00    -0.504 OA
ATOM     21  H   UNL     1       8.093  -9.715  29.542  1.00  0.00     0.293 HD
ENDBRANCH  17  20
ENDBRANCH   1  12
BRANCH   6  22
ATOM     22  O   UNL     1      15.313 -16.997  27.050  1.00  0.00    -0.507 OA
ATOM     23  H   UNL     1      16.113 -17.592  26.864  1.00  0.00     0.293 HD
ENDBRANCH   6  22
BRANCH   8  24
ATOM     24  O   UNL     1      15.980 -17.124  31.828  1.00  0.00    -0.508 OA
ATOM     25  H   UNL     1      16.720 -17.812  31.742  1.00  0.00     0.293 HD
ENDBRANCH   8  24
TORSDOF 5
ENDMDL
MODEL 2
REMARK VINA RESULT:     1.009      4.504      5.894
REMARK INTER + INTRA:           0.919
REMARK INTER:                   1.215
REMARK INTRA:                  -0.296
REMARK UNBOUND:                -0.267
REMARK SMILES O=c1cc(-c2ccc(O)c(O)c2)oc2cc(O)cc(O)c12
REMARK SMILES IDX 4 1 3 2 2 3 1 4 21 5 19 6 18 7 16 8 15 9 14 10 13 11 5 12
REMARK SMILES IDX 6 13 7 14 8 15 12 16 10 17 9 18 11 20 20 22 17 24
REMARK H PARENT 9 19 11 21 20 23 17 25
REMARK Flexibility Score: inf
ROOT
ATOM      1  C   UNL     1      13.744  -9.356  26.864  1.00  0.00     0.138 A 
ATOM      2  C   UNL     1      12.677  -9.038  27.722  1.00  0.00     0.100 A 
ATOM      3  C   UNL     1      12.303  -9.943  28.716  1.00  0.00     0.197 A 
ATOM      4  O   UNL     1      11.344  -9.649  29.480  1.00  0.00    -0.289 OA
ATOM      5  C   UNL     1      12.997 -11.162  28.844  1.00  0.00     0.107 A 
ATOM      6  C   UNL     1      12.684 -12.133  29.825  1.00  0.00     0.134 A 
ATOM      7  C   UNL     1      13.421 -13.325  29.883  1.00  0.00     0.093 A 
ATOM      8  C   UNL     1      14.461 -13.564  28.982  1.00  0.00     0.123 A 
ATOM      9  C   UNL     1      14.775 -12.609  28.011  1.00  0.00     0.094 A 
ATOM     10  C   UNL     1      14.054 -11.414  27.937  1.00  0.00     0.146 A 
ATOM     11  O   UNL     1      14.373 -10.520  27.005  1.00  0.00    -0.456 OA
ENDROOT
BRANCH   1  12
ATOM     12  C   UNL     1      14.185  -8.433  25.788  1.00  0.00     0.021 A 
ATOM     13  C   UNL     1      14.250  -7.055  26.043  1.00  0.00     0.016 A 
ATOM     14  C   UNL     1      14.657  -6.166  25.046  1.00  0.00     0.051 A 
ATOM     15  C   UNL     1      14.995  -6.630  23.771  1.00  0.00     0.157 A 
ATOM     16  C   UNL     1      14.511  -8.899  24.500  1.00  0.00     0.062 A 
ATOM     17  C   UNL     1      14.916  -8.015  23.493  1.00  0.00     0.158 A 
BRANCH  15  18
ATOM     18  O   UNL     1      15.398  -5.690  22.820  1.00  0.00    -0.504 OA
ATOM     19  H   UNL     1      14.901  -5.506  21.961  1.00  0.00     0.293 HD
ENDBRANCH  15  18
BRANCH  17  20
ATOM     20  O   UNL     1      15.222  -8.550  22.239  1.00  0.00    -0.504 OA
ATOM     21  H   UNL     1      16.079  -8.364  21.739  1.00  0.00     0.293 HD
ENDBRANCH  17  20
ENDBRANCH   1  12
BRANCH   6  22
ATOM     22  O   UNL     1      11.650 -11.921  30.739  1.00  0.00    -0.507 OA
ATOM     23  H   UNL     1      11.645 -12.367  31.649  1.00  0.00     0.293 HD
ENDBRANCH   6  22
BRANCH   8  24
ATOM     24  O   UNL     1      15.176 -14.757  29.061  1.00  0.00    -0.508 OA
ATOM     25  H   UNL     1      15.669 -15.134  28.260  1.00  0.00     0.293 HD
ENDBRANCH   8  24
TORSDOF 5
ENDMDL
