MODEL 1
REMARK VINA RESULT:    -1.545      0.000      0.000
REMARK INTER + INTRA:          -0.203
REMARK INTER:                  -2.267
REMARK INTRA:                   2.064
REMARK UNBOUND:                 2.064
REMARK SMILES C=C1CC=CC(C)(C)CC=C(C)CCC1
REMARK SMILES IDX 2 1 1 2 15 3 14 4 13 5 11 6 12 7 10 8 3 10 4 11 5 12 6 13
REMARK SMILES IDX 7 14 8 15 9 16
REMARK H PARENT
REMARK Flexibility Score: 60.00
ROOT
ATOM      1  C   UNL     1     138.596 136.072 121.580  1.00  0.00    -0.074 C 
ATOM      2  C   UNL     1     137.641 135.128 121.649  1.00  0.00     0.008 C 
ENDROOT
BRANCH   1   3
ATOM      3  C   UNL     1     140.018 135.717 121.987  1.00  0.00     0.031 C 
BRANCH   3   4
ATOM      4  C   UNL     1     140.106 135.108 123.404  1.00  0.00     0.009 C 
BRANCH   4   5
ATOM      5  C   UNL     1     138.708 134.903 124.030  1.00  0.00     0.030 C 
BRANCH   5   6
ATOM      6  C   UNL     1     138.483 135.666 125.326  1.00  0.00    -0.077 C 
ATOM      7  C   UNL     1     139.472 135.498 126.450  1.00  0.00     0.039 C 
ATOM      8  C   UNL     1     137.378 136.416 125.557  1.00  0.00    -0.027 CG0
ATOM      9  G   UNL     1     136.336 136.757 124.518  1.00  0.00     0.000 G0
ENDBRANCH   5   6
ENDBRANCH   4   5
ENDBRANCH   3   4
ENDBRANCH   1   3
BRANCH   1  10
ATOM     10  C   UNL     1     138.247 137.511 121.222  1.00  0.00     0.057 C 
BRANCH  10  11
ATOM     11  C   UNL     1     136.769 137.868 121.312  1.00  0.00    -0.026 C 
ATOM     12  C   UNL     1     135.999 138.129 122.403  1.00  0.00    -0.024 C 
BRANCH  12  13
ATOM     13  C   UNL     1     136.391 138.205 123.887  1.00  0.00    -0.014 C 
ATOM     14  C   UNL     1     135.547 139.278 124.614  1.00  0.00     0.016 C 
ATOM     15  C   UNL     1     137.864 138.675 123.971  1.00  0.00     0.016 C 
BRANCH  13  16
ATOM     16  C   UNL     1     136.315 136.784 124.518  1.00  0.00     0.038 CG0
ATOM     17  G   UNL     1     137.366 136.448 125.551  1.00  0.00     0.000 G0
ENDBRANCH  13  16
ENDBRANCH  12  13
ENDBRANCH  10  11
ENDBRANCH   1  10
TORSDOF 0
ENDMDL
MODEL 2
REMARK VINA RESULT:    -1.369     14.384     16.532
REMARK INTER + INTRA:           0.055
REMARK INTER:                  -1.385
REMARK INTRA:                   1.440
REMARK UNBOUND:                 2.064
REMARK SMILES C=C1CC=CC(C)(C)CC=C(C)CCC1
REMARK SMILES IDX 2 1 1 2 15 3 14 4 13 5 11 6 12 7 10 8 3 10 4 11 5 12 6 13
REMARK SMILES IDX 7 14 8 15 9 16
REMARK H PARENT
REMARK Flexibility Score: 60.00
ROOT
ATOM      1  C   UNL     1     138.062 154.921 124.693  1.00  0.00    -0.074 C 
ATOM      2  C   UNL     1     139.275 154.820 125.264  1.00  0.00     0.008 C 
ENDROOT
BRANCH   1   3
ATOM      3  C   UNL     1     136.823 154.811 125.568  1.00  0.00     0.031 C 
BRANCH   3   4
ATOM      4  C   UNL     1     136.527 153.362 126.017  1.00  0.00     0.009 C 
BRANCH   4   5
ATOM      5  C   UNL     1     135.181 152.851 125.457  1.00  0.00     0.030 C 
BRANCH   5   6
ATOM      6  C   UNL     1     135.133 151.350 125.213  1.00  0.00    -0.077 C 
ATOM      7  C   UNL     1     135.249 150.417 126.390  1.00  0.00     0.039 C 
ATOM      8  C   UNL     1     135.092 150.806 123.972  1.00  0.00    -0.027 CG0
ATOM      9  G   UNL     1     134.889 151.588 122.695  1.00  0.00     0.000 G0
ENDBRANCH   5   6
ENDBRANCH   4   5
ENDBRANCH   3   4
ENDBRANCH   1   3
BRANCH   1  10
ATOM     10  C   UNL     1     137.916 155.019 123.181  1.00  0.00     0.057 C 
BRANCH  10  11
ATOM     11  C   UNL     1     136.486 154.980 122.657  1.00  0.00    -0.026 C 
ATOM     12  C   UNL     1     135.743 153.926 122.224  1.00  0.00    -0.024 C 
BRANCH  12  13
ATOM     13  C   UNL     1     136.092 152.430 122.184  1.00  0.00    -0.014 C 
ATOM     14  C   UNL     1     137.419 152.164 122.932  1.00  0.00     0.016 C 
ATOM     15  C   UNL     1     136.335 152.034 120.707  1.00  0.00     0.016 C 
BRANCH  13  16
ATOM     16  C   UNL     1     134.879 151.600 122.700  1.00  0.00     0.038 CG0
ATOM     17  G   UNL     1     135.103 150.793 123.957  1.00  0.00     0.000 G0
ENDBRANCH  13  16
ENDBRANCH  12  13
ENDBRANCH  10  11
ENDBRANCH   1  10
TORSDOF 0
ENDMDL
MODEL 3
REMARK VINA RESULT:    -0.967      1.498      3.702
REMARK INTER + INTRA:           0.644
REMARK INTER:                  -1.166
REMARK INTRA:                   1.810
REMARK UNBOUND:                 2.064
REMARK SMILES C=C1CC=CC(C)(C)CC=C(C)CCC1
REMARK SMILES IDX 2 1 1 2 15 3 14 4 13 5 11 6 12 7 10 8 3 10 4 11 5 12 6 13
REMARK SMILES IDX 7 14 8 15 9 16
REMARK H PARENT
REMARK Flexibility Score: 60.00
ROOT
ATOM      1  C   UNL     1     135.800 138.326 124.120  1.00  0.00    -0.074 C 
ATOM      2  C   UNL     1     135.212 139.261 124.887  1.00  0.00     0.008 C 
ENDROOT
BRANCH   1   3
ATOM      3  C   UNL     1     135.687 136.863 124.523  1.00  0.00     0.031 C 
BRANCH   3   4
ATOM      4  C   UNL     1     136.766 136.433 125.542  1.00  0.00     0.009 C 
BRANCH   4   5
ATOM      5  C   UNL     1     137.400 135.075 125.169  1.00  0.00     0.030 C 
BRANCH   5   6
ATOM      6  C   UNL     1     138.921 135.078 125.146  1.00  0.00    -0.077 C 
ATOM      7  C   UNL     1     139.669 135.190 126.450  1.00  0.00     0.039 C 
ATOM      8  C   UNL     1     139.641 135.086 123.997  1.00  0.00    -0.027 CG0
ATOM      9  G   UNL     1     139.060 134.894 122.616  1.00  0.00     0.000 G0
ENDBRANCH   5   6
ENDBRANCH   4   5
ENDBRANCH   3   4
ENDBRANCH   1   3
BRANCH   1  10
ATOM     10  C   UNL     1     136.671 138.722 122.936  1.00  0.00     0.057 C 
BRANCH  10  11
ATOM     11  C   UNL     1     138.164 138.477 123.111  1.00  0.00    -0.026 C 
ATOM     12  C   UNL     1     138.930 137.428 122.707  1.00  0.00    -0.024 C 
BRANCH  12  13
ATOM     13  C   UNL     1     138.541 136.183 121.894  1.00  0.00    -0.014 C 
ATOM     14  C   UNL     1     138.988 136.339 120.421  1.00  0.00     0.016 C 
ATOM     15  C   UNL     1     136.996 136.086 121.875  1.00  0.00     0.016 C 
BRANCH  13  16
ATOM     16  C   UNL     1     139.083 134.908 122.604  1.00  0.00     0.038 CG0
ATOM     17  G   UNL     1     139.657 135.101 123.988  1.00  0.00     0.000 G0
ENDBRANCH  13  16
ENDBRANCH  12  13
ENDBRANCH  10  11
ENDBRANCH   1  10
TORSDOF 0
ENDMDL
MODEL 4
REMARK VINA RESULT:     1.250      1.668      3.232
REMARK INTER + INTRA:           3.898
REMARK INTER:                   1.638
REMARK INTRA:                   2.260
REMARK UNBOUND:                 2.064
REMARK SMILES C=C1CC=CC(C)(C)CC=C(C)CCC1
REMARK SMILES IDX 2 1 1 2 15 3 14 4 13 5 11 6 12 7 10 8 3 10 4 11 5 12 6 13
REMARK SMILES IDX 7 14 8 15 9 16
REMARK H PARENT
REMARK Flexibility Score: 60.00
ROOT
ATOM      1  C   UNL     1     138.750 134.881 124.626  1.00  0.00    -0.074 C 
ATOM      2  C   UNL     1     139.830 134.876 125.427  1.00  0.00     0.008 C 
ENDROOT
BRANCH   1   3
ATOM      3  C   UNL     1     138.949 134.902 123.118  1.00  0.00     0.031 C 
BRANCH   3   4
ATOM      4  C   UNL     1     139.873 136.047 122.646  1.00  0.00     0.009 C 
BRANCH   4   5
ATOM      5  C   UNL     1     140.298 136.961 123.816  1.00  0.00     0.030 C 
BRANCH   5   6
ATOM      6  C   UNL     1     139.816 138.399 123.696  1.00  0.00    -0.077 C 
ATOM      7  C   UNL     1     140.730 139.513 124.138  1.00  0.00     0.039 C 
ATOM      8  C   UNL     1     138.560 138.726 123.302  1.00  0.00    -0.027 CG0
ATOM      9  G   UNL     1     137.551 137.748 122.747  1.00  0.00     0.000 G0
ENDBRANCH   5   6
ENDBRANCH   4   5
ENDBRANCH   3   4
ENDBRANCH   1   3
BRANCH   1  10
ATOM     10  C   UNL     1     137.347 134.992 125.208  1.00  0.00     0.057 C 
BRANCH  10  11
ATOM     11  C   UNL     1     136.954 136.375 125.710  1.00  0.00    -0.026 C 
ATOM     12  C   UNL     1     136.507 137.460 125.022  1.00  0.00    -0.024 C 
BRANCH  12  13
ATOM     13  C   UNL     1     136.199 137.615 123.524  1.00  0.00    -0.014 C 
ATOM     14  C   UNL     1     135.194 138.767 123.296  1.00  0.00     0.016 C 
ATOM     15  C   UNL     1     135.500 136.321 123.042  1.00  0.00     0.016 C 
BRANCH  13  16
ATOM     16  C   UNL     1     137.533 137.751 122.732  1.00  0.00     0.038 CG0
ATOM     17  G   UNL     1     138.564 138.693 123.307  1.00  0.00     0.000 G0
ENDBRANCH  13  16
ENDBRANCH  12  13
ENDBRANCH  10  11
ENDBRANCH   1  10
TORSDOF 0
ENDMDL
