MODEL 1
REMARK VINA RESULT:     4.790      0.000      0.000
REMARK INTER + INTRA:           8.009
REMARK INTER:                   8.711
REMARK INTRA:                  -0.702
REMARK UNBOUND:                -0.702
REMARK SMILES CCCCCCCCCCCCCCCC(=O)[O-]
REMARK SMILES IDX 9 1 10 2 11 3 12 4 13 5 14 6 15 7 16 8 17 9 18 10 8 11 7 12
REMARK SMILES IDX 6 13 5 14 4 15 3 16 2 17 1 18
REMARK H PARENT
REMARK Flexibility Score: inf
ROOT
ATOM      1  C   UNL     1      21.684 -21.048  25.752  1.00  0.00     0.000 C 
ENDROOT
BRANCH   1   2
ATOM      2  C   UNL     1      21.100 -19.744  26.324  1.00  0.00     0.000 C 
BRANCH   2   3
ATOM      3  C   UNL     1      19.607 -19.871  26.666  1.00  0.00     0.000 C 
BRANCH   3   4
ATOM      4  C   UNL     1      18.721 -18.990  25.772  1.00  0.00     0.000 C 
BRANCH   4   5
ATOM      5  C   UNL     1      17.319 -18.757  26.363  1.00  0.00     0.000 C 
BRANCH   5   6
ATOM      6  C   UNL     1      16.786 -19.952  27.182  1.00  0.00     0.006 C 
BRANCH   6   7
ATOM      7  C   UNL     1      15.985 -19.500  28.410  1.00  0.00     0.053 C 
BRANCH   7   8
ATOM      8  C   UNL     1      16.638 -18.318  29.056  1.00  0.00     0.041 C 
ATOM      9  O   UNL     1      17.698 -18.465  29.720  1.00  0.00    -0.550 OA
ATOM     10  O   UNL     1      16.105 -17.048  28.882  1.00  0.00    -0.550 OA
ENDBRANCH   7   8
ENDBRANCH   6   7
ENDBRANCH   5   6
ENDBRANCH   4   5
ENDBRANCH   3   4
ENDBRANCH   2   3
ENDBRANCH   1   2
BRANCH   1  11
ATOM     11  C   UNL     1      21.936 -20.976  24.234  1.00  0.00     0.000 C 
BRANCH  11  12
ATOM     12  C   UNL     1      23.377 -20.616  23.832  1.00  0.00    -0.000 C 
BRANCH  12  13
ATOM     13  C   UNL     1      24.162 -21.818  23.280  1.00  0.00    -0.000 C 
BRANCH  13  14
ATOM     14  C   UNL     1      25.014 -22.511  24.355  1.00  0.00    -0.000 C 
BRANCH  14  15
ATOM     15  C   UNL     1      25.116 -21.689  25.649  1.00  0.00    -0.000 C 
BRANCH  15  16
ATOM     16  C   UNL     1      25.588 -22.565  26.819  1.00  0.00    -0.000 C 
BRANCH  16  17
ATOM     17  C   UNL     1      26.798 -23.439  26.452  1.00  0.00    -0.003 C 
ATOM     18  C   UNL     1      28.058 -22.620  26.183  1.00  0.00     0.004 C 
ENDBRANCH  16  17
ENDBRANCH  15  16
ENDBRANCH  14  15
ENDBRANCH  13  14
ENDBRANCH  12  13
ENDBRANCH  11  12
ENDBRANCH   1  11
TORSDOF 14
ENDMDL
MODEL 2
REMARK VINA RESULT:     5.293      3.374      8.429
REMARK INTER + INTRA:           8.923
REMARK INTER:                   9.910
REMARK INTRA:                  -0.987
REMARK UNBOUND:                -0.702
REMARK SMILES CCCCCCCCCCCCCCCC(=O)[O-]
REMARK SMILES IDX 9 1 10 2 11 3 12 4 13 5 14 6 15 7 16 8 17 9 18 10 8 11 7 12
REMARK SMILES IDX 6 13 5 14 4 15 3 16 2 17 1 18
REMARK H PARENT
REMARK Flexibility Score: inf
ROOT
ATOM      1  C   UNL     1      21.001 -19.607  26.361  1.00  0.00     0.000 C 
ENDROOT
BRANCH   1   2
ATOM      2  C   UNL     1      21.509 -21.016  26.011  1.00  0.00     0.000 C 
BRANCH   2   3
ATOM      3  C   UNL     1      21.750 -21.195  24.503  1.00  0.00     0.000 C 
BRANCH   3   4
ATOM      4  C   UNL     1      23.089 -20.596  24.045  1.00  0.00     0.000 C 
BRANCH   4   5
ATOM      5  C   UNL     1      23.969 -21.608  23.291  1.00  0.00     0.000 C 
BRANCH   5   6
ATOM      6  C   UNL     1      24.891 -22.435  24.212  1.00  0.00     0.006 C 
BRANCH   6   7
ATOM      7  C   UNL     1      25.486 -21.588  25.345  1.00  0.00     0.053 C 
BRANCH   7   8
ATOM      8  C   UNL     1      25.657 -22.414  26.582  1.00  0.00     0.041 C 
ATOM      9  O   UNL     1      24.741 -22.458  27.444  1.00  0.00    -0.550 OA
ATOM     10  O   UNL     1      26.805 -23.174  26.758  1.00  0.00    -0.550 OA
ENDBRANCH   7   8
ENDBRANCH   6   7
ENDBRANCH   5   6
ENDBRANCH   4   5
ENDBRANCH   3   4
ENDBRANCH   2   3
ENDBRANCH   1   2
BRANCH   1  11
ATOM     11  C   UNL     1      19.505 -19.583  26.728  1.00  0.00     0.000 C 
BRANCH  11  12
ATOM     12  C   UNL     1      18.584 -18.968  25.659  1.00  0.00    -0.000 C 
BRANCH  12  13
ATOM     13  C   UNL     1      17.131 -18.816  26.138  1.00  0.00    -0.000 C 
BRANCH  13  14
ATOM     14  C   UNL     1      17.025 -18.646  27.662  1.00  0.00    -0.000 C 
BRANCH  14  15
ATOM     15  C   UNL     1      15.932 -19.530  28.280  1.00  0.00    -0.000 C 
BRANCH  15  16
ATOM     16  C   UNL     1      16.517 -20.442  29.370  1.00  0.00    -0.000 C 
BRANCH  16  17
ATOM     17  C   UNL     1      15.875 -21.838  29.378  1.00  0.00    -0.003 C 
ATOM     18  C   UNL     1      16.353 -22.715  28.223  1.00  0.00     0.004 C 
ENDBRANCH  16  17
ENDBRANCH  15  16
ENDBRANCH  14  15
ENDBRANCH  13  14
ENDBRANCH  12  13
ENDBRANCH  11  12
ENDBRANCH   1  11
TORSDOF 14
ENDMDL
MODEL 3
REMARK VINA RESULT:     5.749      4.847      7.790
REMARK INTER + INTRA:           9.753
REMARK INTER:                  10.721
REMARK INTRA:                  -0.968
REMARK UNBOUND:                -0.702
REMARK SMILES CCCCCCCCCCCCCCCC(=O)[O-]
REMARK SMILES IDX 9 1 10 2 11 3 12 4 13 5 14 6 15 7 16 8 17 9 18 10 8 11 7 12
REMARK SMILES IDX 6 13 5 14 4 15 3 16 2 17 1 18
REMARK H PARENT
REMARK Flexibility Score: inf
ROOT
ATOM      1  C   UNL     1      17.783 -18.678  25.082  1.00  0.00     0.000 C 
ENDROOT
BRANCH   1   2
ATOM      2  C   UNL     1      17.511 -19.068  26.545  1.00  0.00     0.000 C 
BRANCH   2   3
ATOM      3  C   UNL     1      18.792 -19.482  27.289  1.00  0.00     0.000 C 
BRANCH   3   4
ATOM      4  C   UNL     1      20.041 -19.406  26.397  1.00  0.00     0.000 C 
BRANCH   4   5
ATOM      5  C   UNL     1      20.802 -20.741  26.319  1.00  0.00     0.000 C 
BRANCH   5   6
ATOM      6  C   UNL     1      21.461 -21.000  24.948  1.00  0.00     0.006 C 
BRANCH   6   7
ATOM      7  C   UNL     1      22.951 -21.342  25.077  1.00  0.00     0.053 C 
BRANCH   7   8
ATOM      8  C   UNL     1      23.672 -21.033  23.803  1.00  0.00     0.041 C 
ATOM      9  O   UNL     1      23.832 -19.838  23.440  1.00  0.00    -0.550 OA
ATOM     10  O   UNL     1      24.210 -22.062  23.041  1.00  0.00    -0.550 OA
ENDBRANCH   7   8
ENDBRANCH   6   7
ENDBRANCH   5   6
ENDBRANCH   4   5
ENDBRANCH   3   4
ENDBRANCH   2   3
ENDBRANCH   1   2
BRANCH   1  11
ATOM     11  C   UNL     1      16.871 -19.419  24.085  1.00  0.00     0.000 C 
BRANCH  11  12
ATOM     12  C   UNL     1      17.563 -19.876  22.789  1.00  0.00    -0.000 C 
BRANCH  12  13
ATOM     13  C   UNL     1      16.667 -20.769  21.915  1.00  0.00    -0.000 C 
BRANCH  13  14
ATOM     14  C   UNL     1      16.571 -22.209  22.445  1.00  0.00    -0.000 C 
BRANCH  14  15
ATOM     15  C   UNL     1      16.431 -23.244  21.318  1.00  0.00    -0.000 C 
BRANCH  15  16
ATOM     16  C   UNL     1      17.721 -24.062  21.161  1.00  0.00    -0.000 C 
BRANCH  16  17
ATOM     17  C   UNL     1      18.072 -24.335  19.690  1.00  0.00    -0.003 C 
ATOM     18  C   UNL     1      18.434 -23.065  18.923  1.00  0.00     0.004 C 
ENDBRANCH  16  17
ENDBRANCH  15  16
ENDBRANCH  14  15
ENDBRANCH  13  14
ENDBRANCH  12  13
ENDBRANCH  11  12
ENDBRANCH   1  11
TORSDOF 14
ENDMDL
MODEL 4
REMARK VINA RESULT:     5.888     13.017     14.433
REMARK INTER + INTRA:          10.005
REMARK INTER:                  10.671
REMARK INTRA:                  -0.666
REMARK UNBOUND:                -0.702
REMARK SMILES CCCCCCCCCCCCCCCC(=O)[O-]
REMARK SMILES IDX 9 1 10 2 11 3 12 4 13 5 14 6 15 7 16 8 17 9 18 10 8 11 7 12
REMARK SMILES IDX 6 13 5 14 4 15 3 16 2 17 1 18
REMARK H PARENT
REMARK Flexibility Score: inf
ROOT
ATOM      1  C   UNL     1      25.456 -20.215  13.697  1.00  0.00     0.000 C 
ENDROOT
BRANCH   1   2
ATOM      2  C   UNL     1      26.770 -19.637  13.144  1.00  0.00     0.000 C 
BRANCH   2   3
ATOM      3  C   UNL     1      27.023 -18.196  13.618  1.00  0.00     0.000 C 
BRANCH   3   4
ATOM      4  C   UNL     1      28.287 -17.584  12.994  1.00  0.00     0.000 C 
BRANCH   4   5
ATOM      5  C   UNL     1      28.909 -16.480  13.868  1.00  0.00     0.000 C 
BRANCH   5   6
ATOM      6  C   UNL     1      28.043 -16.091  15.085  1.00  0.00     0.006 C 
BRANCH   6   7
ATOM      7  C   UNL     1      28.611 -14.879  15.834  1.00  0.00     0.053 C 
BRANCH   7   8
ATOM      8  C   UNL     1      29.086 -15.280  17.196  1.00  0.00     0.041 C 
ATOM      9  O   UNL     1      28.845 -16.436  17.635  1.00  0.00    -0.550 OA
ATOM     10  O   UNL     1      29.837 -14.397  17.959  1.00  0.00    -0.550 OA
ENDBRANCH   7   8
ENDBRANCH   6   7
ENDBRANCH   5   6
ENDBRANCH   4   5
ENDBRANCH   3   4
ENDBRANCH   2   3
ENDBRANCH   1   2
BRANCH   1  11
ATOM     11  C   UNL     1      25.670 -21.115  14.929  1.00  0.00     0.000 C 
BRANCH  11  12
ATOM     12  C   UNL     1      25.039 -22.515  14.828  1.00  0.00    -0.000 C 
BRANCH  12  13
ATOM     13  C   UNL     1      26.042 -23.645  15.110  1.00  0.00    -0.000 C 
BRANCH  13  14
ATOM     14  C   UNL     1      27.167 -23.712  14.065  1.00  0.00    -0.000 C 
BRANCH  14  15
ATOM     15  C   UNL     1      27.832 -25.095  14.000  1.00  0.00    -0.000 C 
BRANCH  15  16
ATOM     16  C   UNL     1      29.337 -24.994  14.288  1.00  0.00    -0.000 C 
BRANCH  16  17
ATOM     17  C   UNL     1      30.157 -24.657  13.033  1.00  0.00    -0.003 C 
ATOM     18  C   UNL     1      31.663 -24.689  13.285  1.00  0.00     0.004 C 
ENDBRANCH  16  17
ENDBRANCH  15  16
ENDBRANCH  14  15
ENDBRANCH  13  14
ENDBRANCH  12  13
ENDBRANCH  11  12
ENDBRANCH   1  11
TORSDOF 14
ENDMDL
MODEL 5
REMARK VINA RESULT:     6.000     12.475     14.187
REMARK INTER + INTRA:          10.208
REMARK INTER:                  10.361
REMARK INTRA:                  -0.152
REMARK UNBOUND:                -0.702
REMARK SMILES CCCCCCCCCCCCCCCC(=O)[O-]
REMARK SMILES IDX 9 1 10 2 11 3 12 4 13 5 14 6 15 7 16 8 17 9 18 10 8 11 7 12
REMARK SMILES IDX 6 13 5 14 4 15 3 16 2 17 1 18
REMARK H PARENT
REMARK Flexibility Score: inf
ROOT
ATOM      1  C   UNL     1      25.607 -21.177  14.876  1.00  0.00     0.000 C 
ENDROOT
BRANCH   1   2
ATOM      2  C   UNL     1      24.735 -20.083  15.515  1.00  0.00     0.000 C 
BRANCH   2   3
ATOM      3  C   UNL     1      25.556 -18.856  15.946  1.00  0.00     0.000 C 
BRANCH   3   4
ATOM      4  C   UNL     1      26.495 -18.357  14.836  1.00  0.00     0.000 C 
BRANCH   4   5
ATOM      5  C   UNL     1      27.096 -16.973  15.139  1.00  0.00     0.000 C 
BRANCH   5   6
ATOM      6  C   UNL     1      28.234 -16.567  14.178  1.00  0.00     0.006 C 
BRANCH   6   7
ATOM      7  C   UNL     1      29.126 -15.468  14.770  1.00  0.00     0.053 C 
BRANCH   7   8
ATOM      8  C   UNL     1      28.796 -15.246  16.213  1.00  0.00     0.041 C 
ATOM      9  O   UNL     1      29.196 -16.061  17.086  1.00  0.00    -0.550 OA
ATOM     10  O   UNL     1      28.091 -14.114  16.599  1.00  0.00    -0.550 OA
ENDBRANCH   7   8
ENDBRANCH   6   7
ENDBRANCH   5   6
ENDBRANCH   4   5
ENDBRANCH   3   4
ENDBRANCH   2   3
ENDBRANCH   1   2
BRANCH   1  11
ATOM     11  C   UNL     1      24.838 -22.489  14.630  1.00  0.00     0.000 C 
BRANCH  11  12
ATOM     12  C   UNL     1      25.651 -23.773  14.872  1.00  0.00    -0.000 C 
BRANCH  12  13
ATOM     13  C   UNL     1      27.083 -23.688  14.317  1.00  0.00    -0.000 C 
BRANCH  13  14
ATOM     14  C   UNL     1      27.675 -25.069  13.993  1.00  0.00    -0.000 C 
BRANCH  14  15
ATOM     15  C   UNL     1      29.194 -25.125  14.208  1.00  0.00    -0.000 C 
BRANCH  15  16
ATOM     16  C   UNL     1      29.939 -24.481  13.030  1.00  0.00    -0.000 C 
BRANCH  16  17
ATOM     17  C   UNL     1      31.442 -24.804  13.033  1.00  0.00    -0.003 C 
ATOM     18  C   UNL     1      32.296 -23.648  12.520  1.00  0.00     0.004 C 
ENDBRANCH  16  17
ENDBRANCH  15  16
ENDBRANCH  14  15
ENDBRANCH  13  14
ENDBRANCH  12  13
ENDBRANCH  11  12
ENDBRANCH   1  11
TORSDOF 14
ENDMDL
MODEL 6
REMARK VINA RESULT:     6.013     13.363     15.429
REMARK INTER + INTRA:          10.233
REMARK INTER:                  10.816
REMARK INTRA:                  -0.583
REMARK UNBOUND:                -0.702
REMARK SMILES CCCCCCCCCCCCCCCC(=O)[O-]
REMARK SMILES IDX 9 1 10 2 11 3 12 4 13 5 14 6 15 7 16 8 17 9 18 10 8 11 7 12
REMARK SMILES IDX 6 13 5 14 4 15 3 16 2 17 1 18
REMARK H PARENT
REMARK Flexibility Score: inf
ROOT
ATOM      1  C   UNL     1      24.689 -20.509  15.132  1.00  0.00     0.000 C 
ENDROOT
BRANCH   1   2
ATOM      2  C   UNL     1      25.687 -21.585  14.672  1.00  0.00     0.000 C 
BRANCH   2   3
ATOM      3  C   UNL     1      25.256 -23.001  15.090  1.00  0.00     0.000 C 
BRANCH   3   4
ATOM      4  C   UNL     1      26.059 -24.096  14.370  1.00  0.00     0.000 C 
BRANCH   4   5
ATOM      5  C   UNL     1      27.578 -23.854  14.421  1.00  0.00     0.000 C 
BRANCH   5   6
ATOM      6  C   UNL     1      28.417 -25.125  14.168  1.00  0.00     0.006 C 
BRANCH   6   7
ATOM      7  C   UNL     1      29.380 -24.956  12.985  1.00  0.00     0.053 C 
BRANCH   7   8
ATOM      8  C   UNL     1      30.773 -24.711  13.476  1.00  0.00     0.041 C 
ATOM      9  O   UNL     1      31.692 -24.438  12.660  1.00  0.00    -0.550 OA
ATOM     10  O   UNL     1      31.045 -24.736  14.837  1.00  0.00    -0.550 OA
ENDBRANCH   7   8
ENDBRANCH   6   7
ENDBRANCH   5   6
ENDBRANCH   4   5
ENDBRANCH   3   4
ENDBRANCH   2   3
ENDBRANCH   1   2
BRANCH   1  11
ATOM     11  C   UNL     1      25.374 -19.187  15.530  1.00  0.00     0.000 C 
BRANCH  11  12
ATOM     12  C   UNL     1      26.577 -18.791  14.656  1.00  0.00    -0.000 C 
BRANCH  12  13
ATOM     13  C   UNL     1      26.906 -17.291  14.736  1.00  0.00    -0.000 C 
BRANCH  13  14
ATOM     14  C   UNL     1      28.180 -16.923  13.958  1.00  0.00    -0.000 C 
BRANCH  14  15
ATOM     15  C   UNL     1      28.959 -15.772  14.612  1.00  0.00    -0.000 C 
BRANCH  15  16
ATOM     16  C   UNL     1      28.257 -15.292  15.891  1.00  0.00    -0.000 C 
BRANCH  16  17
ATOM     17  C   UNL     1      29.008 -15.704  17.167  1.00  0.00    -0.003 C 
ATOM     18  C   UNL     1      29.771 -14.546  17.805  1.00  0.00     0.004 C 
ENDBRANCH  16  17
ENDBRANCH  15  16
ENDBRANCH  14  15
ENDBRANCH  13  14
ENDBRANCH  12  13
ENDBRANCH  11  12
ENDBRANCH   1  11
TORSDOF 14
ENDMDL
MODEL 7
REMARK VINA RESULT:     6.623      4.013      8.564
REMARK INTER + INTRA:          11.342
REMARK INTER:                  12.256
REMARK INTRA:                  -0.914
REMARK UNBOUND:                -0.702
REMARK SMILES CCCCCCCCCCCCCCCC(=O)[O-]
REMARK SMILES IDX 9 1 10 2 11 3 12 4 13 5 14 6 15 7 16 8 17 9 18 10 8 11 7 12
REMARK SMILES IDX 6 13 5 14 4 15 3 16 2 17 1 18
REMARK H PARENT
REMARK Flexibility Score: inf
ROOT
ATOM      1  C   UNL     1      20.829 -20.754  26.400  1.00  0.00     0.000 C 
ENDROOT
BRANCH   1   2
ATOM      2  C   UNL     1      21.451 -21.101  25.037  1.00  0.00     0.000 C 
BRANCH   2   3
ATOM      3  C   UNL     1      22.924 -20.672  24.939  1.00  0.00     0.000 C 
BRANCH   3   4
ATOM      4  C   UNL     1      23.419 -20.593  23.485  1.00  0.00     0.000 C 
BRANCH   4   5
ATOM      5  C   UNL     1      24.318 -21.780  23.096  1.00  0.00     0.000 C 
BRANCH   5   6
ATOM      6  C   UNL     1      24.546 -22.787  24.243  1.00  0.00     0.006 C 
BRANCH   6   7
ATOM      7  C   UNL     1      26.035 -22.983  24.554  1.00  0.00     0.053 C 
BRANCH   7   8
ATOM      8  C   UNL     1      26.287 -22.840  26.022  1.00  0.00     0.041 C 
ATOM      9  O   UNL     1      25.424 -22.300  26.763  1.00  0.00    -0.550 OA
ATOM     10  O   UNL     1      27.453 -23.348  26.581  1.00  0.00    -0.550 OA
ENDBRANCH   7   8
ENDBRANCH   6   7
ENDBRANCH   5   6
ENDBRANCH   4   5
ENDBRANCH   3   4
ENDBRANCH   2   3
ENDBRANCH   1   2
BRANCH   1  11
ATOM     11  C   UNL     1      20.007 -19.451  26.370  1.00  0.00     0.000 C 
BRANCH  11  12
ATOM     12  C   UNL     1      18.695 -19.491  27.173  1.00  0.00    -0.000 C 
BRANCH  12  13
ATOM     13  C   UNL     1      17.470 -19.083  26.338  1.00  0.00    -0.000 C 
BRANCH  13  14
ATOM     14  C   UNL     1      17.848 -18.612  24.925  1.00  0.00    -0.000 C 
BRANCH  14  15
ATOM     15  C   UNL     1      16.883 -19.136  23.850  1.00  0.00    -0.000 C 
BRANCH  15  16
ATOM     16  C   UNL     1      17.557 -20.213  22.987  1.00  0.00    -0.000 C 
BRANCH  16  17
ATOM     17  C   UNL     1      16.581 -20.875  22.001  1.00  0.00    -0.003 C 
ATOM     18  C   UNL     1      16.427 -22.376  22.238  1.00  0.00     0.004 C 
ENDBRANCH  16  17
ENDBRANCH  15  16
ENDBRANCH  14  15
ENDBRANCH  13  14
ENDBRANCH  12  13
ENDBRANCH  11  12
ENDBRANCH   1  11
TORSDOF 14
ENDMDL
MODEL 8
REMARK VINA RESULT:     6.625      2.854      3.600
REMARK INTER + INTRA:          11.346
REMARK INTER:                  11.692
REMARK INTRA:                  -0.346
REMARK UNBOUND:                -0.702
REMARK SMILES CCCCCCCCCCCCCCCC(=O)[O-]
REMARK SMILES IDX 9 1 10 2 11 3 12 4 13 5 14 6 15 7 16 8 17 9 18 10 8 11 7 12
REMARK SMILES IDX 6 13 5 14 4 15 3 16 2 17 1 18
REMARK H PARENT
REMARK Flexibility Score: inf
ROOT
ATOM      1  C   UNL     1      21.184 -19.856  26.648  1.00  0.00     0.000 C 
ENDROOT
BRANCH   1   2
ATOM      2  C   UNL     1      19.707 -19.653  26.268  1.00  0.00     0.000 C 
BRANCH   2   3
ATOM      3  C   UNL     1      18.756 -19.930  27.444  1.00  0.00     0.000 C 
BRANCH   3   4
ATOM      4  C   UNL     1      17.429 -19.163  27.320  1.00  0.00     0.000 C 
BRANCH   4   5
ATOM      5  C   UNL     1      17.323 -18.361  26.011  1.00  0.00     0.000 C 
BRANCH   5   6
ATOM      6  C   UNL     1      16.890 -19.211  24.798  1.00  0.00     0.006 C 
BRANCH   6   7
ATOM      7  C   UNL     1      17.881 -19.100  23.631  1.00  0.00     0.053 C 
BRANCH   7   8
ATOM      8  C   UNL     1      17.469 -19.999  22.508  1.00  0.00     0.041 C 
ATOM      9  O   UNL     1      17.991 -19.868  21.369  1.00  0.00    -0.550 OA
ATOM     10  O   UNL     1      16.547 -21.013  22.730  1.00  0.00    -0.550 OA
ENDBRANCH   7   8
ENDBRANCH   6   7
ENDBRANCH   5   6
ENDBRANCH   4   5
ENDBRANCH   3   4
ENDBRANCH   2   3
ENDBRANCH   1   2
BRANCH   1  11
ATOM     11  C   UNL     1      21.813 -21.088  25.970  1.00  0.00     0.000 C 
BRANCH  11  12
ATOM     12  C   UNL     1      21.950 -20.988  24.441  1.00  0.00    -0.000 C 
BRANCH  12  13
ATOM     13  C   UNL     1      23.377 -20.636  23.989  1.00  0.00    -0.000 C 
BRANCH  13  14
ATOM     14  C   UNL     1      24.093 -21.819  23.317  1.00  0.00    -0.000 C 
BRANCH  14  15
ATOM     15  C   UNL     1      25.135 -22.477  24.234  1.00  0.00    -0.000 C 
BRANCH  15  16
ATOM     16  C   UNL     1      25.229 -21.737  25.576  1.00  0.00    -0.000 C 
BRANCH  16  17
ATOM     17  C   UNL     1      25.803 -22.618  26.697  1.00  0.00    -0.003 C 
ATOM     18  C   UNL     1      27.172 -23.199  26.350  1.00  0.00     0.004 C 
ENDBRANCH  16  17
ENDBRANCH  15  16
ENDBRANCH  14  15
ENDBRANCH  13  14
ENDBRANCH  12  13
ENDBRANCH  11  12
ENDBRANCH   1  11
TORSDOF 14
ENDMDL
