MODEL 1
REMARK VINA RESULT:    -2.103      0.000      0.000
REMARK INTER + INTRA:          -2.824
REMARK INTER:                  -2.595
REMARK INTRA:                  -0.229
REMARK UNBOUND:                -0.229
REMARK SMILES CCCCC(=O)CC
REMARK SMILES IDX 4 1 3 2 2 3 1 4 5 5 6 6 7 7 8 8
REMARK H PARENT
REMARK Flexibility Score: inf
ROOT
ATOM      1  C   UNL     1     130.926 146.270 137.801  1.00  0.00     0.075 C 
ENDROOT
BRANCH   1   2
ATOM      2  C   UNL     1     131.775 145.832 139.002  1.00  0.00     0.008 C 
BRANCH   2   3
ATOM      3  C   UNL     1     132.808 146.892 139.414  1.00  0.00    -0.003 C 
ATOM      4  C   UNL     1     132.174 148.095 140.112  1.00  0.00     0.004 C 
ENDBRANCH   2   3
ENDBRANCH   1   2
BRANCH   1   5
ATOM      5  C   UNL     1     129.459 146.124 138.108  1.00  0.00     0.132 C 
ATOM      6  O   UNL     1     128.636 146.608 137.343  1.00  0.00    -0.300 OA
BRANCH   5   7
ATOM      7  C   UNL     1     128.984 145.378 139.327  1.00  0.00     0.072 C 
ATOM      8  C   UNL     1     128.502 143.980 138.952  1.00  0.00     0.012 C 
ENDBRANCH   5   7
ENDBRANCH   1   5
TORSDOF 4
ENDMDL
MODEL 2
REMARK VINA RESULT:    -2.087      0.972      1.804
REMARK INTER + INTRA:          -2.805
REMARK INTER:                  -2.446
REMARK INTRA:                  -0.358
REMARK UNBOUND:                -0.229
REMARK SMILES CCCCC(=O)CC
REMARK SMILES IDX 4 1 3 2 2 3 1 4 5 5 6 6 7 7 8 8
REMARK H PARENT
REMARK Flexibility Score: inf
ROOT
ATOM      1  C   UNL     1     130.809 146.303 137.593  1.00  0.00     0.075 C 
ENDROOT
BRANCH   1   2
ATOM      2  C   UNL     1     131.674 146.266 138.861  1.00  0.00     0.008 C 
BRANCH   2   3
ATOM      3  C   UNL     1     132.599 145.042 138.911  1.00  0.00    -0.003 C 
ATOM      4  C   UNL     1     132.260 144.001 137.843  1.00  0.00     0.004 C 
ENDBRANCH   2   3
ENDBRANCH   1   2
BRANCH   1   5
ATOM      5  C   UNL     1     129.348 146.201 137.945  1.00  0.00     0.132 C 
ATOM      6  O   UNL     1     128.516 146.690 137.194  1.00  0.00    -0.300 OA
BRANCH   5   7
ATOM      7  C   UNL     1     128.891 145.492 139.193  1.00  0.00     0.072 C 
ATOM      8  C   UNL     1     128.604 144.022 138.906  1.00  0.00     0.012 C 
ENDBRANCH   5   7
ENDBRANCH   1   5
TORSDOF 4
ENDMDL
MODEL 3
REMARK VINA RESULT:    -2.069      2.108      3.856
REMARK INTER + INTRA:          -2.782
REMARK INTER:                  -2.440
REMARK INTRA:                  -0.343
REMARK UNBOUND:                -0.229
REMARK SMILES CCCCC(=O)CC
REMARK SMILES IDX 4 1 3 2 2 3 1 4 5 5 6 6 7 7 8 8
REMARK H PARENT
REMARK Flexibility Score: inf
ROOT
ATOM      1  C   UNL     1     131.346 146.066 138.071  1.00  0.00     0.075 C 
ENDROOT
BRANCH   1   2
ATOM      2  C   UNL     1     131.257 144.559 138.350  1.00  0.00     0.008 C 
BRANCH   2   3
ATOM      3  C   UNL     1     132.233 143.741 137.491  1.00  0.00    -0.003 C 
ATOM      4  C   UNL     1     133.577 143.509 138.182  1.00  0.00     0.004 C 
ENDBRANCH   2   3
ENDBRANCH   1   2
BRANCH   1   5
ATOM      5  C   UNL     1     131.684 146.819 139.331  1.00  0.00     0.132 C 
ATOM      6  O   UNL     1     130.794 147.087 140.125  1.00  0.00    -0.300 OA
BRANCH   5   7
ATOM      7  C   UNL     1     133.100 147.230 139.641  1.00  0.00     0.072 C 
ATOM      8  C   UNL     1     133.706 146.322 140.705  1.00  0.00     0.012 C 
ENDBRANCH   5   7
ENDBRANCH   1   5
TORSDOF 4
ENDMDL
MODEL 4
REMARK VINA RESULT:    -2.061     11.914     13.383
REMARK INTER + INTRA:          -2.772
REMARK INTER:                  -2.512
REMARK INTRA:                  -0.260
REMARK UNBOUND:                -0.229
REMARK SMILES CCCCC(=O)CC
REMARK SMILES IDX 4 1 3 2 2 3 1 4 5 5 6 6 7 7 8 8
REMARK H PARENT
REMARK Flexibility Score: inf
ROOT
ATOM      1  C   UNL     1     142.432 145.341 138.843  1.00  0.00     0.075 C 
ENDROOT
BRANCH   1   2
ATOM      2  C   UNL     1     141.750 144.726 137.612  1.00  0.00     0.008 C 
BRANCH   2   3
ATOM      3  C   UNL     1     141.543 143.210 137.747  1.00  0.00    -0.003 C 
ATOM      4  C   UNL     1     142.421 142.588 138.833  1.00  0.00     0.004 C 
ENDBRANCH   2   3
ENDBRANCH   1   2
BRANCH   1   5
ATOM      5  C   UNL     1     143.643 146.136 138.435  1.00  0.00     0.132 C 
ATOM      6  O   UNL     1     143.664 146.676 137.338  1.00  0.00    -0.300 OA
BRANCH   5   7
ATOM      7  C   UNL     1     144.823 146.296 139.359  1.00  0.00     0.072 C 
ATOM      8  C   UNL     1     145.409 144.937 139.727  1.00  0.00     0.012 C 
ENDBRANCH   5   7
ENDBRANCH   1   5
TORSDOF 4
ENDMDL
MODEL 5
REMARK VINA RESULT:    -2.053     12.868     14.275
REMARK INTER + INTRA:          -2.762
REMARK INTER:                  -2.369
REMARK INTRA:                  -0.394
REMARK UNBOUND:                -0.229
REMARK SMILES CCCCC(=O)CC
REMARK SMILES IDX 4 1 3 2 2 3 1 4 5 5 6 6 7 7 8 8
REMARK H PARENT
REMARK Flexibility Score: inf
ROOT
ATOM      1  C   UNL     1     145.270 145.101 139.617  1.00  0.00     0.075 C 
ENDROOT
BRANCH   1   2
ATOM      2  C   UNL     1     146.111 146.294 140.091  1.00  0.00     0.008 C 
BRANCH   2   3
ATOM      3  C   UNL     1     145.780 146.716 141.530  1.00  0.00    -0.003 C 
ATOM      4  C   UNL     1     145.151 148.107 141.609  1.00  0.00     0.004 C 
ENDBRANCH   2   3
ENDBRANCH   1   2
BRANCH   1   5
ATOM      5  C   UNL     1     143.930 145.566 139.109  1.00  0.00     0.132 C 
ATOM      6  O   UNL     1     142.911 145.086 139.583  1.00  0.00    -0.300 OA
BRANCH   5   7
ATOM      7  C   UNL     1     143.822 146.625 138.043  1.00  0.00     0.072 C 
ATOM      8  C   UNL     1     142.974 147.795 138.527  1.00  0.00     0.012 C 
ENDBRANCH   5   7
ENDBRANCH   1   5
TORSDOF 4
ENDMDL
MODEL 6
REMARK VINA RESULT:    -2.052      2.180      3.021
REMARK INTER + INTRA:          -2.761
REMARK INTER:                  -2.365
REMARK INTRA:                  -0.396
REMARK UNBOUND:                -0.229
REMARK SMILES CCCCC(=O)CC
REMARK SMILES IDX 4 1 3 2 2 3 1 4 5 5 6 6 7 7 8 8
REMARK H PARENT
REMARK Flexibility Score: inf
ROOT
ATOM      1  C   UNL     1     131.302 145.993 137.989  1.00  0.00     0.075 C 
ENDROOT
BRANCH   1   2
ATOM      2  C   UNL     1     131.498 146.856 139.243  1.00  0.00     0.008 C 
BRANCH   2   3
ATOM      3  C   UNL     1     132.979 147.100 139.567  1.00  0.00    -0.003 C 
ATOM      4  C   UNL     1     133.420 146.421 140.864  1.00  0.00     0.004 C 
ENDBRANCH   2   3
ENDBRANCH   1   2
BRANCH   1   5
ATOM      5  C   UNL     1     131.432 144.531 138.327  1.00  0.00     0.132 C 
ATOM      6  O   UNL     1     130.717 144.051 139.195  1.00  0.00    -0.300 OA
BRANCH   5   7
ATOM      7  C   UNL     1     132.412 143.644 137.604  1.00  0.00     0.072 C 
ATOM      8  C   UNL     1     133.751 143.610 138.333  1.00  0.00     0.012 C 
ENDBRANCH   5   7
ENDBRANCH   1   5
TORSDOF 4
ENDMDL
MODEL 7
REMARK VINA RESULT:    -2.044     11.841     13.116
REMARK INTER + INTRA:          -2.751
REMARK INTER:                  -2.364
REMARK INTRA:                  -0.387
REMARK UNBOUND:                -0.229
REMARK SMILES CCCCC(=O)CC
REMARK SMILES IDX 4 1 3 2 2 3 1 4 5 5 6 6 7 7 8 8
REMARK H PARENT
REMARK Flexibility Score: inf
ROOT
ATOM      1  C   UNL     1     143.923 146.573 138.278  1.00  0.00     0.075 C 
ENDROOT
BRANCH   1   2
ATOM      2  C   UNL     1     144.747 146.380 139.558  1.00  0.00     0.008 C 
BRANCH   2   3
ATOM      3  C   UNL     1     145.374 144.981 139.652  1.00  0.00    -0.003 C 
ATOM      4  C   UNL     1     144.758 144.131 140.763  1.00  0.00     0.004 C 
ENDBRANCH   2   3
ENDBRANCH   1   2
BRANCH   1   5
ATOM      5  C   UNL     1     142.520 146.059 138.468  1.00  0.00     0.132 C 
ATOM      6  O   UNL     1     141.817 146.548 139.340  1.00  0.00    -0.300 OA
BRANCH   5   7
ATOM      7  C   UNL     1     141.960 144.968 137.594  1.00  0.00     0.072 C 
ATOM      8  C   UNL     1     141.971 143.630 138.325  1.00  0.00     0.012 C 
ENDBRANCH   5   7
ENDBRANCH   1   5
TORSDOF 4
ENDMDL
MODEL 8
REMARK VINA RESULT:    -2.008      1.922      3.819
REMARK INTER + INTRA:          -2.707
REMARK INTER:                  -2.360
REMARK INTRA:                  -0.346
REMARK UNBOUND:                -0.229
REMARK SMILES CCCCC(=O)CC
REMARK SMILES IDX 4 1 3 2 2 3 1 4 5 5 6 6 7 7 8 8
REMARK H PARENT
REMARK Flexibility Score: inf
ROOT
ATOM      1  C   UNL     1     130.728 146.308 138.114  1.00  0.00     0.075 C 
ENDROOT
BRANCH   1   2
ATOM      2  C   UNL     1     129.547 146.191 139.088  1.00  0.00     0.008 C 
BRANCH   2   3
ATOM      3  C   UNL     1     128.459 145.232 138.583  1.00  0.00    -0.003 C 
ATOM      4  C   UNL     1     128.761 143.770 138.912  1.00  0.00     0.004 C 
ENDBRANCH   2   3
ENDBRANCH   1   2
BRANCH   1   5
ATOM      5  C   UNL     1     132.035 146.130 138.842  1.00  0.00     0.132 C 
ATOM      6  O   UNL     1     132.583 147.105 139.335  1.00  0.00    -0.300 OA
BRANCH   5   7
ATOM      7  C   UNL     1     132.669 144.772 138.991  1.00  0.00     0.072 C 
ATOM      8  C   UNL     1     132.364 143.896 137.781  1.00  0.00     0.012 C 
ENDBRANCH   5   7
ENDBRANCH   1   5
TORSDOF 4
ENDMDL
MODEL 9
REMARK VINA RESULT:    -1.977      1.532      1.707
REMARK INTER + INTRA:          -2.669
REMARK INTER:                  -2.347
REMARK INTRA:                  -0.322
REMARK UNBOUND:                -0.229
REMARK SMILES CCCCC(=O)CC
REMARK SMILES IDX 4 1 3 2 2 3 1 4 5 5 6 6 7 7 8 8
REMARK H PARENT
REMARK Flexibility Score: inf
ROOT
ATOM      1  C   UNL     1     131.261 146.220 138.120  1.00  0.00     0.075 C 
ENDROOT
BRANCH   1   2
ATOM      2  C   UNL     1     132.323 146.268 139.227  1.00  0.00     0.008 C 
BRANCH   2   3
ATOM      3  C   UNL     1     132.497 147.676 139.817  1.00  0.00    -0.003 C 
ATOM      4  C   UNL     1     131.628 147.910 141.052  1.00  0.00     0.004 C 
ENDBRANCH   2   3
ENDBRANCH   1   2
BRANCH   1   5
ATOM      5  C   UNL     1     130.049 145.455 138.582  1.00  0.00     0.132 C 
ATOM      6  O   UNL     1     130.186 144.321 139.017  1.00  0.00    -0.300 OA
BRANCH   5   7
ATOM      7  C   UNL     1     128.673 146.067 138.537  1.00  0.00     0.072 C 
ATOM      8  C   UNL     1     128.271 146.595 139.910  1.00  0.00     0.012 C 
ENDBRANCH   5   7
ENDBRANCH   1   5
TORSDOF 4
ENDMDL
