MODEL 1
REMARK VINA RESULT:    -8.022      0.000      0.000
REMARK INTER + INTRA:         -11.880
REMARK INTER:                 -10.367
REMARK INTRA:                  -1.513
REMARK UNBOUND:                -1.513
REMARK SMILES C[C@@H]1O[C@H](O[C@H]2CC[C@@]3(C)[C@H](CC[C@@]4(C)[C@@H]3C=C[C@]35OC[C@@]6(CCC(C)(C)C[C@H]63)[C@H](O)C[C@]45C)[C@@]2(C)CO)[C@@H](O)[C@@H](O[C@H]2O[C@H](CO)[C@H](O)[C@@H](O)[C@@H]2O)[C@@H]1O
REMARK SMILES IDX 1 1 2 2 54 3 41 4 39 5 4 6 3 7 55 8 42 10 43 11 52 12 44 13
REMARK SMILES IDX 50 14 45 15 48 16 53 17 51 19 46 21 47 22 49 24 5 26 6 27
REMARK SMILES IDX 7 28 35 29 8 30 11 31 36 32 9 33 12 34 10 35 16 36 13 37
REMARK SMILES IDX 14 38 17 39 15 40 33 41 18 42 19 43 32 44 34 45 29 46 20 47
REMARK SMILES IDX 30 48 22 49 28 50 21 51 23 52 25 53 24 54 26 55 27 56 37 57
REMARK SMILES IDX 38 58 31 60 40 62
REMARK H PARENT 55 9 53 18 51 20 47 23 49 25 38 59 31 61 40 63
REMARK Flexibility Score: inf
ROOT
ATOM      1  C   UNL     1     -13.628 -13.556  14.363  1.00  0.00     0.041 C 
ATOM      2  C   UNL     1     -12.847 -14.380  13.096  1.00  0.00     0.150 C 
ATOM      3  C   UNL     1     -13.562 -15.638  12.844  1.00  0.00     0.175 C 
ATOM      4  C   UNL     1     -14.366 -15.793  11.302  1.00  0.00     0.186 C 
ATOM      5  C   UNL     1     -12.908 -16.372  10.664  1.00  0.00     0.202 C 
ATOM      6  C   UNL     1     -11.846 -15.100  10.753  1.00  0.00     0.282 C 
ATOM      7  O   UNL     1     -12.373 -14.048  11.772  1.00  0.00    -0.344 OA
ENDROOT
BRANCH   3   8
ATOM      8  O   UNL     1     -14.043 -16.316  13.988  1.00  0.00    -0.388 OA
ATOM      9  H   UNL     1     -13.601 -17.235  14.026  1.00  0.00     0.211 HD
ENDBRANCH   3   8
BRANCH   4  10
ATOM     10  O   UNL     1     -15.244 -16.879  11.978  1.00  0.00    -0.341 OA
BRANCH  10  11
ATOM     11  C   UNL     1     -15.858 -18.108  11.448  1.00  0.00     0.282 C 
ATOM     12  C   UNL     1     -17.176 -18.567  12.491  1.00  0.00     0.202 C 
ATOM     13  O   UNL     1     -14.746 -19.085  11.744  1.00  0.00    -0.341 OA
ATOM     14  C   UNL     1     -16.985 -19.960  13.262  1.00  0.00     0.179 C 
ATOM     15  C   UNL     1     -14.478 -19.660  13.268  1.00  0.00     0.178 C 
ATOM     16  C   UNL     1     -15.692 -20.733  12.965  1.00  0.00     0.177 C 
BRANCH  12  17
ATOM     17  O   UNL     1     -18.429 -18.749  11.901  1.00  0.00    -0.385 OA
ATOM     18  H   UNL     1     -18.392 -18.130  11.071  1.00  0.00     0.211 HD
ENDBRANCH  12  17
BRANCH  14  19
ATOM     19  O   UNL     1     -17.119 -19.697  14.629  1.00  0.00    -0.387 OA
ATOM     20  H   UNL     1     -17.912 -20.199  14.958  1.00  0.00     0.211 HD
ENDBRANCH  14  19
BRANCH  15  21
ATOM     21  C   UNL     1     -12.944 -20.292  13.946  1.00  0.00     0.191 C 
BRANCH  21  22
ATOM     22  O   UNL     1     -11.982 -20.109  12.823  1.00  0.00    -0.394 OA
ATOM     23  H   UNL     1     -12.856 -19.502  12.602  1.00  0.00     0.210 HD
ENDBRANCH  21  22
ENDBRANCH  15  21
BRANCH  16  24
ATOM     24  O   UNL     1     -15.639 -21.332  11.714  1.00  0.00    -0.387 OA
ATOM     25  H   UNL     1     -14.730 -21.737  11.670  1.00  0.00     0.211 HD
ENDBRANCH  16  24
ENDBRANCH  10  11
ENDBRANCH   4  10
BRANCH   6  26
ATOM     26  O   UNL     1     -11.776 -14.331   9.238  1.00  0.00    -0.346 OA
BRANCH  26  27
ATOM     27  C   UNL     1     -10.301 -14.897   8.941  1.00  0.00     0.130 C 
ATOM     28  C   UNL     1      -9.346 -16.196   7.927  1.00  0.00     0.033 C 
ATOM     29  C   UNL     1     -10.823 -13.436   8.046  1.00  0.00     0.020 C 
ATOM     30  C   UNL     1     -11.245 -15.588   6.534  1.00  0.00     0.010 C 
ATOM     31  C   UNL     1     -12.425 -13.289   7.109  1.00  0.00     0.006 C 
ATOM     32  C   UNL     1      -9.638 -13.271   7.039  1.00  0.00     0.017 C 
ATOM     33  C   UNL     1     -13.386 -14.392   6.219  1.00  0.00    -0.022 C 
ATOM     34  C   UNL     1     -12.193 -11.534   6.550  1.00  0.00     0.005 C 
ATOM     35  C   UNL     1     -14.532 -15.848   6.441  1.00  0.00     0.012 C 
ATOM     36  C   UNL     1     -15.141 -12.783   5.255  1.00  0.00     0.024 C 
ATOM     37  C   UNL     1     -13.567 -10.832   5.980  1.00  0.00     0.008 C 
ATOM     38  C   UNL     1     -14.457 -11.506   4.707  1.00  0.00    -0.017 C 
ATOM     39  C   UNL     1     -16.102 -11.985   6.212  1.00  0.00    -0.024 C 
ATOM     40  C   UNL     1     -13.254 -12.071   3.696  1.00  0.00     0.013 C 
ATOM     41  C   UNL     1     -15.748 -10.272   4.042  1.00  0.00     0.009 C 
ATOM     42  C   UNL     1     -16.984 -10.919   5.747  1.00  0.00     0.005 C 
ATOM     43  C   UNL     1     -17.427 -10.571   4.344  1.00  0.00     0.096 C 
ATOM     44  C   UNL     1     -15.944  -9.797   2.494  1.00  0.00     0.043 C 
ATOM     45  C   UNL     1     -15.208  -8.898   4.677  1.00  0.00     0.015 C 
ATOM     46  C   UNL     1     -18.418 -11.147   2.951  1.00  0.00     0.037 C 
ATOM     47  O   UNL     1     -18.424  -9.512   4.799  1.00  0.00    -0.369 OA
ATOM     48  C   UNL     1     -17.403  -8.989   2.182  1.00  0.00     0.124 C 
ATOM     49  C   UNL     1     -18.834  -9.719   2.478  1.00  0.00     0.026 C 
ATOM     50  C   UNL     1     -18.682 -12.167   1.578  1.00  0.00     0.014 C 
ATOM     51  C   UNL     1     -19.271  -9.109   3.739  1.00  0.00     0.171 C 
ATOM     52  C   UNL     1     -20.226  -9.555   1.551  1.00  0.00     0.013 C 
ATOM     53  C   UNL     1     -19.408 -11.587   0.181  1.00  0.00    -0.035 C 
ATOM     54  C   UNL     1     -20.654 -10.789   0.575  1.00  0.00     0.007 C 
ATOM     55  C   UNL     1     -19.747 -12.768  -0.889  1.00  0.00     0.011 C 
ATOM     56  C   UNL     1     -18.493 -10.633  -0.583  1.00  0.00     0.011 C 
BRANCH  29  57
ATOM     57  C   UNL     1     -10.842 -12.055   9.040  1.00  0.00     0.165 C 
BRANCH  57  58
ATOM     58  O   UNL     1      -9.768 -12.319   9.968  1.00  0.00    -0.396 OA
ATOM     59  H   UNL     1      -9.977 -11.923  10.878  1.00  0.00     0.210 HD
ENDBRANCH  57  58
ENDBRANCH  29  57
BRANCH  48  60
ATOM     60  O   UNL     1     -17.405  -7.931   1.263  1.00  0.00    -0.392 OA
ATOM     61  H   UNL     1     -18.114  -7.245   1.477  1.00  0.00     0.210 HD
ENDBRANCH  48  60
ENDBRANCH  26  27
ENDBRANCH   6  26
BRANCH   5  62
ATOM     62  O   UNL     1     -12.314 -17.579  11.296  1.00  0.00    -0.385 OA
ATOM     63  H   UNL     1     -11.764 -17.622  12.212  1.00  0.00     0.211 HD
ENDBRANCH   5  62
TORSDOF 14
ENDMDL
MODEL 2
REMARK VINA RESULT:    -7.679      3.422     11.681
REMARK INTER + INTRA:         -11.436
REMARK INTER:                 -10.638
REMARK INTRA:                  -0.798
REMARK UNBOUND:                -1.513
REMARK SMILES C[C@@H]1O[C@H](O[C@H]2CC[C@@]3(C)[C@H](CC[C@@]4(C)[C@@H]3C=C[C@]35OC[C@@]6(CCC(C)(C)C[C@H]63)[C@H](O)C[C@]45C)[C@@]2(C)CO)[C@@H](O)[C@@H](O[C@H]2O[C@H](CO)[C@H](O)[C@@H](O)[C@@H]2O)[C@@H]1O
REMARK SMILES IDX 1 1 2 2 54 3 41 4 39 5 4 6 3 7 55 8 42 10 43 11 52 12 44 13
REMARK SMILES IDX 50 14 45 15 48 16 53 17 51 19 46 21 47 22 49 24 5 26 6 27
REMARK SMILES IDX 7 28 35 29 8 30 11 31 36 32 9 33 12 34 10 35 16 36 13 37
REMARK SMILES IDX 14 38 17 39 15 40 33 41 18 42 19 43 32 44 34 45 29 46 20 47
REMARK SMILES IDX 30 48 22 49 28 50 21 51 23 52 25 53 24 54 26 55 27 56 37 57
REMARK SMILES IDX 38 58 31 60 40 62
REMARK H PARENT 55 9 53 18 51 20 47 23 49 25 38 59 31 61 40 63
REMARK Flexibility Score: inf
ROOT
ATOM      1  C   UNL     1     -13.915  -4.875   5.675  1.00  0.00     0.041 C 
ATOM      2  C   UNL     1     -13.897  -5.584   7.222  1.00  0.00     0.150 C 
ATOM      3  C   UNL     1     -15.024  -6.521   7.321  1.00  0.00     0.175 C 
ATOM      4  C   UNL     1     -14.631  -8.214   7.481  1.00  0.00     0.186 C 
ATOM      5  C   UNL     1     -14.543  -7.977   9.156  1.00  0.00     0.202 C 
ATOM      6  C   UNL     1     -13.259  -6.954   9.395  1.00  0.00     0.282 C 
ATOM      7  O   UNL     1     -12.914  -6.226   8.064  1.00  0.00    -0.344 OA
ENDROOT
BRANCH   3   8
ATOM      8  O   UNL     1     -16.228  -6.107   6.705  1.00  0.00    -0.388 OA
ATOM      9  H   UNL     1     -16.130  -5.127   6.436  1.00  0.00     0.211 HD
ENDBRANCH   3   8
BRANCH   4  10
ATOM     10  O   UNL     1     -16.060  -8.497   6.949  1.00  0.00    -0.341 OA
BRANCH  10  11
ATOM     11  C   UNL     1     -16.554  -9.440   5.931  1.00  0.00     0.282 C 
ATOM     12  C   UNL     1     -16.714  -8.592   4.417  1.00  0.00     0.202 C 
ATOM     13  O   UNL     1     -17.963  -9.633   6.440  1.00  0.00    -0.341 OA
ATOM     14  C   UNL     1     -18.213  -8.463   3.861  1.00  0.00     0.179 C 
ATOM     15  C   UNL     1     -19.132  -8.491   6.212  1.00  0.00     0.178 C 
ATOM     16  C   UNL     1     -19.313  -9.126   4.702  1.00  0.00     0.177 C 
BRANCH  12  17
ATOM     17  O   UNL     1     -16.054  -9.128   3.308  1.00  0.00    -0.385 OA
ATOM     18  H   UNL     1     -15.234  -9.603   3.727  1.00  0.00     0.211 HD
ENDBRANCH  12  17
BRANCH  14  19
ATOM     19  O   UNL     1     -18.466  -7.102   3.671  1.00  0.00    -0.387 OA
ATOM     20  H   UNL     1     -19.232  -6.851   4.253  1.00  0.00     0.211 HD
ENDBRANCH  14  19
BRANCH  15  21
ATOM     21  C   UNL     1     -20.607  -8.222   7.195  1.00  0.00     0.191 C 
BRANCH  21  22
ATOM     22  O   UNL     1     -20.161  -8.578   8.570  1.00  0.00    -0.394 OA
ATOM     23  H   UNL     1     -21.247  -8.551   8.581  1.00  0.00     0.210 HD
ENDBRANCH  21  22
ENDBRANCH  15  21
BRANCH  16  24
ATOM     24  O   UNL     1     -19.334 -10.513   4.654  1.00  0.00    -0.387 OA
ATOM     25  H   UNL     1     -18.643 -10.750   3.975  1.00  0.00     0.211 HD
ENDBRANCH  16  24
ENDBRANCH  10  11
ENDBRANCH   4  10
BRANCH   6  26
ATOM     26  O   UNL     1     -11.894  -7.873   9.827  1.00  0.00    -0.346 OA
BRANCH  26  27
ATOM     27  C   UNL     1     -11.309  -6.697  10.755  1.00  0.00     0.130 C 
ATOM     28  C   UNL     1     -11.575  -5.790  12.407  1.00  0.00     0.033 C 
ATOM     29  C   UNL     1     -10.526  -8.304  10.861  1.00  0.00     0.020 C 
ATOM     30  C   UNL     1     -12.317  -8.070  12.819  1.00  0.00     0.010 C 
ATOM     31  C   UNL     1     -11.436  -9.906  11.128  1.00  0.00     0.006 C 
ATOM     32  C   UNL     1      -9.554  -8.076  12.065  1.00  0.00     0.017 C 
ATOM     33  C   UNL     1     -12.845 -10.341  11.997  1.00  0.00    -0.022 C 
ATOM     34  C   UNL     1      -9.948 -11.016  11.074  1.00  0.00     0.005 C 
ATOM     35  C   UNL     1     -14.704 -10.175  11.953  1.00  0.00     0.012 C 
ATOM     36  C   UNL     1     -12.774 -12.894  11.722  1.00  0.00     0.024 C 
ATOM     37  C   UNL     1     -10.316 -12.609  10.894  1.00  0.00     0.008 C 
ATOM     38  C   UNL     1     -11.339 -13.422  11.971  1.00  0.00    -0.017 C 
ATOM     39  C   UNL     1     -12.880 -13.546  10.295  1.00  0.00    -0.024 C 
ATOM     40  C   UNL     1     -10.895 -12.766  13.441  1.00  0.00     0.013 C 
ATOM     41  C   UNL     1     -11.250 -15.308  11.713  1.00  0.00     0.009 C 
ATOM     42  C   UNL     1     -12.653 -14.967  10.049  1.00  0.00     0.005 C 
ATOM     43  C   UNL     1     -12.613 -16.123  11.021  1.00  0.00     0.096 C 
ATOM     44  C   UNL     1     -10.943 -16.439  12.846  1.00  0.00     0.043 C 
ATOM     45  C   UNL     1      -9.907 -15.431  10.840  1.00  0.00     0.015 C 
ATOM     46  C   UNL     1     -13.624 -17.116  12.137  1.00  0.00     0.037 C 
ATOM     47  O   UNL     1     -12.521 -17.185   9.931  1.00  0.00    -0.369 OA
ATOM     48  C   UNL     1     -11.303 -18.029  12.374  1.00  0.00     0.124 C 
ATOM     49  C   UNL     1     -12.817 -18.435  11.918  1.00  0.00     0.026 C 
ATOM     50  C   UNL     1     -14.479 -17.357  13.623  1.00  0.00     0.014 C 
ATOM     51  C   UNL     1     -12.729 -18.483  10.454  1.00  0.00     0.171 C 
ATOM     52  C   UNL     1     -13.575 -19.901  12.236  1.00  0.00     0.013 C 
ATOM     53  C   UNL     1     -14.456 -18.835  14.418  1.00  0.00    -0.035 C 
ATOM     54  C   UNL     1     -14.721 -19.942  13.395  1.00  0.00     0.007 C 
ATOM     55  C   UNL     1     -15.498 -18.890  15.670  1.00  0.00     0.011 C 
ATOM     56  C   UNL     1     -13.094 -19.123  15.043  1.00  0.00     0.011 C 
BRANCH  29  57
ATOM     57  C   UNL     1      -9.571  -8.639   9.493  1.00  0.00     0.165 C 
BRANCH  57  58
ATOM     58  O   UNL     1      -8.981  -7.354   9.199  1.00  0.00    -0.396 OA
ATOM     59  H   UNL     1      -8.191  -7.460   8.572  1.00  0.00     0.210 HD
ENDBRANCH  57  58
ENDBRANCH  29  57
BRANCH  48  60
ATOM     60  O   UNL     1     -10.468 -19.067  12.809  1.00  0.00    -0.392 OA
ATOM     61  H   UNL     1     -10.214 -18.967  13.780  1.00  0.00     0.210 HD
ENDBRANCH  48  60
ENDBRANCH  26  27
ENDBRANCH   6  26
BRANCH   5  62
ATOM     62  O   UNL     1     -15.753  -7.448   9.837  1.00  0.00    -0.385 OA
ATOM     63  H   UNL     1     -16.356  -7.951  10.563  1.00  0.00     0.211 HD
ENDBRANCH   5  62
TORSDOF 14
ENDMDL
MODEL 3
REMARK VINA RESULT:    -7.673      4.535      6.211
REMARK INTER + INTRA:         -11.429
REMARK INTER:                  -9.924
REMARK INTRA:                  -1.505
REMARK UNBOUND:                -1.513
REMARK SMILES C[C@@H]1O[C@H](O[C@H]2CC[C@@]3(C)[C@H](CC[C@@]4(C)[C@@H]3C=C[C@]35OC[C@@]6(CCC(C)(C)C[C@H]63)[C@H](O)C[C@]45C)[C@@]2(C)CO)[C@@H](O)[C@@H](O[C@H]2O[C@H](CO)[C@H](O)[C@@H](O)[C@@H]2O)[C@@H]1O
REMARK SMILES IDX 1 1 2 2 54 3 41 4 39 5 4 6 3 7 55 8 42 10 43 11 52 12 44 13
REMARK SMILES IDX 50 14 45 15 48 16 53 17 51 19 46 21 47 22 49 24 5 26 6 27
REMARK SMILES IDX 7 28 35 29 8 30 11 31 36 32 9 33 12 34 10 35 16 36 13 37
REMARK SMILES IDX 14 38 17 39 15 40 33 41 18 42 19 43 32 44 34 45 29 46 20 47
REMARK SMILES IDX 30 48 22 49 28 50 21 51 23 52 25 53 24 54 26 55 27 56 37 57
REMARK SMILES IDX 38 58 31 60 40 62
REMARK H PARENT 55 9 53 18 51 20 47 23 49 25 38 59 31 61 40 63
REMARK Flexibility Score: inf
ROOT
ATOM      1  C   UNL     1     -11.749 -19.105  17.018  1.00  0.00     0.041 C 
ATOM      2  C   UNL     1     -11.180 -18.826  15.439  1.00  0.00     0.150 C 
ATOM      3  C   UNL     1     -12.260 -19.132  14.491  1.00  0.00     0.175 C 
ATOM      4  C   UNL     1     -12.906 -17.796  13.573  1.00  0.00     0.186 C 
ATOM      5  C   UNL     1     -11.684 -18.063  12.431  1.00  0.00     0.202 C 
ATOM      6  C   UNL     1     -10.261 -17.726  13.214  1.00  0.00     0.282 C 
ATOM      7  O   UNL     1     -10.489 -17.759  14.753  1.00  0.00    -0.344 OA
ENDROOT
BRANCH   3   8
ATOM      8  O   UNL     1     -13.060 -20.254  14.808  1.00  0.00    -0.388 OA
ATOM      9  H   UNL     1     -12.537 -21.098  14.571  1.00  0.00     0.211 HD
ENDBRANCH   3   8
BRANCH   4  10
ATOM     10  O   UNL     1     -14.171 -18.671  13.373  1.00  0.00    -0.341 OA
BRANCH  10  11
ATOM     11  C   UNL     1     -15.023 -18.902  12.194  1.00  0.00     0.282 C 
ATOM     12  C   UNL     1     -16.518 -19.626  12.720  1.00  0.00     0.202 C 
ATOM     13  O   UNL     1     -14.240 -20.015  11.540  1.00  0.00    -0.341 OA
ATOM     14  C   UNL     1     -16.777 -21.119  12.194  1.00  0.00     0.179 C 
ATOM     15  C   UNL     1     -14.294 -21.564  12.109  1.00  0.00     0.178 C 
ATOM     16  C   UNL     1     -15.704 -21.712  11.270  1.00  0.00     0.177 C 
BRANCH  12  17
ATOM     17  O   UNL     1     -17.705 -18.992  12.345  1.00  0.00    -0.385 OA
ATOM     18  H   UNL     1     -17.375 -18.134  11.866  1.00  0.00     0.211 HD
ENDBRANCH  12  17
BRANCH  14  19
ATOM     19  O   UNL     1     -16.983 -21.922  13.319  1.00  0.00    -0.387 OA
ATOM     20  H   UNL     1     -17.108 -22.858  13.005  1.00  0.00     0.211 HD
ENDBRANCH  14  19
BRANCH  15  21
ATOM     21  C   UNL     1     -13.057 -22.846  11.911  1.00  0.00     0.191 C 
BRANCH  21  22
ATOM     22  O   UNL     1     -11.965 -22.400  12.821  1.00  0.00    -0.394 OA
ATOM     23  H   UNL     1     -11.562 -23.196  12.201  1.00  0.00     0.210 HD
ENDBRANCH  21  22
ENDBRANCH  15  21
BRANCH  16  24
ATOM     24  O   UNL     1     -15.676 -21.185   9.986  1.00  0.00    -0.387 OA
ATOM     25  H   UNL     1     -15.458 -20.221  10.118  1.00  0.00     0.211 HD
ENDBRANCH  16  24
ENDBRANCH  10  11
ENDBRANCH   4  10
BRANCH   6  26
ATOM     26  O   UNL     1      -9.773 -16.145  12.818  1.00  0.00    -0.346 OA
BRANCH  26  27
ATOM     27  C   UNL     1      -8.241 -16.592  12.622  1.00  0.00     0.130 C 
ATOM     28  C   UNL     1      -6.930 -16.986  11.299  1.00  0.00     0.033 C 
ATOM     29  C   UNL     1      -8.568 -14.854  12.906  1.00  0.00     0.020 C 
ATOM     30  C   UNL     1      -8.347 -15.289  10.287  1.00  0.00     0.010 C 
ATOM     31  C   UNL     1      -9.811 -13.845  11.955  1.00  0.00     0.006 C 
ATOM     32  C   UNL     1      -7.146 -14.247  12.670  1.00  0.00     0.017 C 
ATOM     33  C   UNL     1     -10.369 -13.866  10.337  1.00  0.00    -0.022 C 
ATOM     34  C   UNL     1      -9.546 -12.251  12.870  1.00  0.00     0.005 C 
ATOM     35  C   UNL     1     -11.419 -14.865   9.161  1.00  0.00     0.012 C 
ATOM     36  C   UNL     1     -11.855 -11.770  10.347  1.00  0.00     0.024 C 
ATOM     37  C   UNL     1     -10.725 -11.134  12.611  1.00  0.00     0.008 C 
ATOM     38  C   UNL     1     -11.130 -10.600  11.056  1.00  0.00    -0.017 C 
ATOM     39  C   UNL     1     -13.118 -11.693  11.281  1.00  0.00    -0.024 C 
ATOM     40  C   UNL     1      -9.637 -10.514  10.314  1.00  0.00     0.013 C 
ATOM     41  C   UNL     1     -12.240  -9.052  11.128  1.00  0.00     0.009 C 
ATOM     42  C   UNL     1     -13.889 -10.470  11.479  1.00  0.00     0.005 C 
ATOM     43  C   UNL     1     -13.904  -9.193  10.670  1.00  0.00     0.096 C 
ATOM     44  C   UNL     1     -11.984  -7.627  10.378  1.00  0.00     0.043 C 
ATOM     45  C   UNL     1     -12.022  -8.595  12.653  1.00  0.00     0.015 C 
ATOM     46  C   UNL     1     -14.375  -8.490   9.077  1.00  0.00     0.037 C 
ATOM     47  O   UNL     1     -15.067  -8.581  11.443  1.00  0.00    -0.369 OA
ATOM     48  C   UNL     1     -13.332  -6.596  10.342  1.00  0.00     0.124 C 
ATOM     49  C   UNL     1     -14.728  -7.080   9.646  1.00  0.00     0.026 C 
ATOM     50  C   UNL     1     -14.129  -8.239   7.382  1.00  0.00     0.014 C 
ATOM     51  C   UNL     1     -15.574  -7.432  10.792  1.00  0.00     0.171 C 
ATOM     52  C   UNL     1     -15.776  -6.101   8.771  1.00  0.00     0.013 C 
ATOM     53  C   UNL     1     -14.432  -6.752   6.663  1.00  0.00    -0.035 C 
ATOM     54  C   UNL     1     -15.792  -6.245   7.147  1.00  0.00     0.007 C 
ATOM     55  C   UNL     1     -14.339  -6.810   5.037  1.00  0.00     0.011 C 
ATOM     56  C   UNL     1     -13.397  -5.704   7.066  1.00  0.00     0.011 C 
BRANCH  29  57
ATOM     57  C   UNL     1      -8.992 -14.543  14.524  1.00  0.00     0.165 C 
BRANCH  57  58
ATOM     58  O   UNL     1      -8.378 -15.644  15.228  1.00  0.00    -0.396 OA
ATOM     59  H   UNL     1      -8.546 -16.517  14.740  1.00  0.00     0.210 HD
ENDBRANCH  57  58
ENDBRANCH  29  57
BRANCH  48  60
ATOM     60  O   UNL     1     -13.128  -5.215  10.469  1.00  0.00    -0.392 OA
ATOM     61  H   UNL     1     -12.160  -4.990  10.639  1.00  0.00     0.210 HD
ENDBRANCH  48  60
ENDBRANCH  26  27
ENDBRANCH   6  26
BRANCH   5  62
ATOM     62  O   UNL     1     -11.616 -19.408  11.802  1.00  0.00    -0.385 OA
ATOM     63  H   UNL     1     -10.970 -20.215  12.075  1.00  0.00     0.211 HD
ENDBRANCH   5  62
TORSDOF 14
ENDMDL
MODEL 4
REMARK VINA RESULT:    -7.428      3.378     11.344
REMARK INTER + INTRA:         -11.113
REMARK INTER:                  -9.698
REMARK INTRA:                  -1.414
REMARK UNBOUND:                -1.513
REMARK SMILES C[C@@H]1O[C@H](O[C@H]2CC[C@@]3(C)[C@H](CC[C@@]4(C)[C@@H]3C=C[C@]35OC[C@@]6(CCC(C)(C)C[C@H]63)[C@H](O)C[C@]45C)[C@@]2(C)CO)[C@@H](O)[C@@H](O[C@H]2O[C@H](CO)[C@H](O)[C@@H](O)[C@@H]2O)[C@@H]1O
REMARK SMILES IDX 1 1 2 2 54 3 41 4 39 5 4 6 3 7 55 8 42 10 43 11 52 12 44 13
REMARK SMILES IDX 50 14 45 15 48 16 53 17 51 19 46 21 47 22 49 24 5 26 6 27
REMARK SMILES IDX 7 28 35 29 8 30 11 31 36 32 9 33 12 34 10 35 16 36 13 37
REMARK SMILES IDX 14 38 17 39 15 40 33 41 18 42 19 43 32 44 34 45 29 46 20 47
REMARK SMILES IDX 30 48 22 49 28 50 21 51 23 52 25 53 24 54 26 55 27 56 37 57
REMARK SMILES IDX 38 58 31 60 40 62
REMARK H PARENT 55 9 53 18 51 20 47 23 49 25 38 59 31 61 40 63
REMARK Flexibility Score: inf
ROOT
ATOM      1  C   UNL     1     -18.538  -7.506   5.513  1.00  0.00     0.041 C 
ATOM      2  C   UNL     1     -17.002  -8.237   5.483  1.00  0.00     0.150 C 
ATOM      3  C   UNL     1     -16.194  -7.674   6.573  1.00  0.00     0.175 C 
ATOM      4  C   UNL     1     -15.740  -8.762   7.862  1.00  0.00     0.186 C 
ATOM      5  C   UNL     1     -14.386  -9.197   6.941  1.00  0.00     0.202 C 
ATOM      6  C   UNL     1     -14.988  -9.952   5.592  1.00  0.00     0.282 C 
ATOM      7  O   UNL     1     -16.490  -9.587   5.413  1.00  0.00    -0.344 OA
ENDROOT
BRANCH   3   8
ATOM      8  O   UNL     1     -16.355  -6.290   6.811  1.00  0.00    -0.388 OA
ATOM      9  H   UNL     1     -15.735  -5.782   6.179  1.00  0.00     0.211 HD
ENDBRANCH   3   8
BRANCH   4  10
ATOM     10  O   UNL     1     -15.541  -7.493   8.732  1.00  0.00    -0.341 OA
BRANCH  10  11
ATOM     11  C   UNL     1     -15.690  -7.269  10.180  1.00  0.00     0.282 C 
ATOM     12  C   UNL     1     -14.597  -6.000  10.662  1.00  0.00     0.202 C 
ATOM     13  O   UNL     1     -15.076  -8.550  10.690  1.00  0.00    -0.341 OA
ATOM     14  C   UNL     1     -13.433  -6.447  11.670  1.00  0.00     0.179 C 
ATOM     15  C   UNL     1     -13.443  -8.782  10.710  1.00  0.00     0.178 C 
ATOM     16  C   UNL     1     -13.441  -7.917  12.113  1.00  0.00     0.177 C 
BRANCH  12  17
ATOM     17  O   UNL     1     -15.142  -4.906  11.339  1.00  0.00    -0.385 OA
ATOM     18  H   UNL     1     -15.831  -4.528  10.664  1.00  0.00     0.211 HD
ENDBRANCH  12  17
BRANCH  14  19
ATOM     19  O   UNL     1     -12.216  -6.100  11.075  1.00  0.00    -0.387 OA
ATOM     20  H   UNL     1     -11.842  -6.918  10.650  1.00  0.00     0.211 HD
ENDBRANCH  14  19
BRANCH  15  21
ATOM     21  C   UNL     1     -12.558 -10.341  10.680  1.00  0.00     0.191 C 
BRANCH  21  22
ATOM     22  O   UNL     1     -13.624 -11.336  10.984  1.00  0.00    -0.394 OA
ATOM     23  H   UNL     1     -14.115 -10.438  10.620  1.00  0.00     0.210 HD
ENDBRANCH  21  22
ENDBRANCH  15  21
BRANCH  16  24
ATOM     24  O   UNL     1     -14.448  -8.256  13.007  1.00  0.00    -0.387 OA
ATOM     25  H   UNL     1     -14.272  -9.212  13.228  1.00  0.00     0.211 HD
ENDBRANCH  16  24
ENDBRANCH  10  11
ENDBRANCH   4  10
BRANCH   6  26
ATOM     26  O   UNL     1     -14.911 -11.636   5.822  1.00  0.00    -0.346 OA
BRANCH  26  27
ATOM     27  C   UNL     1     -14.567 -11.902   4.274  1.00  0.00     0.130 C 
ATOM     28  C   UNL     1     -13.164 -12.420   3.096  1.00  0.00     0.033 C 
ATOM     29  C   UNL     1     -15.351 -13.228   5.188  1.00  0.00     0.020 C 
ATOM     30  C   UNL     1     -12.716 -13.617   5.165  1.00  0.00     0.010 C 
ATOM     31  C   UNL     1     -14.758 -13.871   6.831  1.00  0.00     0.006 C 
ATOM     32  C   UNL     1     -15.278 -14.387   4.141  1.00  0.00     0.017 C 
ATOM     33  C   UNL     1     -13.214 -14.055   7.548  1.00  0.00    -0.022 C 
ATOM     34  C   UNL     1     -16.094 -15.140   7.065  1.00  0.00     0.005 C 
ATOM     35  C   UNL     1     -11.817 -13.066   8.291  1.00  0.00     0.012 C 
ATOM     36  C   UNL     1     -13.861 -15.307   9.696  1.00  0.00     0.024 C 
ATOM     37  C   UNL     1     -16.192 -15.723   8.600  1.00  0.00     0.008 C 
ATOM     38  C   UNL     1     -14.868 -16.439   9.376  1.00  0.00    -0.017 C 
ATOM     39  C   UNL     1     -14.798 -14.629  10.762  1.00  0.00    -0.024 C 
ATOM     40  C   UNL     1     -14.157 -17.301   8.135  1.00  0.00     0.013 C 
ATOM     41  C   UNL     1     -15.408 -17.342  10.964  1.00  0.00     0.009 C 
ATOM     42  C   UNL     1     -15.358 -15.349  11.902  1.00  0.00     0.005 C 
ATOM     43  C   UNL     1     -14.957 -16.678  12.500  1.00  0.00     0.096 C 
ATOM     44  C   UNL     1     -15.101 -18.894  11.362  1.00  0.00     0.043 C 
ATOM     45  C   UNL     1     -16.996 -17.433  10.736  1.00  0.00     0.015 C 
ATOM     46  C   UNL     1     -13.647 -17.527  13.404  1.00  0.00     0.037 C 
ATOM     47  O   UNL     1     -15.895 -16.553  13.695  1.00  0.00    -0.369 OA
ATOM     48  C   UNL     1     -15.392 -19.276  12.990  1.00  0.00     0.124 C 
ATOM     49  C   UNL     1     -14.609 -18.479  14.181  1.00  0.00     0.026 C 
ATOM     50  C   UNL     1     -12.095 -18.288  13.494  1.00  0.00     0.014 C 
ATOM     51  C   UNL     1     -15.617 -17.534  14.676  1.00  0.00     0.171 C 
ATOM     52  C   UNL     1     -14.076 -19.154  15.625  1.00  0.00     0.013 C 
ATOM     53  C   UNL     1     -11.846 -19.664  14.423  1.00  0.00    -0.035 C 
ATOM     54  C   UNL     1     -12.481 -19.444  15.798  1.00  0.00     0.007 C 
ATOM     55  C   UNL     1     -10.273 -20.075  14.529  1.00  0.00     0.011 C 
ATOM     56  C   UNL     1     -12.520 -20.891  13.813  1.00  0.00     0.011 C 
BRANCH  29  57
ATOM     57  C   UNL     1     -16.997 -12.911   5.481  1.00  0.00     0.165 C 
BRANCH  57  58
ATOM     58  O   UNL     1     -17.389 -12.167   4.307  1.00  0.00    -0.396 OA
ATOM     59  H   UNL     1     -17.712 -12.795   3.579  1.00  0.00     0.210 HD
ENDBRANCH  57  58
ENDBRANCH  29  57
BRANCH  48  60
ATOM     60  O   UNL     1     -15.912 -20.539  13.304  1.00  0.00    -0.392 OA
ATOM     61  H   UNL     1     -16.921 -20.541  13.312  1.00  0.00     0.210 HD
ENDBRANCH  48  60
ENDBRANCH  26  27
ENDBRANCH   6  26
BRANCH   5  62
ATOM     62  O   UNL     1     -13.450  -8.113   6.545  1.00  0.00    -0.385 OA
ATOM     63  H   UNL     1     -13.030  -7.360   7.179  1.00  0.00     0.211 HD
ENDBRANCH   5  62
TORSDOF 14
ENDMDL
MODEL 5
REMARK VINA RESULT:    -7.402      4.653      6.926
REMARK INTER + INTRA:         -11.078
REMARK INTER:                 -10.418
REMARK INTRA:                  -0.660
REMARK UNBOUND:                -1.513
REMARK SMILES C[C@@H]1O[C@H](O[C@H]2CC[C@@]3(C)[C@H](CC[C@@]4(C)[C@@H]3C=C[C@]35OC[C@@]6(CCC(C)(C)C[C@H]63)[C@H](O)C[C@]45C)[C@@]2(C)CO)[C@@H](O)[C@@H](O[C@H]2O[C@H](CO)[C@H](O)[C@@H](O)[C@@H]2O)[C@@H]1O
REMARK SMILES IDX 1 1 2 2 54 3 41 4 39 5 4 6 3 7 55 8 42 10 43 11 52 12 44 13
REMARK SMILES IDX 50 14 45 15 48 16 53 17 51 19 46 21 47 22 49 24 5 26 6 27
REMARK SMILES IDX 7 28 35 29 8 30 11 31 36 32 9 33 12 34 10 35 16 36 13 37
REMARK SMILES IDX 14 38 17 39 15 40 33 41 18 42 19 43 32 44 34 45 29 46 20 47
REMARK SMILES IDX 30 48 22 49 28 50 21 51 23 52 25 53 24 54 26 55 27 56 37 57
REMARK SMILES IDX 38 58 31 60 40 62
REMARK H PARENT 55 9 53 18 51 20 47 23 49 25 38 59 31 61 40 63
REMARK Flexibility Score: inf
ROOT
ATOM      1  C   UNL     1     -12.061 -25.031   7.300  1.00  0.00     0.041 C 
ATOM      2  C   UNL     1     -13.465 -24.265   6.719  1.00  0.00     0.150 C 
ATOM      3  C   UNL     1     -14.055 -23.479   7.811  1.00  0.00     0.175 C 
ATOM      4  C   UNL     1     -14.065 -21.744   7.618  1.00  0.00     0.186 C 
ATOM      5  C   UNL     1     -15.536 -21.900   6.794  1.00  0.00     0.202 C 
ATOM      6  C   UNL     1     -15.183 -22.738   5.405  1.00  0.00     0.282 C 
ATOM      7  O   UNL     1     -13.817 -23.467   5.567  1.00  0.00    -0.344 OA
ENDROOT
BRANCH   3   8
ATOM      8  O   UNL     1     -14.006 -24.070   9.095  1.00  0.00    -0.388 OA
ATOM      9  H   UNL     1     -13.698 -25.037   8.991  1.00  0.00     0.211 HD
ENDBRANCH   3   8
BRANCH   4  10
ATOM     10  O   UNL     1     -14.202 -21.671   9.162  1.00  0.00    -0.341 OA
BRANCH  10  11
ATOM     11  C   UNL     1     -13.713 -20.684  10.140  1.00  0.00     0.282 C 
ATOM     12  C   UNL     1     -12.605 -21.478  11.226  1.00  0.00     0.202 C 
ATOM     13  O   UNL     1     -14.981 -20.476  10.933  1.00  0.00    -0.341 OA
ATOM     14  C   UNL     1     -13.084 -21.555  12.755  1.00  0.00     0.179 C 
ATOM     15  C   UNL     1     -15.504 -21.583  12.039  1.00  0.00     0.178 C 
ATOM     16  C   UNL     1     -14.430 -20.894  13.082  1.00  0.00     0.177 C 
BRANCH  12  17
ATOM     17  O   UNL     1     -11.331 -20.921  11.364  1.00  0.00    -0.385 OA
ATOM     18  H   UNL     1     -11.277 -20.701  12.375  1.00  0.00     0.211 HD
ENDBRANCH  12  17
BRANCH  14  19
ATOM     19  O   UNL     1     -13.073 -22.903  13.123  1.00  0.00    -0.387 OA
ATOM     20  H   UNL     1     -14.013 -23.228  13.112  1.00  0.00     0.211 HD
ENDBRANCH  14  19
BRANCH  15  21
ATOM     21  C   UNL     1     -17.182 -21.850  12.611  1.00  0.00     0.191 C 
BRANCH  21  22
ATOM     22  O   UNL     1     -17.968 -21.861  11.346  1.00  0.00    -0.394 OA
ATOM     23  H   UNL     1     -17.041 -22.394  11.154  1.00  0.00     0.210 HD
ENDBRANCH  21  22
ENDBRANCH  15  21
BRANCH  16  24
ATOM     24  O   UNL     1     -14.422 -19.506  13.076  1.00  0.00    -0.387 OA
ATOM     25  H   UNL     1     -13.517 -19.261  13.414  1.00  0.00     0.211 HD
ENDBRANCH  16  24
ENDBRANCH  10  11
ENDBRANCH   4  10
BRANCH   6  26
ATOM     26  O   UNL     1     -15.006 -21.633   4.124  1.00  0.00    -0.346 OA
BRANCH  26  27
ATOM     27  C   UNL     1     -15.039 -22.801   3.020  1.00  0.00     0.130 C 
ATOM     28  C   UNL     1     -16.179 -23.691   1.782  1.00  0.00     0.033 C 
ATOM     29  C   UNL     1     -14.431 -21.196   2.510  1.00  0.00     0.020 C 
ATOM     30  C   UNL     1     -17.006 -21.405   1.861  1.00  0.00     0.010 C 
ATOM     31  C   UNL     1     -15.324 -19.588   2.799  1.00  0.00     0.006 C 
ATOM     32  C   UNL     1     -14.284 -21.416   0.968  1.00  0.00     0.017 C 
ATOM     33  C   UNL     1     -16.975 -19.140   2.853  1.00  0.00    -0.022 C 
ATOM     34  C   UNL     1     -14.043 -18.484   2.031  1.00  0.00     0.005 C 
ATOM     35  C   UNL     1     -18.503 -19.300   3.912  1.00  0.00     0.012 C 
ATOM     36  C   UNL     1     -16.743 -16.590   3.058  1.00  0.00     0.024 C 
ATOM     37  C   UNL     1     -14.238 -16.892   2.394  1.00  0.00     0.008 C 
ATOM     38  C   UNL     1     -15.678 -16.065   2.064  1.00  0.00    -0.017 C 
ATOM     39  C   UNL     1     -16.040 -15.952   4.313  1.00  0.00    -0.024 C 
ATOM     40  C   UNL     1     -16.123 -16.708   0.589  1.00  0.00     0.013 C 
ATOM     41  C   UNL     1     -15.446 -14.182   2.243  1.00  0.00     0.009 C 
ATOM     42  C   UNL     1     -15.703 -14.535   4.402  1.00  0.00     0.005 C 
ATOM     43  C   UNL     1     -16.195 -13.368   3.576  1.00  0.00     0.096 C 
ATOM     44  C   UNL     1     -15.804 -13.041   1.134  1.00  0.00     0.043 C 
ATOM     45  C   UNL     1     -13.843 -14.072   2.232  1.00  0.00     0.015 C 
ATOM     46  C   UNL     1     -17.646 -12.361   3.208  1.00  0.00     0.037 C 
ATOM     47  O   UNL     1     -15.510 -12.318   4.442  1.00  0.00    -0.369 OA
ATOM     48  C   UNL     1     -15.831 -11.455   1.737  1.00  0.00     0.124 C 
ATOM     49  C   UNL     1     -16.841 -11.048   2.954  1.00  0.00     0.026 C 
ATOM     50  C   UNL     1     -19.175 -12.103   2.440  1.00  0.00     0.014 C 
ATOM     51  C   UNL     1     -15.961 -11.014   4.128  1.00  0.00     0.171 C 
ATOM     52  C   UNL     1     -17.636  -9.576   3.116  1.00  0.00     0.013 C 
ATOM     53  C   UNL     1     -19.582 -10.617   1.773  1.00  0.00    -0.035 C 
ATOM     54  C   UNL     1     -19.230  -9.519   2.779  1.00  0.00     0.007 C 
ATOM     55  C   UNL     1     -21.140 -10.546   1.302  1.00  0.00     0.011 C 
ATOM     56  C   UNL     1     -18.787 -10.327   0.502  1.00  0.00     0.011 C 
BRANCH  29  57
ATOM     57  C   UNL     1     -12.878 -20.879   3.128  1.00  0.00     0.165 C 
BRANCH  57  58
ATOM     58  O   UNL     1     -12.331 -22.204   3.302  1.00  0.00    -0.396 OA
ATOM     59  H   UNL     1     -13.070 -22.873   3.487  1.00  0.00     0.210 HD
ENDBRANCH  57  58
ENDBRANCH  29  57
BRANCH  48  60
ATOM     60  O   UNL     1     -15.365 -10.415   0.921  1.00  0.00    -0.392 OA
ATOM     61  H   UNL     1     -16.030  -9.659   0.855  1.00  0.00     0.210 HD
ENDBRANCH  48  60
ENDBRANCH  26  27
ENDBRANCH   6  26
BRANCH   5  62
ATOM     62  O   UNL     1     -16.659 -22.555   7.514  1.00  0.00    -0.385 OA
ATOM     63  H   UNL     1     -17.541 -22.979   7.082  1.00  0.00     0.211 HD
ENDBRANCH   5  62
TORSDOF 14
ENDMDL
MODEL 6
REMARK VINA RESULT:    -7.161      4.530      6.785
REMARK INTER + INTRA:         -10.767
REMARK INTER:                  -9.827
REMARK INTRA:                  -0.940
REMARK UNBOUND:                -1.513
REMARK SMILES C[C@@H]1O[C@H](O[C@H]2CC[C@@]3(C)[C@H](CC[C@@]4(C)[C@@H]3C=C[C@]35OC[C@@]6(CCC(C)(C)C[C@H]63)[C@H](O)C[C@]45C)[C@@]2(C)CO)[C@@H](O)[C@@H](O[C@H]2O[C@H](CO)[C@H](O)[C@@H](O)[C@@H]2O)[C@@H]1O
REMARK SMILES IDX 1 1 2 2 54 3 41 4 39 5 4 6 3 7 55 8 42 10 43 11 52 12 44 13
REMARK SMILES IDX 50 14 45 15 48 16 53 17 51 19 46 21 47 22 49 24 5 26 6 27
REMARK SMILES IDX 7 28 35 29 8 30 11 31 36 32 9 33 12 34 10 35 16 36 13 37
REMARK SMILES IDX 14 38 17 39 15 40 33 41 18 42 19 43 32 44 34 45 29 46 20 47
REMARK SMILES IDX 30 48 22 49 28 50 21 51 23 52 25 53 24 54 26 55 27 56 37 57
REMARK SMILES IDX 38 58 31 60 40 62
REMARK H PARENT 55 9 53 18 51 20 47 23 49 25 38 59 31 61 40 63
REMARK Flexibility Score: inf
ROOT
ATOM      1  C   UNL     1     -11.405 -24.055   9.967  1.00  0.00     0.041 C 
ATOM      2  C   UNL     1     -12.898 -23.640   9.265  1.00  0.00     0.150 C 
ATOM      3  C   UNL     1     -13.491 -22.542  10.041  1.00  0.00     0.175 C 
ATOM      4  C   UNL     1     -13.657 -21.004   9.232  1.00  0.00     0.186 C 
ATOM      5  C   UNL     1     -15.153 -21.538   8.644  1.00  0.00     0.202 C 
ATOM      6  C   UNL     1     -14.808 -22.806   7.632  1.00  0.00     0.282 C 
ATOM      7  O   UNL     1     -13.380 -23.345   7.935  1.00  0.00    -0.344 OA
ENDROOT
BRANCH   3   8
ATOM      8  O   UNL     1     -13.321 -22.614  11.443  1.00  0.00    -0.388 OA
ATOM      9  H   UNL     1     -13.314 -21.662  11.814  1.00  0.00     0.211 HD
ENDBRANCH   3   8
BRANCH   4  10
ATOM     10  O   UNL     1     -13.714 -20.375  10.649  1.00  0.00    -0.341 OA
BRANCH  10  11
ATOM     11  C   UNL     1     -14.314 -19.121  11.137  1.00  0.00     0.282 C 
ATOM     12  C   UNL     1     -13.521 -18.665  12.620  1.00  0.00     0.202 C 
ATOM     13  O   UNL     1     -15.672 -19.643  11.545  1.00  0.00    -0.341 OA
ATOM     14  C   UNL     1     -14.454 -18.675  13.925  1.00  0.00     0.179 C 
ATOM     15  C   UNL     1     -15.888 -20.502  12.937  1.00  0.00     0.178 C 
ATOM     16  C   UNL     1     -15.928 -19.046  13.708  1.00  0.00     0.177 C 
BRANCH  12  17
ATOM     17  O   UNL     1     -12.970 -17.384  12.686  1.00  0.00    -0.385 OA
ATOM     18  H   UNL     1     -13.670 -16.799  12.196  1.00  0.00     0.211 HD
ENDBRANCH  12  17
BRANCH  14  19
ATOM     19  O   UNL     1     -13.848 -19.519  14.860  1.00  0.00    -0.387 OA
ATOM     20  H   UNL     1     -14.095 -19.196  15.767  1.00  0.00     0.211 HD
ENDBRANCH  14  19
BRANCH  15  21
ATOM     21  C   UNL     1     -17.185 -21.685  13.303  1.00  0.00     0.191 C 
BRANCH  21  22
ATOM     22  O   UNL     1     -17.716 -22.026  11.953  1.00  0.00    -0.394 OA
ATOM     23  H   UNL     1     -17.407 -22.956  12.422  1.00  0.00     0.210 HD
ENDBRANCH  21  22
ENDBRANCH  15  21
BRANCH  16  24
ATOM     24  O   UNL     1     -16.692 -18.075  13.076  1.00  0.00    -0.387 OA
ATOM     25  H   UNL     1     -16.355 -18.062  12.139  1.00  0.00     0.211 HD
ENDBRANCH  16  24
ENDBRANCH  10  11
ENDBRANCH   4  10
BRANCH   6  26
ATOM     26  O   UNL     1     -14.796 -22.244   6.027  1.00  0.00    -0.346 OA
BRANCH  26  27
ATOM     27  C   UNL     1     -14.538 -23.718   5.438  1.00  0.00     0.130 C 
ATOM     28  C   UNL     1     -15.337 -25.105   4.408  1.00  0.00     0.033 C 
ATOM     29  C   UNL     1     -13.887 -22.330   4.512  1.00  0.00     0.020 C 
ATOM     30  C   UNL     1     -16.240 -23.044   3.488  1.00  0.00     0.010 C 
ATOM     31  C   UNL     1     -14.879 -20.835   4.015  1.00  0.00     0.006 C 
ATOM     32  C   UNL     1     -13.389 -23.052   3.217  1.00  0.00     0.017 C 
ATOM     33  C   UNL     1     -16.515 -20.588   3.575  1.00  0.00    -0.022 C 
ATOM     34  C   UNL     1     -13.498 -19.927   3.169  1.00  0.00     0.005 C 
ATOM     35  C   UNL     1     -18.236 -20.544   4.296  1.00  0.00     0.012 C 
ATOM     36  C   UNL     1     -16.426 -18.115   2.883  1.00  0.00     0.024 C 
ATOM     37  C   UNL     1     -13.826 -18.340   2.883  1.00  0.00     0.008 C 
ATOM     38  C   UNL     1     -15.184 -17.849   1.998  1.00  0.00    -0.017 C 
ATOM     39  C   UNL     1     -16.046 -17.007   3.933  1.00  0.00    -0.024 C 
ATOM     40  C   UNL     1     -15.261 -19.009   0.800  1.00  0.00     0.013 C 
ATOM     41  C   UNL     1     -15.065 -16.007   1.523  1.00  0.00     0.009 C 
ATOM     42  C   UNL     1     -15.789 -15.617   3.567  1.00  0.00     0.005 C 
ATOM     43  C   UNL     1     -16.124 -14.874   2.294  1.00  0.00     0.096 C 
ATOM     44  C   UNL     1     -15.204 -15.369   0.029  1.00  0.00     0.043 C 
ATOM     45  C   UNL     1     -13.505 -15.726   1.791  1.00  0.00     0.015 C 
ATOM     46  C   UNL     1     -17.488 -14.228   1.307  1.00  0.00     0.037 C 
ATOM     47  O   UNL     1     -15.689 -13.517   2.837  1.00  0.00    -0.369 OA
ATOM     48  C   UNL     1     -15.423 -13.686  -0.003  1.00  0.00     0.124 C 
ATOM     49  C   UNL     1     -16.695 -13.001   0.759  1.00  0.00     0.026 C 
ATOM     50  C   UNL     1     -18.814 -14.428   0.212  1.00  0.00     0.014 C 
ATOM     51  C   UNL     1     -16.103 -12.463   1.989  1.00  0.00     0.171 C 
ATOM     52  C   UNL     1     -17.557 -11.666   0.215  1.00  0.00     0.013 C 
ATOM     53  C   UNL     1     -19.113 -13.322  -1.015  1.00  0.00    -0.035 C 
ATOM     54  C   UNL     1     -19.036 -11.911  -0.427  1.00  0.00     0.007 C 
ATOM     55  C   UNL     1     -20.526 -13.596  -1.777  1.00  0.00     0.011 C 
ATOM     56  C   UNL     1     -18.062 -13.401  -2.120  1.00  0.00     0.011 C 
BRANCH  29  57
ATOM     57  C   UNL     1     -12.526 -21.643   5.266  1.00  0.00     0.165 C 
BRANCH  57  58
ATOM     58  O   UNL     1     -11.834 -22.801   5.782  1.00  0.00    -0.396 OA
ATOM     59  H   UNL     1     -12.286 -23.142   6.624  1.00  0.00     0.210 HD
ENDBRANCH  57  58
ENDBRANCH  29  57
BRANCH  48  60
ATOM     60  O   UNL     1     -14.822 -12.947  -1.031  1.00  0.00    -0.392 OA
ATOM     61  H   UNL     1     -13.935 -13.338  -1.309  1.00  0.00     0.210 HD
ENDBRANCH  48  60
ENDBRANCH  26  27
ENDBRANCH   6  26
BRANCH   5  62
ATOM     62  O   UNL     1     -16.176 -21.945   9.643  1.00  0.00    -0.385 OA
ATOM     63  H   UNL     1     -17.234 -22.005   9.495  1.00  0.00     0.211 HD
ENDBRANCH   5  62
TORSDOF 14
ENDMDL
MODEL 7
REMARK VINA RESULT:    -7.143      6.267      8.358
REMARK INTER + INTRA:         -10.744
REMARK INTER:                  -9.709
REMARK INTRA:                  -1.035
REMARK UNBOUND:                -1.513
REMARK SMILES C[C@@H]1O[C@H](O[C@H]2CC[C@@]3(C)[C@H](CC[C@@]4(C)[C@@H]3C=C[C@]35OC[C@@]6(CCC(C)(C)C[C@H]63)[C@H](O)C[C@]45C)[C@@]2(C)CO)[C@@H](O)[C@@H](O[C@H]2O[C@H](CO)[C@H](O)[C@@H](O)[C@@H]2O)[C@@H]1O
REMARK SMILES IDX 1 1 2 2 54 3 41 4 39 5 4 6 3 7 55 8 42 10 43 11 52 12 44 13
REMARK SMILES IDX 50 14 45 15 48 16 53 17 51 19 46 21 47 22 49 24 5 26 6 27
REMARK SMILES IDX 7 28 35 29 8 30 11 31 36 32 9 33 12 34 10 35 16 36 13 37
REMARK SMILES IDX 14 38 17 39 15 40 33 41 18 42 19 43 32 44 34 45 29 46 20 47
REMARK SMILES IDX 30 48 22 49 28 50 21 51 23 52 25 53 24 54 26 55 27 56 37 57
REMARK SMILES IDX 38 58 31 60 40 62
REMARK H PARENT 55 9 53 18 51 20 47 23 49 25 38 59 31 61 40 63
REMARK Flexibility Score: inf
ROOT
ATOM      1  C   UNL     1     -10.972 -18.050  16.702  1.00  0.00     0.041 C 
ATOM      2  C   UNL     1     -11.012 -19.432  15.712  1.00  0.00     0.150 C 
ATOM      3  C   UNL     1     -12.413 -19.829  15.518  1.00  0.00     0.175 C 
ATOM      4  C   UNL     1     -13.053 -19.703  13.899  1.00  0.00     0.186 C 
ATOM      5  C   UNL     1     -12.459 -21.261  13.603  1.00  0.00     0.202 C 
ATOM      6  C   UNL     1     -10.807 -21.134  13.695  1.00  0.00     0.282 C 
ATOM      7  O   UNL     1     -10.423 -19.831  14.454  1.00  0.00    -0.344 OA
ENDROOT
BRANCH   3   8
ATOM      8  O   UNL     1     -13.255 -19.697  16.646  1.00  0.00    -0.388 OA
ATOM      9  H   UNL     1     -13.039 -18.811  17.106  1.00  0.00     0.211 HD
ENDBRANCH   3   8
BRANCH   4  10
ATOM     10  O   UNL     1     -14.455 -19.667  14.560  1.00  0.00    -0.341 OA
BRANCH  10  11
ATOM     11  C   UNL     1     -15.685 -18.938  14.203  1.00  0.00     0.282 C 
ATOM     12  C   UNL     1     -16.103 -19.324  12.556  1.00  0.00     0.202 C 
ATOM     13  O   UNL     1     -15.133 -17.533  14.164  1.00  0.00    -0.341 OA
ATOM     14  C   UNL     1     -16.039 -18.094  11.528  1.00  0.00     0.179 C 
ATOM     15  C   UNL     1     -14.227 -16.991  12.896  1.00  0.00     0.178 C 
ATOM     16  C   UNL     1     -15.656 -16.730  12.119  1.00  0.00     0.177 C 
BRANCH  12  17
ATOM     17  O   UNL     1     -17.389 -19.816  12.317  1.00  0.00    -0.385 OA
ATOM     18  H   UNL     1     -17.976 -18.962  12.337  1.00  0.00     0.211 HD
ENDBRANCH  12  17
BRANCH  14  19
ATOM     19  O   UNL     1     -15.173 -18.464  10.495  1.00  0.00    -0.387 OA
ATOM     20  H   UNL     1     -15.717 -18.886   9.778  1.00  0.00     0.211 HD
ENDBRANCH  14  19
BRANCH  15  21
ATOM     21  C   UNL     1     -13.017 -15.668  12.902  1.00  0.00     0.191 C 
BRANCH  21  22
ATOM     22  O   UNL     1     -13.296 -14.966  14.185  1.00  0.00    -0.394 OA
ATOM     23  H   UNL     1     -12.240 -15.222  14.181  1.00  0.00     0.210 HD
ENDBRANCH  21  22
ENDBRANCH  15  21
BRANCH  16  24
ATOM     24  O   UNL     1     -16.638 -16.129  12.895  1.00  0.00    -0.387 OA
ATOM     25  H   UNL     1     -17.470 -16.208  12.350  1.00  0.00     0.211 HD
ENDBRANCH  16  24
ENDBRANCH  10  11
ENDBRANCH   4  10
BRANCH   6  26
ATOM     26  O   UNL     1     -10.176 -20.996  12.121  1.00  0.00    -0.346 OA
BRANCH  26  27
ATOM     27  C   UNL     1      -8.860 -21.838  12.500  1.00  0.00     0.130 C 
ATOM     28  C   UNL     1      -8.150 -23.604  12.563  1.00  0.00     0.033 C 
ATOM     29  C   UNL     1      -8.917 -21.075  10.881  1.00  0.00     0.020 C 
ATOM     30  C   UNL     1      -9.691 -23.616  10.681  1.00  0.00     0.010 C 
ATOM     31  C   UNL     1     -10.330 -21.249   9.682  1.00  0.00     0.006 C 
ATOM     32  C   UNL     1      -7.630 -21.678  10.228  1.00  0.00     0.017 C 
ATOM     33  C   UNL     1     -11.433 -22.507   9.321  1.00  0.00    -0.022 C 
ATOM     34  C   UNL     1      -9.622 -20.167   8.349  1.00  0.00     0.005 C 
ATOM     35  C   UNL     1     -12.915 -23.402  10.019  1.00  0.00     0.012 C 
ATOM     36  C   UNL     1     -12.637 -21.483   7.296  1.00  0.00     0.024 C 
ATOM     37  C   UNL     1     -10.719 -19.716   7.210  1.00  0.00     0.008 C 
ATOM     38  C   UNL     1     -11.611 -20.851   6.323  1.00  0.00    -0.017 C 
ATOM     39  C   UNL     1     -13.468 -20.156   7.450  1.00  0.00    -0.024 C 
ATOM     40  C   UNL     1     -10.484 -22.053   6.056  1.00  0.00     0.013 C 
ATOM     41  C   UNL     1     -12.487 -20.031   4.843  1.00  0.00     0.009 C 
ATOM     42  C   UNL     1     -14.012 -19.421   6.312  1.00  0.00     0.005 C 
ATOM     43  C   UNL     1     -14.211 -19.861   4.879  1.00  0.00     0.096 C 
ATOM     44  C   UNL     1     -12.403 -20.486   3.279  1.00  0.00     0.043 C 
ATOM     45  C   UNL     1     -11.698 -18.635   4.759  1.00  0.00     0.015 C 
ATOM     46  C   UNL     1     -15.164 -20.968   3.821  1.00  0.00     0.037 C 
ATOM     47  O   UNL     1     -14.962 -18.598   4.475  1.00  0.00    -0.369 OA
ATOM     48  C   UNL     1     -13.582 -19.791   2.276  1.00  0.00     0.124 C 
ATOM     49  C   UNL     1     -15.170 -20.011   2.589  1.00  0.00     0.026 C 
ATOM     50  C   UNL     1     -15.526 -22.532   3.174  1.00  0.00     0.014 C 
ATOM     51  C   UNL     1     -15.572 -18.742   3.207  1.00  0.00     0.171 C 
ATOM     52  C   UNL     1     -16.378 -20.195   1.435  1.00  0.00     0.013 C 
ATOM     53  C   UNL     1     -15.942 -22.739   1.561  1.00  0.00    -0.035 C 
ATOM     54  C   UNL     1     -16.990 -21.686   1.191  1.00  0.00     0.007 C 
ATOM     55  C   UNL     1     -16.446 -24.253   1.231  1.00  0.00     0.011 C 
ATOM     56  C   UNL     1     -14.749 -22.524   0.633  1.00  0.00     0.011 C 
BRANCH  29  57
ATOM     57  C   UNL     1      -8.702 -19.390  10.965  1.00  0.00     0.165 C 
BRANCH  57  58
ATOM     58  O   UNL     1      -8.156 -19.206  12.290  1.00  0.00    -0.396 OA
ATOM     59  H   UNL     1      -8.901 -19.137  12.975  1.00  0.00     0.210 HD
ENDBRANCH  57  58
ENDBRANCH  29  57
BRANCH  48  60
ATOM     60  O   UNL     1     -13.232 -19.445   0.964  1.00  0.00    -0.392 OA
ATOM     61  H   UNL     1     -12.418 -19.947   0.644  1.00  0.00     0.210 HD
ENDBRANCH  48  60
ENDBRANCH  26  27
ENDBRANCH   6  26
BRANCH   5  62
ATOM     62  O   UNL     1     -12.938 -22.356  14.486  1.00  0.00    -0.385 OA
ATOM     63  H   UNL     1     -13.634 -23.129  14.236  1.00  0.00     0.211 HD
ENDBRANCH   5  62
TORSDOF 14
ENDMDL
MODEL 8
REMARK VINA RESULT:    -7.027      5.570     11.442
REMARK INTER + INTRA:         -10.593
REMARK INTER:                  -9.658
REMARK INTRA:                  -0.935
REMARK UNBOUND:                -1.513
REMARK SMILES C[C@@H]1O[C@H](O[C@H]2CC[C@@]3(C)[C@H](CC[C@@]4(C)[C@@H]3C=C[C@]35OC[C@@]6(CCC(C)(C)C[C@H]63)[C@H](O)C[C@]45C)[C@@]2(C)CO)[C@@H](O)[C@@H](O[C@H]2O[C@H](CO)[C@H](O)[C@@H](O)[C@@H]2O)[C@@H]1O
REMARK SMILES IDX 1 1 2 2 54 3 41 4 39 5 4 6 3 7 55 8 42 10 43 11 52 12 44 13
REMARK SMILES IDX 50 14 45 15 48 16 53 17 51 19 46 21 47 22 49 24 5 26 6 27
REMARK SMILES IDX 7 28 35 29 8 30 11 31 36 32 9 33 12 34 10 35 16 36 13 37
REMARK SMILES IDX 14 38 17 39 15 40 33 41 18 42 19 43 32 44 34 45 29 46 20 47
REMARK SMILES IDX 30 48 22 49 28 50 21 51 23 52 25 53 24 54 26 55 27 56 37 57
REMARK SMILES IDX 38 58 31 60 40 62
REMARK H PARENT 55 9 53 18 51 20 47 23 49 25 38 59 31 61 40 63
REMARK Flexibility Score: inf
ROOT
ATOM      1  C   UNL     1      -6.990  -6.687  12.477  1.00  0.00     0.041 C 
ATOM      2  C   UNL     1      -7.844  -7.866  11.598  1.00  0.00     0.150 C 
ATOM      3  C   UNL     1      -7.145  -9.151  11.735  1.00  0.00     0.175 C 
ATOM      4  C   UNL     1      -7.983 -10.418  12.596  1.00  0.00     0.186 C 
ATOM      5  C   UNL     1      -8.714 -10.852  11.131  1.00  0.00     0.202 C 
ATOM      6  C   UNL     1      -9.672  -9.564  10.712  1.00  0.00     0.282 C 
ATOM      7  O   UNL     1      -9.219  -8.297  11.495  1.00  0.00    -0.344 OA
ENDROOT
BRANCH   3   8
ATOM      8  O   UNL     1      -5.732  -9.090  11.722  1.00  0.00    -0.388 OA
ATOM      9  H   UNL     1      -5.452  -8.258  11.202  1.00  0.00     0.211 HD
ENDBRANCH   3   8
BRANCH   4  10
ATOM     10  O   UNL     1      -6.586 -11.052  12.826  1.00  0.00    -0.341 OA
BRANCH  10  11
ATOM     11  C   UNL     1      -5.977 -11.665  14.019  1.00  0.00     0.282 C 
ATOM     12  C   UNL     1      -7.118 -11.577  15.334  1.00  0.00     0.202 C 
ATOM     13  O   UNL     1      -4.927 -10.623  14.321  1.00  0.00    -0.341 OA
ATOM     14  C   UNL     1      -6.667 -10.659  16.569  1.00  0.00     0.179 C 
ATOM     15  C   UNL     1      -5.312  -9.184  15.033  1.00  0.00     0.178 C 
ATOM     16  C   UNL     1      -5.284 -10.003  16.463  1.00  0.00     0.177 C 
BRANCH  12  17
ATOM     17  O   UNL     1      -7.443 -12.771  15.983  1.00  0.00    -0.385 OA
ATOM     18  H   UNL     1      -7.060 -13.497  15.350  1.00  0.00     0.211 HD
ENDBRANCH  12  17
BRANCH  14  19
ATOM     19  O   UNL     1      -7.671  -9.706  16.763  1.00  0.00    -0.387 OA
ATOM     20  H   UNL     1      -7.767  -9.560  17.741  1.00  0.00     0.211 HD
ENDBRANCH  14  19
BRANCH  15  21
ATOM     21  C   UNL     1      -4.413  -7.637  14.930  1.00  0.00     0.191 C 
BRANCH  21  22
ATOM     22  O   UNL     1      -3.875  -7.655  13.541  1.00  0.00    -0.394 OA
ATOM     23  H   UNL     1      -3.491  -6.761  14.023  1.00  0.00     0.210 HD
ENDBRANCH  21  22
ENDBRANCH  15  21
BRANCH  16  24
ATOM     24  O   UNL     1      -4.209 -10.868  16.617  1.00  0.00    -0.387 OA
ATOM     25  H   UNL     1      -4.540 -11.741  16.267  1.00  0.00     0.211 HD
ENDBRANCH  16  24
ENDBRANCH  10  11
ENDBRANCH   4  10
BRANCH   6  26
ATOM     26  O   UNL     1     -11.274  -9.891  11.181  1.00  0.00    -0.346 OA
BRANCH  26  27
ATOM     27  C   UNL     1     -11.873  -8.839  10.124  1.00  0.00     0.130 C 
ATOM     28  C   UNL     1     -12.133  -8.534   8.263  1.00  0.00     0.033 C 
ATOM     29  C   UNL     1     -13.018  -9.979  10.897  1.00  0.00     0.020 C 
ATOM     30  C   UNL     1     -12.281 -10.947   8.528  1.00  0.00     0.010 C 
ATOM     31  C   UNL     1     -12.778 -11.824  10.976  1.00  0.00     0.006 C 
ATOM     32  C   UNL     1     -14.321  -9.679  10.087  1.00  0.00     0.017 C 
ATOM     33  C   UNL     1     -12.066 -12.974   9.927  1.00  0.00    -0.022 C 
ATOM     34  C   UNL     1     -14.324 -12.206  11.930  1.00  0.00     0.005 C 
ATOM     35  C   UNL     1     -10.408 -13.552   9.294  1.00  0.00     0.012 C 
ATOM     36  C   UNL     1     -12.682 -15.145  11.156  1.00  0.00     0.024 C 
ATOM     37  C   UNL     1     -14.351 -13.721  12.569  1.00  0.00     0.008 C 
ATOM     38  C   UNL     1     -14.162 -15.104  11.610  1.00  0.00    -0.017 C 
ATOM     39  C   UNL     1     -12.135 -15.424  12.604  1.00  0.00    -0.024 C 
ATOM     40  C   UNL     1     -15.016 -14.697  10.234  1.00  0.00     0.013 C 
ATOM     41  C   UNL     1     -14.623 -16.679  12.578  1.00  0.00     0.009 C 
ATOM     42  C   UNL     1     -12.597 -16.535  13.430  1.00  0.00     0.005 C 
ATOM     43  C   UNL     1     -13.365 -17.777  13.040  1.00  0.00     0.096 C 
ATOM     44  C   UNL     1     -15.686 -17.831  12.126  1.00  0.00     0.043 C 
ATOM     45  C   UNL     1     -15.424 -16.048  13.819  1.00  0.00     0.015 C 
ATOM     46  C   UNL     1     -13.252 -19.324  12.119  1.00  0.00     0.037 C 
ATOM     47  O   UNL     1     -13.245 -18.422  14.416  1.00  0.00    -0.369 OA
ATOM     48  C   UNL     1     -15.589 -19.271  13.020  1.00  0.00     0.124 C 
ATOM     49  C   UNL     1     -14.196 -20.122  13.072  1.00  0.00     0.026 C 
ATOM     50  C   UNL     1     -13.236 -20.230  10.645  1.00  0.00     0.014 C 
ATOM     51  C   UNL     1     -13.640 -19.780  14.387  1.00  0.00     0.171 C 
ATOM     52  C   UNL     1     -14.074 -21.798  13.105  1.00  0.00     0.013 C 
ATOM     53  C   UNL     1     -13.997 -21.722  10.523  1.00  0.00    -0.035 C 
ATOM     54  C   UNL     1     -13.612 -22.564  11.742  1.00  0.00     0.007 C 
ATOM     55  C   UNL     1     -13.669 -22.482   9.120  1.00  0.00     0.011 C 
ATOM     56  C   UNL     1     -15.518 -21.588  10.538  1.00  0.00     0.011 C 
BRANCH  29  57
ATOM     57  C   UNL     1     -13.322  -9.571  12.520  1.00  0.00     0.165 C 
BRANCH  57  58
ATOM     58  O   UNL     1     -12.905  -8.190  12.582  1.00  0.00    -0.396 OA
ATOM     59  H   UNL     1     -12.994  -7.833  13.527  1.00  0.00     0.210 HD
ENDBRANCH  57  58
ENDBRANCH  29  57
BRANCH  48  60
ATOM     60  O   UNL     1     -16.772 -19.965  13.310  1.00  0.00    -0.392 OA
ATOM     61  H   UNL     1     -17.019 -20.613  12.578  1.00  0.00     0.210 HD
ENDBRANCH  48  60
ENDBRANCH  26  27
ENDBRANCH   6  26
BRANCH   5  62
ATOM     62  O   UNL     1      -7.820 -11.213  10.000  1.00  0.00    -0.385 OA
ATOM     63  H   UNL     1      -6.873 -10.776   9.762  1.00  0.00     0.211 HD
ENDBRANCH   5  62
TORSDOF 14
ENDMDL
MODEL 9
REMARK VINA RESULT:    -6.949      2.038      3.028
REMARK INTER + INTRA:         -10.494
REMARK INTER:                  -9.704
REMARK INTRA:                  -0.790
REMARK UNBOUND:                -1.513
REMARK SMILES C[C@@H]1O[C@H](O[C@H]2CC[C@@]3(C)[C@H](CC[C@@]4(C)[C@@H]3C=C[C@]35OC[C@@]6(CCC(C)(C)C[C@H]63)[C@H](O)C[C@]45C)[C@@]2(C)CO)[C@@H](O)[C@@H](O[C@H]2O[C@H](CO)[C@H](O)[C@@H](O)[C@@H]2O)[C@@H]1O
REMARK SMILES IDX 1 1 2 2 54 3 41 4 39 5 4 6 3 7 55 8 42 10 43 11 52 12 44 13
REMARK SMILES IDX 50 14 45 15 48 16 53 17 51 19 46 21 47 22 49 24 5 26 6 27
REMARK SMILES IDX 7 28 35 29 8 30 11 31 36 32 9 33 12 34 10 35 16 36 13 37
REMARK SMILES IDX 14 38 17 39 15 40 33 41 18 42 19 43 32 44 34 45 29 46 20 47
REMARK SMILES IDX 30 48 22 49 28 50 21 51 23 52 25 53 24 54 26 55 27 56 37 57
REMARK SMILES IDX 38 58 31 60 40 62
REMARK H PARENT 55 9 53 18 51 20 47 23 49 25 38 59 31 61 40 63
REMARK Flexibility Score: inf
ROOT
ATOM      1  C   UNL     1     -11.160 -13.890  15.487  1.00  0.00     0.041 C 
ATOM      2  C   UNL     1     -10.873 -13.826  13.811  1.00  0.00     0.150 C 
ATOM      3  C   UNL     1     -11.593 -14.934  13.170  1.00  0.00     0.175 C 
ATOM      4  C   UNL     1     -12.900 -14.508  12.094  1.00  0.00     0.186 C 
ATOM      5  C   UNL     1     -11.760 -14.388  10.847  1.00  0.00     0.202 C 
ATOM      6  C   UNL     1     -10.777 -13.118  11.262  1.00  0.00     0.282 C 
ATOM      7  O   UNL     1     -10.926 -12.815  12.781  1.00  0.00    -0.344 OA
ENDROOT
BRANCH   3   8
ATOM      8  O   UNL     1     -11.603 -16.158  13.879  1.00  0.00    -0.388 OA
ATOM      9  H   UNL     1     -11.107 -16.855  13.321  1.00  0.00     0.211 HD
ENDBRANCH   3   8
BRANCH   4  10
ATOM     10  O   UNL     1     -13.438 -15.943  12.335  1.00  0.00    -0.341 OA
BRANCH  10  11
ATOM     11  C   UNL     1     -14.054 -16.921  11.421  1.00  0.00     0.282 C 
ATOM     12  C   UNL     1     -15.612 -16.315  10.926  1.00  0.00     0.202 C 
ATOM     13  O   UNL     1     -14.343 -18.028  12.407  1.00  0.00    -0.341 OA
ATOM     14  C   UNL     1     -16.868 -17.186  11.410  1.00  0.00     0.179 C 
ATOM     15  C   UNL     1     -15.608 -17.943  13.462  1.00  0.00     0.178 C 
ATOM     16  C   UNL     1     -16.551 -18.456  12.212  1.00  0.00     0.177 C 
BRANCH  12  17
ATOM     17  O   UNL     1     -15.856 -16.216   9.554  1.00  0.00    -0.385 OA
ATOM     18  H   UNL     1     -16.890 -16.206   9.498  1.00  0.00     0.211 HD
ENDBRANCH  12  17
BRANCH  14  19
ATOM     19  O   UNL     1     -17.714 -16.331  12.122  1.00  0.00    -0.387 OA
ATOM     20  H   UNL     1     -17.572 -16.501  13.091  1.00  0.00     0.211 HD
ENDBRANCH  14  19
BRANCH  15  21
ATOM     21  C   UNL     1     -15.775 -18.775  15.041  1.00  0.00     0.191 C 
BRANCH  21  22
ATOM     22  O   UNL     1     -14.381 -18.781  15.564  1.00  0.00    -0.394 OA
ATOM     23  H   UNL     1     -14.895 -17.942  16.026  1.00  0.00     0.210 HD
ENDBRANCH  21  22
ENDBRANCH  15  21
BRANCH  16  24
ATOM     24  O   UNL     1     -16.016 -19.501  11.471  1.00  0.00    -0.387 OA
ATOM     25  H   UNL     1     -15.593 -19.058  10.685  1.00  0.00     0.211 HD
ENDBRANCH  16  24
ENDBRANCH  10  11
ENDBRANCH   4  10
BRANCH   6  26
ATOM     26  O   UNL     1     -11.288 -11.728  10.426  1.00  0.00    -0.346 OA
BRANCH  26  27
ATOM     27  C   UNL     1      -9.898 -10.968  10.697  1.00  0.00     0.130 C 
ATOM     28  C   UNL     1      -8.222 -10.535   9.904  1.00  0.00     0.033 C 
ATOM     29  C   UNL     1     -11.294  -9.978  10.167  1.00  0.00     0.020 C 
ATOM     30  C   UNL     1      -9.796 -10.587   8.051  1.00  0.00     0.010 C 
ATOM     31  C   UNL     1     -12.355 -10.359   8.687  1.00  0.00     0.006 C 
ATOM     32  C   UNL     1     -10.602  -8.594   9.943  1.00  0.00     0.017 C 
ATOM     33  C   UNL     1     -12.051 -11.065   7.157  1.00  0.00    -0.022 C 
ATOM     34  C   UNL     1     -13.524  -8.929   8.880  1.00  0.00     0.005 C 
ATOM     35  C   UNL     1     -11.668 -12.703   6.349  1.00  0.00     0.012 C 
ATOM     36  C   UNL     1     -14.336 -10.714   6.037  1.00  0.00     0.024 C 
ATOM     37  C   UNL     1     -14.894  -9.067   7.982  1.00  0.00     0.008 C 
ATOM     38  C   UNL     1     -14.850  -9.278   6.302  1.00  0.00    -0.017 C 
ATOM     39  C   UNL     1     -15.625 -11.398   6.624  1.00  0.00    -0.024 C 
ATOM     40  C   UNL     1     -13.584  -8.285   5.856  1.00  0.00     0.013 C 
ATOM     41  C   UNL     1     -16.573  -9.014   5.531  1.00  0.00     0.009 C 
ATOM     42  C   UNL     1     -16.974 -11.088   6.158  1.00  0.00     0.005 C 
ATOM     43  C   UNL     1     -17.425 -10.384   4.899  1.00  0.00     0.096 C 
ATOM     44  C   UNL     1     -16.956  -8.006   4.307  1.00  0.00     0.043 C 
ATOM     45  C   UNL     1     -17.334  -8.274   6.736  1.00  0.00     0.015 C 
ATOM     46  C   UNL     1     -17.512 -10.535   3.103  1.00  0.00     0.037 C 
ATOM     47  O   UNL     1     -18.905 -10.664   5.136  1.00  0.00    -0.369 OA
ATOM     48  C   UNL     1     -18.481  -8.282   3.616  1.00  0.00     0.124 C 
ATOM     49  C   UNL     1     -18.844  -9.733   2.961  1.00  0.00     0.026 C 
ATOM     50  C   UNL     1     -16.797 -10.496   1.528  1.00  0.00     0.014 C 
ATOM     51  C   UNL     1     -19.678 -10.369   3.988  1.00  0.00     0.171 C 
ATOM     52  C   UNL     1     -19.787  -9.981   1.593  1.00  0.00     0.013 C 
ATOM     53  C   UNL     1     -17.608  -9.840   0.212  1.00  0.00    -0.035 C 
ATOM     54  C   UNL     1     -19.038 -10.384   0.202  1.00  0.00     0.007 C 
ATOM     55  C   UNL     1     -16.837 -10.106  -1.198  1.00  0.00     0.011 C 
ATOM     56  C   UNL     1     -17.712  -8.320   0.309  1.00  0.00     0.011 C 
BRANCH  29  57
ATOM     57  C   UNL     1     -12.439  -9.779  11.409  1.00  0.00     0.165 C 
BRANCH  57  58
ATOM     58  O   UNL     1     -11.637  -9.913  12.603  1.00  0.00    -0.396 OA
ATOM     59  H   UNL     1     -11.276 -10.857  12.685  1.00  0.00     0.210 HD
ENDBRANCH  57  58
ENDBRANCH  29  57
BRANCH  48  60
ATOM     60  O   UNL     1     -19.235  -7.182   3.185  1.00  0.00    -0.392 OA
ATOM     61  H   UNL     1     -20.109  -7.104   3.684  1.00  0.00     0.210 HD
ENDBRANCH  48  60
ENDBRANCH  26  27
ENDBRANCH   6  26
BRANCH   5  62
ATOM     62  O   UNL     1     -10.941 -15.593  10.550  1.00  0.00    -0.385 OA
ATOM     63  H   UNL     1     -10.444 -16.224  11.256  1.00  0.00     0.211 HD
ENDBRANCH   5  62
TORSDOF 14
ENDMDL
