MODEL 1
REMARK VINA RESULT:    -4.400      0.000      0.000
REMARK INTER + INTRA:         -10.322
REMARK INTER:                  -8.258
REMARK INTRA:                  -2.064
REMARK UNBOUND:                -2.064
REMARK SMILES O=C([O-])CCCCCCCCCCCCCCC(=O)[O-]
REMARK SMILES IDX 10 1 9 2 8 3 7 4 6 5 5 6 4 7 2 8 1 9 3 10 11 11 12 12 13 13
REMARK SMILES IDX 14 14 15 15 16 16 17 17 18 18 19 19 20 20
REMARK H PARENT
REMARK Flexibility Score: inf
ROOT
ATOM      1  C   UNL     1     -37.242  23.617 -27.973  1.00  0.00     0.000 C 
ENDROOT
BRANCH   1   2
ATOM      2  C   UNL     1     -36.470  23.123 -26.734  1.00  0.00     0.000 C 
BRANCH   2   3
ATOM      3  C   UNL     1     -36.541  21.605 -26.482  1.00  0.00     0.000 C 
BRANCH   3   4
ATOM      4  C   UNL     1     -37.410  20.871 -27.513  1.00  0.00     0.000 C 
BRANCH   4   5
ATOM      5  C   UNL     1     -36.540  20.177 -28.571  1.00  0.00     0.000 C 
BRANCH   5   6
ATOM      6  C   UNL     1     -37.271  19.961 -29.908  1.00  0.00     0.006 C 
BRANCH   6   7
ATOM      7  C   UNL     1     -37.558  18.485 -30.233  1.00  0.00     0.053 C 
BRANCH   7   8
ATOM      8  C   UNL     1     -38.948  18.069 -29.855  1.00  0.00     0.041 C 
ATOM      9  O   UNL     1     -39.928  18.819 -30.109  1.00  0.00    -0.550 OA
ATOM     10  O   UNL     1     -39.157  16.867 -29.191  1.00  0.00    -0.550 OA
ENDBRANCH   7   8
ENDBRANCH   6   7
ENDBRANCH   5   6
ENDBRANCH   4   5
ENDBRANCH   3   4
ENDBRANCH   2   3
ENDBRANCH   1   2
BRANCH   1  11
ATOM     11  C   UNL     1     -36.362  24.105 -29.138  1.00  0.00     0.000 C 
BRANCH  11  12
ATOM     12  C   UNL     1     -36.802  23.539 -30.496  1.00  0.00     0.000 C 
BRANCH  12  13
ATOM     13  C   UNL     1     -38.238  23.964 -30.829  1.00  0.00     0.000 C 
BRANCH  13  14
ATOM     14  C   UNL     1     -38.950  22.889 -31.665  1.00  0.00     0.000 C 
BRANCH  14  15
ATOM     15  C   UNL     1     -40.094  22.205 -30.901  1.00  0.00     0.000 C 
BRANCH  15  16
ATOM     16  C   UNL     1     -40.219  22.702 -29.453  1.00  0.00     0.006 C 
BRANCH  16  17
ATOM     17  C   UNL     1     -41.668  22.608 -28.964  1.00  0.00     0.053 C 
BRANCH  17  18
ATOM     18  C   UNL     1     -41.854  21.399 -28.103  1.00  0.00     0.041 C 
ATOM     19  O   UNL     1     -40.855  20.751 -27.697  1.00  0.00    -0.550 OA
ATOM     20  O   UNL     1     -43.130  21.017 -27.707  1.00  0.00    -0.550 OA
ENDBRANCH  17  18
ENDBRANCH  16  17
ENDBRANCH  15  16
ENDBRANCH  14  15
ENDBRANCH  13  14
ENDBRANCH  12  13
ENDBRANCH  11  12
ENDBRANCH   1  11
TORSDOF 15
ENDMDL
MODEL 2
REMARK VINA RESULT:    -4.360      1.914      3.759
REMARK INTER + INTRA:         -10.246
REMARK INTER:                  -7.801
REMARK INTRA:                  -2.446
REMARK UNBOUND:                -2.064
REMARK SMILES O=C([O-])CCCCCCCCCCCCCCC(=O)[O-]
REMARK SMILES IDX 10 1 9 2 8 3 7 4 6 5 5 6 4 7 2 8 1 9 3 10 11 11 12 12 13 13
REMARK SMILES IDX 14 14 15 15 16 16 17 17 18 18 19 19 20 20
REMARK H PARENT
REMARK Flexibility Score: inf
ROOT
ATOM      1  C   UNL     1     -41.443  22.497 -28.791  1.00  0.00     0.000 C 
ENDROOT
BRANCH   1   2
ATOM      2  C   UNL     1     -41.033  21.013 -28.723  1.00  0.00     0.000 C 
BRANCH   2   3
ATOM      3  C   UNL     1     -39.983  20.674 -27.649  1.00  0.00     0.000 C 
BRANCH   3   4
ATOM      4  C   UNL     1     -38.661  21.430 -27.848  1.00  0.00     0.000 C 
BRANCH   4   5
ATOM      5  C   UNL     1     -37.533  20.467 -28.245  1.00  0.00     0.000 C 
BRANCH   5   6
ATOM      6  C   UNL     1     -37.524  20.133 -29.747  1.00  0.00     0.006 C 
BRANCH   6   7
ATOM      7  C   UNL     1     -37.543  18.625 -30.052  1.00  0.00     0.053 C 
BRANCH   7   8
ATOM      8  C   UNL     1     -38.909  18.023 -29.909  1.00  0.00     0.041 C 
ATOM      9  O   UNL     1     -39.092  17.033 -29.152  1.00  0.00    -0.550 OA
ATOM     10  O   UNL     1     -39.975  18.536 -30.639  1.00  0.00    -0.550 OA
ENDBRANCH   7   8
ENDBRANCH   6   7
ENDBRANCH   5   6
ENDBRANCH   4   5
ENDBRANCH   3   4
ENDBRANCH   2   3
ENDBRANCH   1   2
BRANCH   1  11
ATOM     11  C   UNL     1     -40.912  23.266 -30.014  1.00  0.00     0.000 C 
BRANCH  11  12
ATOM     12  C   UNL     1     -40.493  22.340 -31.165  1.00  0.00     0.000 C 
BRANCH  12  13
ATOM     13  C   UNL     1     -39.129  22.753 -31.733  1.00  0.00     0.000 C 
BRANCH  13  14
ATOM     14  C   UNL     1     -38.434  23.768 -30.813  1.00  0.00     0.000 C 
BRANCH  14  15
ATOM     15  C   UNL     1     -36.908  23.587 -30.776  1.00  0.00     0.000 C 
BRANCH  15  16
ATOM     16  C   UNL     1     -36.312  23.874 -29.391  1.00  0.00     0.006 C 
BRANCH  16  17
ATOM     17  C   UNL     1     -36.774  25.237 -28.866  1.00  0.00     0.053 C 
BRANCH  17  18
ATOM     18  C   UNL     1     -37.476  25.085 -27.555  1.00  0.00     0.041 C 
ATOM     19  O   UNL     1     -36.817  24.856 -26.506  1.00  0.00    -0.550 OA
ATOM     20  O   UNL     1     -38.853  25.246 -27.480  1.00  0.00    -0.550 OA
ENDBRANCH  17  18
ENDBRANCH  16  17
ENDBRANCH  15  16
ENDBRANCH  14  15
ENDBRANCH  13  14
ENDBRANCH  12  13
ENDBRANCH  11  12
ENDBRANCH   1  11
TORSDOF 15
ENDMDL
MODEL 3
REMARK VINA RESULT:    -4.333      0.843      4.386
REMARK INTER + INTRA:         -10.197
REMARK INTER:                  -7.910
REMARK INTRA:                  -2.287
REMARK UNBOUND:                -2.064
REMARK SMILES O=C([O-])CCCCCCCCCCCCCCC(=O)[O-]
REMARK SMILES IDX 10 1 9 2 8 3 7 4 6 5 5 6 4 7 2 8 1 9 3 10 11 11 12 12 13 13
REMARK SMILES IDX 14 14 15 15 16 16 17 17 18 18 19 19 20 20
REMARK H PARENT
REMARK Flexibility Score: inf
ROOT
ATOM      1  C   UNL     1     -37.692  24.782 -29.702  1.00  0.00     0.000 C 
ENDROOT
BRANCH   1   2
ATOM      2  C   UNL     1     -37.272  24.095 -31.016  1.00  0.00     0.000 C 
BRANCH   2   3
ATOM      3  C   UNL     1     -37.912  22.717 -31.267  1.00  0.00     0.000 C 
BRANCH   3   4
ATOM      4  C   UNL     1     -39.154  22.792 -32.167  1.00  0.00     0.000 C 
BRANCH   4   5
ATOM      5  C   UNL     1     -40.432  22.503 -31.366  1.00  0.00     0.000 C 
BRANCH   5   6
ATOM      6  C   UNL     1     -40.159  22.210 -29.879  1.00  0.00     0.006 C 
BRANCH   6   7
ATOM      7  C   UNL     1     -41.367  22.463 -28.961  1.00  0.00     0.053 C 
BRANCH   7   8
ATOM      8  C   UNL     1     -41.654  21.307 -28.050  1.00  0.00     0.041 C 
ATOM      9  O   UNL     1     -40.709  20.638 -27.555  1.00  0.00    -0.550 OA
ATOM     10  O   UNL     1     -42.968  20.949 -27.774  1.00  0.00    -0.550 OA
ENDBRANCH   7   8
ENDBRANCH   6   7
ENDBRANCH   5   6
ENDBRANCH   4   5
ENDBRANCH   3   4
ENDBRANCH   2   3
ENDBRANCH   1   2
BRANCH   1  11
ATOM     11  C   UNL     1     -36.636  24.750 -28.582  1.00  0.00     0.000 C 
BRANCH  11  12
ATOM     12  C   UNL     1     -37.098  23.963 -27.348  1.00  0.00     0.000 C 
BRANCH  12  13
ATOM     13  C   UNL     1     -37.278  22.476 -27.680  1.00  0.00     0.000 C 
BRANCH  13  14
ATOM     14  C   UNL     1     -35.946  21.843 -28.109  1.00  0.00     0.000 C 
BRANCH  14  15
ATOM     15  C   UNL     1     -36.126  20.454 -28.741  1.00  0.00     0.000 C 
BRANCH  15  16
ATOM     16  C   UNL     1     -37.591  19.994 -28.753  1.00  0.00     0.006 C 
BRANCH  16  17
ATOM     17  C   UNL     1     -37.909  19.212 -30.031  1.00  0.00     0.053 C 
BRANCH  17  18
ATOM     18  C   UNL     1     -39.153  18.401 -29.854  1.00  0.00     0.041 C 
ATOM     19  O   UNL     1     -39.115  17.312 -29.224  1.00  0.00    -0.550 OA
ATOM     20  O   UNL     1     -40.366  18.872 -30.341  1.00  0.00    -0.550 OA
ENDBRANCH  17  18
ENDBRANCH  16  17
ENDBRANCH  15  16
ENDBRANCH  14  15
ENDBRANCH  13  14
ENDBRANCH  12  13
ENDBRANCH  11  12
ENDBRANCH   1  11
TORSDOF 15
ENDMDL
MODEL 4
REMARK VINA RESULT:    -4.302     15.432     16.956
REMARK INTER + INTRA:         -10.138
REMARK INTER:                  -7.490
REMARK INTRA:                  -2.648
REMARK UNBOUND:                -2.064
REMARK SMILES O=C([O-])CCCCCCCCCCCCCCC(=O)[O-]
REMARK SMILES IDX 10 1 9 2 8 3 7 4 6 5 5 6 4 7 2 8 1 9 3 10 11 11 12 12 13 13
REMARK SMILES IDX 14 14 15 15 16 16 17 17 18 18 19 19 20 20
REMARK H PARENT
REMARK Flexibility Score: inf
ROOT
ATOM      1  C   UNL     1     -52.004  13.990 -30.747  1.00  0.00     0.000 C 
ENDROOT
BRANCH   1   2
ATOM      2  C   UNL     1     -53.202  14.309 -31.664  1.00  0.00     0.000 C 
BRANCH   2   3
ATOM      3  C   UNL     1     -54.142  13.123 -31.946  1.00  0.00     0.000 C 
BRANCH   3   4
ATOM      4  C   UNL     1     -53.386  11.813 -32.213  1.00  0.00     0.000 C 
BRANCH   4   5
ATOM      5  C   UNL     1     -53.872  10.698 -31.276  1.00  0.00     0.000 C 
BRANCH   5   6
ATOM      6  C   UNL     1     -52.721   9.958 -30.569  1.00  0.00     0.006 C 
BRANCH   6   7
ATOM      7  C   UNL     1     -51.320  10.438 -30.986  1.00  0.00     0.053 C 
BRANCH   7   8
ATOM      8  C   UNL     1     -50.298  10.251 -29.905  1.00  0.00     0.041 C 
ATOM      9  O   UNL     1     -49.924   9.094 -29.577  1.00  0.00    -0.550 OA
ATOM     10  O   UNL     1     -49.784  11.355 -29.237  1.00  0.00    -0.550 OA
ENDBRANCH   7   8
ENDBRANCH   6   7
ENDBRANCH   5   6
ENDBRANCH   4   5
ENDBRANCH   3   4
ENDBRANCH   2   3
ENDBRANCH   1   2
BRANCH   1  11
ATOM     11  C   UNL     1     -52.245  14.243 -29.248  1.00  0.00     0.000 C 
BRANCH  11  12
ATOM     12  C   UNL     1     -52.764  13.002 -28.509  1.00  0.00     0.000 C 
BRANCH  12  13
ATOM     13  C   UNL     1     -54.274  13.104 -28.256  1.00  0.00     0.000 C 
BRANCH  13  14
ATOM     14  C   UNL     1     -54.726  14.572 -28.214  1.00  0.00     0.000 C 
BRANCH  14  15
ATOM     15  C   UNL     1     -55.915  14.853 -29.147  1.00  0.00     0.000 C 
BRANCH  15  16
ATOM     16  C   UNL     1     -55.941  16.304 -29.650  1.00  0.00     0.006 C 
BRANCH  16  17
ATOM     17  C   UNL     1     -54.636  17.028 -29.305  1.00  0.00     0.053 C 
BRANCH  17  18
ATOM     18  C   UNL     1     -54.914  18.255 -28.498  1.00  0.00     0.041 C 
ATOM     19  O   UNL     1     -55.054  18.175 -27.250  1.00  0.00    -0.550 OA
ATOM     20  O   UNL     1     -54.970  19.497 -29.118  1.00  0.00    -0.550 OA
ENDBRANCH  17  18
ENDBRANCH  16  17
ENDBRANCH  15  16
ENDBRANCH  14  15
ENDBRANCH  13  14
ENDBRANCH  12  13
ENDBRANCH  11  12
ENDBRANCH   1  11
TORSDOF 15
ENDMDL
MODEL 5
REMARK VINA RESULT:    -4.283     14.541     16.777
REMARK INTER + INTRA:         -10.102
REMARK INTER:                  -8.464
REMARK INTRA:                  -1.638
REMARK UNBOUND:                -2.064
REMARK SMILES O=C([O-])CCCCCCCCCCCCCCC(=O)[O-]
REMARK SMILES IDX 10 1 9 2 8 3 7 4 6 5 5 6 4 7 2 8 1 9 3 10 11 11 12 12 13 13
REMARK SMILES IDX 14 14 15 15 16 16 17 17 18 18 19 19 20 20
REMARK H PARENT
REMARK Flexibility Score: inf
ROOT
ATOM      1  C   UNL     1     -51.507  12.605 -29.663  1.00  0.00     0.000 C 
ENDROOT
BRANCH   1   2
ATOM      2  C   UNL     1     -51.558  14.128 -29.431  1.00  0.00     0.000 C 
BRANCH   2   3
ATOM      3  C   UNL     1     -51.276  14.988 -30.677  1.00  0.00     0.000 C 
BRANCH   3   4
ATOM      4  C   UNL     1     -52.554  15.369 -31.439  1.00  0.00     0.000 C 
BRANCH   4   5
ATOM      5  C   UNL     1     -53.775  15.348 -30.509  1.00  0.00     0.000 C 
BRANCH   5   6
ATOM      6  C   UNL     1     -54.415  16.736 -30.319  1.00  0.00     0.006 C 
BRANCH   6   7
ATOM      7  C   UNL     1     -53.658  17.874 -31.025  1.00  0.00     0.053 C 
BRANCH   7   8
ATOM      8  C   UNL     1     -53.811  19.191 -30.326  1.00  0.00     0.041 C 
ATOM      9  O   UNL     1     -53.769  19.253 -29.068  1.00  0.00    -0.550 OA
ATOM     10  O   UNL     1     -54.033  20.348 -31.063  1.00  0.00    -0.550 OA
ENDBRANCH   7   8
ENDBRANCH   6   7
ENDBRANCH   5   6
ENDBRANCH   4   5
ENDBRANCH   3   4
ENDBRANCH   2   3
ENDBRANCH   1   2
BRANCH   1  11
ATOM     11  C   UNL     1     -52.844  11.869 -29.460  1.00  0.00     0.000 C 
BRANCH  11  12
ATOM     12  C   UNL     1     -53.102  10.796 -30.528  1.00  0.00     0.000 C 
BRANCH  12  13
ATOM     13  C   UNL     1     -52.513  11.214 -31.881  1.00  0.00     0.000 C 
BRANCH  13  14
ATOM     14  C   UNL     1     -51.945  10.001 -32.632  1.00  0.00     0.000 C 
BRANCH  14  15
ATOM     15  C   UNL     1     -50.464  10.175 -33.006  1.00  0.00     0.000 C 
BRANCH  15  16
ATOM     16  C   UNL     1     -49.533   9.295 -32.160  1.00  0.00     0.006 C 
BRANCH  16  17
ATOM     17  C   UNL     1     -48.956  10.084 -30.980  1.00  0.00     0.053 C 
BRANCH  17  18
ATOM     18  C   UNL     1     -49.161   9.339 -29.700  1.00  0.00     0.041 C 
ATOM     19  O   UNL     1     -48.193   9.144 -28.919  1.00  0.00    -0.550 OA
ATOM     20  O   UNL     1     -50.431   8.904 -29.344  1.00  0.00    -0.550 OA
ENDBRANCH  17  18
ENDBRANCH  16  17
ENDBRANCH  15  16
ENDBRANCH  14  15
ENDBRANCH  13  14
ENDBRANCH  12  13
ENDBRANCH  11  12
ENDBRANCH   1  11
TORSDOF 15
ENDMDL
MODEL 6
REMARK VINA RESULT:    -4.282     14.661     17.101
REMARK INTER + INTRA:         -10.101
REMARK INTER:                  -7.703
REMARK INTRA:                  -2.398
REMARK UNBOUND:                -2.064
REMARK SMILES O=C([O-])CCCCCCCCCCCCCCC(=O)[O-]
REMARK SMILES IDX 10 1 9 2 8 3 7 4 6 5 5 6 4 7 2 8 1 9 3 10 11 11 12 12 13 13
REMARK SMILES IDX 14 14 15 15 16 16 17 17 18 18 19 19 20 20
REMARK H PARENT
REMARK Flexibility Score: inf
ROOT
ATOM      1  C   UNL     1     -54.224  17.329 -29.980  1.00  0.00     0.000 C 
ENDROOT
BRANCH   1   2
ATOM      2  C   UNL     1     -55.661  16.800 -30.156  1.00  0.00     0.000 C 
BRANCH   2   3
ATOM      3  C   UNL     1     -55.908  15.384 -29.602  1.00  0.00     0.000 C 
BRANCH   3   4
ATOM      4  C   UNL     1     -55.179  15.129 -28.275  1.00  0.00     0.000 C 
BRANCH   4   5
ATOM      5  C   UNL     1     -54.901  13.631 -28.080  1.00  0.00     0.000 C 
BRANCH   5   6
ATOM      6  C   UNL     1     -55.295  12.779 -29.301  1.00  0.00     0.006 C 
BRANCH   6   7
ATOM      7  C   UNL     1     -54.680  11.370 -29.304  1.00  0.00     0.053 C 
BRANCH   7   8
ATOM      8  C   UNL     1     -54.792  10.692 -30.637  1.00  0.00     0.041 C 
ATOM      9  O   UNL     1     -53.918  10.885 -31.524  1.00  0.00    -0.550 OA
ATOM     10  O   UNL     1     -55.880   9.873 -30.911  1.00  0.00    -0.550 OA
ENDBRANCH   7   8
ENDBRANCH   6   7
ENDBRANCH   5   6
ENDBRANCH   4   5
ENDBRANCH   3   4
ENDBRANCH   2   3
ENDBRANCH   1   2
BRANCH   1  11
ATOM     11  C   UNL     1     -53.375  17.348 -31.264  1.00  0.00     0.000 C 
BRANCH  11  12
ATOM     12  C   UNL     1     -52.265  16.287 -31.261  1.00  0.00     0.000 C 
BRANCH  12  13
ATOM     13  C   UNL     1     -52.825  14.904 -31.614  1.00  0.00     0.000 C 
BRANCH  13  14
ATOM     14  C   UNL     1     -52.040  13.794 -30.899  1.00  0.00     0.000 C 
BRANCH  14  15
ATOM     15  C   UNL     1     -51.615  14.189 -29.476  1.00  0.00     0.000 C 
BRANCH  15  16
ATOM     16  C   UNL     1     -51.380  12.972 -28.570  1.00  0.00     0.006 C 
BRANCH  16  17
ATOM     17  C   UNL     1     -49.996  12.363 -28.818  1.00  0.00     0.053 C 
BRANCH  17  18
ATOM     18  C   UNL     1     -50.124  10.999 -29.419  1.00  0.00     0.041 C 
ATOM     19  O   UNL     1     -51.211  10.371 -29.340  1.00  0.00    -0.550 OA
ATOM     20  O   UNL     1     -49.056  10.442 -30.111  1.00  0.00    -0.550 OA
ENDBRANCH  17  18
ENDBRANCH  16  17
ENDBRANCH  15  16
ENDBRANCH  14  15
ENDBRANCH  13  14
ENDBRANCH  12  13
ENDBRANCH  11  12
ENDBRANCH   1  11
TORSDOF 15
ENDMDL
MODEL 7
REMARK VINA RESULT:    -4.275     14.875     16.432
REMARK INTER + INTRA:         -10.087
REMARK INTER:                  -8.072
REMARK INTRA:                  -2.016
REMARK UNBOUND:                -2.064
REMARK SMILES O=C([O-])CCCCCCCCCCCCCCC(=O)[O-]
REMARK SMILES IDX 10 1 9 2 8 3 7 4 6 5 5 6 4 7 2 8 1 9 3 10 11 11 12 12 13 13
REMARK SMILES IDX 14 14 15 15 16 16 17 17 18 18 19 19 20 20
REMARK H PARENT
REMARK Flexibility Score: inf
ROOT
ATOM      1  C   UNL     1     -52.418  16.478 -31.471  1.00  0.00     0.000 C 
ENDROOT
BRANCH   1   2
ATOM      2  C   UNL     1     -53.021  15.060 -31.418  1.00  0.00     0.000 C 
BRANCH   2   3
ATOM      3  C   UNL     1     -52.057  13.957 -30.943  1.00  0.00     0.000 C 
BRANCH   3   4
ATOM      4  C   UNL     1     -51.491  14.223 -29.541  1.00  0.00     0.000 C 
BRANCH   4   5
ATOM      5  C   UNL     1     -50.977  12.925 -28.901  1.00  0.00     0.000 C 
BRANCH   5   6
ATOM      6  C   UNL     1     -50.880  11.756 -29.898  1.00  0.00     0.006 C 
BRANCH   6   7
ATOM      7  C   UNL     1     -50.409  10.434 -29.268  1.00  0.00     0.053 C 
BRANCH   7   8
ATOM      8  C   UNL     1     -49.079   9.985 -29.793  1.00  0.00     0.041 C 
ATOM      9  O   UNL     1     -48.784  10.151 -31.006  1.00  0.00    -0.550 OA
ATOM     10  O   UNL     1     -48.176   9.351 -28.948  1.00  0.00    -0.550 OA
ENDBRANCH   7   8
ENDBRANCH   6   7
ENDBRANCH   5   6
ENDBRANCH   4   5
ENDBRANCH   3   4
ENDBRANCH   2   3
ENDBRANCH   1   2
BRANCH   1  11
ATOM     11  C   UNL     1     -53.355  17.604 -30.999  1.00  0.00     0.000 C 
BRANCH  11  12
ATOM     12  C   UNL     1     -54.762  17.101 -30.647  1.00  0.00     0.000 C 
BRANCH  12  13
ATOM     13  C   UNL     1     -55.101  17.400 -29.181  1.00  0.00     0.000 C 
BRANCH  13  14
ATOM     14  C   UNL     1     -54.494  16.340 -28.249  1.00  0.00     0.000 C 
BRANCH  14  15
ATOM     15  C   UNL     1     -55.528  15.306 -27.775  1.00  0.00     0.000 C 
BRANCH  15  16
ATOM     16  C   UNL     1     -55.678  14.129 -28.750  1.00  0.00     0.006 C 
BRANCH  16  17
ATOM     17  C   UNL     1     -54.693  13.006 -28.410  1.00  0.00     0.053 C 
BRANCH  17  18
ATOM     18  C   UNL     1     -54.773  11.912 -29.426  1.00  0.00     0.041 C 
ATOM     19  O   UNL     1     -54.508  10.725 -29.101  1.00  0.00    -0.550 OA
ATOM     20  O   UNL     1     -55.191  12.193 -30.720  1.00  0.00    -0.550 OA
ENDBRANCH  17  18
ENDBRANCH  16  17
ENDBRANCH  15  16
ENDBRANCH  14  15
ENDBRANCH  13  14
ENDBRANCH  12  13
ENDBRANCH  11  12
ENDBRANCH   1  11
TORSDOF 15
ENDMDL
MODEL 8
REMARK VINA RESULT:    -4.235     14.936     16.632
REMARK INTER + INTRA:         -10.012
REMARK INTER:                  -7.825
REMARK INTRA:                  -2.187
REMARK UNBOUND:                -2.064
REMARK SMILES O=C([O-])CCCCCCCCCCCCCCC(=O)[O-]
REMARK SMILES IDX 10 1 9 2 8 3 7 4 6 5 5 6 4 7 2 8 1 9 3 10 11 11 12 12 13 13
REMARK SMILES IDX 14 14 15 15 16 16 17 17 18 18 19 19 20 20
REMARK H PARENT
REMARK Flexibility Score: inf
ROOT
ATOM      1  C   UNL     1     -54.165  13.140 -28.543  1.00  0.00     0.000 C 
ENDROOT
BRANCH   1   2
ATOM      2  C   UNL     1     -54.919  11.997 -29.251  1.00  0.00     0.000 C 
BRANCH   2   3
ATOM      3  C   UNL     1     -54.849  12.023 -30.789  1.00  0.00     0.000 C 
BRANCH   3   4
ATOM      4  C   UNL     1     -53.898  10.961 -31.360  1.00  0.00     0.000 C 
BRANCH   4   5
ATOM      5  C   UNL     1     -53.673   9.826 -30.351  1.00  0.00     0.000 C 
BRANCH   5   6
ATOM      6  C   UNL     1     -52.192   9.637 -29.974  1.00  0.00     0.006 C 
BRANCH   6   7
ATOM      7  C   UNL     1     -51.210  10.348 -30.921  1.00  0.00     0.053 C 
BRANCH   7   8
ATOM      8  C   UNL     1     -49.795   9.887 -30.740  1.00  0.00     0.041 C 
ATOM      9  O   UNL     1     -49.398   9.478 -29.617  1.00  0.00    -0.550 OA
ATOM     10  O   UNL     1     -48.905   9.941 -31.806  1.00  0.00    -0.550 OA
ENDBRANCH   7   8
ENDBRANCH   6   7
ENDBRANCH   5   6
ENDBRANCH   4   5
ENDBRANCH   3   4
ENDBRANCH   2   3
ENDBRANCH   1   2
BRANCH   1  11
ATOM     11  C   UNL     1     -52.630  13.032 -28.582  1.00  0.00     0.000 C 
BRANCH  11  12
ATOM     12  C   UNL     1     -51.961  14.254 -29.228  1.00  0.00     0.000 C 
BRANCH  12  13
ATOM     13  C   UNL     1     -51.841  14.076 -30.747  1.00  0.00     0.000 C 
BRANCH  13  14
ATOM     14  C   UNL     1     -52.790  15.030 -31.488  1.00  0.00     0.000 C 
BRANCH  14  15
ATOM     15  C   UNL     1     -52.294  16.484 -31.483  1.00  0.00     0.000 C 
BRANCH  15  16
ATOM     16  C   UNL     1     -53.398  17.484 -31.109  1.00  0.00     0.006 C 
BRANCH  16  17
ATOM     17  C   UNL     1     -54.463  16.822 -30.229  1.00  0.00     0.053 C 
BRANCH  17  18
ATOM     18  C   UNL     1     -54.471  17.433 -28.864  1.00  0.00     0.041 C 
ATOM     19  O   UNL     1     -54.561  16.702 -27.843  1.00  0.00    -0.550 OA
ATOM     20  O   UNL     1     -54.328  18.807 -28.716  1.00  0.00    -0.550 OA
ENDBRANCH  17  18
ENDBRANCH  16  17
ENDBRANCH  15  16
ENDBRANCH  14  15
ENDBRANCH  13  14
ENDBRANCH  12  13
ENDBRANCH  11  12
ENDBRANCH   1  11
TORSDOF 15
ENDMDL
MODEL 9
REMARK VINA RESULT:    -4.197     15.455     17.552
REMARK INTER + INTRA:          -9.941
REMARK INTER:                  -7.791
REMARK INTRA:                  -2.150
REMARK UNBOUND:                -2.064
REMARK SMILES O=C([O-])CCCCCCCCCCCCCCC(=O)[O-]
REMARK SMILES IDX 10 1 9 2 8 3 7 4 6 5 5 6 4 7 2 8 1 9 3 10 11 11 12 12 13 13
REMARK SMILES IDX 14 14 15 15 16 16 17 17 18 18 19 19 20 20
REMARK H PARENT
REMARK Flexibility Score: inf
ROOT
ATOM      1  C   UNL     1     -52.081  13.393 -30.352  1.00  0.00     0.000 C 
ENDROOT
BRANCH   1   2
ATOM      2  C   UNL     1     -52.540  13.684 -28.909  1.00  0.00     0.000 C 
BRANCH   2   3
ATOM      3  C   UNL     1     -53.833  12.968 -28.478  1.00  0.00     0.000 C 
BRANCH   3   4
ATOM      4  C   UNL     1     -54.940  13.943 -28.051  1.00  0.00     0.000 C 
BRANCH   4   5
ATOM      5  C   UNL     1     -55.848  14.298 -29.237  1.00  0.00     0.000 C 
BRANCH   5   6
ATOM      6  C   UNL     1     -55.960  15.814 -29.480  1.00  0.00     0.006 C 
BRANCH   6   7
ATOM      7  C   UNL     1     -54.656  16.587 -29.218  1.00  0.00     0.053 C 
BRANCH   7   8
ATOM      8  C   UNL     1     -54.846  17.743 -28.283  1.00  0.00     0.041 C 
ATOM      9  O   UNL     1     -54.905  18.919 -28.728  1.00  0.00    -0.550 OA
ATOM     10  O   UNL     1     -54.925  17.522 -26.913  1.00  0.00    -0.550 OA
ENDBRANCH   7   8
ENDBRANCH   6   7
ENDBRANCH   5   6
ENDBRANCH   4   5
ENDBRANCH   3   4
ENDBRANCH   2   3
ENDBRANCH   1   2
BRANCH   1  11
ATOM     11  C   UNL     1     -52.979  13.985 -31.454  1.00  0.00     0.000 C 
BRANCH  11  12
ATOM     12  C   UNL     1     -53.900  12.939 -32.099  1.00  0.00     0.000 C 
BRANCH  12  13
ATOM     13  C   UNL     1     -53.179  11.595 -32.258  1.00  0.00     0.000 C 
BRANCH  13  14
ATOM     14  C   UNL     1     -53.912  10.483 -31.492  1.00  0.00     0.000 C 
BRANCH  14  15
ATOM     15  C   UNL     1     -53.031   9.819 -30.422  1.00  0.00     0.000 C 
BRANCH  15  16
ATOM     16  C   UNL     1     -51.592   9.581 -30.905  1.00  0.00     0.006 C 
BRANCH  16  17
ATOM     17  C   UNL     1     -50.579  10.038 -29.851  1.00  0.00     0.053 C 
BRANCH  17  18
ATOM     18  C   UNL     1     -49.208  10.124 -30.443  1.00  0.00     0.041 C 
ATOM     19  O   UNL     1     -48.228  10.455 -29.727  1.00  0.00    -0.550 OA
ATOM     20  O   UNL     1     -49.005   9.790 -31.776  1.00  0.00    -0.550 OA
ENDBRANCH  17  18
ENDBRANCH  16  17
ENDBRANCH  15  16
ENDBRANCH  14  15
ENDBRANCH  13  14
ENDBRANCH  12  13
ENDBRANCH  11  12
ENDBRANCH   1  11
TORSDOF 15
ENDMDL
