MODEL 1
REMARK VINA RESULT:    -5.060      0.000      0.000
REMARK INTER + INTRA:          -8.512
REMARK INTER:                  -7.723
REMARK INTRA:                  -0.790
REMARK UNBOUND:                -0.790
REMARK SMILES C=CCCCCCCCCCC
REMARK SMILES IDX 7 1 8 2 9 3 10 4 11 5 12 6 6 7 5 8 4 9 3 10 2 11 1 12
REMARK H PARENT
REMARK Flexibility Score: inf
ROOT
ATOM      1  C   UNL     1       4.580   7.374  12.784  1.00  0.00     0.000 C 
ENDROOT
BRANCH   1   2
ATOM      2  C   UNL     1       5.130   8.335  11.717  1.00  0.00    -0.000 C 
BRANCH   2   3
ATOM      3  C   UNL     1       4.035   9.201  11.068  1.00  0.00    -0.000 C 
BRANCH   3   4
ATOM      4  C   UNL     1       3.937  10.642  11.600  1.00  0.00    -0.000 C 
BRANCH   4   5
ATOM      5  C   UNL     1       2.498  11.178  11.621  1.00  0.00    -0.003 C 
ATOM      6  C   UNL     1       1.816  10.871  12.952  1.00  0.00     0.004 C 
ENDBRANCH   4   5
ENDBRANCH   3   4
ENDBRANCH   2   3
ENDBRANCH   1   2
BRANCH   1   7
ATOM      7  C   UNL     1       4.345   5.951  12.244  1.00  0.00     0.000 C 
BRANCH   7   8
ATOM      8  C   UNL     1       5.311   4.875  12.780  1.00  0.00     0.000 C 
BRANCH   8   9
ATOM      9  C   UNL     1       6.549   5.415  13.521  1.00  0.00     0.004 C 
BRANCH   9  10
ATOM     10  C   UNL     1       7.748   5.726  12.608  1.00  0.00     0.027 C 
BRANCH  10  11
ATOM     11  C   UNL     1       8.300   7.109  12.829  1.00  0.00    -0.035 C 
ATOM     12  C   UNL     1       8.100   7.773  13.971  1.00  0.00     0.004 C 
ENDBRANCH  10  11
ENDBRANCH   9  10
ENDBRANCH   8   9
ENDBRANCH   7   8
ENDBRANCH   1   7
TORSDOF 9
ENDMDL
MODEL 2
REMARK VINA RESULT:    -4.898      0.559      5.840
REMARK INTER + INTRA:          -8.265
REMARK INTER:                  -7.496
REMARK INTRA:                  -0.769
REMARK UNBOUND:                -0.790
REMARK SMILES C=CCCCCCCCCCC
REMARK SMILES IDX 7 1 8 2 9 3 10 4 11 5 12 6 6 7 5 8 4 9 3 10 2 11 1 12
REMARK H PARENT
REMARK Flexibility Score: inf
ROOT
ATOM      1  C   UNL     1       4.430   7.450  12.696  1.00  0.00     0.000 C 
ENDROOT
BRANCH   1   2
ATOM      2  C   UNL     1       4.807   5.988  12.404  1.00  0.00    -0.000 C 
BRANCH   2   3
ATOM      3  C   UNL     1       5.975   5.483  13.272  1.00  0.00    -0.000 C 
BRANCH   3   4
ATOM      4  C   UNL     1       7.348   5.461  12.575  1.00  0.00    -0.000 C 
BRANCH   4   5
ATOM      5  C   UNL     1       8.118   6.781  12.726  1.00  0.00    -0.003 C 
ATOM      6  C   UNL     1       7.793   7.459  14.054  1.00  0.00     0.004 C 
ENDBRANCH   4   5
ENDBRANCH   3   4
ENDBRANCH   2   3
ENDBRANCH   1   2
BRANCH   1   7
ATOM      7  C   UNL     1       4.999   8.433  11.657  1.00  0.00     0.000 C 
BRANCH   7   8
ATOM      8  C   UNL     1       3.962   9.356  10.986  1.00  0.00     0.000 C 
BRANCH   8   9
ATOM      9  C   UNL     1       4.201  10.865  11.186  1.00  0.00     0.004 C 
BRANCH   9  10
ATOM     10  C   UNL     1       3.161  11.557  12.086  1.00  0.00     0.027 C 
BRANCH  10  11
ATOM     11  C   UNL     1       2.181  10.586  12.688  1.00  0.00    -0.035 C 
ATOM     12  C   UNL     1       0.883  10.879  12.809  1.00  0.00     0.004 C 
ENDBRANCH  10  11
ENDBRANCH   9  10
ENDBRANCH   8   9
ENDBRANCH   7   8
ENDBRANCH   1   7
TORSDOF 9
ENDMDL
MODEL 3
REMARK VINA RESULT:    -4.887      1.058      1.624
REMARK INTER + INTRA:          -8.248
REMARK INTER:                  -7.534
REMARK INTRA:                  -0.714
REMARK UNBOUND:                -0.790
REMARK SMILES C=CCCCCCCCCCC
REMARK SMILES IDX 7 1 8 2 9 3 10 4 11 5 12 6 6 7 5 8 4 9 3 10 2 11 1 12
REMARK H PARENT
REMARK Flexibility Score: inf
ROOT
ATOM      1  C   UNL     1       5.118   8.618  11.618  1.00  0.00     0.000 C 
ENDROOT
BRANCH   1   2
ATOM      2  C   UNL     1       4.166   9.583  10.893  1.00  0.00    -0.000 C 
BRANCH   2   3
ATOM      3  C   UNL     1       4.004  10.929  11.623  1.00  0.00    -0.000 C 
BRANCH   3   4
ATOM      4  C   UNL     1       2.681  11.103  12.392  1.00  0.00    -0.000 C 
BRANCH   4   5
ATOM      5  C   UNL     1       2.686  12.320  13.327  1.00  0.00    -0.003 C 
ATOM      6  C   UNL     1       3.951  13.153  13.140  1.00  0.00     0.004 C 
ENDBRANCH   4   5
ENDBRANCH   3   4
ENDBRANCH   2   3
ENDBRANCH   1   2
BRANCH   1   7
ATOM      7  C   UNL     1       4.380   7.619  12.527  1.00  0.00     0.000 C 
BRANCH   7   8
ATOM      8  C   UNL     1       4.828   6.150  12.393  1.00  0.00     0.000 C 
BRANCH   8   9
ATOM      9  C   UNL     1       6.033   5.750  13.265  1.00  0.00     0.004 C 
BRANCH   9  10
ATOM     10  C   UNL     1       7.391   5.828  12.544  1.00  0.00     0.027 C 
BRANCH  10  11
ATOM     11  C   UNL     1       8.190   7.038  12.947  1.00  0.00    -0.035 C 
ATOM     12  C   UNL     1       7.899   7.741  14.046  1.00  0.00     0.004 C 
ENDBRANCH  10  11
ENDBRANCH   9  10
ENDBRANCH   8   9
ENDBRANCH   7   8
ENDBRANCH   1   7
TORSDOF 9
ENDMDL
MODEL 4
REMARK VINA RESULT:    -4.876      1.280      5.780
REMARK INTER + INTRA:          -8.231
REMARK INTER:                  -7.603
REMARK INTRA:                  -0.628
REMARK UNBOUND:                -0.790
REMARK SMILES C=CCCCCCCCCCC
REMARK SMILES IDX 7 1 8 2 9 3 10 4 11 5 12 6 6 7 5 8 4 9 3 10 2 11 1 12
REMARK H PARENT
REMARK Flexibility Score: inf
ROOT
ATOM      1  C   UNL     1       4.372   7.597  12.662  1.00  0.00     0.000 C 
ENDROOT
BRANCH   1   2
ATOM      2  C   UNL     1       4.736   6.130  12.380  1.00  0.00    -0.000 C 
BRANCH   2   3
ATOM      3  C   UNL     1       5.895   5.620  13.257  1.00  0.00    -0.000 C 
BRANCH   3   4
ATOM      4  C   UNL     1       7.266   5.555  12.560  1.00  0.00    -0.000 C 
BRANCH   4   5
ATOM      5  C   UNL     1       8.100   6.829  12.756  1.00  0.00    -0.003 C 
ATOM      6  C   UNL     1       7.771   7.503  14.086  1.00  0.00     0.004 C 
ENDBRANCH   4   5
ENDBRANCH   3   4
ENDBRANCH   2   3
ENDBRANCH   1   2
BRANCH   1   7
ATOM      7  C   UNL     1       5.013   8.576  11.662  1.00  0.00     0.000 C 
BRANCH   7   8
ATOM      8  C   UNL     1       4.025   9.486  10.905  1.00  0.00     0.000 C 
BRANCH   8   9
ATOM      9  C   UNL     1       3.188  10.428  11.793  1.00  0.00     0.004 C 
BRANCH   9  10
ATOM     10  C   UNL     1       3.795  11.831  11.974  1.00  0.00     0.027 C 
BRANCH  10  11
ATOM     11  C   UNL     1       3.084  12.636  13.028  1.00  0.00    -0.035 C 
ATOM     12  C   UNL     1       3.731  13.515  13.799  1.00  0.00     0.004 C 
ENDBRANCH  10  11
ENDBRANCH   9  10
ENDBRANCH   8   9
ENDBRANCH   7   8
ENDBRANCH   1   7
TORSDOF 9
ENDMDL
MODEL 5
REMARK VINA RESULT:    -4.734      0.768      5.551
REMARK INTER + INTRA:          -8.014
REMARK INTER:                  -7.100
REMARK INTRA:                  -0.914
REMARK UNBOUND:                -0.790
REMARK SMILES C=CCCCCCCCCCC
REMARK SMILES IDX 7 1 8 2 9 3 10 4 11 5 12 6 6 7 5 8 4 9 3 10 2 11 1 12
REMARK H PARENT
REMARK Flexibility Score: inf
ROOT
ATOM      1  C   UNL     1       4.483   6.065  12.351  1.00  0.00     0.000 C 
ENDROOT
BRANCH   1   2
ATOM      2  C   UNL     1       5.527   5.366  13.236  1.00  0.00    -0.000 C 
BRANCH   2   3
ATOM      3  C   UNL     1       6.843   5.071  12.492  1.00  0.00    -0.000 C 
BRANCH   3   4
ATOM      4  C   UNL     1       7.896   6.193  12.550  1.00  0.00    -0.000 C 
BRANCH   4   5
ATOM      5  C   UNL     1       7.808   7.033  13.832  1.00  0.00    -0.003 C 
ATOM      6  C   UNL     1       7.921   8.523  13.523  1.00  0.00     0.004 C 
ENDBRANCH   4   5
ENDBRANCH   3   4
ENDBRANCH   2   3
ENDBRANCH   1   2
BRANCH   1   7
ATOM      7  C   UNL     1       4.404   7.582  12.603  1.00  0.00     0.000 C 
BRANCH   7   8
ATOM      8  C   UNL     1       4.892   8.470  11.441  1.00  0.00     0.000 C 
BRANCH   8   9
ATOM      9  C   UNL     1       4.400   9.930  11.479  1.00  0.00     0.004 C 
BRANCH   9  10
ATOM     10  C   UNL     1       2.878  10.082  11.647  1.00  0.00     0.027 C 
BRANCH  10  11
ATOM     11  C   UNL     1       2.510  11.118  12.675  1.00  0.00    -0.035 C 
ATOM     12  C   UNL     1       1.255  11.268  13.107  1.00  0.00     0.004 C 
ENDBRANCH  10  11
ENDBRANCH   9  10
ENDBRANCH   8   9
ENDBRANCH   7   8
ENDBRANCH   1   7
TORSDOF 9
ENDMDL
MODEL 6
REMARK VINA RESULT:    -4.685      1.365      6.058
REMARK INTER + INTRA:          -7.939
REMARK INTER:                  -7.415
REMARK INTRA:                  -0.524
REMARK UNBOUND:                -0.790
REMARK SMILES C=CCCCCCCCCCC
REMARK SMILES IDX 7 1 8 2 9 3 10 4 11 5 12 6 6 7 5 8 4 9 3 10 2 11 1 12
REMARK H PARENT
REMARK Flexibility Score: inf
ROOT
ATOM      1  C   UNL     1       5.134   8.662  11.644  1.00  0.00     0.000 C 
ENDROOT
BRANCH   1   2
ATOM      2  C   UNL     1       4.730   7.232  12.038  1.00  0.00    -0.000 C 
BRANCH   2   3
ATOM      3  C   UNL     1       5.492   6.711  13.271  1.00  0.00    -0.000 C 
BRANCH   3   4
ATOM      4  C   UNL     1       6.749   5.877  12.960  1.00  0.00    -0.000 C 
BRANCH   4   5
ATOM      5  C   UNL     1       8.004   6.738  12.753  1.00  0.00    -0.003 C 
ATOM      6  C   UNL     1       8.132   7.796  13.845  1.00  0.00     0.004 C 
ENDBRANCH   4   5
ENDBRANCH   3   4
ENDBRANCH   2   3
ENDBRANCH   1   2
BRANCH   1   7
ATOM      7  C   UNL     1       3.995   9.437  10.957  1.00  0.00     0.000 C 
BRANCH   7   8
ATOM      8  C   UNL     1       3.564  10.739  11.662  1.00  0.00     0.000 C 
BRANCH   8   9
ATOM      9  C   UNL     1       2.212  10.670  12.397  1.00  0.00     0.004 C 
BRANCH   9  10
ATOM     10  C   UNL     1       1.993  11.794  13.426  1.00  0.00     0.027 C 
BRANCH  10  11
ATOM     11  C   UNL     1       2.913  12.965  13.208  1.00  0.00    -0.035 C 
ATOM     12  C   UNL     1       3.552  13.557  14.221  1.00  0.00     0.004 C 
ENDBRANCH  10  11
ENDBRANCH   9  10
ENDBRANCH   8   9
ENDBRANCH   7   8
ENDBRANCH   1   7
TORSDOF 9
ENDMDL
MODEL 7
REMARK VINA RESULT:    -4.536      1.476      2.875
REMARK INTER + INTRA:          -7.712
REMARK INTER:                  -7.148
REMARK INTRA:                  -0.564
REMARK UNBOUND:                -0.790
REMARK SMILES C=CCCCCCCCCCC
REMARK SMILES IDX 7 1 8 2 9 3 10 4 11 5 12 6 6 7 5 8 4 9 3 10 2 11 1 12
REMARK H PARENT
REMARK Flexibility Score: inf
ROOT
ATOM      1  C   UNL     1       4.255  10.017  11.043  1.00  0.00     0.000 C 
ENDROOT
BRANCH   1   2
ATOM      2  C   UNL     1       3.069  10.150  12.011  1.00  0.00    -0.000 C 
BRANCH   2   3
ATOM      3  C   UNL     1       2.557  11.597  12.141  1.00  0.00    -0.000 C 
BRANCH   3   4
ATOM      4  C   UNL     1       2.263  12.062  13.579  1.00  0.00    -0.000 C 
BRANCH   4   5
ATOM      5  C   UNL     1       3.230  13.151  14.067  1.00  0.00    -0.003 C 
ATOM      6  C   UNL     1       3.916  13.844  12.893  1.00  0.00     0.004 C 
ENDBRANCH   4   5
ENDBRANCH   3   4
ENDBRANCH   2   3
ENDBRANCH   1   2
BRANCH   1   7
ATOM      7  C   UNL     1       4.936   8.638  11.116  1.00  0.00     0.000 C 
BRANCH   7   8
ATOM      8  C   UNL     1       4.774   7.894  12.457  1.00  0.00     0.000 C 
BRANCH   8   9
ATOM      9  C   UNL     1       4.402   6.403  12.338  1.00  0.00     0.004 C 
BRANCH   9  10
ATOM     10  C   UNL     1       5.534   5.435  12.729  1.00  0.00     0.027 C 
BRANCH  10  11
ATOM     11  C   UNL     1       6.840   6.142  12.971  1.00  0.00    -0.035 C 
ATOM     12  C   UNL     1       7.910   5.928  12.199  1.00  0.00     0.004 C 
ENDBRANCH  10  11
ENDBRANCH   9  10
ENDBRANCH   8   9
ENDBRANCH   7   8
ENDBRANCH   1   7
TORSDOF 9
ENDMDL
MODEL 8
REMARK VINA RESULT:    -4.387      1.433      5.695
REMARK INTER + INTRA:          -7.484
REMARK INTER:                  -6.780
REMARK INTRA:                  -0.704
REMARK UNBOUND:                -0.790
REMARK SMILES C=CCCCCCCCCCC
REMARK SMILES IDX 7 1 8 2 9 3 10 4 11 5 12 6 6 7 5 8 4 9 3 10 2 11 1 12
REMARK H PARENT
REMARK Flexibility Score: inf
ROOT
ATOM      1  C   UNL     1       6.044   8.555  12.081  1.00  0.00     0.000 C 
ENDROOT
BRANCH   1   2
ATOM      2  C   UNL     1       7.171   7.613  11.625  1.00  0.00    -0.000 C 
BRANCH   2   3
ATOM      3  C   UNL     1       7.483   6.509  12.651  1.00  0.00    -0.000 C 
BRANCH   3   4
ATOM      4  C   UNL     1       6.276   6.013  13.469  1.00  0.00    -0.000 C 
BRANCH   4   5
ATOM      5  C   UNL     1       5.510   4.875  12.778  1.00  0.00    -0.003 C 
ATOM      6  C   UNL     1       4.102   5.317  12.389  1.00  0.00     0.004 C 
ENDBRANCH   4   5
ENDBRANCH   3   4
ENDBRANCH   2   3
ENDBRANCH   1   2
BRANCH   1   7
ATOM      7  C   UNL     1       5.130   8.999  10.924  1.00  0.00     0.000 C 
BRANCH   7   8
ATOM      8  C   UNL     1       3.679   9.334  11.323  1.00  0.00     0.000 C 
BRANCH   8   9
ATOM      9  C   UNL     1       3.477  10.726  11.953  1.00  0.00     0.004 C 
BRANCH   9  10
ATOM     10  C   UNL     1       4.034  11.888  11.113  1.00  0.00     0.027 C 
BRANCH  10  11
ATOM     11  C   UNL     1       3.683  13.235  11.686  1.00  0.00    -0.035 C 
ATOM     12  C   UNL     1       4.053  13.595  12.918  1.00  0.00     0.004 C 
ENDBRANCH  10  11
ENDBRANCH   9  10
ENDBRANCH   8   9
ENDBRANCH   7   8
ENDBRANCH   1   7
TORSDOF 9
ENDMDL
MODEL 9
REMARK VINA RESULT:    -4.020      1.196      2.722
REMARK INTER + INTRA:          -6.925
REMARK INTER:                  -5.966
REMARK INTRA:                  -0.960
REMARK UNBOUND:                -0.790
REMARK SMILES C=CCCCCCCCCCC
REMARK SMILES IDX 7 1 8 2 9 3 10 4 11 5 12 6 6 7 5 8 4 9 3 10 2 11 1 12
REMARK H PARENT
REMARK Flexibility Score: inf
ROOT
ATOM      1  C   UNL     1       6.418   8.618  12.891  1.00  0.00     0.000 C 
ENDROOT
BRANCH   1   2
ATOM      2  C   UNL     1       6.163   8.316  11.405  1.00  0.00    -0.000 C 
BRANCH   2   3
ATOM      3  C   UNL     1       4.869   8.961  10.875  1.00  0.00    -0.000 C 
BRANCH   3   4
ATOM      4  C   UNL     1       4.142   9.886  11.868  1.00  0.00    -0.000 C 
BRANCH   4   5
ATOM      5  C   UNL     1       3.605  11.167  11.213  1.00  0.00    -0.003 C 
ATOM      6  C   UNL     1       3.705  12.356  12.165  1.00  0.00     0.004 C 
ENDBRANCH   4   5
ENDBRANCH   3   4
ENDBRANCH   2   3
ENDBRANCH   1   2
BRANCH   1   7
ATOM      7  C   UNL     1       7.780   8.096  13.383  1.00  0.00     0.000 C 
BRANCH   7   8
ATOM      8  C   UNL     1       8.186   6.708  12.847  1.00  0.00     0.000 C 
BRANCH   8   9
ATOM      9  C   UNL     1       7.388   5.523  13.424  1.00  0.00     0.004 C 
BRANCH   9  10
ATOM     10  C   UNL     1       6.392   4.890  12.437  1.00  0.00     0.027 C 
BRANCH  10  11
ATOM     11  C   UNL     1       4.983   4.875  12.967  1.00  0.00    -0.035 C 
ATOM     12  C   UNL     1       3.981   5.478  12.321  1.00  0.00     0.004 C 
ENDBRANCH  10  11
ENDBRANCH   9  10
ENDBRANCH   8   9
ENDBRANCH   7   8
ENDBRANCH   1   7
TORSDOF 9
ENDMDL
