MODEL 1
REMARK VINA RESULT:    -6.727      0.000      0.000
REMARK INTER + INTRA:          -8.641
REMARK INTER:                  -8.300
REMARK INTRA:                  -0.340
REMARK UNBOUND:                -0.340
REMARK SMILES O=C1c2c(O)cc(O)cc2O[C@H](c2cc(O)c(O)c(O)c2)[C@@H]1O
REMARK SMILES IDX 12 1 22 2 2 3 1 4 3 5 4 6 6 7 7 8 9 9 10 10 11 11 13 12
REMARK SMILES IDX 14 13 15 14 21 15 17 16 19 17 16 18 18 20 20 22 23 24 5 26
REMARK SMILES IDX 8 28
REMARK H PARENT 16 19 18 21 20 23 23 25 5 27 8 29
REMARK Flexibility Score: inf
ROOT
ATOM      1  C   UNL     1     -12.767   7.012   6.132  1.00  0.00     0.240 C 
ATOM      2  C   UNL     1     -14.159   7.423   5.617  1.00  0.00     0.231 C 
ATOM      3  C   UNL     1     -14.297   8.913   5.758  1.00  0.00     0.202 C 
ATOM      4  O   UNL     1     -15.346   9.391   6.267  1.00  0.00    -0.291 OA
ATOM      5  C   UNL     1     -13.162   9.779   5.351  1.00  0.00     0.105 A 
ATOM      6  C   UNL     1     -13.281  11.165   5.061  1.00  0.00     0.133 A 
ATOM      7  C   UNL     1     -12.134  11.905   4.748  1.00  0.00     0.093 A 
ATOM      8  C   UNL     1     -10.883  11.284   4.663  1.00  0.00     0.123 A 
ATOM      9  C   UNL     1     -10.770   9.915   4.901  1.00  0.00     0.093 A 
ATOM     10  C   UNL     1     -11.894   9.165   5.254  1.00  0.00     0.138 A 
ATOM     11  O   UNL     1     -11.746   7.793   5.503  1.00  0.00    -0.481 OA
ENDROOT
BRANCH   1  12
ATOM     12  C   UNL     1     -12.511   5.537   5.924  1.00  0.00     0.003 A 
ATOM     13  C   UNL     1     -11.648   5.114   4.901  1.00  0.00     0.058 A 
ATOM     14  C   UNL     1     -11.373   3.752   4.717  1.00  0.00     0.161 A 
ATOM     15  C   UNL     1     -13.074   4.578   6.783  1.00  0.00     0.058 A 
ATOM     16  C   UNL     1     -11.955   2.799   5.569  1.00  0.00     0.200 A 
ATOM     17  C   UNL     1     -12.803   3.215   6.604  1.00  0.00     0.161 A 
BRANCH  14  18
ATOM     18  O   UNL     1     -10.522   3.343   3.691  1.00  0.00    -0.504 OA
ATOM     19  H   UNL     1     -10.340   3.930   2.885  1.00  0.00     0.293 HD
ENDBRANCH  14  18
BRANCH  16  20
ATOM     20  O   UNL     1     -11.698   1.438   5.404  1.00  0.00    -0.502 OA
ATOM     21  H   UNL     1     -12.194   0.727   5.929  1.00  0.00     0.293 HD
ENDBRANCH  16  20
BRANCH  17  22
ATOM     22  O   UNL     1     -13.371   2.267   7.453  1.00  0.00    -0.504 OA
ATOM     23  H   UNL     1     -13.885   1.472   7.091  1.00  0.00     0.293 HD
ENDBRANCH  17  22
ENDBRANCH   1  12
BRANCH   2  24
ATOM     24  O   UNL     1     -14.302   7.067   4.266  1.00  0.00    -0.381 OA
ATOM     25  H   UNL     1     -14.431   6.083   4.242  1.00  0.00     0.211 HD
ENDBRANCH   2  24
BRANCH   6  26
ATOM     26  O   UNL     1     -14.505  11.836   5.035  1.00  0.00    -0.507 OA
ATOM     27  H   UNL     1     -14.961  12.212   5.854  1.00  0.00     0.293 HD
ENDBRANCH   6  26
BRANCH   8  28
ATOM     28  O   UNL     1      -9.746  12.020   4.335  1.00  0.00    -0.508 OA
ATOM     29  H   UNL     1      -9.808  12.988   4.040  1.00  0.00     0.293 HD
ENDBRANCH   8  28
TORSDOF 7
ENDMDL
MODEL 2
REMARK VINA RESULT:    -6.722      0.093      1.752
REMARK INTER + INTRA:          -8.635
REMARK INTER:                  -8.303
REMARK INTRA:                  -0.331
REMARK UNBOUND:                -0.340
REMARK SMILES O=C1c2c(O)cc(O)cc2O[C@H](c2cc(O)c(O)c(O)c2)[C@@H]1O
REMARK SMILES IDX 12 1 22 2 2 3 1 4 3 5 4 6 6 7 7 8 9 9 10 10 11 11 13 12
REMARK SMILES IDX 14 13 15 14 21 15 17 16 19 17 16 18 18 20 20 22 23 24 5 26
REMARK SMILES IDX 8 28
REMARK H PARENT 16 19 18 21 20 23 23 25 5 27 8 29
REMARK Flexibility Score: inf
ROOT
ATOM      1  C   UNL     1     -12.698   6.981   6.145  1.00  0.00     0.240 C 
ATOM      2  C   UNL     1     -14.107   7.339   5.635  1.00  0.00     0.231 C 
ATOM      3  C   UNL     1     -14.290   8.827   5.752  1.00  0.00     0.202 C 
ATOM      4  O   UNL     1     -15.349   9.280   6.262  1.00  0.00    -0.291 OA
ATOM      5  C   UNL     1     -13.186   9.721   5.320  1.00  0.00     0.105 A 
ATOM      6  C   UNL     1     -13.351  11.096   5.007  1.00  0.00     0.133 A 
ATOM      7  C   UNL     1     -12.230  11.866   4.672  1.00  0.00     0.093 A 
ATOM      8  C   UNL     1     -10.961  11.284   4.587  1.00  0.00     0.123 A 
ATOM      9  C   UNL     1     -10.803   9.923   4.847  1.00  0.00     0.093 A 
ATOM     10  C   UNL     1     -11.900   9.144   5.222  1.00  0.00     0.138 A 
ATOM     11  O   UNL     1     -11.708   7.782   5.494  1.00  0.00    -0.481 OA
ENDROOT
BRANCH   1  12
ATOM     12  C   UNL     1     -12.397   5.511   5.960  1.00  0.00     0.003 A 
ATOM     13  C   UNL     1     -13.004   4.562   6.799  1.00  0.00     0.058 A 
ATOM     14  C   UNL     1     -12.763   3.193   6.619  1.00  0.00     0.161 A 
ATOM     15  C   UNL     1     -11.567   5.069   4.916  1.00  0.00     0.058 A 
ATOM     16  C   UNL     1     -11.917   2.762   5.584  1.00  0.00     0.200 A 
ATOM     17  C   UNL     1     -11.322   3.702   4.731  1.00  0.00     0.161 A 
BRANCH  14  18
ATOM     18  O   UNL     1     -13.363   2.261   7.464  1.00  0.00    -0.504 OA
ATOM     19  H   UNL     1     -14.006   1.561   7.113  1.00  0.00     0.293 HD
ENDBRANCH  14  18
BRANCH  16  20
ATOM     20  O   UNL     1     -11.660   1.405   5.386  1.00  0.00    -0.502 OA
ATOM     21  H   UNL     1     -11.385   0.792   6.144  1.00  0.00     0.293 HD
ENDBRANCH  16  20
BRANCH  17  22
ATOM     22  O   UNL     1     -10.491   3.268   3.700  1.00  0.00    -0.504 OA
ATOM     23  H   UNL     1     -10.797   3.276   2.734  1.00  0.00     0.293 HD
ENDBRANCH  17  22
ENDBRANCH   1  12
BRANCH   2  24
ATOM     24  O   UNL     1     -14.249   6.956   4.292  1.00  0.00    -0.381 OA
ATOM     25  H   UNL     1     -15.025   7.461   3.932  1.00  0.00     0.211 HD
ENDBRANCH   2  24
BRANCH   6  26
ATOM     26  O   UNL     1     -14.595  11.729   4.981  1.00  0.00    -0.507 OA
ATOM     27  H   UNL     1     -15.449  11.284   4.673  1.00  0.00     0.293 HD
ENDBRANCH   6  26
BRANCH   8  28
ATOM     28  O   UNL     1      -9.851  12.049   4.236  1.00  0.00    -0.508 OA
ATOM     29  H   UNL     1      -9.949  12.982   3.854  1.00  0.00     0.293 HD
ENDBRANCH   8  28
TORSDOF 7
ENDMDL
MODEL 3
REMARK VINA RESULT:    -5.966      1.710      3.536
REMARK INTER + INTRA:          -7.702
REMARK INTER:                  -7.659
REMARK INTRA:                  -0.043
REMARK UNBOUND:                -0.340
REMARK SMILES O=C1c2c(O)cc(O)cc2O[C@H](c2cc(O)c(O)c(O)c2)[C@@H]1O
REMARK SMILES IDX 12 1 22 2 2 3 1 4 3 5 4 6 6 7 7 8 9 9 10 10 11 11 13 12
REMARK SMILES IDX 14 13 15 14 21 15 17 16 19 17 16 18 18 20 20 22 23 24 5 26
REMARK SMILES IDX 8 28
REMARK H PARENT 16 19 18 21 20 23 23 25 5 27 8 29
REMARK Flexibility Score: inf
ROOT
ATOM      1  C   UNL     1     -11.236   6.590   5.516  1.00  0.00     0.240 C 
ATOM      2  C   UNL     1      -9.753   7.003   5.561  1.00  0.00     0.231 C 
ATOM      3  C   UNL     1      -9.610   8.337   4.881  1.00  0.00     0.202 C 
ATOM      4  O   UNL     1      -8.691   8.504   4.037  1.00  0.00    -0.291 OA
ATOM      5  C   UNL     1     -10.601   9.401   5.178  1.00  0.00     0.105 A 
ATOM      6  C   UNL     1     -10.383  10.783   4.933  1.00  0.00     0.133 A 
ATOM      7  C   UNL     1     -11.410  11.700   5.190  1.00  0.00     0.093 A 
ATOM      8  C   UNL     1     -12.626  11.277   5.738  1.00  0.00     0.123 A 
ATOM      9  C   UNL     1     -12.826   9.927   6.024  1.00  0.00     0.093 A 
ATOM     10  C   UNL     1     -11.831   8.990   5.739  1.00  0.00     0.138 A 
ATOM     11  O   UNL     1     -12.067   7.638   6.022  1.00  0.00    -0.481 OA
ENDROOT
BRANCH   1  12
ATOM     12  C   UNL     1     -11.478   5.305   6.276  1.00  0.00     0.003 A 
ATOM     13  C   UNL     1     -11.593   5.331   7.675  1.00  0.00     0.058 A 
ATOM     14  C   UNL     1     -11.851   4.155   8.392  1.00  0.00     0.161 A 
ATOM     15  C   UNL     1     -11.654   4.087   5.598  1.00  0.00     0.058 A 
ATOM     16  C   UNL     1     -12.009   2.938   7.706  1.00  0.00     0.200 A 
ATOM     17  C   UNL     1     -11.913   2.908   6.309  1.00  0.00     0.161 A 
BRANCH  14  18
ATOM     18  O   UNL     1     -11.954   4.191   9.781  1.00  0.00    -0.504 OA
ATOM     19  H   UNL     1     -12.558   4.854  10.253  1.00  0.00     0.293 HD
ENDBRANCH  14  18
BRANCH  16  20
ATOM     20  O   UNL     1     -12.264   1.754   8.398  1.00  0.00    -0.502 OA
ATOM     21  H   UNL     1     -11.529   1.224   8.850  1.00  0.00     0.293 HD
ENDBRANCH  16  20
BRANCH  17  22
ATOM     22  O   UNL     1     -12.079   1.700   5.633  1.00  0.00    -0.504 OA
ATOM     23  H   UNL     1     -11.654   0.843   5.967  1.00  0.00     0.293 HD
ENDBRANCH  17  22
ENDBRANCH   1  12
BRANCH   2  24
ATOM     24  O   UNL     1      -9.319   7.111   6.893  1.00  0.00    -0.381 OA
ATOM     25  H   UNL     1      -9.670   6.315   7.372  1.00  0.00     0.211 HD
ENDBRANCH   2  24
BRANCH   6  26
ATOM     26  O   UNL     1      -9.167  11.294   4.474  1.00  0.00    -0.507 OA
ATOM     27  H   UNL     1      -8.275  10.841   4.614  1.00  0.00     0.293 HD
ENDBRANCH   6  26
BRANCH   8  28
ATOM     28  O   UNL     1     -13.640  12.194   6.009  1.00  0.00    -0.508 OA
ATOM     29  H   UNL     1     -14.593  12.035   5.704  1.00  0.00     0.293 HD
ENDBRANCH   8  28
TORSDOF 7
ENDMDL
MODEL 4
REMARK VINA RESULT:    -5.949      1.710      3.293
REMARK INTER + INTRA:          -7.680
REMARK INTER:                  -7.655
REMARK INTRA:                  -0.025
REMARK UNBOUND:                -0.340
REMARK SMILES O=C1c2c(O)cc(O)cc2O[C@H](c2cc(O)c(O)c(O)c2)[C@@H]1O
REMARK SMILES IDX 12 1 22 2 2 3 1 4 3 5 4 6 6 7 7 8 9 9 10 10 11 11 13 12
REMARK SMILES IDX 14 13 15 14 21 15 17 16 19 17 16 18 18 20 20 22 23 24 5 26
REMARK SMILES IDX 8 28
REMARK H PARENT 16 19 18 21 20 23 23 25 5 27 8 29
REMARK Flexibility Score: inf
ROOT
ATOM      1  C   UNL     1     -11.260   6.585   5.528  1.00  0.00     0.240 C 
ATOM      2  C   UNL     1      -9.768   6.963   5.597  1.00  0.00     0.231 C 
ATOM      3  C   UNL     1      -9.584   8.291   4.914  1.00  0.00     0.202 C 
ATOM      4  O   UNL     1      -8.647   8.433   4.085  1.00  0.00    -0.291 OA
ATOM      5  C   UNL     1     -10.555   9.379   5.190  1.00  0.00     0.105 A 
ATOM      6  C   UNL     1     -10.300  10.755   4.944  1.00  0.00     0.133 A 
ATOM      7  C   UNL     1     -11.310  11.696   5.180  1.00  0.00     0.093 A 
ATOM      8  C   UNL     1     -12.545  11.304   5.710  1.00  0.00     0.123 A 
ATOM      9  C   UNL     1     -12.781   9.960   5.997  1.00  0.00     0.093 A 
ATOM     10  C   UNL     1     -11.803   8.999   5.732  1.00  0.00     0.138 A 
ATOM     11  O   UNL     1     -12.075   7.653   6.016  1.00  0.00    -0.481 OA
ENDROOT
BRANCH   1  12
ATOM     12  C   UNL     1     -11.544   5.309   6.288  1.00  0.00     0.003 A 
ATOM     13  C   UNL     1     -11.653   4.092   5.596  1.00  0.00     0.058 A 
ATOM     14  C   UNL     1     -11.882   2.895   6.289  1.00  0.00     0.161 A 
ATOM     15  C   UNL     1     -11.638   5.309   7.690  1.00  0.00     0.058 A 
ATOM     16  C   UNL     1     -11.993   2.908   7.690  1.00  0.00     0.200 A 
ATOM     17  C   UNL     1     -11.867   4.116   8.388  1.00  0.00     0.161 A 
BRANCH  14  18
ATOM     18  O   UNL     1     -11.999   1.694   5.591  1.00  0.00    -0.504 OA
ATOM     19  H   UNL     1     -12.729   1.025   5.804  1.00  0.00     0.293 HD
ENDBRANCH  14  18
BRANCH  16  20
ATOM     20  O   UNL     1     -12.223   1.730   8.402  1.00  0.00    -0.502 OA
ATOM     21  H   UNL     1     -11.720   0.873   8.203  1.00  0.00     0.293 HD
ENDBRANCH  16  20
BRANCH  17  22
ATOM     22  O   UNL     1     -11.968   4.122   9.778  1.00  0.00    -0.504 OA
ATOM     23  H   UNL     1     -12.847   4.314  10.245  1.00  0.00     0.293 HD
ENDBRANCH  17  22
ENDBRANCH   1  12
BRANCH   2  24
ATOM     24  O   UNL     1      -9.355   7.067   6.935  1.00  0.00    -0.381 OA
ATOM     25  H   UNL     1     -10.169   6.962   7.493  1.00  0.00     0.211 HD
ENDBRANCH   2  24
BRANCH   6  26
ATOM     26  O   UNL     1      -9.066  11.236   4.504  1.00  0.00    -0.507 OA
ATOM     27  H   UNL     1      -8.841  11.410   3.534  1.00  0.00     0.293 HD
ENDBRANCH   6  26
BRANCH   8  28
ATOM     28  O   UNL     1     -13.542  12.245   5.960  1.00  0.00    -0.508 OA
ATOM     29  H   UNL     1     -13.807  12.497   6.905  1.00  0.00     0.293 HD
ENDBRANCH   8  28
TORSDOF 7
ENDMDL
MODEL 5
REMARK VINA RESULT:    -5.574      2.396      6.658
REMARK INTER + INTRA:          -7.218
REMARK INTER:                  -7.335
REMARK INTRA:                   0.118
REMARK UNBOUND:                -0.340
REMARK SMILES O=C1c2c(O)cc(O)cc2O[C@H](c2cc(O)c(O)c(O)c2)[C@@H]1O
REMARK SMILES IDX 12 1 22 2 2 3 1 4 3 5 4 6 6 7 7 8 9 9 10 10 11 11 13 12
REMARK SMILES IDX 14 13 15 14 21 15 17 16 19 17 16 18 18 20 20 22 23 24 5 26
REMARK SMILES IDX 8 28
REMARK H PARENT 16 19 18 21 20 23 23 25 5 27 8 29
REMARK Flexibility Score: inf
ROOT
ATOM      1  C   UNL     1     -11.008   9.098   5.238  1.00  0.00     0.240 C 
ATOM      2  C   UNL     1     -12.337   9.732   5.694  1.00  0.00     0.231 C 
ATOM      3  C   UNL     1     -13.466   8.864   5.211  1.00  0.00     0.202 C 
ATOM      4  O   UNL     1     -14.456   9.399   4.643  1.00  0.00    -0.291 OA
ATOM      5  C   UNL     1     -13.352   7.391   5.359  1.00  0.00     0.105 A 
ATOM      6  C   UNL     1     -14.457   6.499   5.319  1.00  0.00     0.133 A 
ATOM      7  C   UNL     1     -14.232   5.120   5.404  1.00  0.00     0.093 A 
ATOM      8  C   UNL     1     -12.939   4.614   5.586  1.00  0.00     0.123 A 
ATOM      9  C   UNL     1     -11.859   5.491   5.674  1.00  0.00     0.093 A 
ATOM     10  C   UNL     1     -12.055   6.868   5.551  1.00  0.00     0.138 A 
ATOM     11  O   UNL     1     -10.946   7.723   5.626  1.00  0.00    -0.481 OA
ENDROOT
BRANCH   1  12
ATOM     12  C   UNL     1      -9.818   9.857   5.778  1.00  0.00     0.003 A 
ATOM     13  C   UNL     1      -9.993  11.142   6.317  1.00  0.00     0.058 A 
ATOM     14  C   UNL     1      -8.906  11.846   6.853  1.00  0.00     0.161 A 
ATOM     15  C   UNL     1      -8.541   9.271   5.810  1.00  0.00     0.058 A 
ATOM     16  C   UNL     1      -7.629  11.259   6.864  1.00  0.00     0.200 A 
ATOM     17  C   UNL     1      -7.450   9.970   6.345  1.00  0.00     0.161 A 
BRANCH  14  18
ATOM     18  O   UNL     1      -9.090  13.125   7.376  1.00  0.00    -0.504 OA
ATOM     19  H   UNL     1      -8.312  13.762   7.509  1.00  0.00     0.293 HD
ENDBRANCH  14  18
BRANCH  16  20
ATOM     20  O   UNL     1      -6.531  11.940   7.390  1.00  0.00    -0.502 OA
ATOM     21  H   UNL     1      -6.480  12.952   7.404  1.00  0.00     0.293 HD
ENDBRANCH  16  20
BRANCH  17  22
ATOM     22  O   UNL     1      -6.184   9.388   6.366  1.00  0.00    -0.504 OA
ATOM     23  H   UNL     1      -5.913   8.682   5.692  1.00  0.00     0.293 HD
ENDBRANCH  17  22
ENDBRANCH   1  12
BRANCH   2  24
ATOM     24  O   UNL     1     -12.380   9.815   7.095  1.00  0.00    -0.381 OA
ATOM     25  H   UNL     1     -12.787  10.693   7.316  1.00  0.00     0.211 HD
ENDBRANCH   2  24
BRANCH   6  26
ATOM     26  O   UNL     1     -15.782   6.929   5.231  1.00  0.00    -0.507 OA
ATOM     27  H   UNL     1     -16.543   6.527   5.761  1.00  0.00     0.293 HD
ENDBRANCH   6  26
BRANCH   8  28
ATOM     28  O   UNL     1     -12.721   3.242   5.689  1.00  0.00    -0.508 OA
ATOM     29  H   UNL     1     -12.701   2.646   4.869  1.00  0.00     0.293 HD
ENDBRANCH   8  28
TORSDOF 7
ENDMDL
MODEL 6
REMARK VINA RESULT:    -5.511      4.984      6.363
REMARK INTER + INTRA:          -7.140
REMARK INTER:                  -6.764
REMARK INTRA:                  -0.376
REMARK UNBOUND:                -0.340
REMARK SMILES O=C1c2c(O)cc(O)cc2O[C@H](c2cc(O)c(O)c(O)c2)[C@@H]1O
REMARK SMILES IDX 12 1 22 2 2 3 1 4 3 5 4 6 6 7 7 8 9 9 10 10 11 11 13 12
REMARK SMILES IDX 14 13 15 14 21 15 17 16 19 17 16 18 18 20 20 22 23 24 5 26
REMARK SMILES IDX 8 28
REMARK H PARENT 16 19 18 21 20 23 23 25 5 27 8 29
REMARK Flexibility Score: inf
ROOT
ATOM      1  C   UNL     1     -11.591  10.708   5.720  1.00  0.00     0.240 C 
ATOM      2  C   UNL     1     -11.778  12.019   6.507  1.00  0.00     0.231 C 
ATOM      3  C   UNL     1     -10.770  12.050   7.623  1.00  0.00     0.202 C 
ATOM      4  O   UNL     1     -11.145  12.363   8.784  1.00  0.00    -0.291 OA
ATOM      5  C   UNL     1      -9.371  11.645   7.337  1.00  0.00     0.105 A 
ATOM      6  C   UNL     1      -8.260  11.987   8.153  1.00  0.00     0.133 A 
ATOM      7  C   UNL     1      -6.989  11.500   7.827  1.00  0.00     0.093 A 
ATOM      8  C   UNL     1      -6.791  10.729   6.676  1.00  0.00     0.123 A 
ATOM      9  C   UNL     1      -7.872  10.431   5.847  1.00  0.00     0.093 A 
ATOM     10  C   UNL     1      -9.155  10.873   6.174  1.00  0.00     0.138 A 
ATOM     11  O   UNL     1     -10.225  10.544   5.329  1.00  0.00    -0.481 OA
ENDROOT
BRANCH   1  12
ATOM     12  C   UNL     1     -12.499  10.651   4.513  1.00  0.00     0.003 A 
ATOM     13  C   UNL     1     -11.954  10.745   3.222  1.00  0.00     0.058 A 
ATOM     14  C   UNL     1     -12.778  10.660   2.092  1.00  0.00     0.161 A 
ATOM     15  C   UNL     1     -13.881  10.441   4.658  1.00  0.00     0.058 A 
ATOM     16  C   UNL     1     -14.162  10.468   2.247  1.00  0.00     0.200 A 
ATOM     17  C   UNL     1     -14.710  10.356   3.531  1.00  0.00     0.161 A 
BRANCH  14  18
ATOM     18  O   UNL     1     -12.227  10.764   0.815  1.00  0.00    -0.504 OA
ATOM     19  H   UNL     1     -11.228  10.852   0.673  1.00  0.00     0.293 HD
ENDBRANCH  14  18
BRANCH  16  20
ATOM     20  O   UNL     1     -15.002  10.382   1.137  1.00  0.00    -0.502 OA
ATOM     21  H   UNL     1     -15.862  10.914   1.068  1.00  0.00     0.293 HD
ENDBRANCH  16  20
BRANCH  17  22
ATOM     22  O   UNL     1     -16.081  10.156   3.680  1.00  0.00    -0.504 OA
ATOM     23  H   UNL     1     -16.740  10.453   2.970  1.00  0.00     0.293 HD
ENDBRANCH  17  22
ENDBRANCH   1  12
BRANCH   2  24
ATOM     24  O   UNL     1     -11.573  13.124   5.665  1.00  0.00    -0.381 OA
ATOM     25  H   UNL     1     -10.945  13.730   6.138  1.00  0.00     0.211 HD
ENDBRANCH   2  24
BRANCH   6  26
ATOM     26  O   UNL     1      -8.360  12.826   9.265  1.00  0.00    -0.507 OA
ATOM     27  H   UNL     1      -8.058  12.570  10.195  1.00  0.00     0.293 HD
ENDBRANCH   6  26
BRANCH   8  28
ATOM     28  O   UNL     1      -5.522  10.259   6.345  1.00  0.00    -0.508 OA
ATOM     29  H   UNL     1      -4.975  10.686   5.606  1.00  0.00     0.293 HD
ENDBRANCH   8  28
TORSDOF 7
ENDMDL
MODEL 7
REMARK VINA RESULT:    -5.258      3.721      6.674
REMARK INTER + INTRA:          -6.827
REMARK INTER:                  -6.952
REMARK INTRA:                   0.125
REMARK UNBOUND:                -0.340
REMARK SMILES O=C1c2c(O)cc(O)cc2O[C@H](c2cc(O)c(O)c(O)c2)[C@@H]1O
REMARK SMILES IDX 12 1 22 2 2 3 1 4 3 5 4 6 6 7 7 8 9 9 10 10 11 11 13 12
REMARK SMILES IDX 14 13 15 14 21 15 17 16 19 17 16 18 18 20 20 22 23 24 5 26
REMARK SMILES IDX 8 28
REMARK H PARENT 16 19 18 21 20 23 23 25 5 27 8 29
REMARK Flexibility Score: inf
ROOT
ATOM      1  C   UNL     1     -10.721  10.204   4.813  1.00  0.00     0.240 C 
ATOM      2  C   UNL     1     -11.228  11.444   4.052  1.00  0.00     0.231 C 
ATOM      3  C   UNL     1     -12.376  11.026   3.175  1.00  0.00     0.202 C 
ATOM      4  O   UNL     1     -12.403  11.402   1.973  1.00  0.00    -0.291 OA
ATOM      5  C   UNL     1     -13.415  10.126   3.736  1.00  0.00     0.105 A 
ATOM      6  C   UNL     1     -14.715   9.970   3.185  1.00  0.00     0.133 A 
ATOM      7  C   UNL     1     -15.599   9.046   3.755  1.00  0.00     0.093 A 
ATOM      8  C   UNL     1     -15.237   8.317   4.894  1.00  0.00     0.123 A 
ATOM      9  C   UNL     1     -13.978   8.503   5.465  1.00  0.00     0.093 A 
ATOM     10  C   UNL     1     -13.066   9.390   4.890  1.00  0.00     0.138 A 
ATOM     11  O   UNL     1     -11.803   9.544   5.478  1.00  0.00    -0.481 OA
ENDROOT
BRANCH   1  12
ATOM     12  C   UNL     1      -9.633  10.564   5.799  1.00  0.00     0.003 A 
ATOM     13  C   UNL     1      -9.947  11.310   6.946  1.00  0.00     0.058 A 
ATOM     14  C   UNL     1      -8.956  11.624   7.887  1.00  0.00     0.161 A 
ATOM     15  C   UNL     1      -8.316  10.109   5.619  1.00  0.00     0.058 A 
ATOM     16  C   UNL     1      -7.638  11.179   7.689  1.00  0.00     0.200 A 
ATOM     17  C   UNL     1      -7.321  10.418   6.556  1.00  0.00     0.161 A 
BRANCH  14  18
ATOM     18  O   UNL     1      -9.278  12.373   9.017  1.00  0.00    -0.504 OA
ATOM     19  H   UNL     1      -8.756  12.282   9.882  1.00  0.00     0.293 HD
ENDBRANCH  14  18
BRANCH  16  20
ATOM     20  O   UNL     1      -6.635  11.479   8.611  1.00  0.00    -0.502 OA
ATOM     21  H   UNL     1      -6.076  12.322   8.545  1.00  0.00     0.293 HD
ENDBRANCH  16  20
BRANCH  17  22
ATOM     22  O   UNL     1      -6.015   9.972   6.370  1.00  0.00    -0.504 OA
ATOM     23  H   UNL     1      -5.633   9.208   6.915  1.00  0.00     0.293 HD
ENDBRANCH  17  22
ENDBRANCH   1  12
BRANCH   2  24
ATOM     24  O   UNL     1     -11.665  12.424   4.957  1.00  0.00    -0.381 OA
ATOM     25  H   UNL     1     -11.407  12.112   5.863  1.00  0.00     0.211 HD
ENDBRANCH   2  24
BRANCH   6  26
ATOM     26  O   UNL     1     -15.183  10.725   2.108  1.00  0.00    -0.507 OA
ATOM     27  H   UNL     1     -16.033  11.271   2.128  1.00  0.00     0.293 HD
ENDBRANCH   6  26
BRANCH   8  28
ATOM     28  O   UNL     1     -16.125   7.410   5.469  1.00  0.00    -0.508 OA
ATOM     29  H   UNL     1     -16.582   6.694   4.917  1.00  0.00     0.293 HD
ENDBRANCH   8  28
TORSDOF 7
ENDMDL
MODEL 8
REMARK VINA RESULT:    -4.922      1.981      2.969
REMARK INTER + INTRA:          -6.414
REMARK INTER:                  -6.090
REMARK INTRA:                  -0.324
REMARK UNBOUND:                -0.340
REMARK SMILES O=C1c2c(O)cc(O)cc2O[C@H](c2cc(O)c(O)c(O)c2)[C@@H]1O
REMARK SMILES IDX 12 1 22 2 2 3 1 4 3 5 4 6 6 7 7 8 9 9 10 10 11 11 13 12
REMARK SMILES IDX 14 13 15 14 21 15 17 16 19 17 16 18 18 20 20 22 23 24 5 26
REMARK SMILES IDX 8 28
REMARK H PARENT 16 19 18 21 20 23 23 25 5 27 8 29
REMARK Flexibility Score: inf
ROOT
ATOM      1  C   UNL     1     -12.693   7.623   5.698  1.00  0.00     0.240 C 
ATOM      2  C   UNL     1     -11.492   8.408   5.136  1.00  0.00     0.231 C 
ATOM      3  C   UNL     1     -11.872   9.861   5.054  1.00  0.00     0.202 C 
ATOM      4  O   UNL     1     -11.625  10.505   3.999  1.00  0.00    -0.291 OA
ATOM      5  C   UNL     1     -12.590  10.480   6.196  1.00  0.00     0.105 A 
ATOM      6  C   UNL     1     -12.661  11.880   6.428  1.00  0.00     0.133 A 
ATOM      7  C   UNL     1     -13.419  12.363   7.502  1.00  0.00     0.093 A 
ATOM      8  C   UNL     1     -14.059  11.482   8.381  1.00  0.00     0.123 A 
ATOM      9  C   UNL     1     -13.952  10.106   8.183  1.00  0.00     0.093 A 
ATOM     10  C   UNL     1     -13.234   9.602   7.096  1.00  0.00     0.138 A 
ATOM     11  O   UNL     1     -13.158   8.214   6.914  1.00  0.00    -0.481 OA
ENDROOT
BRANCH   1  12
ATOM     12  C   UNL     1     -12.351   6.166   5.912  1.00  0.00     0.003 A 
ATOM     13  C   UNL     1     -12.255   5.301   4.809  1.00  0.00     0.058 A 
ATOM     14  C   UNL     1     -11.906   3.955   4.987  1.00  0.00     0.161 A 
ATOM     15  C   UNL     1     -12.064   5.672   7.195  1.00  0.00     0.058 A 
ATOM     16  C   UNL     1     -11.638   3.466   6.277  1.00  0.00     0.200 A 
ATOM     17  C   UNL     1     -11.714   4.328   7.379  1.00  0.00     0.161 A 
BRANCH  14  18
ATOM     18  O   UNL     1     -11.823   3.103   3.887  1.00  0.00    -0.504 OA
ATOM     19  H   UNL     1     -11.275   3.343   3.069  1.00  0.00     0.293 HD
ENDBRANCH  14  18
BRANCH  16  20
ATOM     20  O   UNL     1     -11.290   2.130   6.479  1.00  0.00    -0.502 OA
ATOM     21  H   UNL     1     -10.395   1.755   6.188  1.00  0.00     0.293 HD
ENDBRANCH  16  20
BRANCH  17  22
ATOM     22  O   UNL     1     -11.438   3.840   8.655  1.00  0.00    -0.504 OA
ATOM     23  H   UNL     1     -10.574   4.067   9.134  1.00  0.00     0.293 HD
ENDBRANCH  17  22
ENDBRANCH   1  12
BRANCH   2  24
ATOM     24  O   UNL     1     -10.380   8.266   5.982  1.00  0.00    -0.381 OA
ATOM     25  H   UNL     1     -10.289   7.296   6.172  1.00  0.00     0.211 HD
ENDBRANCH   2  24
BRANCH   6  26
ATOM     26  O   UNL     1     -11.977  12.817   5.652  1.00  0.00    -0.507 OA
ATOM     27  H   UNL     1     -12.420  13.595   5.185  1.00  0.00     0.293 HD
ENDBRANCH   6  26
BRANCH   8  28
ATOM     28  O   UNL     1     -14.799  11.965   9.458  1.00  0.00    -0.508 OA
ATOM     29  H   UNL     1     -14.965  12.957   9.584  1.00  0.00     0.293 HD
ENDBRANCH   8  28
TORSDOF 7
ENDMDL
