MODEL 1
REMARK VINA RESULT:    -5.230      0.000      0.000
REMARK INTER + INTRA:          -6.842
REMARK INTER:                  -6.758
REMARK INTRA:                  -0.083
REMARK UNBOUND:                -0.083
REMARK SMILES CCCCCCC(=O)[O-]
REMARK SMILES IDX 5 1 6 2 7 3 8 4 9 5 4 6 3 7 2 8 1 9
REMARK H PARENT
REMARK Flexibility Score: inf
ROOT
ATOM      1  C   UNL     1     -21.659 -20.151  30.885  1.00  0.00     0.006 C 
ENDROOT
BRANCH   1   2
ATOM      2  C   UNL     1     -20.712 -19.006  31.264  1.00  0.00     0.053 C 
BRANCH   2   3
ATOM      3  C   UNL     1     -20.121 -18.389  30.036  1.00  0.00     0.041 C 
ATOM      4  O   UNL     1     -18.941 -18.667  29.692  1.00  0.00    -0.550 OA
ATOM      5  O   UNL     1     -20.888 -17.546  29.244  1.00  0.00    -0.550 OA
ENDBRANCH   2   3
ENDBRANCH   1   2
BRANCH   1   6
ATOM      6  C   UNL     1     -21.420 -21.417  31.722  1.00  0.00     0.000 C 
BRANCH   6   7
ATOM      7  C   UNL     1     -22.659 -22.327  31.784  1.00  0.00    -0.000 C 
BRANCH   7   8
ATOM      8  C   UNL     1     -22.505 -23.590  30.923  1.00  0.00    -0.003 C 
ATOM      9  C   UNL     1     -23.380 -24.745  31.408  1.00  0.00     0.004 C 
ENDBRANCH   7   8
ENDBRANCH   6   7
ENDBRANCH   1   6
TORSDOF 5
ENDMDL
MODEL 2
REMARK VINA RESULT:    -5.183      4.170      5.808
REMARK INTER + INTRA:          -6.782
REMARK INTER:                  -6.623
REMARK INTRA:                  -0.159
REMARK UNBOUND:                -0.083
REMARK SMILES CCCCCCC(=O)[O-]
REMARK SMILES IDX 5 1 6 2 7 3 8 4 9 5 4 6 3 7 2 8 1 9
REMARK H PARENT
REMARK Flexibility Score: inf
ROOT
ATOM      1  C   UNL     1     -22.326 -23.342  30.558  1.00  0.00     0.006 C 
ENDROOT
BRANCH   1   2
ATOM      2  C   UNL     1     -23.198 -24.542  30.945  1.00  0.00     0.053 C 
BRANCH   2   3
ATOM      3  C   UNL     1     -23.850 -25.125  29.731  1.00  0.00     0.041 C 
ATOM      4  O   UNL     1     -23.185 -25.300  28.676  1.00  0.00    -0.550 OA
ATOM      5  O   UNL     1     -25.180 -25.522  29.780  1.00  0.00    -0.550 OA
ENDBRANCH   2   3
ENDBRANCH   1   2
BRANCH   1   6
ATOM      6  C   UNL     1     -22.320 -22.245  31.634  1.00  0.00     0.000 C 
BRANCH   6   7
ATOM      7  C   UNL     1     -21.963 -20.860  31.065  1.00  0.00    -0.000 C 
BRANCH   7   8
ATOM      8  C   UNL     1     -22.106 -20.798  29.537  1.00  0.00    -0.003 C 
ATOM      9  C   UNL     1     -21.394 -19.592  28.926  1.00  0.00     0.004 C 
ENDBRANCH   7   8
ENDBRANCH   6   7
ENDBRANCH   1   6
TORSDOF 5
ENDMDL
MODEL 3
REMARK VINA RESULT:    -5.132      1.179      1.585
REMARK INTER + INTRA:          -6.715
REMARK INTER:                  -6.561
REMARK INTRA:                  -0.155
REMARK UNBOUND:                -0.083
REMARK SMILES CCCCCCC(=O)[O-]
REMARK SMILES IDX 5 1 6 2 7 3 8 4 9 5 4 6 3 7 2 8 1 9
REMARK H PARENT
REMARK Flexibility Score: inf
ROOT
ATOM      1  C   UNL     1     -22.065 -20.884  30.540  1.00  0.00     0.006 C 
ENDROOT
BRANCH   1   2
ATOM      2  C   UNL     1     -21.235 -19.657  30.931  1.00  0.00     0.053 C 
BRANCH   2   3
ATOM      3  C   UNL     1     -20.573 -19.069  29.724  1.00  0.00     0.041 C 
ATOM      4  O   UNL     1     -21.189 -19.015  28.626  1.00  0.00    -0.550 OA
ATOM      5  O   UNL     1     -19.294 -18.536  29.823  1.00  0.00    -0.550 OA
ENDBRANCH   2   3
ENDBRANCH   1   2
BRANCH   1   6
ATOM      6  C   UNL     1     -22.054 -21.975  31.623  1.00  0.00     0.000 C 
BRANCH   6   7
ATOM      7  C   UNL     1     -22.532 -23.338  31.094  1.00  0.00    -0.000 C 
BRANCH   7   8
ATOM      8  C   UNL     1     -22.294 -23.500  29.584  1.00  0.00    -0.003 C 
ATOM      9  C   UNL     1     -23.081 -24.664  28.984  1.00  0.00     0.004 C 
ENDBRANCH   7   8
ENDBRANCH   6   7
ENDBRANCH   1   6
TORSDOF 5
ENDMDL
MODEL 4
REMARK VINA RESULT:    -5.109      5.698      7.644
REMARK INTER + INTRA:          -6.686
REMARK INTER:                  -6.520
REMARK INTRA:                  -0.166
REMARK UNBOUND:                -0.083
REMARK SMILES CCCCCCC(=O)[O-]
REMARK SMILES IDX 5 1 6 2 7 3 8 4 9 5 4 6 3 7 2 8 1 9
REMARK H PARENT
REMARK Flexibility Score: inf
ROOT
ATOM      1  C   UNL     1     -23.718 -26.358  29.276  1.00  0.00     0.006 C 
ENDROOT
BRANCH   1   2
ATOM      2  C   UNL     1     -25.243 -26.480  29.375  1.00  0.00     0.053 C 
BRANCH   2   3
ATOM      3  C   UNL     1     -25.631 -27.147  30.657  1.00  0.00     0.041 C 
ATOM      4  O   UNL     1     -25.465 -26.553  31.756  1.00  0.00    -0.550 OA
ATOM      5  O   UNL     1     -26.220 -28.404  30.636  1.00  0.00    -0.550 OA
ENDBRANCH   2   3
ENDBRANCH   1   2
BRANCH   1   6
ATOM      6  C   UNL     1     -23.244 -24.897  29.234  1.00  0.00     0.000 C 
BRANCH   6   7
ATOM      7  C   UNL     1     -22.897 -24.348  30.629  1.00  0.00    -0.000 C 
BRANCH   7   8
ATOM      8  C   UNL     1     -22.096 -23.038  30.564  1.00  0.00    -0.003 C 
ATOM      9  C   UNL     1     -22.464 -22.065  31.682  1.00  0.00     0.004 C 
ENDBRANCH   7   8
ENDBRANCH   6   7
ENDBRANCH   1   6
TORSDOF 5
ENDMDL
MODEL 5
REMARK VINA RESULT:    -5.092      2.322      3.194
REMARK INTER + INTRA:          -6.663
REMARK INTER:                  -6.427
REMARK INTRA:                  -0.236
REMARK UNBOUND:                -0.083
REMARK SMILES CCCCCCC(=O)[O-]
REMARK SMILES IDX 5 1 6 2 7 3 8 4 9 5 4 6 3 7 2 8 1 9
REMARK H PARENT
REMARK Flexibility Score: inf
ROOT
ATOM      1  C   UNL     1     -22.057 -23.085  30.837  1.00  0.00     0.006 C 
ENDROOT
BRANCH   1   2
ATOM      2  C   UNL     1     -22.142 -21.560  30.700  1.00  0.00     0.053 C 
BRANCH   2   3
ATOM      3  C   UNL     1     -22.063 -21.161  29.260  1.00  0.00     0.041 C 
ATOM      4  O   UNL     1     -22.372 -21.982  28.356  1.00  0.00    -0.550 OA
ATOM      5  O   UNL     1     -21.695 -19.866  28.918  1.00  0.00    -0.550 OA
ENDBRANCH   2   3
ENDBRANCH   1   2
BRANCH   1   6
ATOM      6  C   UNL     1     -23.223 -23.671  31.648  1.00  0.00     0.000 C 
BRANCH   6   7
ATOM      7  C   UNL     1     -23.700 -25.029  31.102  1.00  0.00    -0.000 C 
BRANCH   7   8
ATOM      8  C   UNL     1     -23.510 -25.150  29.582  1.00  0.00    -0.003 C 
ATOM      9  C   UNL     1     -23.866 -26.538  29.051  1.00  0.00     0.004 C 
ENDBRANCH   7   8
ENDBRANCH   6   7
ENDBRANCH   1   6
TORSDOF 5
ENDMDL
MODEL 6
REMARK VINA RESULT:    -5.057      1.549      2.245
REMARK INTER + INTRA:          -6.619
REMARK INTER:                  -6.473
REMARK INTRA:                  -0.146
REMARK UNBOUND:                -0.083
REMARK SMILES CCCCCCC(=O)[O-]
REMARK SMILES IDX 5 1 6 2 7 3 8 4 9 5 4 6 3 7 2 8 1 9
REMARK H PARENT
REMARK Flexibility Score: inf
ROOT
ATOM      1  C   UNL     1     -22.001 -21.972  31.322  1.00  0.00     0.006 C 
ENDROOT
BRANCH   1   2
ATOM      2  C   UNL     1     -22.395 -20.755  30.476  1.00  0.00     0.053 C 
BRANCH   2   3
ATOM      3  C   UNL     1     -21.311 -19.724  30.510  1.00  0.00     0.041 C 
ATOM      4  O   UNL     1     -20.943 -19.226  31.606  1.00  0.00    -0.550 OA
ATOM      5  O   UNL     1     -20.672 -19.349  29.335  1.00  0.00    -0.550 OA
ENDBRANCH   2   3
ENDBRANCH   1   2
BRANCH   1   6
ATOM      6  C   UNL     1     -22.203 -23.300  30.576  1.00  0.00     0.000 C 
BRANCH   6   7
ATOM      7  C   UNL     1     -23.079 -24.292  31.362  1.00  0.00    -0.000 C 
BRANCH   7   8
ATOM      8  C   UNL     1     -23.829 -25.269  30.444  1.00  0.00    -0.003 C 
ATOM      9  C   UNL     1     -23.335 -25.221  28.999  1.00  0.00     0.004 C 
ENDBRANCH   7   8
ENDBRANCH   6   7
ENDBRANCH   1   6
TORSDOF 5
ENDMDL
MODEL 7
REMARK VINA RESULT:    -5.037      1.945      2.915
REMARK INTER + INTRA:          -6.593
REMARK INTER:                  -6.441
REMARK INTRA:                  -0.152
REMARK UNBOUND:                -0.083
REMARK SMILES CCCCCCC(=O)[O-]
REMARK SMILES IDX 5 1 6 2 7 3 8 4 9 5 4 6 3 7 2 8 1 9
REMARK H PARENT
REMARK Flexibility Score: inf
ROOT
ATOM      1  C   UNL     1     -20.536 -17.906  29.028  1.00  0.00     0.006 C 
ENDROOT
BRANCH   1   2
ATOM      2  C   UNL     1     -19.059 -17.957  29.436  1.00  0.00     0.053 C 
BRANCH   2   3
ATOM      3  C   UNL     1     -18.819 -17.095  30.635  1.00  0.00     0.041 C 
ATOM      4  O   UNL     1     -18.298 -15.955  30.502  1.00  0.00    -0.550 OA
ATOM      5  O   UNL     1     -19.214 -17.529  31.893  1.00  0.00    -0.550 OA
ENDBRANCH   2   3
ENDBRANCH   1   2
BRANCH   1   6
ATOM      6  C   UNL     1     -21.207 -19.287  29.064  1.00  0.00     0.000 C 
BRANCH   6   7
ATOM      7  C   UNL     1     -21.462 -19.784  30.498  1.00  0.00    -0.000 C 
BRANCH   7   8
ATOM      8  C   UNL     1     -22.324 -21.054  30.537  1.00  0.00    -0.003 C 
ATOM      9  C   UNL     1     -21.976 -21.969  31.710  1.00  0.00     0.004 C 
ENDBRANCH   7   8
ENDBRANCH   6   7
ENDBRANCH   1   6
TORSDOF 5
ENDMDL
MODEL 8
REMARK VINA RESULT:    -5.015      3.127      5.211
REMARK INTER + INTRA:          -6.565
REMARK INTER:                  -6.411
REMARK INTRA:                  -0.153
REMARK UNBOUND:                -0.083
REMARK SMILES CCCCCCC(=O)[O-]
REMARK SMILES IDX 5 1 6 2 7 3 8 4 9 5 4 6 3 7 2 8 1 9
REMARK H PARENT
REMARK Flexibility Score: inf
ROOT
ATOM      1  C   UNL     1     -21.433 -21.515  31.712  1.00  0.00     0.006 C 
ENDROOT
BRANCH   1   2
ATOM      2  C   UNL     1     -22.703 -22.373  31.693  1.00  0.00     0.053 C 
BRANCH   2   3
ATOM      3  C   UNL     1     -22.511 -23.570  30.817  1.00  0.00     0.041 C 
ATOM      4  O   UNL     1     -22.809 -24.719  31.238  1.00  0.00    -0.550 OA
ATOM      5  O   UNL     1     -22.048 -23.413  29.517  1.00  0.00    -0.550 OA
ENDBRANCH   2   3
ENDBRANCH   1   2
BRANCH   1   6
ATOM      6  C   UNL     1     -21.625 -20.160  31.013  1.00  0.00     0.000 C 
BRANCH   6   7
ATOM      7  C   UNL     1     -20.612 -19.102  31.486  1.00  0.00    -0.000 C 
BRANCH   7   8
ATOM      8  C   UNL     1     -20.082 -18.238  30.332  1.00  0.00    -0.003 C 
ATOM      9  C   UNL     1     -20.852 -18.456  29.030  1.00  0.00     0.004 C 
ENDBRANCH   7   8
ENDBRANCH   6   7
ENDBRANCH   1   6
TORSDOF 5
ENDMDL
MODEL 9
REMARK VINA RESULT:    -4.817      6.721      8.445
REMARK INTER + INTRA:          -6.309
REMARK INTER:                  -6.076
REMARK INTRA:                  -0.233
REMARK UNBOUND:                -0.083
REMARK SMILES CCCCCCC(=O)[O-]
REMARK SMILES IDX 5 1 6 2 7 3 8 4 9 5 4 6 3 7 2 8 1 9
REMARK H PARENT
REMARK Flexibility Score: inf
ROOT
ATOM      1  C   UNL     1     -25.166 -26.881  30.494  1.00  0.00     0.006 C 
ENDROOT
BRANCH   1   2
ATOM      2  C   UNL     1     -25.388 -26.892  28.977  1.00  0.00     0.053 C 
BRANCH   2   3
ATOM      3  C   UNL     1     -26.266 -28.039  28.587  1.00  0.00     0.041 C 
ATOM      4  O   UNL     1     -26.469 -28.298  27.371  1.00  0.00    -0.550 OA
ATOM      5  O   UNL     1     -26.821 -28.854  29.565  1.00  0.00    -0.550 OA
ENDBRANCH   2   3
ENDBRANCH   1   2
BRANCH   1   6
ATOM      6  C   UNL     1     -24.953 -25.465  31.050  1.00  0.00     0.000 C 
BRANCH   6   7
ATOM      7  C   UNL     1     -23.519 -25.239  31.560  1.00  0.00    -0.000 C 
BRANCH   7   8
ATOM      8  C   UNL     1     -22.820 -24.070  30.850  1.00  0.00    -0.003 C 
ATOM      9  C   UNL     1     -22.865 -24.191  29.328  1.00  0.00     0.004 C 
ENDBRANCH   7   8
ENDBRANCH   6   7
ENDBRANCH   1   6
TORSDOF 5
ENDMDL
