MODEL 1
REMARK VINA RESULT:    -5.558      0.000      0.000
REMARK INTER + INTRA:         -18.515
REMARK INTER:                 -14.655
REMARK INTRA:                  -3.859
REMARK UNBOUND:                -3.859
REMARK SMILES CCCCCCCCCCCCCCCCCCCCCCCCCCCCCC(=O)[O-]
REMARK SMILES IDX 16 1 17 2 18 3 19 4 20 5 21 6 22 7 23 8 24 9 25 10 26 11
REMARK SMILES IDX 27 12 28 13 29 14 30 15 31 16 32 17 15 18 14 19 13 20 12 21
REMARK SMILES IDX 11 22 10 23 9 24 8 25 7 26 6 27 5 28 4 29 3 30 2 31 1 32
REMARK H PARENT
REMARK Flexibility Score: inf
ROOT
ATOM      1  C   UNL     1      11.155  22.980  -9.872  1.00  0.00     0.000 C 
ENDROOT
BRANCH   1   2
ATOM      2  C   UNL     1      11.556  24.362  -9.311  1.00  0.00     0.000 C 
BRANCH   2   3
ATOM      3  C   UNL     1      12.907  24.364  -8.572  1.00  0.00     0.000 C 
BRANCH   3   4
ATOM      4  C   UNL     1      13.113  23.193  -7.593  1.00  0.00     0.000 C 
BRANCH   4   5
ATOM      5  C   UNL     1      14.315  22.277  -7.908  1.00  0.00     0.000 C 
BRANCH   5   6
ATOM      6  C   UNL     1      15.623  22.642  -7.185  1.00  0.00     0.000 C 
BRANCH   6   7
ATOM      7  C   UNL     1      16.871  22.094  -7.893  1.00  0.00     0.000 C 
BRANCH   7   8
ATOM      8  C   UNL     1      17.960  23.174  -7.999  1.00  0.00     0.000 C 
BRANCH   8   9
ATOM      9  C   UNL     1      17.368  24.599  -8.024  1.00  0.00     0.000 C 
BRANCH   9  10
ATOM     10  C   UNL     1      17.938  25.521  -6.933  1.00  0.00     0.000 C 
BRANCH  10  11
ATOM     11  C   UNL     1      16.923  26.561  -6.439  1.00  0.00     0.000 C 
BRANCH  11  12
ATOM     12  C   UNL     1      15.646  25.883  -5.923  1.00  0.00     0.000 C 
BRANCH  12  13
ATOM     13  C   UNL     1      15.733  25.504  -4.433  1.00  0.00     0.006 C 
BRANCH  13  14
ATOM     14  C   UNL     1      15.900  23.999  -4.168  1.00  0.00     0.053 C 
BRANCH  14  15
ATOM     15  C   UNL     1      14.742  23.431  -3.407  1.00  0.00     0.041 C 
ATOM     16  O   UNL     1      14.685  23.551  -2.155  1.00  0.00    -0.550 OA
ATOM     17  O   UNL     1      13.708  22.797  -4.085  1.00  0.00    -0.550 OA
ENDBRANCH  14  15
ENDBRANCH  13  14
ENDBRANCH  12  13
ENDBRANCH  11  12
ENDBRANCH  10  11
ENDBRANCH   9  10
ENDBRANCH   8   9
ENDBRANCH   7   8
ENDBRANCH   6   7
ENDBRANCH   5   6
ENDBRANCH   4   5
ENDBRANCH   3   4
ENDBRANCH   2   3
ENDBRANCH   1   2
BRANCH   1  18
ATOM     18  C   UNL     1       9.642  22.869 -10.130  1.00  0.00     0.000 C 
BRANCH  18  19
ATOM     19  C   UNL     1       8.805  23.599  -9.068  1.00  0.00     0.000 C 
BRANCH  19  20
ATOM     20  C   UNL     1       7.296  23.560  -9.370  1.00  0.00     0.000 C 
BRANCH  20  21
ATOM     21  C   UNL     1       6.925  22.459 -10.375  1.00  0.00     0.000 C 
BRANCH  21  22
ATOM     22  C   UNL     1       5.411  22.184 -10.417  1.00  0.00     0.000 C 
BRANCH  22  23
ATOM     23  C   UNL     1       4.614  23.168  -9.548  1.00  0.00     0.000 C 
BRANCH  23  24
ATOM     24  C   UNL     1       3.787  22.455  -8.463  1.00  0.00    -0.000 C 
BRANCH  24  25
ATOM     25  C   UNL     1       4.007  23.049  -7.060  1.00  0.00    -0.000 C 
BRANCH  25  26
ATOM     26  C   UNL     1       5.378  22.737  -6.421  1.00  0.00    -0.000 C 
BRANCH  26  27
ATOM     27  C   UNL     1       6.225  23.966  -6.044  1.00  0.00    -0.000 C 
BRANCH  27  28
ATOM     28  C   UNL     1       7.658  23.600  -5.619  1.00  0.00    -0.000 C 
BRANCH  28  29
ATOM     29  C   UNL     1       7.715  22.302  -4.797  1.00  0.00    -0.000 C 
BRANCH  29  30
ATOM     30  C   UNL     1       8.974  21.470  -5.083  1.00  0.00    -0.000 C 
BRANCH  30  31
ATOM     31  C   UNL     1       9.624  21.899  -6.404  1.00  0.00    -0.003 C 
ATOM     32  C   UNL     1      10.083  20.689  -7.212  1.00  0.00     0.004 C 
ENDBRANCH  30  31
ENDBRANCH  29  30
ENDBRANCH  28  29
ENDBRANCH  27  28
ENDBRANCH  26  27
ENDBRANCH  25  26
ENDBRANCH  24  25
ENDBRANCH  23  24
ENDBRANCH  22  23
ENDBRANCH  21  22
ENDBRANCH  20  21
ENDBRANCH  19  20
ENDBRANCH  18  19
ENDBRANCH   1  18
TORSDOF 28
ENDMDL
MODEL 2
REMARK VINA RESULT:    -5.336      1.733      4.391
REMARK INTER + INTRA:         -17.930
REMARK INTER:                 -14.535
REMARK INTRA:                  -3.395
REMARK UNBOUND:                -3.859
REMARK SMILES CCCCCCCCCCCCCCCCCCCCCCCCCCCCCC(=O)[O-]
REMARK SMILES IDX 16 1 17 2 18 3 19 4 20 5 21 6 22 7 23 8 24 9 25 10 26 11
REMARK SMILES IDX 27 12 28 13 29 14 30 15 31 16 32 17 15 18 14 19 13 20 12 21
REMARK SMILES IDX 11 22 10 23 9 24 8 25 7 26 6 27 5 28 4 29 3 30 2 31 1 32
REMARK H PARENT
REMARK Flexibility Score: inf
ROOT
ATOM      1  C   UNL     1      10.351  21.929  -6.813  1.00  0.00     0.000 C 
ENDROOT
BRANCH   1   2
ATOM      2  C   UNL     1      10.344  21.286  -8.217  1.00  0.00     0.000 C 
BRANCH   2   3
ATOM      3  C   UNL     1      10.333  22.307  -9.369  1.00  0.00     0.000 C 
BRANCH   3   4
ATOM      4  C   UNL     1      10.642  23.758  -8.954  1.00  0.00     0.000 C 
BRANCH   4   5
ATOM      5  C   UNL     1      12.006  24.300  -9.430  1.00  0.00     0.000 C 
BRANCH   5   6
ATOM      6  C   UNL     1      13.085  24.410  -8.338  1.00  0.00     0.000 C 
BRANCH   6   7
ATOM      7  C   UNL     1      13.651  23.047  -7.915  1.00  0.00     0.000 C 
BRANCH   7   8
ATOM      8  C   UNL     1      15.117  23.175  -7.471  1.00  0.00     0.000 C 
BRANCH   8   9
ATOM      9  C   UNL     1      15.386  24.497  -6.721  1.00  0.00     0.000 C 
BRANCH   9  10
ATOM     10  C   UNL     1      16.868  24.716  -6.372  1.00  0.00     0.000 C 
BRANCH  10  11
ATOM     11  C   UNL     1      17.282  24.026  -5.065  1.00  0.00     0.000 C 
BRANCH  11  12
ATOM     12  C   UNL     1      16.812  24.830  -3.845  1.00  0.00     0.000 C 
BRANCH  12  13
ATOM     13  C   UNL     1      16.009  23.980  -2.843  1.00  0.00     0.006 C 
BRANCH  13  14
ATOM     14  C   UNL     1      14.604  23.587  -3.325  1.00  0.00     0.053 C 
BRANCH  14  15
ATOM     15  C   UNL     1      13.660  23.363  -2.184  1.00  0.00     0.041 C 
ATOM     16  O   UNL     1      13.839  23.955  -1.087  1.00  0.00    -0.550 OA
ATOM     17  O   UNL     1      12.563  22.525  -2.343  1.00  0.00    -0.550 OA
ENDBRANCH  14  15
ENDBRANCH  13  14
ENDBRANCH  12  13
ENDBRANCH  11  12
ENDBRANCH  10  11
ENDBRANCH   9  10
ENDBRANCH   8   9
ENDBRANCH   7   8
ENDBRANCH   6   7
ENDBRANCH   5   6
ENDBRANCH   4   5
ENDBRANCH   3   4
ENDBRANCH   2   3
ENDBRANCH   1   2
BRANCH   1  18
ATOM     18  C   UNL     1       9.100  21.565  -5.995  1.00  0.00     0.000 C 
BRANCH  18  19
ATOM     19  C   UNL     1       8.358  22.803  -5.465  1.00  0.00     0.000 C 
BRANCH  19  20
ATOM     20  C   UNL     1       6.828  22.647  -5.519  1.00  0.00     0.000 C 
BRANCH  20  21
ATOM     21  C   UNL     1       6.170  23.629  -6.501  1.00  0.00     0.000 C 
BRANCH  21  22
ATOM     22  C   UNL     1       7.160  24.675  -7.042  1.00  0.00     0.000 C 
BRANCH  22  23
ATOM     23  C   UNL     1       7.137  24.763  -8.575  1.00  0.00     0.000 C 
BRANCH  23  24
ATOM     24  C   UNL     1       6.890  23.397  -9.238  1.00  0.00    -0.000 C 
BRANCH  24  25
ATOM     25  C   UNL     1       5.811  23.453 -10.335  1.00  0.00    -0.000 C 
BRANCH  25  26
ATOM     26  C   UNL     1       4.357  23.318  -9.834  1.00  0.00    -0.000 C 
BRANCH  26  27
ATOM     27  C   UNL     1       4.060  22.058  -9.000  1.00  0.00    -0.000 C 
BRANCH  27  28
ATOM     28  C   UNL     1       3.045  22.310  -7.872  1.00  0.00    -0.000 C 
BRANCH  28  29
ATOM     29  C   UNL     1       1.616  21.906  -8.265  1.00  0.00    -0.000 C 
BRANCH  29  30
ATOM     30  C   UNL     1       1.042  20.797  -7.370  1.00  0.00    -0.000 C 
BRANCH  30  31
ATOM     31  C   UNL     1       0.949  19.471  -8.135  1.00  0.00    -0.003 C 
ATOM     32  C   UNL     1      -0.173  19.507  -9.168  1.00  0.00     0.004 C 
ENDBRANCH  30  31
ENDBRANCH  29  30
ENDBRANCH  28  29
ENDBRANCH  27  28
ENDBRANCH  26  27
ENDBRANCH  25  26
ENDBRANCH  24  25
ENDBRANCH  23  24
ENDBRANCH  22  23
ENDBRANCH  21  22
ENDBRANCH  20  21
ENDBRANCH  19  20
ENDBRANCH  18  19
ENDBRANCH   1  18
TORSDOF 28
ENDMDL
MODEL 3
REMARK VINA RESULT:    -5.274      1.443      3.834
REMARK INTER + INTRA:         -17.767
REMARK INTER:                 -13.737
REMARK INTRA:                  -4.029
REMARK UNBOUND:                -3.859
REMARK SMILES CCCCCCCCCCCCCCCCCCCCCCCCCCCCCC(=O)[O-]
REMARK SMILES IDX 16 1 17 2 18 3 19 4 20 5 21 6 22 7 23 8 24 9 25 10 26 11
REMARK SMILES IDX 27 12 28 13 29 14 30 15 31 16 32 17 15 18 14 19 13 20 12 21
REMARK SMILES IDX 11 22 10 23 9 24 8 25 7 26 6 27 5 28 4 29 3 30 2 31 1 32
REMARK H PARENT
REMARK Flexibility Score: inf
ROOT
ATOM      1  C   UNL     1      12.124  24.560  -8.573  1.00  0.00     0.000 C 
ENDROOT
BRANCH   1   2
ATOM      2  C   UNL     1      13.593  24.434  -8.115  1.00  0.00     0.000 C 
BRANCH   2   3
ATOM      3  C   UNL     1      13.882  23.165  -7.292  1.00  0.00     0.000 C 
BRANCH   3   4
ATOM      4  C   UNL     1      15.017  22.280  -7.839  1.00  0.00     0.000 C 
BRANCH   4   5
ATOM      5  C   UNL     1      16.393  22.491  -7.172  1.00  0.00     0.000 C 
BRANCH   5   6
ATOM      6  C   UNL     1      17.503  23.001  -8.107  1.00  0.00     0.000 C 
BRANCH   6   7
ATOM      7  C   UNL     1      17.777  24.504  -7.947  1.00  0.00     0.000 C 
BRANCH   7   8
ATOM      8  C   UNL     1      17.659  24.929  -6.474  1.00  0.00     0.000 C 
BRANCH   8   9
ATOM      9  C   UNL     1      16.609  26.042  -6.272  1.00  0.00     0.000 C 
BRANCH   9  10
ATOM     10  C   UNL     1      15.576  25.721  -5.178  1.00  0.00     0.000 C 
BRANCH  10  11
ATOM     11  C   UNL     1      16.068  24.658  -4.185  1.00  0.00     0.000 C 
BRANCH  11  12
ATOM     12  C   UNL     1      14.968  23.629  -3.889  1.00  0.00     0.000 C 
BRANCH  12  13
ATOM     13  C   UNL     1      14.611  23.551  -2.393  1.00  0.00     0.006 C 
BRANCH  13  14
ATOM     14  C   UNL     1      13.655  24.653  -1.909  1.00  0.00     0.053 C 
BRANCH  14  15
ATOM     15  C   UNL     1      14.349  25.658  -1.042  1.00  0.00     0.041 C 
ATOM     16  O   UNL     1      14.825  26.709  -1.544  1.00  0.00    -0.550 OA
ATOM     17  O   UNL     1      14.442  25.446   0.329  1.00  0.00    -0.550 OA
ENDBRANCH  14  15
ENDBRANCH  13  14
ENDBRANCH  12  13
ENDBRANCH  11  12
ENDBRANCH  10  11
ENDBRANCH   9  10
ENDBRANCH   8   9
ENDBRANCH   7   8
ENDBRANCH   6   7
ENDBRANCH   5   6
ENDBRANCH   4   5
ENDBRANCH   3   4
ENDBRANCH   2   3
ENDBRANCH   1   2
BRANCH   1  18
ATOM     18  C   UNL     1      11.972  24.435 -10.099  1.00  0.00     0.000 C 
BRANCH  18  19
ATOM     19  C   UNL     1      11.020  23.301 -10.508  1.00  0.00     0.000 C 
BRANCH  19  20
ATOM     20  C   UNL     1      10.479  22.513  -9.301  1.00  0.00     0.000 C 
BRANCH  20  21
ATOM     21  C   UNL     1      11.371  21.319  -8.930  1.00  0.00     0.000 C 
BRANCH  21  22
ATOM     22  C   UNL     1      10.847  20.549  -7.705  1.00  0.00     0.000 C 
BRANCH  22  23
ATOM     23  C   UNL     1       9.525  21.125  -7.173  1.00  0.00     0.000 C 
BRANCH  23  24
ATOM     24  C   UNL     1       9.730  22.022  -5.941  1.00  0.00    -0.000 C 
BRANCH  24  25
ATOM     25  C   UNL     1       8.631  21.836  -4.879  1.00  0.00    -0.000 C 
BRANCH  25  26
ATOM     26  C   UNL     1       7.273  22.489  -5.218  1.00  0.00    -0.000 C 
BRANCH  26  27
ATOM     27  C   UNL     1       7.356  23.865  -5.904  1.00  0.00    -0.000 C 
BRANCH  27  28
ATOM     28  C   UNL     1       6.577  23.923  -7.229  1.00  0.00    -0.000 C 
BRANCH  28  29
ATOM     29  C   UNL     1       7.503  23.990  -8.454  1.00  0.00    -0.000 C 
BRANCH  29  30
ATOM     30  C   UNL     1       6.931  23.254  -9.675  1.00  0.00    -0.000 C 
BRANCH  30  31
ATOM     31  C   UNL     1       5.403  23.156  -9.587  1.00  0.00    -0.003 C 
ATOM     32  C   UNL     1       4.734  23.936 -10.715  1.00  0.00     0.004 C 
ENDBRANCH  30  31
ENDBRANCH  29  30
ENDBRANCH  28  29
ENDBRANCH  27  28
ENDBRANCH  26  27
ENDBRANCH  25  26
ENDBRANCH  24  25
ENDBRANCH  23  24
ENDBRANCH  22  23
ENDBRANCH  21  22
ENDBRANCH  20  21
ENDBRANCH  19  20
ENDBRANCH  18  19
ENDBRANCH   1  18
TORSDOF 28
ENDMDL
MODEL 4
REMARK VINA RESULT:    -4.996      1.863      8.919
REMARK INTER + INTRA:         -17.034
REMARK INTER:                 -14.306
REMARK INTRA:                  -2.728
REMARK UNBOUND:                -3.859
REMARK SMILES CCCCCCCCCCCCCCCCCCCCCCCCCCCCCC(=O)[O-]
REMARK SMILES IDX 16 1 17 2 18 3 19 4 20 5 21 6 22 7 23 8 24 9 25 10 26 11
REMARK SMILES IDX 27 12 28 13 29 14 30 15 31 16 32 17 15 18 14 19 13 20 12 21
REMARK SMILES IDX 11 22 10 23 9 24 8 25 7 26 6 27 5 28 4 29 3 30 2 31 1 32
REMARK H PARENT
REMARK Flexibility Score: inf
ROOT
ATOM      1  C   UNL     1       9.022  23.581  -9.142  1.00  0.00     0.000 C 
ENDROOT
BRANCH   1   2
ATOM      2  C   UNL     1       7.557  23.627  -9.626  1.00  0.00     0.000 C 
BRANCH   2   3
ATOM      3  C   UNL     1       7.104  22.351 -10.360  1.00  0.00     0.000 C 
BRANCH   3   4
ATOM      4  C   UNL     1       5.598  22.044 -10.261  1.00  0.00     0.000 C 
BRANCH   4   5
ATOM      5  C   UNL     1       4.784  23.028  -9.395  1.00  0.00     0.000 C 
BRANCH   5   6
ATOM      6  C   UNL     1       3.612  22.402  -8.618  1.00  0.00     0.000 C 
BRANCH   6   7
ATOM      7  C   UNL     1       3.612  22.775  -7.129  1.00  0.00     0.000 C 
BRANCH   7   8
ATOM      8  C   UNL     1       5.047  22.851  -6.582  1.00  0.00     0.000 C 
BRANCH   8   9
ATOM      9  C   UNL     1       5.325  24.185  -5.858  1.00  0.00     0.000 C 
BRANCH   9  10
ATOM     10  C   UNL     1       6.818  24.438  -5.587  1.00  0.00     0.000 C 
BRANCH  10  11
ATOM     11  C   UNL     1       7.722  23.326  -6.138  1.00  0.00     0.000 C 
BRANCH  11  12
ATOM     12  C   UNL     1       8.052  22.294  -5.050  1.00  0.00     0.000 C 
BRANCH  12  13
ATOM     13  C   UNL     1       9.404  21.595  -5.281  1.00  0.00     0.006 C 
BRANCH  13  14
ATOM     14  C   UNL     1       9.957  21.736  -6.708  1.00  0.00     0.053 C 
BRANCH  14  15
ATOM     15  C   UNL     1      10.267  20.406  -7.324  1.00  0.00     0.041 C 
ATOM     16  O   UNL     1       9.565  19.399  -7.046  1.00  0.00    -0.550 OA
ATOM     17  O   UNL     1      11.312  20.288  -8.232  1.00  0.00    -0.550 OA
ENDBRANCH  14  15
ENDBRANCH  13  14
ENDBRANCH  12  13
ENDBRANCH  11  12
ENDBRANCH  10  11
ENDBRANCH   9  10
ENDBRANCH   8   9
ENDBRANCH   7   8
ENDBRANCH   6   7
ENDBRANCH   5   6
ENDBRANCH   4   5
ENDBRANCH   3   4
ENDBRANCH   2   3
ENDBRANCH   1   2
BRANCH   1  18
ATOM     18  C   UNL     1       9.948  22.867 -10.142  1.00  0.00     0.000 C 
BRANCH  18  19
ATOM     19  C   UNL     1      11.254  23.638 -10.394  1.00  0.00     0.000 C 
BRANCH  19  20
ATOM     20  C   UNL     1      11.774  24.354  -9.135  1.00  0.00     0.000 C 
BRANCH  20  21
ATOM     21  C   UNL     1      12.673  23.454  -8.274  1.00  0.00     0.000 C 
BRANCH  21  22
ATOM     22  C   UNL     1      13.947  24.173  -7.798  1.00  0.00     0.000 C 
BRANCH  22  23
ATOM     23  C   UNL     1      14.873  23.250  -6.992  1.00  0.00     0.000 C 
BRANCH  23  24
ATOM     24  C   UNL     1      16.312  23.240  -7.538  1.00  0.00    -0.000 C 
BRANCH  24  25
ATOM     25  C   UNL     1      17.308  23.956  -6.607  1.00  0.00    -0.000 C 
BRANCH  25  26
ATOM     26  C   UNL     1      17.104  25.481  -6.476  1.00  0.00    -0.000 C 
BRANCH  26  27
ATOM     27  C   UNL     1      16.979  26.008  -5.035  1.00  0.00    -0.000 C 
BRANCH  27  28
ATOM     28  C   UNL     1      16.137  25.091  -4.131  1.00  0.00    -0.000 C 
BRANCH  28  29
ATOM     29  C   UNL     1      15.156  25.876  -3.245  1.00  0.00    -0.000 C 
BRANCH  29  30
ATOM     30  C   UNL     1      14.607  25.041  -2.079  1.00  0.00    -0.000 C 
BRANCH  30  31
ATOM     31  C   UNL     1      14.586  23.550  -2.436  1.00  0.00    -0.003 C 
ATOM     32  C   UNL     1      13.157  23.022  -2.523  1.00  0.00     0.004 C 
ENDBRANCH  30  31
ENDBRANCH  29  30
ENDBRANCH  28  29
ENDBRANCH  27  28
ENDBRANCH  26  27
ENDBRANCH  25  26
ENDBRANCH  24  25
ENDBRANCH  23  24
ENDBRANCH  22  23
ENDBRANCH  21  22
ENDBRANCH  20  21
ENDBRANCH  19  20
ENDBRANCH  18  19
ENDBRANCH   1  18
TORSDOF 28
ENDMDL
MODEL 5
REMARK VINA RESULT:    -4.956      2.188      5.279
REMARK INTER + INTRA:         -16.929
REMARK INTER:                 -14.060
REMARK INTRA:                  -2.869
REMARK UNBOUND:                -3.859
REMARK SMILES CCCCCCCCCCCCCCCCCCCCCCCCCCCCCC(=O)[O-]
REMARK SMILES IDX 16 1 17 2 18 3 19 4 20 5 21 6 22 7 23 8 24 9 25 10 26 11
REMARK SMILES IDX 27 12 28 13 29 14 30 15 31 16 32 17 15 18 14 19 13 20 12 21
REMARK SMILES IDX 11 22 10 23 9 24 8 25 7 26 6 27 5 28 4 29 3 30 2 31 1 32
REMARK H PARENT
REMARK Flexibility Score: inf
ROOT
ATOM      1  C   UNL     1       9.081  20.868  -6.117  1.00  0.00     0.000 C 
ENDROOT
BRANCH   1   2
ATOM      2  C   UNL     1      10.250  21.671  -6.728  1.00  0.00     0.000 C 
BRANCH   2   3
ATOM      3  C   UNL     1      10.549  21.314  -8.196  1.00  0.00     0.000 C 
BRANCH   3   4
ATOM      4  C   UNL     1       9.568  21.911  -9.222  1.00  0.00     0.000 C 
BRANCH   4   5
ATOM      5  C   UNL     1       9.933  23.318  -9.739  1.00  0.00     0.000 C 
BRANCH   5   6
ATOM      6  C   UNL     1      11.380  23.478 -10.237  1.00  0.00     0.000 C 
BRANCH   6   7
ATOM      7  C   UNL     1      12.232  24.374  -9.326  1.00  0.00     0.000 C 
BRANCH   7   8
ATOM      8  C   UNL     1      13.044  23.530  -8.331  1.00  0.00     0.000 C 
BRANCH   8   9
ATOM      9  C   UNL     1      14.141  24.356  -7.625  1.00  0.00     0.000 C 
BRANCH   9  10
ATOM     10  C   UNL     1      14.823  23.609  -6.466  1.00  0.00     0.000 C 
BRANCH  10  11
ATOM     11  C   UNL     1      13.852  22.723  -5.673  1.00  0.00     0.000 C 
BRANCH  11  12
ATOM     12  C   UNL     1      14.076  22.876  -4.161  1.00  0.00     0.000 C 
BRANCH  12  13
ATOM     13  C   UNL     1      15.496  23.359  -3.815  1.00  0.00     0.006 C 
BRANCH  13  14
ATOM     14  C   UNL     1      15.572  24.292  -2.596  1.00  0.00     0.053 C 
BRANCH  14  15
ATOM     15  C   UNL     1      15.540  25.736  -2.992  1.00  0.00     0.041 C 
ATOM     16  O   UNL     1      15.346  26.062  -4.192  1.00  0.00    -0.550 OA
ATOM     17  O   UNL     1      15.693  26.724  -2.026  1.00  0.00    -0.550 OA
ENDBRANCH  14  15
ENDBRANCH  13  14
ENDBRANCH  12  13
ENDBRANCH  11  12
ENDBRANCH  10  11
ENDBRANCH   9  10
ENDBRANCH   8   9
ENDBRANCH   7   8
ENDBRANCH   6   7
ENDBRANCH   5   6
ENDBRANCH   4   5
ENDBRANCH   3   4
ENDBRANCH   2   3
ENDBRANCH   1   2
BRANCH   1  18
ATOM     18  C   UNL     1       8.540  21.509  -4.827  1.00  0.00     0.000 C 
BRANCH  18  19
ATOM     19  C   UNL     1       7.953  22.909  -5.063  1.00  0.00     0.000 C 
BRANCH  19  20
ATOM     20  C   UNL     1       6.524  22.866  -5.634  1.00  0.00     0.000 C 
BRANCH  20  21
ATOM     21  C   UNL     1       6.224  24.056  -6.559  1.00  0.00     0.000 C 
BRANCH  21  22
ATOM     22  C   UNL     1       7.319  24.272  -7.618  1.00  0.00     0.000 C 
BRANCH  22  23
ATOM     23  C   UNL     1       6.739  24.479  -9.025  1.00  0.00     0.000 C 
BRANCH  23  24
ATOM     24  C   UNL     1       6.215  23.170  -9.642  1.00  0.00    -0.000 C 
BRANCH  24  25
ATOM     25  C   UNL     1       4.682  23.151  -9.787  1.00  0.00    -0.000 C 
BRANCH  25  26
ATOM     26  C   UNL     1       3.971  21.976  -9.080  1.00  0.00    -0.000 C 
BRANCH  26  27
ATOM     27  C   UNL     1       2.938  22.378  -8.012  1.00  0.00    -0.000 C 
BRANCH  27  28
ATOM     28  C   UNL     1       1.758  21.395  -7.919  1.00  0.00    -0.000 C 
BRANCH  28  29
ATOM     29  C   UNL     1       0.396  22.106  -7.937  1.00  0.00    -0.000 C 
BRANCH  29  30
ATOM     30  C   UNL     1      -0.653  21.365  -8.780  1.00  0.00    -0.000 C 
BRANCH  30  31
ATOM     31  C   UNL     1      -0.196  19.934  -9.086  1.00  0.00    -0.003 C 
ATOM     32  C   UNL     1      -1.157  19.241 -10.047  1.00  0.00     0.004 C 
ENDBRANCH  30  31
ENDBRANCH  29  30
ENDBRANCH  28  29
ENDBRANCH  27  28
ENDBRANCH  26  27
ENDBRANCH  25  26
ENDBRANCH  24  25
ENDBRANCH  23  24
ENDBRANCH  22  23
ENDBRANCH  21  22
ENDBRANCH  20  21
ENDBRANCH  19  20
ENDBRANCH  18  19
ENDBRANCH   1  18
TORSDOF 28
ENDMDL
MODEL 6
REMARK VINA RESULT:    -4.951      2.547      5.027
REMARK INTER + INTRA:         -16.913
REMARK INTER:                 -14.497
REMARK INTRA:                  -2.416
REMARK UNBOUND:                -3.859
REMARK SMILES CCCCCCCCCCCCCCCCCCCCCCCCCCCCCC(=O)[O-]
REMARK SMILES IDX 16 1 17 2 18 3 19 4 20 5 21 6 22 7 23 8 24 9 25 10 26 11
REMARK SMILES IDX 27 12 28 13 29 14 30 15 31 16 32 17 15 18 14 19 13 20 12 21
REMARK SMILES IDX 11 22 10 23 9 24 8 25 7 26 6 27 5 28 4 29 3 30 2 31 1 32
REMARK H PARENT
REMARK Flexibility Score: inf
ROOT
ATOM      1  C   UNL     1      10.157  20.988  -8.260  1.00  0.00     0.000 C 
ENDROOT
BRANCH   1   2
ATOM      2  C   UNL     1       9.600  22.099  -9.176  1.00  0.00     0.000 C 
BRANCH   2   3
ATOM      3  C   UNL     1      10.686  22.870  -9.949  1.00  0.00     0.000 C 
BRANCH   3   4
ATOM      4  C   UNL     1      11.198  24.144  -9.252  1.00  0.00     0.000 C 
BRANCH   4   5
ATOM      5  C   UNL     1      12.666  24.088  -8.778  1.00  0.00     0.000 C 
BRANCH   5   6
ATOM      6  C   UNL     1      12.989  22.965  -7.778  1.00  0.00     0.000 C 
BRANCH   6   7
ATOM      7  C   UNL     1      14.475  22.914  -7.394  1.00  0.00     0.000 C 
BRANCH   7   8
ATOM      8  C   UNL     1      15.021  24.325  -7.125  1.00  0.00     0.000 C 
BRANCH   8   9
ATOM      9  C   UNL     1      15.549  24.481  -5.683  1.00  0.00     0.000 C 
BRANCH   9  10
ATOM     10  C   UNL     1      15.856  25.937  -5.294  1.00  0.00     0.000 C 
BRANCH  10  11
ATOM     11  C   UNL     1      16.168  26.104  -3.801  1.00  0.00     0.000 C 
BRANCH  11  12
ATOM     12  C   UNL     1      14.938  26.612  -3.034  1.00  0.00     0.000 C 
BRANCH  12  13
ATOM     13  C   UNL     1      14.709  25.861  -1.711  1.00  0.00     0.006 C 
BRANCH  13  14
ATOM     14  C   UNL     1      13.587  24.811  -1.761  1.00  0.00     0.053 C 
BRANCH  14  15
ATOM     15  C   UNL     1      14.030  23.546  -2.429  1.00  0.00     0.041 C 
ATOM     16  O   UNL     1      15.237  23.193  -2.382  1.00  0.00    -0.550 OA
ATOM     17  O   UNL     1      13.101  22.739  -3.075  1.00  0.00    -0.550 OA
ENDBRANCH  14  15
ENDBRANCH  13  14
ENDBRANCH  12  13
ENDBRANCH  11  12
ENDBRANCH  10  11
ENDBRANCH   9  10
ENDBRANCH   8   9
ENDBRANCH   7   8
ENDBRANCH   6   7
ENDBRANCH   5   6
ENDBRANCH   4   5
ENDBRANCH   3   4
ENDBRANCH   2   3
ENDBRANCH   1   2
BRANCH   1  18
ATOM     18  C   UNL     1       9.706  21.152  -6.798  1.00  0.00     0.000 C 
BRANCH  18  19
ATOM     19  C   UNL     1       9.166  22.559  -6.499  1.00  0.00     0.000 C 
BRANCH  19  20
ATOM     20  C   UNL     1       7.996  22.547  -5.500  1.00  0.00     0.000 C 
BRANCH  20  21
ATOM     21  C   UNL     1       6.911  23.577  -5.850  1.00  0.00     0.000 C 
BRANCH  21  22
ATOM     22  C   UNL     1       7.094  24.171  -7.257  1.00  0.00     0.000 C 
BRANCH  22  23
ATOM     23  C   UNL     1       6.115  23.570  -8.277  1.00  0.00     0.000 C 
BRANCH  23  24
ATOM     24  C   UNL     1       4.911  22.888  -7.604  1.00  0.00    -0.000 C 
BRANCH  24  25
ATOM     25  C   UNL     1       3.845  22.427  -8.614  1.00  0.00    -0.000 C 
BRANCH  25  26
ATOM     26  C   UNL     1       2.424  22.253  -8.036  1.00  0.00    -0.000 C 
BRANCH  26  27
ATOM     27  C   UNL     1       1.788  20.867  -8.254  1.00  0.00    -0.000 C 
BRANCH  27  28
ATOM     28  C   UNL     1       0.622  20.583  -7.292  1.00  0.00    -0.000 C 
BRANCH  28  29
ATOM     29  C   UNL     1      -0.750  20.772  -7.958  1.00  0.00    -0.000 C 
BRANCH  29  30
ATOM     30  C   UNL     1      -0.811  20.184  -9.376  1.00  0.00    -0.000 C 
BRANCH  30  31
ATOM     31  C   UNL     1      -1.688  18.926  -9.409  1.00  0.00    -0.003 C 
ATOM     32  C   UNL     1      -1.856  18.333  -8.014  1.00  0.00     0.004 C 
ENDBRANCH  30  31
ENDBRANCH  29  30
ENDBRANCH  28  29
ENDBRANCH  27  28
ENDBRANCH  26  27
ENDBRANCH  25  26
ENDBRANCH  24  25
ENDBRANCH  23  24
ENDBRANCH  22  23
ENDBRANCH  21  22
ENDBRANCH  20  21
ENDBRANCH  19  20
ENDBRANCH  18  19
ENDBRANCH   1  18
TORSDOF 28
ENDMDL
MODEL 7
REMARK VINA RESULT:    -4.931      5.550      9.354
REMARK INTER + INTRA:         -16.862
REMARK INTER:                 -14.629
REMARK INTRA:                  -2.232
REMARK UNBOUND:                -3.859
REMARK SMILES CCCCCCCCCCCCCCCCCCCCCCCCCCCCCC(=O)[O-]
REMARK SMILES IDX 16 1 17 2 18 3 19 4 20 5 21 6 22 7 23 8 24 9 25 10 26 11
REMARK SMILES IDX 27 12 28 13 29 14 30 15 31 16 32 17 15 18 14 19 13 20 12 21
REMARK SMILES IDX 11 22 10 23 9 24 8 25 7 26 6 27 5 28 4 29 3 30 2 31 1 32
REMARK H PARENT
REMARK Flexibility Score: inf
ROOT
ATOM      1  C   UNL     1      13.906  23.539  -2.433  1.00  0.00     0.000 C 
ENDROOT
BRANCH   1   2
ATOM      2  C   UNL     1      13.970  25.080  -2.496  1.00  0.00     0.000 C 
BRANCH   2   3
ATOM      3  C   UNL     1      15.050  25.696  -1.586  1.00  0.00     0.000 C 
BRANCH   3   4
ATOM      4  C   UNL     1      15.517  24.792  -0.431  1.00  0.00     0.000 C 
BRANCH   4   5
ATOM      5  C   UNL     1      15.262  25.351   0.985  1.00  0.00     0.000 C 
BRANCH   5   6
ATOM      6  C   UNL     1      14.242  24.564   1.826  1.00  0.00     0.000 C 
BRANCH   6   7
ATOM      7  C   UNL     1      12.889  24.393   1.121  1.00  0.00     0.000 C 
BRANCH   7   8
ATOM      8  C   UNL     1      12.520  22.906   0.994  1.00  0.00     0.000 C 
BRANCH   8   9
ATOM      9  C   UNL     1      11.356  22.511   1.927  1.00  0.00     0.000 C 
BRANCH   9  10
ATOM     10  C   UNL     1      11.742  21.460   2.982  1.00  0.00     0.000 C 
BRANCH  10  11
ATOM     11  C   UNL     1      10.666  21.272   4.060  1.00  0.00     0.000 C 
BRANCH  11  12
ATOM     12  C   UNL     1       9.429  22.129   3.758  1.00  0.00     0.000 C 
BRANCH  12  13
ATOM     13  C   UNL     1       8.421  22.152   4.922  1.00  0.00     0.006 C 
BRANCH  13  14
ATOM     14  C   UNL     1       7.253  23.134   4.733  1.00  0.00     0.053 C 
BRANCH  14  15
ATOM     15  C   UNL     1       5.965  22.583   5.262  1.00  0.00     0.041 C 
ATOM     16  O   UNL     1       5.713  21.354   5.165  1.00  0.00    -0.550 OA
ATOM     17  O   UNL     1       5.056  23.424   5.892  1.00  0.00    -0.550 OA
ENDBRANCH  14  15
ENDBRANCH  13  14
ENDBRANCH  12  13
ENDBRANCH  11  12
ENDBRANCH  10  11
ENDBRANCH   9  10
ENDBRANCH   8   9
ENDBRANCH   7   8
ENDBRANCH   6   7
ENDBRANCH   5   6
ENDBRANCH   4   5
ENDBRANCH   3   4
ENDBRANCH   2   3
ENDBRANCH   1   2
BRANCH   1  18
ATOM     18  C   UNL     1      13.990  22.890  -3.825  1.00  0.00     0.000 C 
BRANCH  18  19
ATOM     19  C   UNL     1      14.780  23.744  -4.830  1.00  0.00     0.000 C 
BRANCH  19  20
ATOM     20  C   UNL     1      15.633  22.896  -5.790  1.00  0.00     0.000 C 
BRANCH  20  21
ATOM     21  C   UNL     1      15.196  23.047  -7.255  1.00  0.00     0.000 C 
BRANCH  21  22
ATOM     22  C   UNL     1      14.259  24.248  -7.471  1.00  0.00     0.000 C 
BRANCH  22  23
ATOM     23  C   UNL     1      12.994  23.869  -8.257  1.00  0.00     0.000 C 
BRANCH  23  24
ATOM     24  C   UNL     1      12.636  22.380  -8.108  1.00  0.00    -0.000 C 
BRANCH  24  25
ATOM     25  C   UNL     1      11.465  22.142  -7.138  1.00  0.00    -0.000 C 
BRANCH  25  26
ATOM     26  C   UNL     1      10.114  21.812  -7.807  1.00  0.00    -0.000 C 
BRANCH  26  27
ATOM     27  C   UNL     1       9.405  23.000  -8.483  1.00  0.00    -0.000 C 
BRANCH  27  28
ATOM     28  C   UNL     1       8.425  22.566  -9.587  1.00  0.00    -0.000 C 
BRANCH  28  29
ATOM     29  C   UNL     1       7.027  23.180  -9.409  1.00  0.00    -0.000 C 
BRANCH  29  30
ATOM     30  C   UNL     1       5.945  22.442 -10.210  1.00  0.00    -0.000 C 
BRANCH  30  31
ATOM     31  C   UNL     1       4.681  23.300 -10.342  1.00  0.00    -0.003 C 
ATOM     32  C   UNL     1       4.929  24.516 -11.229  1.00  0.00     0.004 C 
ENDBRANCH  30  31
ENDBRANCH  29  30
ENDBRANCH  28  29
ENDBRANCH  27  28
ENDBRANCH  26  27
ENDBRANCH  25  26
ENDBRANCH  24  25
ENDBRANCH  23  24
ENDBRANCH  22  23
ENDBRANCH  21  22
ENDBRANCH  20  21
ENDBRANCH  19  20
ENDBRANCH  18  19
ENDBRANCH   1  18
TORSDOF 28
ENDMDL
MODEL 8
REMARK VINA RESULT:    -4.883      5.642      9.636
REMARK INTER + INTRA:         -16.735
REMARK INTER:                 -14.929
REMARK INTRA:                  -1.806
REMARK UNBOUND:                -3.859
REMARK SMILES CCCCCCCCCCCCCCCCCCCCCCCCCCCCCC(=O)[O-]
REMARK SMILES IDX 16 1 17 2 18 3 19 4 20 5 21 6 22 7 23 8 24 9 25 10 26 11
REMARK SMILES IDX 27 12 28 13 29 14 30 15 31 16 32 17 15 18 14 19 13 20 12 21
REMARK SMILES IDX 11 22 10 23 9 24 8 25 7 26 6 27 5 28 4 29 3 30 2 31 1 32
REMARK H PARENT
REMARK Flexibility Score: inf
ROOT
ATOM      1  C   UNL     1      14.931  23.969  -2.185  1.00  0.00     0.000 C 
ENDROOT
BRANCH   1   2
ATOM      2  C   UNL     1      14.999  23.272  -3.562  1.00  0.00     0.000 C 
BRANCH   2   3
ATOM      3  C   UNL     1      15.971  23.942  -4.551  1.00  0.00     0.000 C 
BRANCH   3   4
ATOM      4  C   UNL     1      16.788  22.968  -5.419  1.00  0.00     0.000 C 
BRANCH   4   5
ATOM      5  C   UNL     1      16.406  22.942  -6.914  1.00  0.00     0.000 C 
BRANCH   5   6
ATOM      6  C   UNL     1      14.952  22.541  -7.212  1.00  0.00     0.000 C 
BRANCH   6   7
ATOM      7  C   UNL     1      14.072  23.732  -7.616  1.00  0.00     0.000 C 
BRANCH   7   8
ATOM      8  C   UNL     1      12.765  23.254  -8.269  1.00  0.00     0.000 C 
BRANCH   8   9
ATOM      9  C   UNL     1      12.119  24.344  -9.149  1.00  0.00     0.000 C 
BRANCH   9  10
ATOM     10  C   UNL     1      10.799  23.904  -9.804  1.00  0.00     0.000 C 
BRANCH  10  11
ATOM     11  C   UNL     1      10.364  22.494  -9.382  1.00  0.00     0.000 C 
BRANCH  11  12
ATOM     12  C   UNL     1       9.137  22.548  -8.460  1.00  0.00     0.000 C 
BRANCH  12  13
ATOM     13  C   UNL     1       8.407  23.902  -8.519  1.00  0.00     0.006 C 
BRANCH  13  14
ATOM     14  C   UNL     1       6.985  23.884  -7.935  1.00  0.00     0.053 C 
BRANCH  14  15
ATOM     15  C   UNL     1       6.980  24.133  -6.459  1.00  0.00     0.041 C 
ATOM     16  O   UNL     1       7.318  23.221  -5.660  1.00  0.00    -0.550 OA
ATOM     17  O   UNL     1       6.634  25.386  -5.967  1.00  0.00    -0.550 OA
ENDBRANCH  14  15
ENDBRANCH  13  14
ENDBRANCH  12  13
ENDBRANCH  11  12
ENDBRANCH  10  11
ENDBRANCH   9  10
ENDBRANCH   8   9
ENDBRANCH   7   8
ENDBRANCH   6   7
ENDBRANCH   5   6
ENDBRANCH   4   5
ENDBRANCH   3   4
ENDBRANCH   2   3
ENDBRANCH   1   2
BRANCH   1  18
ATOM     18  C   UNL     1      14.391  25.406  -2.282  1.00  0.00     0.000 C 
BRANCH  18  19
ATOM     19  C   UNL     1      14.590  26.203  -0.983  1.00  0.00     0.000 C 
BRANCH  19  20
ATOM     20  C   UNL     1      15.164  25.345   0.158  1.00  0.00     0.000 C 
BRANCH  20  21
ATOM     21  C   UNL     1      14.261  25.338   1.401  1.00  0.00     0.000 C 
BRANCH  21  22
ATOM     22  C   UNL     1      12.873  24.738   1.119  1.00  0.00     0.000 C 
BRANCH  22  23
ATOM     23  C   UNL     1      12.878  23.203   1.166  1.00  0.00     0.000 C 
BRANCH  23  24
ATOM     24  C   UNL     1      11.464  22.615   1.320  1.00  0.00    -0.000 C 
BRANCH  24  25
ATOM     25  C   UNL     1      11.180  22.113   2.747  1.00  0.00    -0.000 C 
BRANCH  25  26
ATOM     26  C   UNL     1       9.693  22.127   3.163  1.00  0.00    -0.000 C 
BRANCH  26  27
ATOM     27  C   UNL     1       9.412  21.721   4.622  1.00  0.00    -0.000 C 
BRANCH  27  28
ATOM     28  C   UNL     1       8.216  22.470   5.234  1.00  0.00    -0.000 C 
BRANCH  28  29
ATOM     29  C   UNL     1       7.190  22.905   4.175  1.00  0.00    -0.000 C 
BRANCH  29  30
ATOM     30  C   UNL     1       5.738  22.746   4.651  1.00  0.00    -0.000 C 
BRANCH  30  31
ATOM     31  C   UNL     1       5.665  21.842   5.888  1.00  0.00    -0.003 C 
ATOM     32  C   UNL     1       4.763  22.446   6.960  1.00  0.00     0.004 C 
ENDBRANCH  30  31
ENDBRANCH  29  30
ENDBRANCH  28  29
ENDBRANCH  27  28
ENDBRANCH  26  27
ENDBRANCH  25  26
ENDBRANCH  24  25
ENDBRANCH  23  24
ENDBRANCH  22  23
ENDBRANCH  21  22
ENDBRANCH  20  21
ENDBRANCH  19  20
ENDBRANCH  18  19
ENDBRANCH   1  18
TORSDOF 28
ENDMDL
MODEL 9
REMARK VINA RESULT:    -4.867      5.043      8.673
REMARK INTER + INTRA:         -16.694
REMARK INTER:                 -14.060
REMARK INTRA:                  -2.634
REMARK UNBOUND:                -3.859
REMARK SMILES CCCCCCCCCCCCCCCCCCCCCCCCCCCCCC(=O)[O-]
REMARK SMILES IDX 16 1 17 2 18 3 19 4 20 5 21 6 22 7 23 8 24 9 25 10 26 11
REMARK SMILES IDX 27 12 28 13 29 14 30 15 31 16 32 17 15 18 14 19 13 20 12 21
REMARK SMILES IDX 11 22 10 23 9 24 8 25 7 26 6 27 5 28 4 29 3 30 2 31 1 32
REMARK H PARENT
REMARK Flexibility Score: inf
ROOT
ATOM      1  C   UNL     1      13.617  24.667  -1.801  1.00  0.00     0.000 C 
ENDROOT
BRANCH   1   2
ATOM      2  C   UNL     1      14.615  25.634  -2.473  1.00  0.00     0.000 C 
BRANCH   2   3
ATOM      3  C   UNL     1      15.779  26.061  -1.559  1.00  0.00     0.000 C 
BRANCH   3   4
ATOM      4  C   UNL     1      16.487  24.905  -0.826  1.00  0.00     0.000 C 
BRANCH   4   5
ATOM      5  C   UNL     1      16.522  25.027   0.712  1.00  0.00     0.000 C 
BRANCH   5   6
ATOM      6  C   UNL     1      15.443  25.937   1.322  1.00  0.00     0.000 C 
BRANCH   6   7
ATOM      7  C   UNL     1      14.227  25.158   1.845  1.00  0.00     0.000 C 
BRANCH   7   8
ATOM      8  C   UNL     1      14.652  23.792   2.408  1.00  0.00     0.000 C 
BRANCH   8   9
ATOM      9  C   UNL     1      13.630  22.683   2.078  1.00  0.00     0.000 C 
BRANCH   9  10
ATOM     10  C   UNL     1      12.314  23.216   1.485  1.00  0.00     0.000 C 
BRANCH  10  11
ATOM     11  C   UNL     1      11.081  22.449   1.984  1.00  0.00     0.000 C 
BRANCH  11  12
ATOM     12  C   UNL     1      11.463  21.448   3.083  1.00  0.00     0.000 C 
BRANCH  12  13
ATOM     13  C   UNL     1      10.248  20.964   3.897  1.00  0.00     0.006 C 
BRANCH  13  14
ATOM     14  C   UNL     1       9.076  21.958   3.941  1.00  0.00     0.053 C 
BRANCH  14  15
ATOM     15  C   UNL     1       8.077  21.601   4.998  1.00  0.00     0.041 C 
ATOM     16  O   UNL     1       7.934  22.335   6.011  1.00  0.00    -0.550 OA
ATOM     17  O   UNL     1       7.279  20.473   4.848  1.00  0.00    -0.550 OA
ENDBRANCH  14  15
ENDBRANCH  13  14
ENDBRANCH  12  13
ENDBRANCH  11  12
ENDBRANCH  10  11
ENDBRANCH   9  10
ENDBRANCH   8   9
ENDBRANCH   7   8
ENDBRANCH   6   7
ENDBRANCH   5   6
ENDBRANCH   4   5
ENDBRANCH   3   4
ENDBRANCH   2   3
ENDBRANCH   1   2
BRANCH   1  18
ATOM     18  C   UNL     1      13.619  23.274  -2.454  1.00  0.00     0.000 C 
BRANCH  18  19
ATOM     19  C   UNL     1      14.595  23.176  -3.637  1.00  0.00     0.000 C 
BRANCH  19  20
ATOM     20  C   UNL     1      13.890  22.843  -4.964  1.00  0.00     0.000 C 
BRANCH  20  21
ATOM     21  C   UNL     1      14.693  23.306  -6.190  1.00  0.00     0.000 C 
BRANCH  21  22
ATOM     22  C   UNL     1      14.158  22.713  -7.505  1.00  0.00     0.000 C 
BRANCH  22  23
ATOM     23  C   UNL     1      12.668  22.348  -7.418  1.00  0.00     0.000 C 
BRANCH  23  24
ATOM     24  C   UNL     1      11.838  22.999  -8.538  1.00  0.00    -0.000 C 
BRANCH  24  25
ATOM     25  C   UNL     1      10.335  22.683  -8.428  1.00  0.00    -0.000 C 
BRANCH  25  26
ATOM     26  C   UNL     1       9.515  22.939  -9.710  1.00  0.00    -0.000 C 
BRANCH  26  27
ATOM     27  C   UNL     1       8.106  22.318  -9.727  1.00  0.00    -0.000 C 
BRANCH  27  28
ATOM     28  C   UNL     1       6.987  23.370  -9.812  1.00  0.00    -0.000 C 
BRANCH  28  29
ATOM     29  C   UNL     1       6.915  24.256  -8.558  1.00  0.00    -0.000 C 
BRANCH  29  30
ATOM     30  C   UNL     1       6.261  23.546  -7.363  1.00  0.00    -0.000 C 
BRANCH  30  31
ATOM     31  C   UNL     1       6.995  23.882  -6.059  1.00  0.00    -0.003 C 
ATOM     32  C   UNL     1       6.556  25.237  -5.512  1.00  0.00     0.004 C 
ENDBRANCH  30  31
ENDBRANCH  29  30
ENDBRANCH  28  29
ENDBRANCH  27  28
ENDBRANCH  26  27
ENDBRANCH  25  26
ENDBRANCH  24  25
ENDBRANCH  23  24
ENDBRANCH  22  23
ENDBRANCH  21  22
ENDBRANCH  20  21
ENDBRANCH  19  20
ENDBRANCH  18  19
ENDBRANCH   1  18
TORSDOF 28
ENDMDL
