MODEL 1
REMARK VINA RESULT:    -3.921      0.000      0.000
REMARK INTER + INTRA:          -7.625
REMARK INTER:                  -6.900
REMARK INTRA:                  -0.724
REMARK UNBOUND:                -0.724
REMARK SMILES CCCCCCCCCCCCCCC(=O)[O-]
REMARK SMILES IDX 9 1 10 2 11 3 12 4 13 5 14 6 15 7 16 8 17 9 8 10 7 11 6 12
REMARK SMILES IDX 5 13 4 14 3 15 2 16 1 17
REMARK H PARENT
REMARK Flexibility Score: inf
ROOT
ATOM      1  C   UNL     1     121.011  69.081  -0.133  1.00  0.00     0.000 C 
ENDROOT
BRANCH   1   2
ATOM      2  C   UNL     1     120.967  70.618  -0.118  1.00  0.00     0.000 C 
BRANCH   2   3
ATOM      3  C   UNL     1     120.364  71.171   1.191  1.00  0.00     0.000 C 
BRANCH   3   4
ATOM      4  C   UNL     1     120.986  72.504   1.640  1.00  0.00     0.000 C 
BRANCH   4   5
ATOM      5  C   UNL     1     120.794  72.777   3.141  1.00  0.00     0.006 C 
BRANCH   5   6
ATOM      6  C   UNL     1     119.888  71.733   3.808  1.00  0.00     0.053 C 
BRANCH   6   7
ATOM      7  C   UNL     1     120.595  71.011   4.914  1.00  0.00     0.041 C 
ATOM      8  O   UNL     1     121.784  70.626   4.760  1.00  0.00    -0.550 OA
ATOM      9  O   UNL     1     119.953  70.793   6.126  1.00  0.00    -0.550 OA
ENDBRANCH   6   7
ENDBRANCH   5   6
ENDBRANCH   4   5
ENDBRANCH   3   4
ENDBRANCH   2   3
ENDBRANCH   1   2
BRANCH   1  10
ATOM     10  C   UNL     1     120.410  68.482  -1.414  1.00  0.00     0.000 C 
BRANCH  10  11
ATOM     11  C   UNL     1     119.917  69.557  -2.395  1.00  0.00    -0.000 C 
BRANCH  11  12
ATOM     12  C   UNL     1     119.877  69.014  -3.828  1.00  0.00    -0.000 C 
BRANCH  12  13
ATOM     13  C   UNL     1     119.916  67.480  -3.837  1.00  0.00    -0.000 C 
BRANCH  13  14
ATOM     14  C   UNL     1     120.192  66.896  -5.234  1.00  0.00    -0.000 C 
BRANCH  14  15
ATOM     15  C   UNL     1     120.715  67.937  -6.246  1.00  0.00    -0.000 C 
BRANCH  15  16
ATOM     16  C   UNL     1     121.344  67.278  -7.484  1.00  0.00    -0.003 C 
ATOM     17  C   UNL     1     120.553  67.607  -8.746  1.00  0.00     0.004 C 
ENDBRANCH  15  16
ENDBRANCH  14  15
ENDBRANCH  13  14
ENDBRANCH  12  13
ENDBRANCH  11  12
ENDBRANCH  10  11
ENDBRANCH   1  10
TORSDOF 13
ENDMDL
MODEL 2
REMARK VINA RESULT:    -3.593      4.252      9.779
REMARK INTER + INTRA:          -7.048
REMARK INTER:                  -6.253
REMARK INTRA:                  -0.795
REMARK UNBOUND:                -0.724
REMARK SMILES CCCCCCCCCCCCCCC(=O)[O-]
REMARK SMILES IDX 9 1 10 2 11 3 12 4 13 5 14 6 15 7 16 8 17 9 8 10 7 11 6 12
REMARK SMILES IDX 5 13 4 14 3 15 2 16 1 17
REMARK H PARENT
REMARK Flexibility Score: inf
ROOT
ATOM      1  C   UNL     1     121.242  72.458   2.440  1.00  0.00     0.000 C 
ENDROOT
BRANCH   1   2
ATOM      2  C   UNL     1     120.629  72.377   1.031  1.00  0.00     0.000 C 
BRANCH   2   3
ATOM      3  C   UNL     1     119.883  71.045   0.797  1.00  0.00     0.000 C 
BRANCH   3   4
ATOM      4  C   UNL     1     120.812  69.879   0.419  1.00  0.00     0.000 C 
BRANCH   4   5
ATOM      5  C   UNL     1     120.045  68.592   0.078  1.00  0.00     0.006 C 
BRANCH   5   6
ATOM      6  C   UNL     1     120.939  67.548  -0.605  1.00  0.00     0.053 C 
BRANCH   6   7
ATOM      7  C   UNL     1     120.394  66.161  -0.447  1.00  0.00     0.041 C 
ATOM      8  O   UNL     1     120.372  65.615   0.687  1.00  0.00    -0.550 OA
ATOM      9  O   UNL     1     119.881  65.486  -1.547  1.00  0.00    -0.550 OA
ENDBRANCH   6   7
ENDBRANCH   5   6
ENDBRANCH   4   5
ENDBRANCH   3   4
ENDBRANCH   2   3
ENDBRANCH   1   2
BRANCH   1  10
ATOM     10  C   UNL     1     120.478  73.419   3.365  1.00  0.00     0.000 C 
BRANCH  10  11
ATOM     11  C   UNL     1     119.896  72.715   4.599  1.00  0.00    -0.000 C 
BRANCH  11  12
ATOM     12  C   UNL     1     120.152  71.205   4.540  1.00  0.00    -0.000 C 
BRANCH  12  13
ATOM     13  C   UNL     1     119.995  70.564   5.926  1.00  0.00    -0.000 C 
BRANCH  13  14
ATOM     14  C   UNL     1     120.441  71.492   7.069  1.00  0.00    -0.000 C 
BRANCH  14  15
ATOM     15  C   UNL     1     120.325  70.849   8.468  1.00  0.00    -0.000 C 
BRANCH  15  16
ATOM     16  C   UNL     1     120.216  71.901   9.583  1.00  0.00    -0.003 C 
ATOM     17  C   UNL     1     120.313  73.315   9.019  1.00  0.00     0.004 C 
ENDBRANCH  15  16
ENDBRANCH  14  15
ENDBRANCH  13  14
ENDBRANCH  12  13
ENDBRANCH  11  12
ENDBRANCH  10  11
ENDBRANCH   1  10
TORSDOF 13
ENDMDL
MODEL 3
REMARK VINA RESULT:    -3.494      1.591      2.095
REMARK INTER + INTRA:          -6.874
REMARK INTER:                  -6.431
REMARK INTRA:                  -0.443
REMARK UNBOUND:                -0.724
REMARK SMILES CCCCCCCCCCCCCCC(=O)[O-]
REMARK SMILES IDX 9 1 10 2 11 3 12 4 13 5 14 6 15 7 16 8 17 9 8 10 7 11 6 12
REMARK SMILES IDX 5 13 4 14 3 15 2 16 1 17
REMARK H PARENT
REMARK Flexibility Score: inf
ROOT
ATOM      1  C   UNL     1     121.162  70.408   0.268  1.00  0.00     0.000 C 
ENDROOT
BRANCH   1   2
ATOM      2  C   UNL     1     120.295  71.599   0.710  1.00  0.00     0.000 C 
BRANCH   2   3
ATOM      3  C   UNL     1     121.014  72.492   1.744  1.00  0.00     0.000 C 
BRANCH   3   4
ATOM      4  C   UNL     1     121.359  71.761   3.052  1.00  0.00     0.000 C 
BRANCH   4   5
ATOM      5  C   UNL     1     120.433  72.150   4.215  1.00  0.00     0.006 C 
BRANCH   5   6
ATOM      6  C   UNL     1     120.610  71.229   5.430  1.00  0.00     0.053 C 
BRANCH   6   7
ATOM      7  C   UNL     1     120.371  71.955   6.718  1.00  0.00     0.041 C 
ATOM      8  O   UNL     1     120.016  73.163   6.706  1.00  0.00    -0.550 OA
ATOM      9  O   UNL     1     120.506  71.289   7.929  1.00  0.00    -0.550 OA
ENDBRANCH   6   7
ENDBRANCH   5   6
ENDBRANCH   4   5
ENDBRANCH   3   4
ENDBRANCH   2   3
ENDBRANCH   1   2
BRANCH   1  10
ATOM     10  C   UNL     1     120.749  69.850  -1.103  1.00  0.00     0.000 C 
BRANCH  10  11
ATOM     11  C   UNL     1     119.898  68.576  -0.991  1.00  0.00    -0.000 C 
BRANCH  11  12
ATOM     12  C   UNL     1     120.730  67.331  -1.316  1.00  0.00    -0.000 C 
BRANCH  12  13
ATOM     13  C   UNL     1     119.972  66.393  -2.266  1.00  0.00    -0.000 C 
BRANCH  13  14
ATOM     14  C   UNL     1     119.878  66.941  -3.701  1.00  0.00    -0.000 C 
BRANCH  14  15
ATOM     15  C   UNL     1     120.086  65.865  -4.788  1.00  0.00    -0.000 C 
BRANCH  15  16
ATOM     16  C   UNL     1     121.221  66.230  -5.757  1.00  0.00    -0.003 C 
ATOM     17  C   UNL     1     121.028  65.556  -7.112  1.00  0.00     0.004 C 
ENDBRANCH  15  16
ENDBRANCH  14  15
ENDBRANCH  13  14
ENDBRANCH  12  13
ENDBRANCH  11  12
ENDBRANCH  10  11
ENDBRANCH   1  10
TORSDOF 13
ENDMDL
MODEL 4
REMARK VINA RESULT:    -3.455      4.428     10.284
REMARK INTER + INTRA:          -6.806
REMARK INTER:                  -6.421
REMARK INTRA:                  -0.384
REMARK UNBOUND:                -0.724
REMARK SMILES CCCCCCCCCCCCCCC(=O)[O-]
REMARK SMILES IDX 9 1 10 2 11 3 12 4 13 5 14 6 15 7 16 8 17 9 8 10 7 11 6 12
REMARK SMILES IDX 5 13 4 14 3 15 2 16 1 17
REMARK H PARENT
REMARK Flexibility Score: inf
ROOT
ATOM      1  C   UNL     1     121.049  70.402   0.612  1.00  0.00     0.000 C 
ENDROOT
BRANCH   1   2
ATOM      2  C   UNL     1     119.994  70.026  -0.442  1.00  0.00     0.000 C 
BRANCH   2   3
ATOM      3  C   UNL     1     120.634  69.496  -1.743  1.00  0.00     0.000 C 
BRANCH   3   4
ATOM      4  C   UNL     1     119.889  69.930  -3.016  1.00  0.00     0.000 C 
BRANCH   4   5
ATOM      5  C   UNL     1     119.875  68.841  -4.101  1.00  0.00     0.006 C 
BRANCH   5   6
ATOM      6  C   UNL     1     120.636  69.271  -5.363  1.00  0.00     0.053 C 
BRANCH   6   7
ATOM      7  C   UNL     1     120.845  68.123  -6.303  1.00  0.00     0.041 C 
ATOM      8  O   UNL     1     120.675  66.940  -5.905  1.00  0.00    -0.550 OA
ATOM      9  O   UNL     1     121.193  68.361  -7.626  1.00  0.00    -0.550 OA
ENDBRANCH   6   7
ENDBRANCH   5   6
ENDBRANCH   4   5
ENDBRANCH   3   4
ENDBRANCH   2   3
ENDBRANCH   1   2
BRANCH   1  10
ATOM     10  C   UNL     1     120.946  71.869   1.058  1.00  0.00     0.000 C 
BRANCH  10  11
ATOM     11  C   UNL     1     119.875  72.086   2.137  1.00  0.00    -0.000 C 
BRANCH  11  12
ATOM     12  C   UNL     1     120.474  72.766   3.374  1.00  0.00    -0.000 C 
BRANCH  12  13
ATOM     13  C   UNL     1     120.698  71.753   4.505  1.00  0.00    -0.000 C 
BRANCH  13  14
ATOM     14  C   UNL     1     120.228  72.272   5.876  1.00  0.00    -0.000 C 
BRANCH  14  15
ATOM     15  C   UNL     1     120.168  71.178   6.963  1.00  0.00    -0.000 C 
BRANCH  15  16
ATOM     16  C   UNL     1     120.951  71.571   8.225  1.00  0.00    -0.003 C 
ATOM     17  C   UNL     1     120.631  73.000   8.651  1.00  0.00     0.004 C 
ENDBRANCH  15  16
ENDBRANCH  14  15
ENDBRANCH  13  14
ENDBRANCH  12  13
ENDBRANCH  11  12
ENDBRANCH  10  11
ENDBRANCH   1  10
TORSDOF 13
ENDMDL
MODEL 5
REMARK VINA RESULT:    -3.396      3.996      5.598
REMARK INTER + INTRA:          -6.702
REMARK INTER:                  -6.207
REMARK INTRA:                  -0.495
REMARK UNBOUND:                -0.724
REMARK SMILES CCCCCCCCCCCCCCC(=O)[O-]
REMARK SMILES IDX 9 1 10 2 11 3 12 4 13 5 14 6 15 7 16 8 17 9 8 10 7 11 6 12
REMARK SMILES IDX 5 13 4 14 3 15 2 16 1 17
REMARK H PARENT
REMARK Flexibility Score: inf
ROOT
ATOM      1  C   UNL     1     121.544  72.616   3.128  1.00  0.00     0.000 C 
ENDROOT
BRANCH   1   2
ATOM      2  C   UNL     1     120.484  72.461   4.232  1.00  0.00     0.000 C 
BRANCH   2   3
ATOM      3  C   UNL     1     120.995  71.608   5.414  1.00  0.00     0.000 C 
BRANCH   3   4
ATOM      4  C   UNL     1     119.883  70.822   6.129  1.00  0.00     0.000 C 
BRANCH   4   5
ATOM      5  C   UNL     1     120.092  70.742   7.650  1.00  0.00     0.006 C 
BRANCH   5   6
ATOM      6  C   UNL     1     121.088  71.795   8.153  1.00  0.00     0.053 C 
BRANCH   6   7
ATOM      7  C   UNL     1     120.505  72.630   9.252  1.00  0.00     0.041 C 
ATOM      8  O   UNL     1     119.995  72.079  10.263  1.00  0.00    -0.550 OA
ATOM      9  O   UNL     1     120.554  74.016   9.175  1.00  0.00    -0.550 OA
ENDBRANCH   6   7
ENDBRANCH   5   6
ENDBRANCH   4   5
ENDBRANCH   3   4
ENDBRANCH   2   3
ENDBRANCH   1   2
BRANCH   1  10
ATOM     10  C   UNL     1     121.081  73.533   1.986  1.00  0.00     0.000 C 
BRANCH  10  11
ATOM     11  C   UNL     1     119.896  72.950   1.201  1.00  0.00    -0.000 C 
BRANCH  11  12
ATOM     12  C   UNL     1     119.875  71.421   1.298  1.00  0.00    -0.000 C 
BRANCH  12  13
ATOM     13  C   UNL     1     120.016  70.779  -0.090  1.00  0.00    -0.000 C 
BRANCH  13  14
ATOM     14  C   UNL     1     121.424  70.217  -0.350  1.00  0.00    -0.000 C 
BRANCH  14  15
ATOM     15  C   UNL     1     121.485  68.675  -0.344  1.00  0.00    -0.000 C 
BRANCH  15  16
ATOM     16  C   UNL     1     120.087  68.038  -0.383  1.00  0.00    -0.003 C 
ATOM     17  C   UNL     1     120.142  66.563   0.004  1.00  0.00     0.004 C 
ENDBRANCH  15  16
ENDBRANCH  14  15
ENDBRANCH  13  14
ENDBRANCH  12  13
ENDBRANCH  11  12
ENDBRANCH  10  11
ENDBRANCH   1  10
TORSDOF 13
ENDMDL
MODEL 6
REMARK VINA RESULT:    -3.391      2.036      3.370
REMARK INTER + INTRA:          -6.692
REMARK INTER:                  -6.214
REMARK INTRA:                  -0.478
REMARK UNBOUND:                -0.724
REMARK SMILES CCCCCCCCCCCCCCC(=O)[O-]
REMARK SMILES IDX 9 1 10 2 11 3 12 4 13 5 14 6 15 7 16 8 17 9 8 10 7 11 6 12
REMARK SMILES IDX 5 13 4 14 3 15 2 16 1 17
REMARK H PARENT
REMARK Flexibility Score: inf
ROOT
ATOM      1  C   UNL     1     121.193  71.241   1.838  1.00  0.00     0.000 C 
ENDROOT
BRANCH   1   2
ATOM      2  C   UNL     1     121.049  72.598   2.549  1.00  0.00     0.000 C 
BRANCH   2   3
ATOM      3  C   UNL     1     119.978  72.563   3.660  1.00  0.00     0.000 C 
BRANCH   3   4
ATOM      4  C   UNL     1     120.376  71.701   4.870  1.00  0.00     0.000 C 
BRANCH   4   5
ATOM      5  C   UNL     1     119.969  72.333   6.211  1.00  0.00     0.006 C 
BRANCH   5   6
ATOM      6  C   UNL     1     120.668  71.663   7.402  1.00  0.00     0.053 C 
BRANCH   6   7
ATOM      7  C   UNL     1     120.584  72.503   8.640  1.00  0.00     0.041 C 
ATOM      8  O   UNL     1     120.968  73.703   8.617  1.00  0.00    -0.550 OA
ATOM      9  O   UNL     1     120.052  71.973   9.807  1.00  0.00    -0.550 OA
ENDBRANCH   6   7
ENDBRANCH   5   6
ENDBRANCH   4   5
ENDBRANCH   3   4
ENDBRANCH   2   3
ENDBRANCH   1   2
BRANCH   1  10
ATOM     10  C   UNL     1     120.164  71.048   0.713  1.00  0.00     0.000 C 
BRANCH  10  11
ATOM     11  C   UNL     1     119.933  69.570   0.368  1.00  0.00    -0.000 C 
BRANCH  11  12
ATOM     12  C   UNL     1     120.747  69.160  -0.864  1.00  0.00    -0.000 C 
BRANCH  12  13
ATOM     13  C   UNL     1     120.492  70.118  -2.036  1.00  0.00    -0.000 C 
BRANCH  13  14
ATOM     14  C   UNL     1     119.875  69.417  -3.259  1.00  0.00    -0.000 C 
BRANCH  14  15
ATOM     15  C   UNL     1     119.949  70.254  -4.553  1.00  0.00    -0.000 C 
BRANCH  15  16
ATOM     16  C   UNL     1     120.964  69.684  -5.556  1.00  0.00    -0.003 C 
ATOM     17  C   UNL     1     120.280  68.783  -6.581  1.00  0.00     0.004 C 
ENDBRANCH  15  16
ENDBRANCH  14  15
ENDBRANCH  13  14
ENDBRANCH  12  13
ENDBRANCH  11  12
ENDBRANCH  10  11
ENDBRANCH   1  10
TORSDOF 13
ENDMDL
MODEL 7
REMARK VINA RESULT:    -3.236      4.845      9.945
REMARK INTER + INTRA:          -6.419
REMARK INTER:                  -5.870
REMARK INTRA:                  -0.549
REMARK UNBOUND:                -0.724
REMARK SMILES CCCCCCCCCCCCCCC(=O)[O-]
REMARK SMILES IDX 9 1 10 2 11 3 12 4 13 5 14 6 15 7 16 8 17 9 8 10 7 11 6 12
REMARK SMILES IDX 5 13 4 14 3 15 2 16 1 17
REMARK H PARENT
REMARK Flexibility Score: inf
ROOT
ATOM      1  C   UNL     1     120.785  67.766  -0.968  1.00  0.00     0.000 C 
ENDROOT
BRANCH   1   2
ATOM      2  C   UNL     1     119.895  67.372  -2.160  1.00  0.00     0.000 C 
BRANCH   2   3
ATOM      3  C   UNL     1     119.875  68.460  -3.256  1.00  0.00     0.000 C 
BRANCH   3   4
ATOM      4  C   UNL     1     119.878  67.891  -4.685  1.00  0.00     0.000 C 
BRANCH   4   5
ATOM      5  C   UNL     1     120.648  66.565  -4.798  1.00  0.00     0.006 C 
BRANCH   5   6
ATOM      6  C   UNL     1     119.950  65.569  -5.735  1.00  0.00     0.053 C 
BRANCH   6   7
ATOM      7  C   UNL     1     120.672  65.436  -7.041  1.00  0.00     0.041 C 
ATOM      8  O   UNL     1     121.417  66.365  -7.450  1.00  0.00    -0.550 OA
ATOM      9  O   UNL     1     120.550  64.272  -7.789  1.00  0.00    -0.550 OA
ENDBRANCH   6   7
ENDBRANCH   5   6
ENDBRANCH   4   5
ENDBRANCH   3   4
ENDBRANCH   2   3
ENDBRANCH   1   2
BRANCH   1  10
ATOM     10  C   UNL     1     120.177  68.896  -0.122  1.00  0.00     0.000 C 
BRANCH  10  11
ATOM     11  C   UNL     1     121.207  69.970   0.258  1.00  0.00    -0.000 C 
BRANCH  11  12
ATOM     12  C   UNL     1     120.514  71.282   0.643  1.00  0.00    -0.000 C 
BRANCH  12  13
ATOM     13  C   UNL     1     120.958  71.753   2.034  1.00  0.00    -0.000 C 
BRANCH  13  14
ATOM     14  C   UNL     1     119.997  71.313   3.151  1.00  0.00    -0.000 C 
BRANCH  14  15
ATOM     15  C   UNL     1     120.261  72.008   4.504  1.00  0.00    -0.000 C 
BRANCH  15  16
ATOM     16  C   UNL     1     120.373  71.004   5.661  1.00  0.00    -0.003 C 
ATOM     17  C   UNL     1     120.537  71.719   6.999  1.00  0.00     0.004 C 
ENDBRANCH  15  16
ENDBRANCH  14  15
ENDBRANCH  13  14
ENDBRANCH  12  13
ENDBRANCH  11  12
ENDBRANCH  10  11
ENDBRANCH   1  10
TORSDOF 13
ENDMDL
MODEL 8
REMARK VINA RESULT:    -3.091      4.447      9.699
REMARK INTER + INTRA:          -6.165
REMARK INTER:                  -5.673
REMARK INTRA:                  -0.492
REMARK UNBOUND:                -0.724
REMARK SMILES CCCCCCCCCCCCCCC(=O)[O-]
REMARK SMILES IDX 9 1 10 2 11 3 12 4 13 5 14 6 15 7 16 8 17 9 8 10 7 11 6 12
REMARK SMILES IDX 5 13 4 14 3 15 2 16 1 17
REMARK H PARENT
REMARK Flexibility Score: inf
ROOT
ATOM      1  C   UNL     1     121.024  69.676  -0.535  1.00  0.00     0.000 C 
ENDROOT
BRANCH   1   2
ATOM      2  C   UNL     1     120.372  68.297  -0.732  1.00  0.00     0.000 C 
BRANCH   2   3
ATOM      3  C   UNL     1     120.009  68.030  -2.209  1.00  0.00     0.000 C 
BRANCH   3   4
ATOM      4  C   UNL     1     120.461  66.649  -2.712  1.00  0.00     0.000 C 
BRANCH   4   5
ATOM      5  C   UNL     1     120.369  66.511  -4.241  1.00  0.00     0.006 C 
BRANCH   5   6
ATOM      6  C   UNL     1     119.958  67.826  -4.916  1.00  0.00     0.053 C 
BRANCH   6   7
ATOM      7  C   UNL     1     120.619  67.996  -6.250  1.00  0.00     0.041 C 
ATOM      8  O   UNL     1     121.234  67.032  -6.778  1.00  0.00    -0.550 OA
ATOM      9  O   UNL     1     120.527  69.206  -6.924  1.00  0.00    -0.550 OA
ENDBRANCH   6   7
ENDBRANCH   5   6
ENDBRANCH   4   5
ENDBRANCH   3   4
ENDBRANCH   2   3
ENDBRANCH   1   2
BRANCH   1  10
ATOM     10  C   UNL     1     120.149  70.633   0.291  1.00  0.00     0.000 C 
BRANCH  10  11
ATOM     11  C   UNL     1     120.948  71.387   1.365  1.00  0.00    -0.000 C 
BRANCH  11  12
ATOM     12  C   UNL     1     120.056  72.387   2.109  1.00  0.00    -0.000 C 
BRANCH  12  13
ATOM     13  C   UNL     1     120.809  73.031   3.281  1.00  0.00    -0.000 C 
BRANCH  13  14
ATOM     14  C   UNL     1     119.876  73.478   4.420  1.00  0.00    -0.000 C 
BRANCH  14  15
ATOM     15  C   UNL     1     120.041  72.654   5.714  1.00  0.00    -0.000 C 
BRANCH  15  16
ATOM     16  C   UNL     1     120.465  71.205   5.430  1.00  0.00    -0.003 C 
ATOM     17  C   UNL     1     119.879  70.246   6.462  1.00  0.00     0.004 C 
ENDBRANCH  15  16
ENDBRANCH  14  15
ENDBRANCH  13  14
ENDBRANCH  12  13
ENDBRANCH  11  12
ENDBRANCH  10  11
ENDBRANCH   1  10
TORSDOF 13
ENDMDL
