MODEL 1
REMARK VINA RESULT:    -3.890      0.000      0.000
REMARK INTER + INTRA:          -4.885
REMARK INTER:                  -4.800
REMARK INTRA:                  -0.085
REMARK UNBOUND:                -0.085
REMARK SMILES CCCCCC(=O)[O-]
REMARK SMILES IDX 4 1 5 2 6 3 7 4 8 5 3 6 2 7 1 8
REMARK H PARENT
REMARK Flexibility Score: inf
ROOT
ATOM      1  C   UNL     1      21.767 -21.410  32.960  1.00  0.00     0.006 C 
ENDROOT
BRANCH   1   2
ATOM      2  C   UNL     1      22.484 -22.737  33.223  1.00  0.00     0.053 C 
BRANCH   2   3
ATOM      3  C   UNL     1      23.967 -22.539  33.237  1.00  0.00     0.041 C 
ATOM      4  O   UNL     1      24.610 -22.499  32.155  1.00  0.00    -0.550 OA
ATOM      5  O   UNL     1      24.631 -22.348  34.441  1.00  0.00    -0.550 OA
ENDBRANCH   2   3
ENDBRANCH   1   2
BRANCH   1   6
ATOM      6  C   UNL     1      20.249 -21.611  32.873  1.00  0.00     0.000 C 
BRANCH   6   7
ATOM      7  C   UNL     1      19.576 -20.424  32.175  1.00  0.00    -0.003 C 
ATOM      8  C   UNL     1      20.454 -19.874  31.054  1.00  0.00     0.004 C 
ENDBRANCH   6   7
ENDBRANCH   1   6
TORSDOF 4
ENDMDL
MODEL 2
REMARK VINA RESULT:    -3.862      0.612      1.211
REMARK INTER + INTRA:          -4.851
REMARK INTER:                  -4.757
REMARK INTRA:                  -0.093
REMARK UNBOUND:                -0.085
REMARK SMILES CCCCCC(=O)[O-]
REMARK SMILES IDX 4 1 5 2 6 3 7 4 8 5 3 6 2 7 1 8
REMARK H PARENT
REMARK Flexibility Score: inf
ROOT
ATOM      1  C   UNL     1      21.877 -21.366  32.901  1.00  0.00     0.006 C 
ENDROOT
BRANCH   1   2
ATOM      2  C   UNL     1      22.219 -22.824  33.217  1.00  0.00     0.053 C 
BRANCH   2   3
ATOM      3  C   UNL     1      23.701 -23.007  33.311  1.00  0.00     0.041 C 
ATOM      4  O   UNL     1      24.351 -22.445  34.232  1.00  0.00    -0.550 OA
ATOM      5  O   UNL     1      24.358 -23.836  32.412  1.00  0.00    -0.550 OA
ENDBRANCH   2   3
ENDBRANCH   1   2
BRANCH   1   6
ATOM      6  C   UNL     1      20.419 -21.052  33.257  1.00  0.00     0.000 C 
BRANCH   6   7
ATOM      7  C   UNL     1      19.659 -20.513  32.040  1.00  0.00    -0.003 C 
ATOM      8  C   UNL     1      20.594 -19.764  31.094  1.00  0.00     0.004 C 
ENDBRANCH   6   7
ENDBRANCH   1   6
TORSDOF 4
ENDMDL
MODEL 3
REMARK VINA RESULT:    -3.747      9.973     10.588
REMARK INTER + INTRA:          -4.708
REMARK INTER:                  -4.554
REMARK INTRA:                  -0.154
REMARK UNBOUND:                -0.085
REMARK SMILES CCCCCC(=O)[O-]
REMARK SMILES IDX 4 1 5 2 6 3 7 4 8 5 3 6 2 7 1 8
REMARK H PARENT
REMARK Flexibility Score: inf
ROOT
ATOM      1  C   UNL     1      16.979 -15.264  36.413  1.00  0.00     0.006 C 
ENDROOT
BRANCH   1   2
ATOM      2  C   UNL     1      17.434 -14.347  37.552  1.00  0.00     0.053 C 
BRANCH   2   3
ATOM      3  C   UNL     1      16.262 -13.906  38.370  1.00  0.00     0.041 C 
ATOM      4  O   UNL     1      16.323 -13.929  39.628  1.00  0.00    -0.550 OA
ATOM      5  O   UNL     1      15.120 -13.423  37.745  1.00  0.00    -0.550 OA
ENDBRANCH   2   3
ENDBRANCH   1   2
BRANCH   1   6
ATOM      6  C   UNL     1      17.134 -14.571  35.054  1.00  0.00     0.000 C 
BRANCH   6   7
ATOM      7  C   UNL     1      18.282 -13.557  35.081  1.00  0.00    -0.003 C 
ATOM      8  C   UNL     1      19.067 -13.576  33.772  1.00  0.00     0.004 C 
ENDBRANCH   6   7
ENDBRANCH   1   6
TORSDOF 4
ENDMDL
MODEL 4
REMARK VINA RESULT:    -3.725      9.784     10.952
REMARK INTER + INTRA:          -4.681
REMARK INTER:                  -4.491
REMARK INTRA:                  -0.190
REMARK UNBOUND:                -0.085
REMARK SMILES CCCCCC(=O)[O-]
REMARK SMILES IDX 4 1 5 2 6 3 7 4 8 5 3 6 2 7 1 8
REMARK H PARENT
REMARK Flexibility Score: inf
ROOT
ATOM      1  C   UNL     1      15.733 -12.781  36.256  1.00  0.00     0.006 C 
ENDROOT
BRANCH   1   2
ATOM      2  C   UNL     1      16.407 -13.921  35.488  1.00  0.00     0.053 C 
BRANCH   2   3
ATOM      3  C   UNL     1      17.890 -13.881  35.685  1.00  0.00     0.041 C 
ATOM      4  O   UNL     1      18.637 -13.421  34.781  1.00  0.00    -0.550 OA
ATOM      5  O   UNL     1      18.443 -14.305  36.886  1.00  0.00    -0.550 OA
ENDBRANCH   2   3
ENDBRANCH   1   2
BRANCH   1   6
ATOM      6  C   UNL     1      14.776 -13.327  37.323  1.00  0.00     0.000 C 
BRANCH   6   7
ATOM      7  C   UNL     1      15.156 -12.816  38.717  1.00  0.00    -0.003 C 
ATOM      8  C   UNL     1      15.939 -13.869  39.496  1.00  0.00     0.004 C 
ENDBRANCH   6   7
ENDBRANCH   1   6
TORSDOF 4
ENDMDL
MODEL 5
REMARK VINA RESULT:    -3.640      2.921      3.279
REMARK INTER + INTRA:          -4.577
REMARK INTER:                  -4.450
REMARK INTRA:                  -0.127
REMARK UNBOUND:                -0.085
REMARK SMILES CCCCCC(=O)[O-]
REMARK SMILES IDX 4 1 5 2 6 3 7 4 8 5 3 6 2 7 1 8
REMARK H PARENT
REMARK Flexibility Score: inf
ROOT
ATOM      1  C   UNL     1      21.505 -22.317  33.177  1.00  0.00     0.006 C 
ENDROOT
BRANCH   1   2
ATOM      2  C   UNL     1      20.053 -22.794  33.254  1.00  0.00     0.053 C 
BRANCH   2   3
ATOM      3  C   UNL     1      19.993 -24.289  33.274  1.00  0.00     0.041 C 
ATOM      4  O   UNL     1      20.582 -24.958  32.383  1.00  0.00    -0.550 OA
ATOM      5  O   UNL     1      19.329 -24.945  34.301  1.00  0.00    -0.550 OA
ENDBRANCH   2   3
ENDBRANCH   1   2
BRANCH   1   6
ATOM      6  C   UNL     1      21.605 -20.975  32.441  1.00  0.00     0.000 C 
BRANCH   6   7
ATOM      7  C   UNL     1      20.226 -20.505  31.964  1.00  0.00    -0.003 C 
ATOM      8  C   UNL     1      20.346 -19.583  30.754  1.00  0.00     0.004 C 
ENDBRANCH   6   7
ENDBRANCH   1   6
TORSDOF 4
ENDMDL
MODEL 6
REMARK VINA RESULT:    -3.637      9.953     10.968
REMARK INTER + INTRA:          -4.573
REMARK INTER:                  -4.354
REMARK INTRA:                  -0.219
REMARK UNBOUND:                -0.085
REMARK SMILES CCCCCC(=O)[O-]
REMARK SMILES IDX 4 1 5 2 6 3 7 4 8 5 3 6 2 7 1 8
REMARK H PARENT
REMARK Flexibility Score: inf
ROOT
ATOM      1  C   UNL     1      16.450 -14.817  37.830  1.00  0.00     0.006 C 
ENDROOT
BRANCH   1   2
ATOM      2  C   UNL     1      17.715 -14.264  37.167  1.00  0.00     0.053 C 
BRANCH   2   3
ATOM      3  C   UNL     1      17.450 -13.922  35.735  1.00  0.00     0.041 C 
ATOM      4  O   UNL     1      18.367 -13.439  35.019  1.00  0.00    -0.550 OA
ATOM      5  O   UNL     1      16.205 -14.181  35.177  1.00  0.00    -0.550 OA
ENDBRANCH   2   3
ENDBRANCH   1   2
BRANCH   1   6
ATOM      6  C   UNL     1      16.064 -13.984  39.058  1.00  0.00     0.000 C 
BRANCH   6   7
ATOM      7  C   UNL     1      15.155 -12.814  38.666  1.00  0.00    -0.003 C 
ATOM      8  C   UNL     1      13.922 -13.302  37.912  1.00  0.00     0.004 C 
ENDBRANCH   6   7
ENDBRANCH   1   6
TORSDOF 4
ENDMDL
MODEL 7
REMARK VINA RESULT:    -3.615     10.017     11.266
REMARK INTER + INTRA:          -4.545
REMARK INTER:                  -4.384
REMARK INTRA:                  -0.161
REMARK UNBOUND:                -0.085
REMARK SMILES CCCCCC(=O)[O-]
REMARK SMILES IDX 4 1 5 2 6 3 7 4 8 5 3 6 2 7 1 8
REMARK H PARENT
REMARK Flexibility Score: inf
ROOT
ATOM      1  C   UNL     1      15.190 -13.608  37.215  1.00  0.00     0.006 C 
ENDROOT
BRANCH   1   2
ATOM      2  C   UNL     1      16.248 -12.932  36.339  1.00  0.00     0.053 C 
BRANCH   2   3
ATOM      3  C   UNL     1      17.338 -13.897  35.995  1.00  0.00     0.041 C 
ATOM      4  O   UNL     1      18.154 -14.272  36.879  1.00  0.00    -0.550 OA
ATOM      5  O   UNL     1      17.424 -14.421  34.712  1.00  0.00    -0.550 OA
ENDBRANCH   2   3
ENDBRANCH   1   2
BRANCH   1   6
ATOM      6  C   UNL     1      15.167 -12.998  38.622  1.00  0.00     0.000 C 
BRANCH   6   7
ATOM      7  C   UNL     1      15.919 -13.887  39.619  1.00  0.00    -0.003 C 
ATOM      8  C   UNL     1      15.096 -15.118  39.987  1.00  0.00     0.004 C 
ENDBRANCH   6   7
ENDBRANCH   1   6
TORSDOF 4
ENDMDL
MODEL 8
REMARK VINA RESULT:    -3.561      9.245     10.358
REMARK INTER + INTRA:          -4.479
REMARK INTER:                  -4.275
REMARK INTRA:                  -0.204
REMARK UNBOUND:                -0.085
REMARK SMILES CCCCCC(=O)[O-]
REMARK SMILES IDX 4 1 5 2 6 3 7 4 8 5 3 6 2 7 1 8
REMARK H PARENT
REMARK Flexibility Score: inf
ROOT
ATOM      1  C   UNL     1      17.310 -14.253  37.596  1.00  0.00     0.006 C 
ENDROOT
BRANCH   1   2
ATOM      2  C   UNL     1      17.109 -14.946  36.246  1.00  0.00     0.053 C 
BRANCH   2   3
ATOM      3  C   UNL     1      16.626 -16.349  36.444  1.00  0.00     0.041 C 
ATOM      4  O   UNL     1      15.629 -16.771  35.801  1.00  0.00    -0.550 OA
ATOM      5  O   UNL     1      17.306 -17.204  37.301  1.00  0.00    -0.550 OA
ENDBRANCH   2   3
ENDBRANCH   1   2
BRANCH   1   6
ATOM      6  C   UNL     1      15.985 -13.696  38.132  1.00  0.00     0.000 C 
BRANCH   6   7
ATOM      7  C   UNL     1      15.861 -13.929  39.642  1.00  0.00    -0.003 C 
ATOM      8  C   UNL     1      15.109 -15.223  39.940  1.00  0.00     0.004 C 
ENDBRANCH   6   7
ENDBRANCH   1   6
TORSDOF 4
ENDMDL
MODEL 9
REMARK VINA RESULT:    -3.536      2.375      4.311
REMARK INTER + INTRA:          -4.448
REMARK INTER:                  -4.308
REMARK INTRA:                  -0.140
REMARK UNBOUND:                -0.085
REMARK SMILES CCCCCC(=O)[O-]
REMARK SMILES IDX 4 1 5 2 6 3 7 4 8 5 3 6 2 7 1 8
REMARK H PARENT
REMARK Flexibility Score: inf
ROOT
ATOM      1  C   UNL     1      24.033 -22.533  33.726  1.00  0.00     0.006 C 
ENDROOT
BRANCH   1   2
ATOM      2  C   UNL     1      22.575 -22.738  33.305  1.00  0.00     0.053 C 
BRANCH   2   3
ATOM      3  C   UNL     1      21.961 -21.436  32.895  1.00  0.00     0.041 C 
ATOM      4  O   UNL     1      22.562 -20.679  32.087  1.00  0.00    -0.550 OA
ATOM      5  O   UNL     1      20.704 -21.082  33.365  1.00  0.00    -0.550 OA
ENDBRANCH   2   3
ENDBRANCH   1   2
BRANCH   1   6
ATOM      6  C   UNL     1      24.970 -23.444  32.923  1.00  0.00     0.000 C 
BRANCH   6   7
ATOM      7  C   UNL     1      25.140 -22.931  31.489  1.00  0.00    -0.003 C 
ATOM      8  C   UNL     1      26.049 -23.852  30.679  1.00  0.00     0.004 C 
ENDBRANCH   6   7
ENDBRANCH   1   6
TORSDOF 4
ENDMDL
