MODEL 1
REMARK VINA RESULT:    -4.980      0.000      0.000
REMARK INTER + INTRA:          -9.480
REMARK INTER:                  -7.600
REMARK INTRA:                  -1.880
REMARK UNBOUND:                -1.880
REMARK SMILES OC[C@@H]1O[C@](CO)(O[C@H]2O[C@H](CO)[C@H](O)[C@H](O)[C@H]2O)[C@@H](O)[C@@H]1O
REMARK SMILES IDX 8 1 9 2 11 3 14 4 10 5 16 6 18 7 12 8 13 9 15 11 17 13 19 15
REMARK SMILES IDX 5 17 20 18 4 19 22 20 3 21 6 22 7 23 21 25 23 27 2 29 1 30
REMARK H PARENT 13 10 15 12 17 14 19 16 7 24 21 26 23 28 1 31
REMARK Flexibility Score: inf
ROOT
ATOM      1  O   UNL     1     -18.546 -43.147 -15.476  1.00  0.00    -0.313 OA
ENDROOT
BRANCH   1   2
ATOM      2  C   UNL     1     -17.339 -42.419 -15.696  1.00  0.00     0.285 C 
ATOM      3  C   UNL     1     -17.372 -41.564 -13.502  1.00  0.00     0.178 C 
ATOM      4  C   UNL     1     -16.118 -42.358 -13.060  1.00  0.00     0.177 C 
ATOM      5  O   UNL     1     -17.303 -41.250 -14.886  1.00  0.00    -0.341 OA
ATOM      6  C   UNL     1     -16.027 -43.646 -13.899  1.00  0.00     0.179 C 
ATOM      7  C   UNL     1     -16.113 -43.314 -15.406  1.00  0.00     0.202 C 
BRANCH   3   8
ATOM      8  C   UNL     1     -17.530 -40.255 -12.714  1.00  0.00     0.191 C 
BRANCH   8   9
ATOM      9  O   UNL     1     -17.141 -40.420 -11.377  1.00  0.00    -0.394 OA
ATOM     10  H   UNL     1     -17.739 -41.111 -10.990  1.00  0.00     0.210 HD
ENDBRANCH   8   9
ENDBRANCH   3   8
BRANCH   4  11
ATOM     11  O   UNL     1     -14.960 -41.582 -13.250  1.00  0.00    -0.387 OA
ATOM     12  H   UNL     1     -14.465 -41.580 -12.391  1.00  0.00     0.211 HD
ENDBRANCH   4  11
BRANCH   6  13
ATOM     13  O   UNL     1     -14.860 -44.371 -13.596  1.00  0.00    -0.387 OA
ATOM     14  H   UNL     1     -14.308 -44.425 -14.420  1.00  0.00     0.211 HD
ENDBRANCH   6  13
BRANCH   7  15
ATOM     15  O   UNL     1     -16.138 -44.480 -16.191  1.00  0.00    -0.385 OA
ATOM     16  H   UNL     1     -15.377 -44.436 -16.827  1.00  0.00     0.211 HD
ENDBRANCH   7  15
ENDBRANCH   1   2
BRANCH   1  17
ATOM     17  C   UNL     1     -19.422 -43.216 -16.600  1.00  0.00     0.224 C 
ATOM     18  C   UNL     1     -18.918 -42.358 -17.795  1.00  0.00     0.208 C 
ATOM     19  O   UNL     1     -20.658 -42.662 -16.177  1.00  0.00    -0.337 OA
ATOM     20  C   UNL     1     -20.160 -41.650 -18.273  1.00  0.00     0.180 C 
ATOM     21  C   UNL     1     -20.970 -41.546 -16.986  1.00  0.00     0.179 C 
BRANCH  17  22
ATOM     22  C   UNL     1     -19.711 -44.697 -16.959  1.00  0.00     0.225 C 
BRANCH  22  23
ATOM     23  O   UNL     1     -18.533 -45.345 -17.358  1.00  0.00    -0.391 OA
ATOM     24  H   UNL     1     -18.703 -46.317 -17.255  1.00  0.00     0.210 HD
ENDBRANCH  22  23
ENDBRANCH  17  22
BRANCH  18  25
ATOM     25  O   UNL     1     -18.268 -43.093 -18.809  1.00  0.00    -0.385 OA
ATOM     26  H   UNL     1     -17.921 -42.462 -19.490  1.00  0.00     0.211 HD
ENDBRANCH  18  25
BRANCH  20  27
ATOM     27  O   UNL     1     -19.867 -40.394 -18.831  1.00  0.00    -0.387 OA
ATOM     28  H   UNL     1     -20.054 -39.723 -18.124  1.00  0.00     0.211 HD
ENDBRANCH  20  27
BRANCH  21  29
ATOM     29  C   UNL     1     -20.707 -40.255 -16.189  1.00  0.00     0.191 C 
BRANCH  29  30
ATOM     30  O   UNL     1     -20.359 -40.579 -14.871  1.00  0.00    -0.394 OA
ATOM     31  H   UNL     1     -19.467 -40.172 -14.714  1.00  0.00     0.210 HD
ENDBRANCH  29  30
ENDBRANCH  21  29
ENDBRANCH   1  17
TORSDOF 13
ENDMDL
MODEL 2
REMARK VINA RESULT:    -4.969      1.760      2.114
REMARK INTER + INTRA:          -9.463
REMARK INTER:                  -7.432
REMARK INTRA:                  -2.031
REMARK UNBOUND:                -1.880
REMARK SMILES OC[C@@H]1O[C@](CO)(O[C@H]2O[C@H](CO)[C@H](O)[C@H](O)[C@H]2O)[C@@H](O)[C@@H]1O
REMARK SMILES IDX 8 1 9 2 11 3 14 4 10 5 16 6 18 7 12 8 13 9 15 11 17 13 19 15
REMARK SMILES IDX 5 17 20 18 4 19 22 20 3 21 6 22 7 23 21 25 23 27 2 29 1 30
REMARK H PARENT 13 10 15 12 17 14 19 16 7 24 21 26 23 28 1 31
REMARK Flexibility Score: inf
ROOT
ATOM      1  O   UNL     1     -19.159 -43.463 -14.688  1.00  0.00    -0.313 OA
ENDROOT
BRANCH   1   2
ATOM      2  C   UNL     1     -18.445 -42.525 -15.491  1.00  0.00     0.285 C 
ATOM      3  C   UNL     1     -17.026 -41.962 -13.698  1.00  0.00     0.178 C 
ATOM      4  C   UNL     1     -15.771 -42.587 -14.357  1.00  0.00     0.177 C 
ATOM      5  O   UNL     1     -17.919 -41.474 -14.689  1.00  0.00    -0.341 OA
ATOM      6  C   UNL     1     -16.217 -43.730 -15.287  1.00  0.00     0.179 C 
ATOM      7  C   UNL     1     -17.308 -43.234 -16.262  1.00  0.00     0.202 C 
BRANCH   3   8
ATOM      8  C   UNL     1     -16.665 -40.804 -12.757  1.00  0.00     0.191 C 
BRANCH   8   9
ATOM      9  O   UNL     1     -17.685 -39.842 -12.725  1.00  0.00    -0.394 OA
ATOM     10  H   UNL     1     -17.330 -39.068 -12.215  1.00  0.00     0.210 HD
ENDBRANCH   8   9
ENDBRANCH   3   8
BRANCH   4  11
ATOM     11  O   UNL     1     -15.075 -41.613 -15.096  1.00  0.00    -0.387 OA
ATOM     12  H   UNL     1     -15.550 -41.507 -15.960  1.00  0.00     0.211 HD
ENDBRANCH   4  11
BRANCH   6  13
ATOM     13  O   UNL     1     -15.123 -44.283 -15.976  1.00  0.00    -0.387 OA
ATOM     14  H   UNL     1     -15.474 -44.822 -16.731  1.00  0.00     0.211 HD
ENDBRANCH   6  13
BRANCH   7  15
ATOM     15  O   UNL     1     -17.809 -44.284 -17.053  1.00  0.00    -0.385 OA
ATOM     16  H   UNL     1     -17.294 -44.299 -17.901  1.00  0.00     0.211 HD
ENDBRANCH   7  15
ENDBRANCH   1   2
BRANCH   1  17
ATOM     17  C   UNL     1     -20.528 -43.643 -15.044  1.00  0.00     0.224 C 
ATOM     18  C   UNL     1     -20.948 -42.748 -16.245  1.00  0.00     0.208 C 
ATOM     19  O   UNL     1     -21.291 -43.226 -13.922  1.00  0.00    -0.337 OA
ATOM     20  C   UNL     1     -22.284 -42.190 -15.821  1.00  0.00     0.180 C 
ATOM     21  C   UNL     1     -22.138 -42.162 -14.304  1.00  0.00     0.179 C 
BRANCH  17  22
ATOM     22  C   UNL     1     -20.833 -45.152 -15.239  1.00  0.00     0.225 C 
BRANCH  22  23
ATOM     23  O   UNL     1     -20.082 -45.671 -16.303  1.00  0.00    -0.391 OA
ATOM     24  H   UNL     1     -19.388 -44.994 -16.509  1.00  0.00     0.210 HD
ENDBRANCH  22  23
ENDBRANCH  17  22
BRANCH  18  25
ATOM     25  O   UNL     1     -20.991 -43.418 -17.486  1.00  0.00    -0.385 OA
ATOM     26  H   UNL     1     -20.088 -43.772 -17.690  1.00  0.00     0.211 HD
ENDBRANCH  18  25
BRANCH  20  27
ATOM     27  O   UNL     1     -22.516 -40.916 -16.366  1.00  0.00    -0.387 OA
ATOM     28  H   UNL     1     -23.417 -40.950 -16.783  1.00  0.00     0.211 HD
ENDBRANCH  20  27
BRANCH  21  29
ATOM     29  C   UNL     1     -21.567 -40.841 -13.759  1.00  0.00     0.191 C 
BRANCH  29  30
ATOM     30  O   UNL     1     -20.406 -41.101 -13.018  1.00  0.00    -0.394 OA
ATOM     31  H   UNL     1     -20.263 -42.082 -13.067  1.00  0.00     0.210 HD
ENDBRANCH  29  30
ENDBRANCH  21  29
ENDBRANCH   1  17
TORSDOF 13
ENDMDL
MODEL 3
REMARK VINA RESULT:    -4.915      1.461      2.946
REMARK INTER + INTRA:          -9.380
REMARK INTER:                  -8.065
REMARK INTRA:                  -1.316
REMARK UNBOUND:                -1.880
REMARK SMILES OC[C@@H]1O[C@](CO)(O[C@H]2O[C@H](CO)[C@H](O)[C@H](O)[C@H]2O)[C@@H](O)[C@@H]1O
REMARK SMILES IDX 8 1 9 2 11 3 14 4 10 5 16 6 18 7 12 8 13 9 15 11 17 13 19 15
REMARK SMILES IDX 5 17 20 18 4 19 22 20 3 21 6 22 7 23 21 25 23 27 2 29 1 30
REMARK H PARENT 13 10 15 12 17 14 19 16 7 24 21 26 23 28 1 31
REMARK Flexibility Score: inf
ROOT
ATOM      1  O   UNL     1     -18.155 -42.422 -16.172  1.00  0.00    -0.313 OA
ENDROOT
BRANCH   1   2
ATOM      2  C   UNL     1     -18.080 -42.975 -14.859  1.00  0.00     0.285 C 
ATOM      3  C   UNL     1     -16.000 -43.976 -15.323  1.00  0.00     0.178 C 
ATOM      4  C   UNL     1     -15.222 -43.063 -14.343  1.00  0.00     0.177 C 
ATOM      5  O   UNL     1     -17.328 -44.183 -14.866  1.00  0.00    -0.341 OA
ATOM      6  C   UNL     1     -15.965 -41.719 -14.225  1.00  0.00     0.179 C 
ATOM      7  C   UNL     1     -17.453 -41.956 -13.882  1.00  0.00     0.202 C 
BRANCH   3   8
ATOM      8  C   UNL     1     -15.325 -45.345 -15.491  1.00  0.00     0.191 C 
BRANCH   8   9
ATOM      9  O   UNL     1     -14.050 -45.355 -14.906  1.00  0.00    -0.394 OA
ATOM     10  H   UNL     1     -13.669 -46.257 -15.070  1.00  0.00     0.210 HD
ENDBRANCH   8   9
ENDBRANCH   3   8
BRANCH   4  11
ATOM     11  O   UNL     1     -15.133 -43.673 -13.078  1.00  0.00    -0.387 OA
ATOM     12  H   UNL     1     -16.055 -43.733 -12.717  1.00  0.00     0.211 HD
ENDBRANCH   4  11
BRANCH   6  13
ATOM     13  O   UNL     1     -15.346 -40.876 -13.283  1.00  0.00    -0.387 OA
ATOM     14  H   UNL     1     -15.630 -39.944 -13.470  1.00  0.00     0.211 HD
ENDBRANCH   6  13
BRANCH   7  15
ATOM     15  O   UNL     1     -18.177 -40.750 -13.871  1.00  0.00    -0.385 OA
ATOM     16  H   UNL     1     -17.727 -40.118 -14.490  1.00  0.00     0.211 HD
ENDBRANCH   7  15
ENDBRANCH   1   2
BRANCH   1  17
ATOM     17  C   UNL     1     -19.325 -42.771 -16.908  1.00  0.00     0.224 C 
ATOM     18  C   UNL     1     -20.066 -41.522 -17.466  1.00  0.00     0.208 C 
ATOM     19  O   UNL     1     -20.203 -43.402 -15.987  1.00  0.00    -0.337 OA
ATOM     20  C   UNL     1     -21.516 -41.805 -17.167  1.00  0.00     0.180 C 
ATOM     21  C   UNL     1     -21.409 -42.670 -15.915  1.00  0.00     0.179 C 
BRANCH  17  22
ATOM     22  C   UNL     1     -18.982 -43.838 -17.979  1.00  0.00     0.225 C 
BRANCH  22  23
ATOM     23  O   UNL     1     -18.780 -45.090 -17.379  1.00  0.00    -0.391 OA
ATOM     24  H   UNL     1     -18.956 -45.766 -18.083  1.00  0.00     0.210 HD
ENDBRANCH  22  23
ENDBRANCH  17  22
BRANCH  18  25
ATOM     25  O   UNL     1     -19.818 -41.258 -18.830  1.00  0.00    -0.385 OA
ATOM     26  H   UNL     1     -20.672 -41.318 -19.329  1.00  0.00     0.211 HD
ENDBRANCH  18  25
BRANCH  20  27
ATOM     27  O   UNL     1     -22.247 -40.625 -16.949  1.00  0.00    -0.387 OA
ATOM     28  H   UNL     1     -22.236 -40.466 -15.969  1.00  0.00     0.211 HD
ENDBRANCH  20  27
BRANCH  21  29
ATOM     29  C   UNL     1     -21.436 -41.867 -14.602  1.00  0.00     0.191 C 
BRANCH  29  30
ATOM     30  O   UNL     1     -22.764 -41.630 -14.223  1.00  0.00    -0.394 OA
ATOM     31  H   UNL     1     -22.731 -40.904 -13.547  1.00  0.00     0.210 HD
ENDBRANCH  29  30
ENDBRANCH  21  29
ENDBRANCH   1  17
TORSDOF 13
ENDMDL
MODEL 4
REMARK VINA RESULT:    -4.895      1.843      4.056
REMARK INTER + INTRA:          -9.350
REMARK INTER:                  -7.221
REMARK INTRA:                  -2.129
REMARK UNBOUND:                -1.880
REMARK SMILES OC[C@@H]1O[C@](CO)(O[C@H]2O[C@H](CO)[C@H](O)[C@H](O)[C@H]2O)[C@@H](O)[C@@H]1O
REMARK SMILES IDX 8 1 9 2 11 3 14 4 10 5 16 6 18 7 12 8 13 9 15 11 17 13 19 15
REMARK SMILES IDX 5 17 20 18 4 19 22 20 3 21 6 22 7 23 21 25 23 27 2 29 1 30
REMARK H PARENT 13 10 15 12 17 14 19 16 7 24 21 26 23 28 1 31
REMARK Flexibility Score: inf
ROOT
ATOM      1  O   UNL     1     -19.516 -41.829 -13.969  1.00  0.00    -0.313 OA
ENDROOT
BRANCH   1   2
ATOM      2  C   UNL     1     -18.623 -41.572 -15.051  1.00  0.00     0.285 C 
ATOM      3  C   UNL     1     -16.937 -42.887 -14.065  1.00  0.00     0.178 C 
ATOM      4  C   UNL     1     -17.006 -43.983 -15.156  1.00  0.00     0.177 C 
ATOM      5  O   UNL     1     -17.272 -41.618 -14.609  1.00  0.00    -0.341 OA
ATOM      6  C   UNL     1     -18.430 -44.010 -15.742  1.00  0.00     0.179 C 
ATOM      7  C   UNL     1     -18.853 -42.592 -16.189  1.00  0.00     0.202 C 
BRANCH   3   8
ATOM      8  C   UNL     1     -15.540 -42.791 -13.433  1.00  0.00     0.191 C 
BRANCH   8   9
ATOM      9  O   UNL     1     -15.232 -41.468 -13.087  1.00  0.00    -0.394 OA
ATOM     10  H   UNL     1     -14.960 -41.480 -12.132  1.00  0.00     0.210 HD
ENDBRANCH   8   9
ENDBRANCH   3   8
BRANCH   4  11
ATOM     11  O   UNL     1     -16.075 -43.713 -16.176  1.00  0.00    -0.387 OA
ATOM     12  H   UNL     1     -16.323 -44.274 -16.955  1.00  0.00     0.211 HD
ENDBRANCH   4  11
BRANCH   6  13
ATOM     13  O   UNL     1     -18.530 -44.935 -16.797  1.00  0.00    -0.387 OA
ATOM     14  H   UNL     1     -17.654 -44.969 -17.262  1.00  0.00     0.211 HD
ENDBRANCH   6  13
BRANCH   7  15
ATOM     15  O   UNL     1     -20.188 -42.568 -16.631  1.00  0.00    -0.385 OA
ATOM     16  H   UNL     1     -20.192 -42.256 -17.574  1.00  0.00     0.211 HD
ENDBRANCH   7  15
ENDBRANCH   1   2
BRANCH   1  17
ATOM     17  C   UNL     1     -20.460 -40.792 -13.706  1.00  0.00     0.224 C 
ATOM     18  C   UNL     1     -20.368 -39.634 -14.741  1.00  0.00     0.208 C 
ATOM     19  O   UNL     1     -20.116 -40.250 -12.440  1.00  0.00    -0.337 OA
ATOM     20  C   UNL     1     -20.436 -38.391 -13.891  1.00  0.00     0.180 C 
ATOM     21  C   UNL     1     -19.817 -38.877 -12.585  1.00  0.00     0.179 C 
BRANCH  17  22
ATOM     22  C   UNL     1     -21.881 -41.392 -13.548  1.00  0.00     0.225 C 
BRANCH  22  23
ATOM     23  O   UNL     1     -22.155 -42.286 -14.594  1.00  0.00    -0.391 OA
ATOM     24  H   UNL     1     -22.537 -43.098 -14.171  1.00  0.00     0.210 HD
ENDBRANCH  22  23
ENDBRANCH  17  22
BRANCH  18  25
ATOM     25  O   UNL     1     -21.353 -39.675 -15.751  1.00  0.00    -0.385 OA
ATOM     26  H   UNL     1     -20.981 -39.275 -16.578  1.00  0.00     0.211 HD
ENDBRANCH  18  25
BRANCH  20  27
ATOM     27  O   UNL     1     -19.723 -37.324 -14.464  1.00  0.00    -0.387 OA
ATOM     28  H   UNL     1     -20.055 -37.234 -15.395  1.00  0.00     0.211 HD
ENDBRANCH  20  27
BRANCH  21  29
ATOM     29  C   UNL     1     -18.292 -38.680 -12.510  1.00  0.00     0.191 C 
BRANCH  29  30
ATOM     30  O   UNL     1     -17.677 -39.897 -12.184  1.00  0.00    -0.394 OA
ATOM     31  H   UNL     1     -17.817 -40.023 -11.209  1.00  0.00     0.210 HD
ENDBRANCH  29  30
ENDBRANCH  21  29
ENDBRANCH   1  17
TORSDOF 13
ENDMDL
MODEL 5
REMARK VINA RESULT:    -4.749      1.945      4.569
REMARK INTER + INTRA:          -9.127
REMARK INTER:                  -7.750
REMARK INTRA:                  -1.377
REMARK UNBOUND:                -1.880
REMARK SMILES OC[C@@H]1O[C@](CO)(O[C@H]2O[C@H](CO)[C@H](O)[C@H](O)[C@H]2O)[C@@H](O)[C@@H]1O
REMARK SMILES IDX 8 1 9 2 11 3 14 4 10 5 16 6 18 7 12 8 13 9 15 11 17 13 19 15
REMARK SMILES IDX 5 17 20 18 4 19 22 20 3 21 6 22 7 23 21 25 23 27 2 29 1 30
REMARK H PARENT 13 10 15 12 17 14 19 16 7 24 21 26 23 28 1 31
REMARK Flexibility Score: inf
ROOT
ATOM      1  O   UNL     1     -19.195 -40.906 -15.132  1.00  0.00    -0.313 OA
ENDROOT
BRANCH   1   2
ATOM      2  C   UNL     1     -18.953 -42.202 -14.587  1.00  0.00     0.285 C 
ATOM      3  C   UNL     1     -18.415 -43.071 -16.709  1.00  0.00     0.178 C 
ATOM      4  C   UNL     1     -16.923 -43.292 -16.357  1.00  0.00     0.177 C 
ATOM      5  O   UNL     1     -19.227 -43.211 -15.552  1.00  0.00    -0.341 OA
ATOM      6  C   UNL     1     -16.510 -42.268 -15.284  1.00  0.00     0.179 C 
ATOM      7  C   UNL     1     -17.493 -42.312 -14.092  1.00  0.00     0.202 C 
BRANCH   3   8
ATOM      8  C   UNL     1     -18.908 -44.063 -17.772  1.00  0.00     0.191 C 
BRANCH   8   9
ATOM      9  O   UNL     1     -18.926 -45.373 -17.270  1.00  0.00    -0.394 OA
ATOM     10  H   UNL     1     -19.513 -45.900 -17.873  1.00  0.00     0.210 HD
ENDBRANCH   8   9
ENDBRANCH   3   8
BRANCH   4  11
ATOM     11  O   UNL     1     -16.727 -44.598 -15.871  1.00  0.00    -0.387 OA
ATOM     12  H   UNL     1     -15.821 -44.884 -16.157  1.00  0.00     0.211 HD
ENDBRANCH   4  11
BRANCH   6  13
ATOM     13  O   UNL     1     -15.183 -42.474 -14.866  1.00  0.00    -0.387 OA
ATOM     14  H   UNL     1     -14.633 -41.720 -15.204  1.00  0.00     0.211 HD
ENDBRANCH   6  13
BRANCH   7  15
ATOM     15  O   UNL     1     -17.201 -41.314 -13.146  1.00  0.00    -0.385 OA
ATOM     16  H   UNL     1     -17.625 -40.470 -13.451  1.00  0.00     0.211 HD
ENDBRANCH   7  15
ENDBRANCH   1   2
BRANCH   1  17
ATOM     17  C   UNL     1     -20.308 -40.214 -14.572  1.00  0.00     0.224 C 
ATOM     18  C   UNL     1     -20.451 -38.771 -15.134  1.00  0.00     0.208 C 
ATOM     19  O   UNL     1     -20.048 -40.099 -13.181  1.00  0.00    -0.337 OA
ATOM     20  C   UNL     1     -20.732 -37.938 -13.908  1.00  0.00     0.180 C 
ATOM     21  C   UNL     1     -20.011 -38.732 -12.825  1.00  0.00     0.179 C 
BRANCH  17  22
ATOM     22  C   UNL     1     -21.591 -41.076 -14.702  1.00  0.00     0.225 C 
BRANCH  22  23
ATOM     23  O   UNL     1     -21.787 -41.467 -16.034  1.00  0.00    -0.391 OA
ATOM     24  H   UNL     1     -21.018 -41.105 -16.545  1.00  0.00     0.210 HD
ENDBRANCH  22  23
ENDBRANCH  17  22
BRANCH  18  25
ATOM     25  O   UNL     1     -21.428 -38.631 -16.141  1.00  0.00    -0.385 OA
ATOM     26  H   UNL     1     -22.142 -39.302 -15.991  1.00  0.00     0.211 HD
ENDBRANCH  18  25
BRANCH  20  27
ATOM     27  O   UNL     1     -20.239 -36.629 -14.039  1.00  0.00    -0.387 OA
ATOM     28  H   UNL     1     -19.319 -36.711 -14.404  1.00  0.00     0.211 HD
ENDBRANCH  20  27
BRANCH  21  29
ATOM     29  C   UNL     1     -18.548 -38.304 -12.611  1.00  0.00     0.191 C 
BRANCH  29  30
ATOM     30  O   UNL     1     -18.243 -38.337 -11.244  1.00  0.00    -0.394 OA
ATOM     31  H   UNL     1     -17.257 -38.239 -11.180  1.00  0.00     0.210 HD
ENDBRANCH  29  30
ENDBRANCH  21  29
ENDBRANCH   1  17
TORSDOF 13
ENDMDL
MODEL 6
REMARK VINA RESULT:    -4.744      1.622      4.043
REMARK INTER + INTRA:          -9.120
REMARK INTER:                  -7.101
REMARK INTRA:                  -2.019
REMARK UNBOUND:                -1.880
REMARK SMILES OC[C@@H]1O[C@](CO)(O[C@H]2O[C@H](CO)[C@H](O)[C@H](O)[C@H]2O)[C@@H](O)[C@@H]1O
REMARK SMILES IDX 8 1 9 2 11 3 14 4 10 5 16 6 18 7 12 8 13 9 15 11 17 13 19 15
REMARK SMILES IDX 5 17 20 18 4 19 22 20 3 21 6 22 7 23 21 25 23 27 2 29 1 30
REMARK H PARENT 13 10 15 12 17 14 19 16 7 24 21 26 23 28 1 31
REMARK Flexibility Score: inf
ROOT
ATOM      1  O   UNL     1     -18.710 -42.246 -15.833  1.00  0.00    -0.313 OA
ENDROOT
BRANCH   1   2
ATOM      2  C   UNL     1     -18.419 -42.777 -14.542  1.00  0.00     0.285 C 
ATOM      3  C   UNL     1     -16.391 -43.702 -15.301  1.00  0.00     0.178 C 
ATOM      4  C   UNL     1     -15.515 -42.745 -14.455  1.00  0.00     0.177 C 
ATOM      5  O   UNL     1     -17.628 -43.954 -14.650  1.00  0.00    -0.341 OA
ATOM      6  C   UNL     1     -16.286 -41.430 -14.239  1.00  0.00     0.179 C 
ATOM      7  C   UNL     1     -17.696 -41.719 -13.677  1.00  0.00     0.202 C 
BRANCH   3   8
ATOM      8  C   UNL     1     -15.694 -45.046 -15.555  1.00  0.00     0.191 C 
BRANCH   8   9
ATOM      9  O   UNL     1     -14.333 -44.980 -15.221  1.00  0.00    -0.394 OA
ATOM     10  H   UNL     1     -14.218 -45.515 -14.392  1.00  0.00     0.210 HD
ENDBRANCH   8   9
ENDBRANCH   3   8
BRANCH   4  11
ATOM     11  O   UNL     1     -15.215 -43.332 -13.212  1.00  0.00    -0.387 OA
ATOM     12  H   UNL     1     -15.697 -42.812 -12.519  1.00  0.00     0.211 HD
ENDBRANCH   4  11
BRANCH   6  13
ATOM     13  O   UNL     1     -15.570 -40.550 -13.407  1.00  0.00    -0.387 OA
ATOM     14  H   UNL     1     -15.082 -41.091 -12.734  1.00  0.00     0.211 HD
ENDBRANCH   6  13
BRANCH   7  15
ATOM     15  O   UNL     1     -18.460 -40.543 -13.569  1.00  0.00    -0.385 OA
ATOM     16  H   UNL     1     -19.418 -40.793 -13.643  1.00  0.00     0.211 HD
ENDBRANCH   7  15
ENDBRANCH   1   2
BRANCH   1  17
ATOM     17  C   UNL     1     -20.097 -42.159 -16.152  1.00  0.00     0.224 C 
ATOM     18  C   UNL     1     -21.004 -42.575 -14.958  1.00  0.00     0.208 C 
ATOM     19  O   UNL     1     -20.326 -43.091 -17.198  1.00  0.00    -0.337 OA
ATOM     20  C   UNL     1     -22.049 -43.456 -15.596  1.00  0.00     0.180 C 
ATOM     21  C   UNL     1     -21.279 -44.044 -16.773  1.00  0.00     0.179 C 
BRANCH  17  22
ATOM     22  C   UNL     1     -20.423 -40.761 -16.739  1.00  0.00     0.225 C 
BRANCH  22  23
ATOM     23  O   UNL     1     -20.181 -39.760 -15.787  1.00  0.00    -0.391 OA
ATOM     24  H   UNL     1     -19.669 -40.191 -15.056  1.00  0.00     0.210 HD
ENDBRANCH  22  23
ENDBRANCH  17  22
BRANCH  18  25
ATOM     25  O   UNL     1     -21.550 -41.494 -14.235  1.00  0.00    -0.385 OA
ATOM     26  H   UNL     1     -22.189 -41.009 -14.817  1.00  0.00     0.211 HD
ENDBRANCH  18  25
BRANCH  20  27
ATOM     27  O   UNL     1     -22.518 -44.440 -14.710  1.00  0.00    -0.387 OA
ATOM     28  H   UNL     1     -22.110 -44.239 -13.827  1.00  0.00     0.211 HD
ENDBRANCH  20  27
BRANCH  21  29
ATOM     29  C   UNL     1     -20.561 -45.366 -16.447  1.00  0.00     0.191 C 
BRANCH  29  30
ATOM     30  O   UNL     1     -19.229 -45.295 -16.876  1.00  0.00    -0.394 OA
ATOM     31  H   UNL     1     -19.100 -44.374 -17.221  1.00  0.00     0.210 HD
ENDBRANCH  29  30
ENDBRANCH  21  29
ENDBRANCH   1  17
TORSDOF 13
ENDMDL
MODEL 7
REMARK VINA RESULT:    -4.607      2.048      4.750
REMARK INTER + INTRA:          -8.911
REMARK INTER:                  -6.907
REMARK INTRA:                  -2.003
REMARK UNBOUND:                -1.880
REMARK SMILES OC[C@@H]1O[C@](CO)(O[C@H]2O[C@H](CO)[C@H](O)[C@H](O)[C@H]2O)[C@@H](O)[C@@H]1O
REMARK SMILES IDX 8 1 9 2 11 3 14 4 10 5 16 6 18 7 12 8 13 9 15 11 17 13 19 15
REMARK SMILES IDX 5 17 20 18 4 19 22 20 3 21 6 22 7 23 21 25 23 27 2 29 1 30
REMARK H PARENT 13 10 15 12 17 14 19 16 7 24 21 26 23 28 1 31
REMARK Flexibility Score: inf
ROOT
ATOM      1  O   UNL     1     -19.165 -40.762 -14.973  1.00  0.00    -0.313 OA
ENDROOT
BRANCH   1   2
ATOM      2  C   UNL     1     -18.903 -42.073 -14.476  1.00  0.00     0.285 C 
ATOM      3  C   UNL     1     -18.423 -42.874 -16.638  1.00  0.00     0.178 C 
ATOM      4  C   UNL     1     -16.921 -43.099 -16.336  1.00  0.00     0.177 C 
ATOM      5  O   UNL     1     -19.201 -43.053 -15.463  1.00  0.00    -0.341 OA
ATOM      6  C   UNL     1     -16.481 -42.106 -15.245  1.00  0.00     0.179 C 
ATOM      7  C   UNL     1     -17.429 -42.192 -14.027  1.00  0.00     0.202 C 
BRANCH   3   8
ATOM      8  C   UNL     1     -18.943 -43.836 -17.716  1.00  0.00     0.191 C 
BRANCH   8   9
ATOM      9  O   UNL     1     -18.908 -45.164 -17.267  1.00  0.00    -0.394 OA
ATOM     10  H   UNL     1     -19.732 -45.601 -17.609  1.00  0.00     0.210 HD
ENDBRANCH   8   9
ENDBRANCH   3   8
BRANCH   4  11
ATOM     11  O   UNL     1     -16.706 -44.418 -15.897  1.00  0.00    -0.387 OA
ATOM     12  H   UNL     1     -16.790 -45.008 -16.690  1.00  0.00     0.211 HD
ENDBRANCH   4  11
BRANCH   6  13
ATOM     13  O   UNL     1     -15.141 -42.319 -14.872  1.00  0.00    -0.387 OA
ATOM     14  H   UNL     1     -14.604 -41.552 -15.203  1.00  0.00     0.211 HD
ENDBRANCH   6  13
BRANCH   7  15
ATOM     15  O   UNL     1     -17.113 -41.222 -13.059  1.00  0.00    -0.385 OA
ATOM     16  H   UNL     1     -16.498 -40.563 -13.476  1.00  0.00     0.211 HD
ENDBRANCH   7  15
ENDBRANCH   1   2
BRANCH   1  17
ATOM     17  C   UNL     1     -20.201 -40.056 -14.295  1.00  0.00     0.224 C 
ATOM     18  C   UNL     1     -20.767 -40.855 -13.086  1.00  0.00     0.208 C 
ATOM     19  O   UNL     1     -21.258 -39.902 -15.229  1.00  0.00    -0.337 OA
ATOM     20  C   UNL     1     -22.260 -40.687 -13.217  1.00  0.00     0.180 C 
ATOM     21  C   UNL     1     -22.421 -40.528 -14.725  1.00  0.00     0.179 C 
BRANCH  17  22
ATOM     22  C   UNL     1     -19.725 -38.622 -13.941  1.00  0.00     0.225 C 
BRANCH  22  23
ATOM     23  O   UNL     1     -18.551 -38.669 -13.175  1.00  0.00    -0.391 OA
ATOM     24  H   UNL     1     -18.059 -39.477 -13.472  1.00  0.00     0.210 HD
ENDBRANCH  22  23
ENDBRANCH  17  22
BRANCH  18  25
ATOM     25  O   UNL     1     -20.267 -40.448 -11.831  1.00  0.00    -0.385 OA
ATOM     26  H   UNL     1     -21.026 -40.176 -11.256  1.00  0.00     0.211 HD
ENDBRANCH  18  25
BRANCH  20  27
ATOM     27  O   UNL     1     -22.958 -41.796 -12.712  1.00  0.00    -0.387 OA
ATOM     28  H   UNL     1     -23.650 -42.023 -13.387  1.00  0.00     0.211 HD
ENDBRANCH  20  27
BRANCH  21  29
ATOM     29  C   UNL     1     -22.642 -41.857 -15.469  1.00  0.00     0.191 C 
BRANCH  29  30
ATOM     30  O   UNL     1     -21.768 -41.936 -16.561  1.00  0.00    -0.394 OA
ATOM     31  H   UNL     1     -21.818 -42.873 -16.886  1.00  0.00     0.210 HD
ENDBRANCH  29  30
ENDBRANCH  21  29
ENDBRANCH   1  17
TORSDOF 13
ENDMDL
MODEL 8
REMARK VINA RESULT:    -4.533      1.988      5.692
REMARK INTER + INTRA:          -8.798
REMARK INTER:                  -7.160
REMARK INTRA:                  -1.638
REMARK UNBOUND:                -1.880
REMARK SMILES OC[C@@H]1O[C@](CO)(O[C@H]2O[C@H](CO)[C@H](O)[C@H](O)[C@H]2O)[C@@H](O)[C@@H]1O
REMARK SMILES IDX 8 1 9 2 11 3 14 4 10 5 16 6 18 7 12 8 13 9 15 11 17 13 19 15
REMARK SMILES IDX 5 17 20 18 4 19 22 20 3 21 6 22 7 23 21 25 23 27 2 29 1 30
REMARK H PARENT 13 10 15 12 17 14 19 16 7 24 21 26 23 28 1 31
REMARK Flexibility Score: inf
ROOT
ATOM      1  O   UNL     1     -18.704 -43.258 -14.353  1.00  0.00    -0.313 OA
ENDROOT
BRANCH   1   2
ATOM      2  C   UNL     1     -19.698 -42.831 -15.283  1.00  0.00     0.285 C 
ATOM      3  C   UNL     1     -20.860 -44.870 -15.086  1.00  0.00     0.178 C 
ATOM      4  C   UNL     1     -22.083 -44.227 -14.387  1.00  0.00     0.177 C 
ATOM      5  O   UNL     1     -20.250 -43.945 -15.975  1.00  0.00    -0.341 OA
ATOM      6  C   UNL     1     -21.614 -42.976 -13.622  1.00  0.00     0.179 C 
ATOM      7  C   UNL     1     -20.811 -42.044 -14.556  1.00  0.00     0.202 C 
BRANCH   3   8
ATOM      8  C   UNL     1     -21.247 -46.125 -15.882  1.00  0.00     0.191 C 
BRANCH   8   9
ATOM      9  O   UNL     1     -21.636 -45.795 -17.188  1.00  0.00    -0.394 OA
ATOM     10  H   UNL     1     -22.133 -46.578 -17.543  1.00  0.00     0.210 HD
ENDBRANCH   8   9
ENDBRANCH   3   8
BRANCH   4  11
ATOM     11  O   UNL     1     -23.054 -43.868 -15.340  1.00  0.00    -0.387 OA
ATOM     12  H   UNL     1     -22.939 -42.900 -15.524  1.00  0.00     0.211 HD
ENDBRANCH   4  11
BRANCH   6  13
ATOM     13  O   UNL     1     -22.700 -42.303 -13.031  1.00  0.00    -0.387 OA
ATOM     14  H   UNL     1     -23.424 -42.964 -12.875  1.00  0.00     0.211 HD
ENDBRANCH   6  13
BRANCH   7  15
ATOM     15  O   UNL     1     -20.282 -40.944 -13.857  1.00  0.00    -0.385 OA
ATOM     16  H   UNL     1     -21.021 -40.302 -13.693  1.00  0.00     0.211 HD
ENDBRANCH   7  15
ENDBRANCH   1   2
BRANCH   1  17
ATOM     17  C   UNL     1     -17.367 -42.895 -14.689  1.00  0.00     0.224 C 
ATOM     18  C   UNL     1     -16.338 -43.387 -13.632  1.00  0.00     0.208 C 
ATOM     19  O   UNL     1     -17.326 -41.476 -14.686  1.00  0.00    -0.337 OA
ATOM     20  C   UNL     1     -15.433 -42.197 -13.435  1.00  0.00     0.180 C 
ATOM     21  C   UNL     1     -16.379 -41.039 -13.733  1.00  0.00     0.179 C 
BRANCH  17  22
ATOM     22  C   UNL     1     -17.045 -43.334 -16.141  1.00  0.00     0.225 C 
BRANCH  22  23
ATOM     23  O   UNL     1     -17.275 -44.709 -16.301  1.00  0.00    -0.391 OA
ATOM     24  H   UNL     1     -18.251 -44.841 -16.185  1.00  0.00     0.210 HD
ENDBRANCH  22  23
ENDBRANCH  17  22
BRANCH  18  25
ATOM     25  O   UNL     1     -15.646 -44.562 -13.994  1.00  0.00    -0.385 OA
ATOM     26  H   UNL     1     -15.601 -45.163 -13.207  1.00  0.00     0.211 HD
ENDBRANCH  18  25
BRANCH  20  27
ATOM     27  O   UNL     1     -14.908 -42.146 -12.133  1.00  0.00    -0.387 OA
ATOM     28  H   UNL     1     -15.247 -42.953 -11.663  1.00  0.00     0.211 HD
ENDBRANCH  20  27
BRANCH  21  29
ATOM     29  C   UNL     1     -17.120 -40.508 -12.492  1.00  0.00     0.191 C 
BRANCH  29  30
ATOM     30  O   UNL     1     -17.986 -39.473 -12.869  1.00  0.00    -0.394 OA
ATOM     31  H   UNL     1     -18.814 -39.600 -12.336  1.00  0.00     0.210 HD
ENDBRANCH  29  30
ENDBRANCH  21  29
ENDBRANCH   1  17
TORSDOF 13
ENDMDL
MODEL 9
REMARK VINA RESULT:    -4.532      1.778      4.799
REMARK INTER + INTRA:          -8.796
REMARK INTER:                  -6.663
REMARK INTRA:                  -2.133
REMARK UNBOUND:                -1.880
REMARK SMILES OC[C@@H]1O[C@](CO)(O[C@H]2O[C@H](CO)[C@H](O)[C@H](O)[C@H]2O)[C@@H](O)[C@@H]1O
REMARK SMILES IDX 8 1 9 2 11 3 14 4 10 5 16 6 18 7 12 8 13 9 15 11 17 13 19 15
REMARK SMILES IDX 5 17 20 18 4 19 22 20 3 21 6 22 7 23 21 25 23 27 2 29 1 30
REMARK H PARENT 13 10 15 12 17 14 19 16 7 24 21 26 23 28 1 31
REMARK Flexibility Score: inf
ROOT
ATOM      1  O   UNL     1     -18.655 -41.459 -15.596  1.00  0.00    -0.313 OA
ENDROOT
BRANCH   1   2
ATOM      2  C   UNL     1     -19.364 -41.732 -14.388  1.00  0.00     0.285 C 
ATOM      3  C   UNL     1     -19.467 -39.442 -13.849  1.00  0.00     0.178 C 
ATOM      4  C   UNL     1     -21.002 -39.358 -14.036  1.00  0.00     0.177 C 
ATOM      5  O   UNL     1     -19.088 -40.738 -13.409  1.00  0.00    -0.341 OA
ATOM      6  C   UNL     1     -21.434 -40.422 -15.063  1.00  0.00     0.179 C 
ATOM      7  C   UNL     1     -20.882 -41.809 -14.664  1.00  0.00     0.202 C 
BRANCH   3   8
ATOM      8  C   UNL     1     -18.956 -38.414 -12.829  1.00  0.00     0.191 C 
BRANCH   8   9
ATOM      9  O   UNL     1     -17.835 -38.899 -12.140  1.00  0.00    -0.394 OA
ATOM     10  H   UNL     1     -17.932 -38.605 -11.197  1.00  0.00     0.210 HD
ENDBRANCH   8   9
ENDBRANCH   3   8
BRANCH   4  11
ATOM     11  O   UNL     1     -21.655 -39.586 -12.811  1.00  0.00    -0.387 OA
ATOM     12  H   UNL     1     -21.161 -39.076 -12.118  1.00  0.00     0.211 HD
ENDBRANCH   4  11
BRANCH   6  13
ATOM     13  O   UNL     1     -22.832 -40.446 -15.215  1.00  0.00    -0.387 OA
ATOM     14  H   UNL     1     -23.055 -41.123 -15.905  1.00  0.00     0.211 HD
ENDBRANCH   6  13
BRANCH   7  15
ATOM     15  O   UNL     1     -21.173 -42.779 -15.640  1.00  0.00    -0.385 OA
ATOM     16  H   UNL     1     -20.948 -43.669 -15.261  1.00  0.00     0.211 HD
ENDBRANCH   7  15
ENDBRANCH   1   2
BRANCH   1  17
ATOM     17  C   UNL     1     -17.757 -42.485 -16.013  1.00  0.00     0.224 C 
ATOM     18  C   UNL     1     -17.916 -43.786 -15.174  1.00  0.00     0.208 C 
ATOM     19  O   UNL     1     -16.447 -41.991 -15.776  1.00  0.00    -0.337 OA
ATOM     20  C   UNL     1     -16.494 -44.196 -14.882  1.00  0.00     0.180 C 
ATOM     21  C   UNL     1     -15.780 -42.849 -14.874  1.00  0.00     0.179 C 
BRANCH  17  22
ATOM     22  C   UNL     1     -17.868 -42.700 -17.545  1.00  0.00     0.225 C 
BRANCH  22  23
ATOM     23  O   UNL     1     -19.211 -42.835 -17.926  1.00  0.00    -0.391 OA
ATOM     24  H   UNL     1     -19.205 -43.013 -18.901  1.00  0.00     0.210 HD
ENDBRANCH  22  23
ENDBRANCH  17  22
BRANCH  18  25
ATOM     25  O   UNL     1     -18.672 -44.797 -15.803  1.00  0.00    -0.385 OA
ATOM     26  H   UNL     1     -18.206 -45.077 -16.632  1.00  0.00     0.211 HD
ENDBRANCH  18  25
BRANCH  20  27
ATOM     27  O   UNL     1     -16.385 -44.875 -13.657  1.00  0.00    -0.387 OA
ATOM     28  H   UNL     1     -15.458 -44.726 -13.336  1.00  0.00     0.211 HD
ENDBRANCH  20  27
BRANCH  21  29
ATOM     29  C   UNL     1     -15.728 -42.183 -13.487  1.00  0.00     0.191 C 
BRANCH  29  30
ATOM     30  O   UNL     1     -16.148 -40.851 -13.590  1.00  0.00    -0.394 OA
ATOM     31  H   UNL     1     -15.908 -40.557 -14.506  1.00  0.00     0.210 HD
ENDBRANCH  29  30
ENDBRANCH  21  29
ENDBRANCH   1  17
TORSDOF 13
ENDMDL
