MODEL 1
REMARK VINA RESULT:     3.612      0.000      0.000
REMARK INTER + INTRA:           3.612
REMARK INTER:                   3.612
REMARK INTRA:                   0.000
REMARK UNBOUND:                 0.000
REMARK SMILES O=c1ccc2ccc3occc3c2o1
REMARK SMILES IDX 6 1 7 2 8 3 12 4 11 5 10 6 9 7 13 8 5 9 4 10 3 11 2 12 1 13
REMARK SMILES IDX 14 14
REMARK H PARENT
REMARK Flexibility Score: inf
ROOT
ATOM      1  C   UNL     1      29.978  28.708   2.375  1.00  0.00     0.016 A 
ATOM      2  C   UNL     1      29.937  30.091   2.111  1.00  0.00     0.048 A 
ATOM      3  C   UNL     1      28.749  30.629   1.614  1.00  0.00     0.137 A 
ATOM      4  C   UNL     1      27.646  29.853   1.383  1.00  0.00     0.064 A 
ATOM      5  C   UNL     1      26.663  30.689   0.902  1.00  0.00     0.054 A 
ATOM      6  C   UNL     1      27.257  31.945   0.875  1.00  0.00     0.196 A 
ATOM      7  O   UNL     1      28.504  31.877   1.306  1.00  0.00    -0.464 OA
ATOM      8  C   UNL     1      27.647  28.482   1.631  1.00  0.00     0.149 A 
ATOM      9  C   UNL     1      28.838  27.902   2.137  1.00  0.00     0.018 A 
ATOM     10  C   UNL     1      28.847  26.527   2.387  1.00  0.00     0.019 A 
ATOM     11  C   UNL     1      27.696  25.778   2.135  1.00  0.00     0.094 A 
ATOM     12  C   UNL     1      26.557  26.423   1.636  1.00  0.00     0.336 A 
ATOM     13  O   UNL     1      25.513  25.761   1.404  1.00  0.00    -0.246 OA
ATOM     14  O   UNL     1      26.571  27.733   1.404  1.00  0.00    -0.422 OA
ENDROOT
TORSDOF 0
ENDMDL
MODEL 2
REMARK VINA RESULT:     4.361      1.423      2.733
REMARK INTER + INTRA:           4.361
REMARK INTER:                   4.361
REMARK INTRA:                   0.000
REMARK UNBOUND:                 0.000
REMARK SMILES O=c1ccc2ccc3occc3c2o1
REMARK SMILES IDX 6 1 7 2 8 3 12 4 11 5 10 6 9 7 13 8 5 9 4 10 3 11 2 12 1 13
REMARK SMILES IDX 14 14
REMARK H PARENT
REMARK Flexibility Score: inf
ROOT
ATOM      1  C   UNL     1      26.993  29.820   1.185  1.00  0.00     0.016 A 
ATOM      2  C   UNL     1      27.934  30.764   1.639  1.00  0.00     0.048 A 
ATOM      3  C   UNL     1      29.002  30.306   2.411  1.00  0.00     0.137 A 
ATOM      4  C   UNL     1      29.149  28.983   2.731  1.00  0.00     0.064 A 
ATOM      5  C   UNL     1      30.292  28.880   3.490  1.00  0.00     0.054 A 
ATOM      6  C   UNL     1      30.769  30.182   3.582  1.00  0.00     0.196 A 
ATOM      7  O   UNL     1      29.977  31.012   2.927  1.00  0.00    -0.464 OA
ATOM      8  C   UNL     1      28.239  28.020   2.301  1.00  0.00     0.149 A 
ATOM      9  C   UNL     1      27.141  28.450   1.513  1.00  0.00     0.018 A 
ATOM     10  C   UNL     1      26.224  27.488   1.080  1.00  0.00     0.019 A 
ATOM     11  C   UNL     1      26.417  26.151   1.431  1.00  0.00     0.094 A 
ATOM     12  C   UNL     1      27.527  25.803   2.211  1.00  0.00     0.336 A 
ATOM     13  O   UNL     1      27.714  24.602   2.535  1.00  0.00    -0.246 OA
ATOM     14  O   UNL     1      28.387  26.735   2.614  1.00  0.00    -0.422 OA
ENDROOT
TORSDOF 0
ENDMDL
MODEL 3
REMARK VINA RESULT:     5.080      2.012      4.311
REMARK INTER + INTRA:           5.080
REMARK INTER:                   5.080
REMARK INTRA:                   0.000
REMARK UNBOUND:                 0.000
REMARK SMILES O=c1ccc2ccc3occc3c2o1
REMARK SMILES IDX 6 1 7 2 8 3 12 4 11 5 10 6 9 7 13 8 5 9 4 10 3 11 2 12 1 13
REMARK SMILES IDX 14 14
REMARK H PARENT
REMARK Flexibility Score: inf
ROOT
ATOM      1  C   UNL     1      29.197  28.642   1.329  1.00  0.00     0.016 A 
ATOM      2  C   UNL     1      29.083  27.313   0.875  1.00  0.00     0.048 A 
ATOM      3  C   UNL     1      27.980  26.569   1.294  1.00  0.00     0.137 A 
ATOM      4  C   UNL     1      27.025  27.095   2.121  1.00  0.00     0.064 A 
ATOM      5  C   UNL     1      26.090  26.107   2.332  1.00  0.00     0.054 A 
ATOM      6  C   UNL     1      26.557  25.023   1.599  1.00  0.00     0.196 A 
ATOM      7  O   UNL     1      27.688  25.329   0.989  1.00  0.00    -0.464 OA
ATOM      8  C   UNL     1      27.102  28.405   2.591  1.00  0.00     0.149 A 
ATOM      9  C   UNL     1      28.211  29.190   2.185  1.00  0.00     0.018 A 
ATOM     10  C   UNL     1      28.294  30.504   2.654  1.00  0.00     0.019 A 
ATOM     11  C   UNL     1      27.295  30.995   3.496  1.00  0.00     0.094 A 
ATOM     12  C   UNL     1      26.230  30.159   3.852  1.00  0.00     0.336 A 
ATOM     13  O   UNL     1      25.322  30.588   4.610  1.00  0.00    -0.246 OA
ATOM     14  O   UNL     1      26.170  28.911   3.395  1.00  0.00    -0.422 OA
ENDROOT
TORSDOF 0
ENDMDL
MODEL 4
REMARK VINA RESULT:     5.228      1.579      2.195
REMARK INTER + INTRA:           5.228
REMARK INTER:                   5.228
REMARK INTRA:                   0.000
REMARK UNBOUND:                 0.000
REMARK SMILES O=c1ccc2ccc3occc3c2o1
REMARK SMILES IDX 6 1 7 2 8 3 12 4 11 5 10 6 9 7 13 8 5 9 4 10 3 11 2 12 1 13
REMARK SMILES IDX 14 14
REMARK H PARENT
REMARK Flexibility Score: inf
ROOT
ATOM      1  C   UNL     1      26.267  29.383   3.844  1.00  0.00     0.016 A 
ATOM      2  C   UNL     1      26.872  30.622   3.558  1.00  0.00     0.048 A 
ATOM      3  C   UNL     1      27.809  30.672   2.525  1.00  0.00     0.137 A 
ATOM      4  C   UNL     1      28.146  29.560   1.801  1.00  0.00     0.064 A 
ATOM      5  C   UNL     1      29.085  29.956   0.875  1.00  0.00     0.054 A 
ATOM      6  C   UNL     1      29.255  31.315   1.110  1.00  0.00     0.196 A 
ATOM      7  O   UNL     1      28.479  31.714   2.102  1.00  0.00    -0.464 OA
ATOM      8  C   UNL     1      27.571  28.317   2.055  1.00  0.00     0.149 A 
ATOM      9  C   UNL     1      26.613  28.230   3.097  1.00  0.00     0.018 A 
ATOM     10  C   UNL     1      26.034  26.986   3.357  1.00  0.00     0.019 A 
ATOM     11  C   UNL     1      26.410  25.881   2.591  1.00  0.00     0.094 A 
ATOM     12  C   UNL     1      27.362  26.046   1.578  1.00  0.00     0.336 A 
ATOM     13  O   UNL     1      27.711  25.060   0.878  1.00  0.00    -0.246 OA
ATOM     14  O   UNL     1      27.903  27.240   1.347  1.00  0.00    -0.422 OA
ENDROOT
TORSDOF 0
ENDMDL
MODEL 5
REMARK VINA RESULT:     5.267      1.889      4.752
REMARK INTER + INTRA:           5.267
REMARK INTER:                   5.267
REMARK INTRA:                   0.000
REMARK UNBOUND:                 0.000
REMARK SMILES O=c1ccc2ccc3occc3c2o1
REMARK SMILES IDX 6 1 7 2 8 3 12 4 11 5 10 6 9 7 13 8 5 9 4 10 3 11 2 12 1 13
REMARK SMILES IDX 14 14
REMARK H PARENT
REMARK Flexibility Score: inf
ROOT
ATOM      1  C   UNL     1      27.006  29.915   1.141  1.00  0.00     0.016 A 
ATOM      2  C   UNL     1      26.331  28.707   0.875  1.00  0.00     0.048 A 
ATOM      3  C   UNL     1      26.835  27.536   1.442  1.00  0.00     0.137 A 
ATOM      4  C   UNL     1      27.952  27.539   2.234  1.00  0.00     0.064 A 
ATOM      5  C   UNL     1      28.170  26.236   2.621  1.00  0.00     0.054 A 
ATOM      6  C   UNL     1      27.144  25.517   2.020  1.00  0.00     0.196 A 
ATOM      7  O   UNL     1      26.362  26.321   1.321  1.00  0.00    -0.464 OA
ATOM      8  C   UNL     1      28.647  28.712   2.519  1.00  0.00     0.149 A 
ATOM      9  C   UNL     1      28.161  29.922   1.960  1.00  0.00     0.018 A 
ATOM     10  C   UNL     1      28.855  31.102   2.242  1.00  0.00     0.019 A 
ATOM     11  C   UNL     1      29.988  31.053   3.055  1.00  0.00     0.094 A 
ATOM     12  C   UNL     1      30.406  29.820   3.571  1.00  0.00     0.336 A 
ATOM     13  O   UNL     1      31.425  29.760   4.306  1.00  0.00    -0.246 OA
ATOM     14  O   UNL     1      29.731  28.708   3.290  1.00  0.00    -0.422 OA
ENDROOT
TORSDOF 0
ENDMDL
MODEL 6
REMARK VINA RESULT:     6.199      2.336      3.842
REMARK INTER + INTRA:           6.199
REMARK INTER:                   6.199
REMARK INTRA:                   0.000
REMARK UNBOUND:                 0.000
REMARK SMILES O=c1ccc2ccc3occc3c2o1
REMARK SMILES IDX 6 1 7 2 8 3 12 4 11 5 10 6 9 7 13 8 5 9 4 10 3 11 2 12 1 13
REMARK SMILES IDX 14 14
REMARK H PARENT
REMARK Flexibility Score: inf
ROOT
ATOM      1  C   UNL     1      30.393  27.809   1.571  1.00  0.00     0.016 A 
ATOM      2  C   UNL     1      31.507  28.056   2.397  1.00  0.00     0.048 A 
ATOM      3  C   UNL     1      31.424  29.104   3.314  1.00  0.00     0.137 A 
ATOM      4  C   UNL     1      30.304  29.883   3.423  1.00  0.00     0.064 A 
ATOM      5  C   UNL     1      30.556  30.810   4.409  1.00  0.00     0.054 A 
ATOM      6  C   UNL     1      31.845  30.520   4.840  1.00  0.00     0.196 A 
ATOM      7  O   UNL     1      32.338  29.495   4.166  1.00  0.00    -0.464 OA
ATOM      8  C   UNL     1      29.183  29.672   2.624  1.00  0.00     0.149 A 
ATOM      9  C   UNL     1      29.232  28.613   1.681  1.00  0.00     0.018 A 
ATOM     10  C   UNL     1      28.111  28.397   0.875  1.00  0.00     0.019 A 
ATOM     11  C   UNL     1      26.992  29.218   1.023  1.00  0.00     0.094 A 
ATOM     12  C   UNL     1      27.019  30.243   1.977  1.00  0.00     0.336 A 
ATOM     13  O   UNL     1      26.017  30.991   2.123  1.00  0.00    -0.246 OA
ATOM     14  O   UNL     1      28.097  30.432   2.734  1.00  0.00    -0.422 OA
ENDROOT
TORSDOF 0
ENDMDL
MODEL 7
REMARK VINA RESULT:     6.591      1.639      4.774
REMARK INTER + INTRA:           6.591
REMARK INTER:                   6.591
REMARK INTRA:                   0.000
REMARK UNBOUND:                 0.000
REMARK SMILES O=c1ccc2ccc3occc3c2o1
REMARK SMILES IDX 6 1 7 2 8 3 12 4 11 5 10 6 9 7 13 8 5 9 4 10 3 11 2 12 1 13
REMARK SMILES IDX 14 14
REMARK H PARENT
REMARK Flexibility Score: inf
ROOT
ATOM      1  C   UNL     1      26.170  28.767   3.750  1.00  0.00     0.016 A 
ATOM      2  C   UNL     1      25.879  27.416   3.477  1.00  0.00     0.048 A 
ATOM      3  C   UNL     1      26.617  26.775   2.482  1.00  0.00     0.137 A 
ATOM      4  C   UNL     1      27.598  27.421   1.780  1.00  0.00     0.064 A 
ATOM      5  C   UNL     1      28.119  26.509   0.890  1.00  0.00     0.054 A 
ATOM      6  C   UNL     1      27.397  25.344   1.121  1.00  0.00     0.196 A 
ATOM      7  O   UNL     1      26.506  25.534   2.078  1.00  0.00    -0.464 OA
ATOM      8  C   UNL     1      27.915  28.756   2.020  1.00  0.00     0.149 A 
ATOM      9  C   UNL     1      27.185  29.439   3.026  1.00  0.00     0.018 A 
ATOM     10  C   UNL     1      27.497  30.779   3.271  1.00  0.00     0.019 A 
ATOM     11  C   UNL     1      28.506  31.394   2.528  1.00  0.00     0.094 A 
ATOM     12  C   UNL     1      29.184  30.653   1.552  1.00  0.00     0.336 A 
ATOM     13  O   UNL     1      30.096  31.193   0.875  1.00  0.00    -0.246 OA
ATOM     14  O   UNL     1      28.870  29.378   1.334  1.00  0.00    -0.422 OA
ENDROOT
TORSDOF 0
ENDMDL
