MODEL 1
REMARK VINA RESULT:    -4.740      0.000      0.000
REMARK INTER + INTRA:          -5.405
REMARK INTER:                  -5.156
REMARK INTRA:                  -0.249
REMARK UNBOUND:                -0.249
REMARK SMILES O=C([O-])c1ccccc1O
REMARK SMILES IDX 4 1 9 2 5 3 8 4 6 5 7 6 2 7 1 8 3 9 10 10
REMARK H PARENT 10 11
REMARK Flexibility Score: inf
ROOT
ATOM      1  C   UNL     1      34.509   5.145  16.275  1.00  0.00     0.039 A 
ATOM      2  C   UNL     1      33.113   5.115  16.029  1.00  0.00     0.124 A 
ATOM      3  C   UNL     1      34.976   5.722  17.471  1.00  0.00     0.014 A 
ATOM      4  C   UNL     1      32.226   5.599  16.999  1.00  0.00     0.047 A 
ATOM      5  C   UNL     1      34.081   6.221  18.420  1.00  0.00     0.001 A 
ATOM      6  C   UNL     1      32.707   6.150  18.188  1.00  0.00     0.004 A 
ENDROOT
BRANCH   1   7
ATOM      7  C   UNL     1      35.493   4.557  15.340  1.00  0.00     0.075 C 
ATOM      8  O   UNL     1      35.409   4.788  14.105  1.00  0.00    -0.545 OA
ATOM      9  O   UNL     1      36.560   3.801  15.812  1.00  0.00    -0.545 OA
ENDBRANCH   1   7
BRANCH   2  10
ATOM     10  O   UNL     1      32.572   4.649  14.828  1.00  0.00    -0.507 OA
ATOM     11  H   UNL     1      32.428   3.670  14.625  1.00  0.00     0.293 HD
ENDBRANCH   2  10
TORSDOF 2
ENDMDL
MODEL 2
REMARK VINA RESULT:    -4.716      2.746      4.434
REMARK INTER + INTRA:          -5.378
REMARK INTER:                  -5.128
REMARK INTRA:                  -0.250
REMARK UNBOUND:                -0.249
REMARK SMILES O=C([O-])c1ccccc1O
REMARK SMILES IDX 4 1 9 2 5 3 8 4 6 5 7 6 2 7 1 8 3 9 10 10
REMARK H PARENT 10 11
REMARK Flexibility Score: inf
ROOT
ATOM      1  C   UNL     1      33.081   5.776  17.813  1.00  0.00     0.039 A 
ATOM      2  C   UNL     1      34.479   6.013  17.823  1.00  0.00     0.124 A 
ATOM      3  C   UNL     1      32.504   5.162  16.685  1.00  0.00     0.014 A 
ATOM      4  C   UNL     1      35.265   5.579  16.747  1.00  0.00     0.047 A 
ATOM      5  C   UNL     1      33.297   4.754  15.611  1.00  0.00     0.001 A 
ATOM      6  C   UNL     1      34.677   4.954  15.646  1.00  0.00     0.004 A 
ENDROOT
BRANCH   1   7
ATOM      7  C   UNL     1      32.211   6.114  18.960  1.00  0.00     0.075 C 
ATOM      8  O   UNL     1      32.600   5.890  20.137  1.00  0.00    -0.545 OA
ATOM      9  O   UNL     1      30.987   6.742  18.763  1.00  0.00    -0.545 OA
ENDBRANCH   1   7
BRANCH   2  10
ATOM     10  O   UNL     1      35.118   6.703  18.857  1.00  0.00    -0.507 OA
ATOM     11  H   UNL     1      35.775   7.454  18.701  1.00  0.00     0.293 HD
ENDBRANCH   2  10
TORSDOF 2
ENDMDL
MODEL 3
REMARK VINA RESULT:    -4.547      1.635      2.535
REMARK INTER + INTRA:          -5.195
REMARK INTER:                  -4.971
REMARK INTRA:                  -0.223
REMARK UNBOUND:                -0.249
REMARK SMILES O=C([O-])c1ccccc1O
REMARK SMILES IDX 4 1 9 2 5 3 8 4 6 5 7 6 2 7 1 8 3 9 10 10
REMARK H PARENT 10 11
REMARK Flexibility Score: inf
ROOT
ATOM      1  C   UNL     1      34.760   4.580  16.112  1.00  0.00     0.039 A 
ATOM      2  C   UNL     1      34.577   5.682  16.984  1.00  0.00     0.124 A 
ATOM      3  C   UNL     1      33.637   4.036  15.458  1.00  0.00     0.014 A 
ATOM      4  C   UNL     1      33.303   6.247  17.132  1.00  0.00     0.047 A 
ATOM      5  C   UNL     1      32.370   4.596  15.633  1.00  0.00     0.001 A 
ATOM      6  C   UNL     1      32.204   5.706  16.461  1.00  0.00     0.004 A 
ENDROOT
BRANCH   1   7
ATOM      7  C   UNL     1      36.092   4.003  15.830  1.00  0.00     0.075 C 
ATOM      8  O   UNL     1      36.772   3.497  16.762  1.00  0.00    -0.545 OA
ATOM      9  O   UNL     1      36.585   3.949  14.532  1.00  0.00    -0.545 OA
ENDBRANCH   1   7
BRANCH   2  10
ATOM     10  O   UNL     1      35.618   6.221  17.745  1.00  0.00    -0.507 OA
ATOM     11  H   UNL     1      36.175   5.676  18.389  1.00  0.00     0.293 HD
ENDBRANCH   2  10
TORSDOF 2
ENDMDL
MODEL 4
REMARK VINA RESULT:    -4.453      2.488      3.726
REMARK INTER + INTRA:          -5.093
REMARK INTER:                  -4.843
REMARK INTRA:                  -0.250
REMARK UNBOUND:                -0.249
REMARK SMILES O=C([O-])c1ccccc1O
REMARK SMILES IDX 4 1 9 2 5 3 8 4 6 5 7 6 2 7 1 8 3 9 10 10
REMARK H PARENT 10 11
REMARK Flexibility Score: inf
ROOT
ATOM      1  C   UNL     1      33.006   5.660  17.688  1.00  0.00     0.039 A 
ATOM      2  C   UNL     1      32.506   5.035  16.517  1.00  0.00     0.124 A 
ATOM      3  C   UNL     1      34.391   5.893  17.795  1.00  0.00     0.014 A 
ATOM      4  C   UNL     1      33.382   4.720  15.470  1.00  0.00     0.047 A 
ATOM      5  C   UNL     1      35.254   5.553  16.751  1.00  0.00     0.001 A 
ATOM      6  C   UNL     1      34.749   4.976  15.587  1.00  0.00     0.004 A 
ENDROOT
BRANCH   1   7
ATOM      7  C   UNL     1      32.124   6.113  18.785  1.00  0.00     0.075 C 
ATOM      8  O   UNL     1      31.046   6.710  18.524  1.00  0.00    -0.545 OA
ATOM      9  O   UNL     1      32.433   5.830  20.110  1.00  0.00    -0.545 OA
ENDBRANCH   1   7
BRANCH   2  10
ATOM     10  O   UNL     1      31.162   4.680  16.371  1.00  0.00    -0.507 OA
ATOM     11  H   UNL     1      30.528   4.571  17.149  1.00  0.00     0.293 HD
ENDBRANCH   2  10
TORSDOF 2
ENDMDL
MODEL 5
REMARK VINA RESULT:    -4.439     15.925     16.491
REMARK INTER + INTRA:          -5.078
REMARK INTER:                  -4.830
REMARK INTRA:                  -0.248
REMARK UNBOUND:                -0.249
REMARK SMILES O=C([O-])c1ccccc1O
REMARK SMILES IDX 4 1 9 2 5 3 8 4 6 5 7 6 2 7 1 8 3 9 10 10
REMARK H PARENT 10 11
REMARK Flexibility Score: inf
ROOT
ATOM      1  C   UNL     1      42.069  18.792  11.742  1.00  0.00     0.039 A 
ATOM      2  C   UNL     1      40.880  19.070  12.463  1.00  0.00     0.124 A 
ATOM      3  C   UNL     1      41.969  18.393  10.395  1.00  0.00     0.014 A 
ATOM      4  C   UNL     1      39.641  19.006  11.811  1.00  0.00     0.047 A 
ATOM      5  C   UNL     1      40.725  18.312   9.766  1.00  0.00     0.001 A 
ATOM      6  C   UNL     1      39.564  18.628  10.470  1.00  0.00     0.004 A 
ENDROOT
BRANCH   1   7
ATOM      7  C   UNL     1      43.413  18.942  12.339  1.00  0.00     0.075 C 
ATOM      8  O   UNL     1      43.700  19.976  12.999  1.00  0.00    -0.545 OA
ATOM      9  O   UNL     1      44.353  17.923  12.242  1.00  0.00    -0.545 OA
ENDBRANCH   1   7
BRANCH   2  10
ATOM     10  O   UNL     1      40.882  19.378  13.826  1.00  0.00    -0.507 OA
ATOM     11  H   UNL     1      40.129  19.131  14.453  1.00  0.00     0.293 HD
ENDBRANCH   2  10
TORSDOF 2
ENDMDL
MODEL 6
REMARK VINA RESULT:    -4.389     16.432     16.984
REMARK INTER + INTRA:          -5.023
REMARK INTER:                  -4.830
REMARK INTRA:                  -0.194
REMARK UNBOUND:                -0.249
REMARK SMILES O=C([O-])c1ccccc1O
REMARK SMILES IDX 4 1 9 2 5 3 8 4 6 5 7 6 2 7 1 8 3 9 10 10
REMARK H PARENT 10 11
REMARK Flexibility Score: inf
ROOT
ATOM      1  C   UNL     1      40.958  19.641  10.046  1.00  0.00     0.039 A 
ATOM      2  C   UNL     1      39.935  18.710  10.356  1.00  0.00     0.124 A 
ATOM      3  C   UNL     1      42.139  19.633  10.814  1.00  0.00     0.014 A 
ATOM      4  C   UNL     1      40.139  17.765  11.370  1.00  0.00     0.047 A 
ATOM      5  C   UNL     1      42.319  18.698  11.836  1.00  0.00     0.001 A 
ATOM      6  C   UNL     1      41.325  17.759  12.107  1.00  0.00     0.004 A 
ENDROOT
BRANCH   1   7
ATOM      7  C   UNL     1      40.850  20.595   8.922  1.00  0.00     0.075 C 
ATOM      8  O   UNL     1      40.012  21.535   8.969  1.00  0.00    -0.545 OA
ATOM      9  O   UNL     1      41.711  20.515   7.835  1.00  0.00    -0.545 OA
ENDBRANCH   1   7
BRANCH   2  10
ATOM     10  O   UNL     1      38.696  18.713   9.710  1.00  0.00    -0.507 OA
ATOM     11  H   UNL     1      38.360  17.944   9.148  1.00  0.00     0.293 HD
ENDBRANCH   2  10
TORSDOF 2
ENDMDL
MODEL 7
REMARK VINA RESULT:    -4.300     16.070     16.627
REMARK INTER + INTRA:          -4.926
REMARK INTER:                  -4.672
REMARK INTRA:                  -0.253
REMARK UNBOUND:                -0.249
REMARK SMILES O=C([O-])c1ccccc1O
REMARK SMILES IDX 4 1 9 2 5 3 8 4 6 5 7 6 2 7 1 8 3 9 10 10
REMARK H PARENT 10 11
REMARK Flexibility Score: inf
ROOT
ATOM      1  C   UNL     1      41.660  18.664  11.282  1.00  0.00     0.039 A 
ATOM      2  C   UNL     1      41.434  19.825  10.498  1.00  0.00     0.124 A 
ATOM      3  C   UNL     1      40.562  17.852  11.625  1.00  0.00     0.014 A 
ATOM      4  C   UNL     1      40.144  20.106  10.030  1.00  0.00     0.047 A 
ATOM      5  C   UNL     1      39.278  18.157  11.168  1.00  0.00     0.001 A 
ATOM      6  C   UNL     1      39.071  19.278  10.364  1.00  0.00     0.004 A 
ENDROOT
BRANCH   1   7
ATOM      7  C   UNL     1      43.011  18.253  11.720  1.00  0.00     0.075 C 
ATOM      8  O   UNL     1      43.389  17.061  11.568  1.00  0.00    -0.545 OA
ATOM      9  O   UNL     1      43.904  19.181  12.241  1.00  0.00    -0.545 OA
ENDBRANCH   1   7
BRANCH   2  10
ATOM     10  O   UNL     1      42.449  20.736  10.195  1.00  0.00    -0.507 OA
ATOM     11  H   UNL     1      43.373  20.695  10.601  1.00  0.00     0.293 HD
ENDBRANCH   2  10
TORSDOF 2
ENDMDL
MODEL 8
REMARK VINA RESULT:    -4.280      1.713      3.699
REMARK INTER + INTRA:          -4.904
REMARK INTER:                  -4.692
REMARK INTRA:                  -0.212
REMARK UNBOUND:                -0.249
REMARK SMILES O=C([O-])c1ccccc1O
REMARK SMILES IDX 4 1 9 2 5 3 8 4 6 5 7 6 2 7 1 8 3 9 10 10
REMARK H PARENT 10 11
REMARK Flexibility Score: inf
ROOT
ATOM      1  C   UNL     1      34.771   4.330  16.014  1.00  0.00     0.039 A 
ATOM      2  C   UNL     1      35.610   4.364  14.871  1.00  0.00     0.124 A 
ATOM      3  C   UNL     1      35.167   3.560  17.125  1.00  0.00     0.014 A 
ATOM      4  C   UNL     1      36.837   3.689  14.891  1.00  0.00     0.047 A 
ATOM      5  C   UNL     1      36.384   2.875  17.121  1.00  0.00     0.001 A 
ATOM      6  C   UNL     1      37.222   2.947  16.009  1.00  0.00     0.004 A 
ENDROOT
BRANCH   1   7
ATOM      7  C   UNL     1      33.513   5.103  16.099  1.00  0.00     0.075 C 
ATOM      8  O   UNL     1      32.558   4.845  15.319  1.00  0.00    -0.545 OA
ATOM      9  O   UNL     1      33.339   6.073  17.078  1.00  0.00    -0.545 OA
ENDBRANCH   1   7
BRANCH   2  10
ATOM     10  O   UNL     1      35.248   5.021  13.692  1.00  0.00    -0.507 OA
ATOM     11  H   UNL     1      34.624   5.815  13.668  1.00  0.00     0.293 HD
ENDBRANCH   2  10
TORSDOF 2
ENDMDL
MODEL 9
REMARK VINA RESULT:    -4.256     16.870     17.375
REMARK INTER + INTRA:          -4.878
REMARK INTER:                  -4.634
REMARK INTRA:                  -0.244
REMARK UNBOUND:                -0.249
REMARK SMILES O=C([O-])c1ccccc1O
REMARK SMILES IDX 4 1 9 2 5 3 8 4 6 5 7 6 2 7 1 8 3 9 10 10
REMARK H PARENT 10 11
REMARK Flexibility Score: inf
ROOT
ATOM      1  C   UNL     1      41.465  19.958  10.681  1.00  0.00     0.039 A 
ATOM      2  C   UNL     1      40.187  19.971  10.067  1.00  0.00     0.124 A 
ATOM      3  C   UNL     1      41.780  18.915  11.572  1.00  0.00     0.014 A 
ATOM      4  C   UNL     1      39.291  18.921  10.307  1.00  0.00     0.047 A 
ATOM      5  C   UNL     1      40.868  17.887  11.818  1.00  0.00     0.001 A 
ATOM      6  C   UNL     1      39.629  17.885  11.179  1.00  0.00     0.004 A 
ENDROOT
BRANCH   1   7
ATOM      7  C   UNL     1      42.496  20.978  10.390  1.00  0.00     0.075 C 
ATOM      8  O   UNL     1      42.774  21.274   9.198  1.00  0.00    -0.545 OA
ATOM      9  O   UNL     1      43.121  21.671  11.419  1.00  0.00    -0.545 OA
ENDBRANCH   1   7
BRANCH   2  10
ATOM     10  O   UNL     1      39.757  21.018   9.247  1.00  0.00    -0.507 OA
ATOM     11  H   UNL     1      38.809  21.107   8.911  1.00  0.00     0.293 HD
ENDBRANCH   2  10
TORSDOF 2
ENDMDL
