MODEL 1
REMARK VINA RESULT:    -2.869      0.000      0.000
REMARK INTER + INTRA:          -3.626
REMARK INTER:                  -3.539
REMARK INTRA:                  -0.087
REMARK UNBOUND:                -0.087
REMARK SMILES CCCCCC(=O)[O-]
REMARK SMILES IDX 4 1 5 2 6 3 7 4 8 5 3 6 2 7 1 8
REMARK H PARENT
REMARK Flexibility Score: inf
ROOT
ATOM      1  C   UNL     1       3.431 111.254 183.281  1.00  0.00     0.006 C 
ENDROOT
BRANCH   1   2
ATOM      2  C   UNL     1       3.646 109.824 182.770  1.00  0.00     0.053 C 
BRANCH   2   3
ATOM      3  C   UNL     1       2.334 109.124 182.609  1.00  0.00     0.041 C 
ATOM      4  O   UNL     1       2.069 108.510 181.543  1.00  0.00    -0.550 OA
ATOM      5  O   UNL     1       1.383 109.191 183.620  1.00  0.00    -0.550 OA
ENDBRANCH   2   3
ENDBRANCH   1   2
BRANCH   1   6
ATOM      6  C   UNL     1       4.676 111.831 183.970  1.00  0.00     0.000 C 
BRANCH   6   7
ATOM      7  C   UNL     1       4.351 113.036 184.866  1.00  0.00    -0.003 C 
ATOM      8  C   UNL     1       2.864 113.376 184.810  1.00  0.00     0.004 C 
ENDBRANCH   6   7
ENDBRANCH   1   6
TORSDOF 4
ENDMDL
MODEL 2
REMARK VINA RESULT:    -2.858      2.939      4.082
REMARK INTER + INTRA:          -3.613
REMARK INTER:                  -3.394
REMARK INTRA:                  -0.219
REMARK UNBOUND:                -0.087
REMARK SMILES CCCCCC(=O)[O-]
REMARK SMILES IDX 4 1 5 2 6 3 7 4 8 5 3 6 2 7 1 8
REMARK H PARENT
REMARK Flexibility Score: inf
ROOT
ATOM      1  C   UNL     1       3.996 108.201 181.594  1.00  0.00     0.006 C 
ENDROOT
BRANCH   1   2
ATOM      2  C   UNL     1       2.523 108.624 181.652  1.00  0.00     0.053 C 
BRANCH   2   3
ATOM      3  C   UNL     1       2.229 109.316 182.945  1.00  0.00     0.041 C 
ATOM      4  O   UNL     1       1.388 108.831 183.747  1.00  0.00    -0.550 OA
ATOM      5  O   UNL     1       2.847 110.524 183.244  1.00  0.00    -0.550 OA
ENDBRANCH   2   3
ENDBRANCH   1   2
BRANCH   1   6
ATOM      6  C   UNL     1       4.251 106.848 182.275  1.00  0.00     0.000 C 
BRANCH   6   7
ATOM      7  C   UNL     1       5.543 106.838 183.104  1.00  0.00    -0.003 C 
ATOM      8  C   UNL     1       5.695 108.131 183.901  1.00  0.00     0.004 C 
ENDBRANCH   6   7
ENDBRANCH   1   6
TORSDOF 4
ENDMDL
MODEL 3
REMARK VINA RESULT:    -2.816      3.095      5.231
REMARK INTER + INTRA:          -3.561
REMARK INTER:                  -3.430
REMARK INTRA:                  -0.131
REMARK UNBOUND:                -0.087
REMARK SMILES CCCCCC(=O)[O-]
REMARK SMILES IDX 4 1 5 2 6 3 7 4 8 5 3 6 2 7 1 8
REMARK H PARENT
REMARK Flexibility Score: inf
ROOT
ATOM      1  C   UNL     1       3.587 108.168 181.343  1.00  0.00     0.006 C 
ENDROOT
BRANCH   1   2
ATOM      2  C   UNL     1       2.129 108.539 181.644  1.00  0.00     0.053 C 
BRANCH   2   3
ATOM      3  C   UNL     1       2.024 109.193 182.985  1.00  0.00     0.041 C 
ATOM      4  O   UNL     1       2.620 110.278 183.211  1.00  0.00    -0.550 OA
ATOM      5  O   UNL     1       1.305 108.578 184.003  1.00  0.00    -0.550 OA
ENDBRANCH   2   3
ENDBRANCH   1   2
BRANCH   1   6
ATOM      6  C   UNL     1       3.917 106.715 181.713  1.00  0.00     0.000 C 
BRANCH   6   7
ATOM      7  C   UNL     1       4.205 105.842 180.482  1.00  0.00    -0.003 C 
ATOM      8  C   UNL     1       2.927 105.189 179.962  1.00  0.00     0.004 C 
ENDBRANCH   6   7
ENDBRANCH   1   6
TORSDOF 4
ENDMDL
MODEL 4
REMARK VINA RESULT:    -2.655      2.253      4.004
REMARK INTER + INTRA:          -3.362
REMARK INTER:                  -3.208
REMARK INTRA:                  -0.154
REMARK UNBOUND:                -0.087
REMARK SMILES CCCCCC(=O)[O-]
REMARK SMILES IDX 4 1 5 2 6 3 7 4 8 5 3 6 2 7 1 8
REMARK H PARENT
REMARK Flexibility Score: inf
ROOT
ATOM      1  C   UNL     1       4.799 109.391 182.526  1.00  0.00     0.006 C 
ENDROOT
BRANCH   1   2
ATOM      2  C   UNL     1       3.484 110.085 182.905  1.00  0.00     0.053 C 
BRANCH   2   3
ATOM      3  C   UNL     1       2.328 109.158 182.702  1.00  0.00     0.041 C 
ATOM      4  O   UNL     1       2.184 108.552 181.608  1.00  0.00    -0.550 OA
ATOM      5  O   UNL     1       1.378 109.001 183.705  1.00  0.00    -0.550 OA
ENDBRANCH   2   3
ENDBRANCH   1   2
BRANCH   1   6
ATOM      6  C   UNL     1       5.218 108.320 183.545  1.00  0.00     0.000 C 
BRANCH   6   7
ATOM      7  C   UNL     1       5.344 106.925 182.917  1.00  0.00    -0.003 C 
ATOM      8  C   UNL     1       6.591 106.205 183.424  1.00  0.00     0.004 C 
ENDBRANCH   6   7
ENDBRANCH   1   6
TORSDOF 4
ENDMDL
MODEL 5
REMARK VINA RESULT:    -2.609      4.850      7.087
REMARK INTER + INTRA:          -3.306
REMARK INTER:                  -3.222
REMARK INTRA:                  -0.084
REMARK UNBOUND:                -0.087
REMARK SMILES CCCCCC(=O)[O-]
REMARK SMILES IDX 4 1 5 2 6 3 7 4 8 5 3 6 2 7 1 8
REMARK H PARENT
REMARK Flexibility Score: inf
ROOT
ATOM      1  C   UNL     1       3.552 106.400 180.081  1.00  0.00     0.006 C 
ENDROOT
BRANCH   1   2
ATOM      2  C   UNL     1       4.848 106.223 180.883  1.00  0.00     0.053 C 
BRANCH   2   3
ATOM      3  C   UNL     1       4.676 106.741 182.275  1.00  0.00     0.041 C 
ATOM      4  O   UNL     1       3.670 107.436 182.574  1.00  0.00    -0.550 OA
ATOM      5  O   UNL     1       5.652 106.497 183.233  1.00  0.00    -0.550 OA
ENDBRANCH   2   3
ENDBRANCH   1   2
BRANCH   1   6
ATOM      6  C   UNL     1       2.813 105.074 179.850  1.00  0.00     0.000 C 
BRANCH   6   7
ATOM      7  C   UNL     1       2.995 104.538 178.422  1.00  0.00    -0.003 C 
ATOM      8  C   UNL     1       1.768 104.834 177.564  1.00  0.00     0.004 C 
ENDBRANCH   6   7
ENDBRANCH   1   6
TORSDOF 4
ENDMDL
MODEL 6
REMARK VINA RESULT:    -2.586      3.952      6.508
REMARK INTER + INTRA:          -3.278
REMARK INTER:                  -3.150
REMARK INTRA:                  -0.128
REMARK UNBOUND:                -0.087
REMARK SMILES CCCCCC(=O)[O-]
REMARK SMILES IDX 4 1 5 2 6 3 7 4 8 5 3 6 2 7 1 8
REMARK H PARENT
REMARK Flexibility Score: inf
ROOT
ATOM      1  C   UNL     1       3.841 106.340 180.257  1.00  0.00     0.006 C 
ENDROOT
BRANCH   1   2
ATOM      2  C   UNL     1       3.852 106.650 181.760  1.00  0.00     0.053 C 
BRANCH   2   3
ATOM      3  C   UNL     1       3.196 107.968 182.025  1.00  0.00     0.041 C 
ATOM      4  O   UNL     1       2.412 108.469 181.177  1.00  0.00    -0.550 OA
ATOM      5  O   UNL     1       3.488 108.667 183.189  1.00  0.00    -0.550 OA
ENDBRANCH   2   3
ENDBRANCH   1   2
BRANCH   1   6
ATOM      6  C   UNL     1       2.917 105.166 179.902  1.00  0.00     0.000 C 
BRANCH   6   7
ATOM      7  C   UNL     1       1.764 105.581 178.976  1.00  0.00    -0.003 C 
ATOM      8  C   UNL     1       1.813 104.812 177.659  1.00  0.00     0.004 C 
ENDBRANCH   6   7
ENDBRANCH   1   6
TORSDOF 4
ENDMDL
MODEL 7
REMARK VINA RESULT:    -2.584      4.910      7.198
REMARK INTER + INTRA:          -3.275
REMARK INTER:                  -3.127
REMARK INTRA:                  -0.148
REMARK UNBOUND:                -0.087
REMARK SMILES CCCCCC(=O)[O-]
REMARK SMILES IDX 4 1 5 2 6 3 7 4 8 5 3 6 2 7 1 8
REMARK H PARENT
REMARK Flexibility Score: inf
ROOT
ATOM      1  C   UNL     1       2.841 105.036 179.851  1.00  0.00     0.006 C 
ENDROOT
BRANCH   1   2
ATOM      2  C   UNL     1       4.061 105.843 180.313  1.00  0.00     0.053 C 
BRANCH   2   3
ATOM      3  C   UNL     1       3.657 106.869 181.323  1.00  0.00     0.041 C 
ATOM      4  O   UNL     1       4.164 106.860 182.475  1.00  0.00    -0.550 OA
ATOM      5  O   UNL     1       2.681 107.807 181.008  1.00  0.00    -0.550 OA
ENDBRANCH   2   3
ENDBRANCH   1   2
BRANCH   1   6
ATOM      6  C   UNL     1       2.975 104.534 178.406  1.00  0.00     0.000 C 
BRANCH   6   7
ATOM      7  C   UNL     1       1.762 104.899 177.539  1.00  0.00    -0.003 C 
ATOM      8  C   UNL     1       1.039 106.124 178.093  1.00  0.00     0.004 C 
ENDBRANCH   6   7
ENDBRANCH   1   6
TORSDOF 4
ENDMDL
MODEL 8
REMARK VINA RESULT:    -2.556      2.933      5.445
REMARK INTER + INTRA:          -3.241
REMARK INTER:                  -3.100
REMARK INTRA:                  -0.141
REMARK UNBOUND:                -0.087
REMARK SMILES CCCCCC(=O)[O-]
REMARK SMILES IDX 4 1 5 2 6 3 7 4 8 5 3 6 2 7 1 8
REMARK H PARENT
REMARK Flexibility Score: inf
ROOT
ATOM      1  C   UNL     1       2.622 108.264 180.499  1.00  0.00     0.006 C 
ENDROOT
BRANCH   1   2
ATOM      2  C   UNL     1       2.990 108.081 181.977  1.00  0.00     0.053 C 
BRANCH   2   3
ATOM      3  C   UNL     1       2.480 109.230 182.787  1.00  0.00     0.041 C 
ATOM      4  O   UNL     1       3.080 110.337 182.767  1.00  0.00    -0.550 OA
ATOM      5  O   UNL     1       1.370 109.065 183.605  1.00  0.00    -0.550 OA
ENDBRANCH   2   3
ENDBRANCH   1   2
BRANCH   1   6
ATOM      6  C   UNL     1       1.117 108.103 180.239  1.00  0.00     0.000 C 
BRANCH   6   7
ATOM      7  C   UNL     1       0.814 107.072 179.141  1.00  0.00    -0.003 C 
ATOM      8  C   UNL     1       1.781 105.893 179.213  1.00  0.00     0.004 C 
ENDBRANCH   6   7
ENDBRANCH   1   6
TORSDOF 4
ENDMDL
MODEL 9
REMARK VINA RESULT:    -2.527      1.740      2.097
REMARK INTER + INTRA:          -3.204
REMARK INTER:                  -3.145
REMARK INTRA:                  -0.059
REMARK UNBOUND:                -0.087
REMARK SMILES CCCCCC(=O)[O-]
REMARK SMILES IDX 4 1 5 2 6 3 7 4 8 5 3 6 2 7 1 8
REMARK H PARENT
REMARK Flexibility Score: inf
ROOT
ATOM      1  C   UNL     1       4.114 110.520 182.590  1.00  0.00     0.006 C 
ENDROOT
BRANCH   1   2
ATOM      2  C   UNL     1       3.423 109.266 182.040  1.00  0.00     0.053 C 
BRANCH   2   3
ATOM      3  C   UNL     1       3.995 108.036 182.670  1.00  0.00     0.041 C 
ATOM      4  O   UNL     1       4.787 108.131 183.644  1.00  0.00    -0.550 OA
ATOM      5  O   UNL     1       3.694 106.784 182.149  1.00  0.00    -0.550 OA
ENDBRANCH   2   3
ENDBRANCH   1   2
BRANCH   1   6
ATOM      6  C   UNL     1       3.260 111.260 183.630  1.00  0.00     0.000 C 
BRANCH   6   7
ATOM      7  C   UNL     1       3.844 112.628 184.009  1.00  0.00    -0.003 C 
ATOM      8  C   UNL     1       2.825 113.467 184.775  1.00  0.00     0.004 C 
ENDBRANCH   6   7
ENDBRANCH   1   6
TORSDOF 4
ENDMDL
