MODEL 1
REMARK VINA RESULT:    -4.193      0.000      0.000
REMARK INTER + INTRA:          -5.540
REMARK INTER:                  -5.909
REMARK INTRA:                   0.369
REMARK UNBOUND:                 0.369
REMARK SMILES CC1=CCC(=C(C)C)C(=O)CC(C)=CCC1
REMARK SMILES IDX 12 1 14 2 13 3 15 4 16 5 2 6 1 7 3 8 11 10 9 11 10 12 5 13
REMARK SMILES IDX 6 14 7 15 8 16 4 17
REMARK H PARENT
REMARK Flexibility Score: 60.00
ROOT
ATOM      1  C   UNL     1     -13.814  15.558 -31.283  1.00  0.00    -0.070 C 
ATOM      2  C   UNL     1     -12.594  15.565 -30.698  1.00  0.00    -0.027 C 
ATOM      3  C   UNL     1     -13.932  16.105 -32.683  1.00  0.00     0.039 C 
ENDROOT
BRANCH   2   4
ATOM      4  C   UNL     1     -12.281  15.003 -29.329  1.00  0.00     0.032 C 
BRANCH   4   5
ATOM      5  C   UNL     1     -12.210  13.469 -29.351  1.00  0.00     0.034 C 
BRANCH   5   6
ATOM      6  C   UNL     1     -12.973  12.808 -28.212  1.00  0.00    -0.077 C 
ATOM      7  C   UNL     1     -12.503  13.031 -26.796  1.00  0.00     0.039 C 
ATOM      8  C   UNL     1     -14.069  12.039 -28.398  1.00  0.00    -0.023 CG0
ATOM      9  G   UNL     1     -14.646  11.645 -29.738  1.00  0.00     0.000 G0
ENDBRANCH   5   6
ENDBRANCH   4   5
ENDBRANCH   2   4
BRANCH   1  10
ATOM     10  C   UNL     1     -15.057  15.029 -30.594  1.00  0.00     0.111 C 
BRANCH  10  11
ATOM     11  C   UNL     1     -15.444  13.680 -31.133  1.00  0.00     0.163 C 
ATOM     12  O   UNL     1     -15.471  13.497 -32.379  1.00  0.00    -0.294 OA
BRANCH  11  13
ATOM     13  C   UNL     1     -15.770  12.552 -30.223  1.00  0.00    -0.002 C 
ATOM     14  C   UNL     1     -17.056  12.335 -29.833  1.00  0.00    -0.069 C 
ATOM     15  C   UNL     1     -17.400  11.224 -28.867  1.00  0.00     0.039 C 
ATOM     16  C   UNL     1     -18.191  13.170 -30.381  1.00  0.00     0.039 C 
BRANCH  13  17
ATOM     17  C   UNL     1     -14.648  11.641 -29.738  1.00  0.00     0.066 CG0
ATOM     18  G   UNL     1     -14.063  12.051 -28.407  1.00  0.00     0.000 G0
ENDBRANCH  13  17
ENDBRANCH  11  13
ENDBRANCH  10  11
ENDBRANCH   1  10
TORSDOF 0
ENDMDL
MODEL 2
REMARK VINA RESULT:    -3.966      1.439      2.242
REMARK INTER + INTRA:          -5.219
REMARK INTER:                  -5.742
REMARK INTRA:                   0.522
REMARK UNBOUND:                 0.369
REMARK SMILES CC1=CCC(=C(C)C)C(=O)CC(C)=CCC1
REMARK SMILES IDX 12 1 14 2 13 3 15 4 16 5 2 6 1 7 3 8 11 10 9 11 10 12 5 13
REMARK SMILES IDX 6 14 7 15 8 16 4 17
REMARK H PARENT
REMARK Flexibility Score: 60.00
ROOT
ATOM      1  C   UNL     1     -14.293  14.704 -32.086  1.00  0.00    -0.070 C 
ATOM      2  C   UNL     1     -13.268  15.478 -31.660  1.00  0.00    -0.027 C 
ATOM      3  C   UNL     1     -14.369  14.374 -33.555  1.00  0.00     0.039 C 
ENDROOT
BRANCH   2   4
ATOM      4  C   UNL     1     -13.002  15.857 -30.221  1.00  0.00     0.032 C 
BRANCH   4   5
ATOM      5  C   UNL     1     -11.639  15.335 -29.742  1.00  0.00     0.034 C 
BRANCH   5   6
ATOM      6  C   UNL     1     -11.453  13.839 -29.948  1.00  0.00    -0.077 C 
ATOM      7  C   UNL     1     -10.366  13.363 -30.879  1.00  0.00     0.039 C 
ATOM      8  C   UNL     1     -12.203  12.903 -29.325  1.00  0.00    -0.023 CG0
ATOM      9  G   UNL     1     -13.377  13.183 -28.416  1.00  0.00     0.000 G0
ENDBRANCH   5   6
ENDBRANCH   4   5
ENDBRANCH   2   4
BRANCH   1  10
ATOM     10  C   UNL     1     -15.359  14.161 -31.155  1.00  0.00     0.111 C 
BRANCH  10  11
ATOM     11  C   UNL     1     -14.911  12.883 -30.503  1.00  0.00     0.163 C 
ATOM     12  O   UNL     1     -14.668  11.876 -31.219  1.00  0.00    -0.294 OA
BRANCH  11  13
ATOM     13  C   UNL     1     -14.725  12.793 -29.032  1.00  0.00    -0.002 C 
ATOM     14  C   UNL     1     -15.743  12.367 -28.236  1.00  0.00    -0.069 C 
ATOM     15  C   UNL     1     -15.590  12.318 -26.733  1.00  0.00     0.039 C 
ATOM     16  C   UNL     1     -17.051  11.890 -28.827  1.00  0.00     0.039 C 
BRANCH  13  17
ATOM     17  C   UNL     1     -13.379  13.180 -28.429  1.00  0.00     0.066 CG0
ATOM     18  G   UNL     1     -12.201  12.884 -29.328  1.00  0.00     0.000 G0
ENDBRANCH  13  17
ENDBRANCH  11  13
ENDBRANCH  10  11
ENDBRANCH   1  10
TORSDOF 0
ENDMDL
MODEL 3
REMARK VINA RESULT:    -3.824      1.869      3.669
REMARK INTER + INTRA:          -5.019
REMARK INTER:                  -5.495
REMARK INTRA:                   0.475
REMARK UNBOUND:                 0.369
REMARK SMILES CC1=CCC(=C(C)C)C(=O)CC(C)=CCC1
REMARK SMILES IDX 12 1 14 2 13 3 15 4 16 5 2 6 1 7 3 8 11 10 9 11 10 12 5 13
REMARK SMILES IDX 6 14 7 15 8 16 4 17
REMARK H PARENT
REMARK Flexibility Score: 60.00
ROOT
ATOM      1  C   UNL     1     -11.536  13.752 -30.509  1.00  0.00    -0.070 C 
ATOM      2  C   UNL     1     -12.007  14.908 -31.031  1.00  0.00    -0.027 C 
ATOM      3  C   UNL     1     -10.450  13.025 -31.260  1.00  0.00     0.039 C 
ENDROOT
BRANCH   2   4
ATOM      4  C   UNL     1     -13.047  15.796 -30.385  1.00  0.00     0.032 C 
BRANCH   4   5
ATOM      5  C   UNL     1     -14.291  15.946 -31.273  1.00  0.00     0.034 C 
BRANCH   5   6
ATOM      6  C   UNL     1     -14.754  14.638 -31.899  1.00  0.00    -0.077 C 
ATOM      7  C   UNL     1     -14.649  14.471 -33.394  1.00  0.00     0.039 C 
ATOM      8  C   UNL     1     -15.242  13.601 -31.182  1.00  0.00    -0.023 CG0
ATOM      9  G   UNL     1     -15.487  13.606 -29.691  1.00  0.00     0.000 G0
ENDBRANCH   5   6
ENDBRANCH   4   5
ENDBRANCH   2   4
BRANCH   1  10
ATOM     10  C   UNL     1     -12.053  13.161 -29.211  1.00  0.00     0.111 C 
BRANCH  10  11
ATOM     11  C   UNL     1     -13.256  12.292 -29.451  1.00  0.00     0.163 C 
ATOM     12  O   UNL     1     -13.126  11.226 -30.111  1.00  0.00    -0.294 OA
BRANCH  11  13
ATOM     13  C   UNL     1     -14.589  12.651 -28.904  1.00  0.00    -0.002 C 
ATOM     14  C   UNL     1     -15.002  12.139 -27.713  1.00  0.00    -0.069 C 
ATOM     15  C   UNL     1     -16.376  12.451 -27.164  1.00  0.00     0.039 C 
ATOM     16  C   UNL     1     -14.090  11.271 -26.876  1.00  0.00     0.039 C 
BRANCH  13  17
ATOM     17  C   UNL     1     -15.483  13.603 -29.691  1.00  0.00     0.066 CG0
ATOM     18  G   UNL     1     -15.217  13.599 -31.178  1.00  0.00     0.000 G0
ENDBRANCH  13  17
ENDBRANCH  11  13
ENDBRANCH  10  11
ENDBRANCH   1  10
TORSDOF 0
ENDMDL
MODEL 4
REMARK VINA RESULT:    -3.810      1.671      3.636
REMARK INTER + INTRA:          -5.000
REMARK INTER:                  -5.616
REMARK INTRA:                   0.616
REMARK UNBOUND:                 0.369
REMARK SMILES CC1=CCC(=C(C)C)C(=O)CC(C)=CCC1
REMARK SMILES IDX 12 1 14 2 13 3 15 4 16 5 2 6 1 7 3 8 11 10 9 11 10 12 5 13
REMARK SMILES IDX 6 14 7 15 8 16 4 17
REMARK H PARENT
REMARK Flexibility Score: 60.00
ROOT
ATOM      1  C   UNL     1     -12.146  13.511 -28.673  1.00  0.00    -0.070 C 
ATOM      2  C   UNL     1     -12.803  13.238 -27.522  1.00  0.00    -0.027 C 
ATOM      3  C   UNL     1     -11.745  14.939 -28.939  1.00  0.00     0.039 C 
ENDROOT
BRANCH   2   4
ATOM      4  C   UNL     1     -13.226  11.860 -27.066  1.00  0.00     0.032 C 
BRANCH   4   5
ATOM      5  C   UNL     1     -14.195  11.207 -28.064  1.00  0.00     0.034 C 
BRANCH   5   6
ATOM      6  C   UNL     1     -15.405  12.069 -28.390  1.00  0.00    -0.077 C 
ATOM      7  C   UNL     1     -16.360  12.432 -27.279  1.00  0.00     0.039 C 
ATOM      8  C   UNL     1     -15.668  12.547 -29.627  1.00  0.00    -0.023 CG0
ATOM      9  G   UNL     1     -14.872  12.236 -30.873  1.00  0.00     0.000 G0
ENDBRANCH   5   6
ENDBRANCH   4   5
ENDBRANCH   2   4
BRANCH   1  10
ATOM     10  C   UNL     1     -11.800  12.448 -29.698  1.00  0.00     0.111 C 
BRANCH  10  11
ATOM     11  C   UNL     1     -12.343  12.804 -31.054  1.00  0.00     0.163 C 
ATOM     12  O   UNL     1     -11.587  12.737 -32.059  1.00  0.00    -0.294 OA
BRANCH  11  13
ATOM     13  C   UNL     1     -13.761  13.210 -31.234  1.00  0.00    -0.002 C 
ATOM     14  C   UNL     1     -14.064  14.452 -31.701  1.00  0.00    -0.069 C 
ATOM     15  C   UNL     1     -15.501  14.901 -31.842  1.00  0.00     0.039 C 
ATOM     16  C   UNL     1     -12.980  15.412 -32.133  1.00  0.00     0.039 C 
BRANCH  13  17
ATOM     17  C   UNL     1     -14.866  12.217 -30.894  1.00  0.00     0.066 CG0
ATOM     18  G   UNL     1     -15.634  12.566 -29.640  1.00  0.00     0.000 G0
ENDBRANCH  13  17
ENDBRANCH  11  13
ENDBRANCH  10  11
ENDBRANCH   1  10
TORSDOF 0
ENDMDL
MODEL 5
REMARK VINA RESULT:    -3.795      1.566      4.031
REMARK INTER + INTRA:          -4.979
REMARK INTER:                  -5.606
REMARK INTRA:                   0.627
REMARK UNBOUND:                 0.369
REMARK SMILES CC1=CCC(=C(C)C)C(=O)CC(C)=CCC1
REMARK SMILES IDX 12 1 14 2 13 3 15 4 16 5 2 6 1 7 3 8 11 10 9 11 10 12 5 13
REMARK SMILES IDX 6 14 7 15 8 16 4 17
REMARK H PARENT
REMARK Flexibility Score: 60.00
ROOT
ATOM      1  C   UNL     1     -14.137  15.124 -32.298  1.00  0.00    -0.070 C 
ATOM      2  C   UNL     1     -15.459  14.943 -32.075  1.00  0.00    -0.027 C 
ATOM      3  C   UNL     1     -13.611  16.537 -32.335  1.00  0.00     0.039 C 
ENDROOT
BRANCH   2   4
ATOM      4  C   UNL     1     -16.145  13.602 -31.946  1.00  0.00     0.032 C 
BRANCH   4   5
ATOM      5  C   UNL     1     -16.726  13.398 -30.539  1.00  0.00     0.034 C 
BRANCH   5   6
ATOM      6  C   UNL     1     -16.018  12.315 -29.738  1.00  0.00    -0.077 C 
ATOM      7  C   UNL     1     -16.642  10.944 -29.659  1.00  0.00     0.039 C 
ATOM      8  C   UNL     1     -14.841  12.509 -29.101  1.00  0.00    -0.023 CG0
ATOM      9  G   UNL     1     -14.102  13.823 -29.008  1.00  0.00     0.000 G0
ENDBRANCH   5   6
ENDBRANCH   4   5
ENDBRANCH   2   4
BRANCH   1  10
ATOM     10  C   UNL     1     -13.170  13.975 -32.510  1.00  0.00     0.111 C 
BRANCH  10  11
ATOM     11  C   UNL     1     -12.911  13.239 -31.225  1.00  0.00     0.163 C 
ATOM     12  O   UNL     1     -12.685  12.001 -31.257  1.00  0.00    -0.294 OA
BRANCH  11  13
ATOM     13  C   UNL     1     -12.890  13.950 -29.921  1.00  0.00    -0.002 C 
ATOM     14  C   UNL     1     -11.810  14.697 -29.564  1.00  0.00    -0.069 C 
ATOM     15  C   UNL     1     -11.749  15.384 -28.219  1.00  0.00     0.039 C 
ATOM     16  C   UNL     1     -10.650  14.898 -30.512  1.00  0.00     0.039 C 
BRANCH  13  17
ATOM     17  C   UNL     1     -14.095  13.835 -28.993  1.00  0.00     0.066 CG0
ATOM     18  G   UNL     1     -14.832  12.521 -29.112  1.00  0.00     0.000 G0
ENDBRANCH  13  17
ENDBRANCH  11  13
ENDBRANCH  10  11
ENDBRANCH   1  10
TORSDOF 0
ENDMDL
MODEL 6
REMARK VINA RESULT:    -3.543      1.840      4.199
REMARK INTER + INTRA:          -4.624
REMARK INTER:                  -5.322
REMARK INTRA:                   0.698
REMARK UNBOUND:                 0.369
REMARK SMILES CC1=CCC(=C(C)C)C(=O)CC(C)=CCC1
REMARK SMILES IDX 12 1 14 2 13 3 15 4 16 5 2 6 1 7 3 8 11 10 9 11 10 12 5 13
REMARK SMILES IDX 6 14 7 15 8 16 4 17
REMARK H PARENT
REMARK Flexibility Score: 60.00
ROOT
ATOM      1  C   UNL     1     -14.975  13.737 -31.597  1.00  0.00    -0.070 C 
ATOM      2  C   UNL     1     -15.313  12.582 -30.979  1.00  0.00    -0.027 C 
ATOM      3  C   UNL     1     -14.635  13.683 -33.064  1.00  0.00     0.039 C 
ENDROOT
BRANCH   2   4
ATOM      4  C   UNL     1     -15.739  12.461 -29.533  1.00  0.00     0.032 C 
BRANCH   4   5
ATOM      5  C   UNL     1     -14.657  12.987 -28.579  1.00  0.00     0.034 C 
BRANCH   5   6
ATOM      6  C   UNL     1     -13.282  12.382 -28.825  1.00  0.00    -0.077 C 
ATOM      7  C   UNL     1     -13.108  10.890 -28.685  1.00  0.00     0.039 C 
ATOM      8  C   UNL     1     -12.201  13.112 -29.183  1.00  0.00    -0.023 CG0
ATOM      9  G   UNL     1     -12.161  14.617 -29.304  1.00  0.00     0.000 G0
ENDBRANCH   5   6
ENDBRANCH   4   5
ENDBRANCH   2   4
BRANCH   1  10
ATOM     10  C   UNL     1     -14.922  15.073 -30.880  1.00  0.00     0.111 C 
BRANCH  10  11
ATOM     11  C   UNL     1     -13.611  15.767 -31.122  1.00  0.00     0.163 C 
ATOM     12  O   UNL     1     -13.606  16.916 -31.639  1.00  0.00    -0.294 OA
BRANCH  11  13
ATOM     13  C   UNL     1     -12.321  15.136 -30.740  1.00  0.00    -0.002 C 
ATOM     14  C   UNL     1     -11.319  15.017 -31.652  1.00  0.00    -0.069 C 
ATOM     15  C   UNL     1     -10.020  14.331 -31.297  1.00  0.00     0.039 C 
ATOM     16  C   UNL     1     -11.451  15.600 -33.041  1.00  0.00     0.039 C 
BRANCH  13  17
ATOM     17  C   UNL     1     -12.137  14.628 -29.314  1.00  0.00     0.066 CG0
ATOM     18  G   UNL     1     -12.206  13.124 -29.189  1.00  0.00     0.000 G0
ENDBRANCH  13  17
ENDBRANCH  11  13
ENDBRANCH  10  11
ENDBRANCH   1  10
TORSDOF 0
ENDMDL
MODEL 7
REMARK VINA RESULT:    -3.445      2.426      3.999
REMARK INTER + INTRA:          -4.485
REMARK INTER:                  -5.241
REMARK INTRA:                   0.755
REMARK UNBOUND:                 0.369
REMARK SMILES CC1=CCC(=C(C)C)C(=O)CC(C)=CCC1
REMARK SMILES IDX 12 1 14 2 13 3 15 4 16 5 2 6 1 7 3 8 11 10 9 11 10 12 5 13
REMARK SMILES IDX 6 14 7 15 8 16 4 17
REMARK H PARENT
REMARK Flexibility Score: 60.00
ROOT
ATOM      1  C   UNL     1     -14.389  13.557 -29.736  1.00  0.00    -0.070 C 
ATOM      2  C   UNL     1     -13.153  13.346 -29.228  1.00  0.00    -0.027 C 
ATOM      3  C   UNL     1     -15.197  12.356 -30.155  1.00  0.00     0.039 C 
ENDROOT
BRANCH   2   4
ATOM      4  C   UNL     1     -12.231  14.425 -28.703  1.00  0.00     0.032 C 
BRANCH   4   5
ATOM      5  C   UNL     1     -11.221  14.872 -29.769  1.00  0.00     0.034 C 
BRANCH   5   6
ATOM      6  C   UNL     1     -11.015  13.852 -30.879  1.00  0.00    -0.077 C 
ATOM      7  C   UNL     1     -10.185  12.625 -30.594  1.00  0.00     0.039 C 
ATOM      8  C   UNL     1     -11.552  13.975 -32.114  1.00  0.00    -0.023 CG0
ATOM      9  G   UNL     1     -12.349  15.160 -32.608  1.00  0.00     0.000 G0
ENDBRANCH   5   6
ENDBRANCH   4   5
ENDBRANCH   2   4
BRANCH   1  10
ATOM     10  C   UNL     1     -14.989  14.940 -29.901  1.00  0.00     0.111 C 
BRANCH  10  11
ATOM     11  C   UNL     1     -14.234  15.740 -30.926  1.00  0.00     0.163 C 
ATOM     12  O   UNL     1     -13.921  16.933 -30.670  1.00  0.00    -0.294 OA
BRANCH  11  13
ATOM     13  C   UNL     1     -13.829  15.143 -32.225  1.00  0.00    -0.002 C 
ATOM     14  C   UNL     1     -14.763  14.590 -33.046  1.00  0.00    -0.069 C 
ATOM     15  C   UNL     1     -14.363  13.931 -34.347  1.00  0.00     0.039 C 
ATOM     16  C   UNL     1     -16.235  14.649 -32.709  1.00  0.00     0.039 C 
BRANCH  13  17
ATOM     17  C   UNL     1     -12.357  15.161 -32.624  1.00  0.00     0.066 CG0
ATOM     18  G   UNL     1     -11.568  13.986 -32.095  1.00  0.00     0.000 G0
ENDBRANCH  13  17
ENDBRANCH  11  13
ENDBRANCH  10  11
ENDBRANCH   1  10
TORSDOF 0
ENDMDL
MODEL 8
REMARK VINA RESULT:    -3.402      1.757      2.395
REMARK INTER + INTRA:          -4.425
REMARK INTER:                  -5.166
REMARK INTRA:                   0.742
REMARK UNBOUND:                 0.369
REMARK SMILES CC1=CCC(=C(C)C)C(=O)CC(C)=CCC1
REMARK SMILES IDX 12 1 14 2 13 3 15 4 16 5 2 6 1 7 3 8 11 10 9 11 10 12 5 13
REMARK SMILES IDX 6 14 7 15 8 16 4 17
REMARK H PARENT
REMARK Flexibility Score: 60.00
ROOT
ATOM      1  C   UNL     1     -12.621  16.010 -31.121  1.00  0.00    -0.070 C 
ATOM      2  C   UNL     1     -11.869  15.502 -30.118  1.00  0.00    -0.027 C 
ATOM      3  C   UNL     1     -13.621  17.086 -30.782  1.00  0.00     0.039 C 
ENDROOT
BRANCH   2   4
ATOM      4  C   UNL     1     -10.780  14.466 -30.285  1.00  0.00     0.032 C 
BRANCH   4   5
ATOM      5  C   UNL     1     -11.135  13.153 -29.570  1.00  0.00     0.034 C 
BRANCH   5   6
ATOM      6  C   UNL     1     -12.491  13.183 -28.879  1.00  0.00    -0.077 C 
ATOM      7  C   UNL     1     -12.556  13.572 -27.423  1.00  0.00     0.039 C 
ATOM      8  C   UNL     1     -13.653  12.895 -29.507  1.00  0.00    -0.023 CG0
ATOM      9  G   UNL     1     -13.782  12.420 -30.936  1.00  0.00     0.000 G0
ENDBRANCH   5   6
ENDBRANCH   4   5
ENDBRANCH   2   4
BRANCH   1  10
ATOM     10  C   UNL     1     -12.500  15.547 -32.560  1.00  0.00     0.111 C 
BRANCH  10  11
ATOM     11  C   UNL     1     -12.900  14.104 -32.701  1.00  0.00     0.163 C 
ATOM     12  O   UNL     1     -12.238  13.351 -33.463  1.00  0.00    -0.294 OA
BRANCH  11  13
ATOM     13  C   UNL     1     -14.044  13.543 -31.937  1.00  0.00    -0.002 C 
ATOM     14  C   UNL     1     -15.301  14.027 -32.132  1.00  0.00    -0.069 C 
ATOM     15  C   UNL     1     -16.470  13.505 -31.328  1.00  0.00     0.039 C 
ATOM     16  C   UNL     1     -15.583  15.073 -33.186  1.00  0.00     0.039 C 
BRANCH  13  17
ATOM     17  C   UNL     1     -13.791  12.420 -30.938  1.00  0.00     0.066 CG0
ATOM     18  G   UNL     1     -13.677  12.891 -29.507  1.00  0.00     0.000 G0
ENDBRANCH  13  17
ENDBRANCH  11  13
ENDBRANCH  10  11
ENDBRANCH   1  10
TORSDOF 0
ENDMDL
MODEL 9
REMARK VINA RESULT:    -3.360      1.786      3.590
REMARK INTER + INTRA:          -4.366
REMARK INTER:                  -5.445
REMARK INTRA:                   1.080
REMARK UNBOUND:                 0.369
REMARK SMILES CC1=CCC(=C(C)C)C(=O)CC(C)=CCC1
REMARK SMILES IDX 12 1 14 2 13 3 15 4 16 5 2 6 1 7 3 8 11 10 9 11 10 12 5 13
REMARK SMILES IDX 6 14 7 15 8 16 4 17
REMARK H PARENT
REMARK Flexibility Score: 60.00
ROOT
ATOM      1  C   UNL     1     -12.163  13.719 -28.696  1.00  0.00    -0.070 C 
ATOM      2  C   UNL     1     -11.686  14.930 -29.068  1.00  0.00    -0.027 C 
ATOM      3  C   UNL     1     -12.376  13.463 -27.226  1.00  0.00     0.039 C 
ENDROOT
BRANCH   2   4
ATOM      4  C   UNL     1     -11.470  15.379 -30.496  1.00  0.00     0.032 C 
BRANCH   4   5
ATOM      5  C   UNL     1     -12.546  14.815 -31.435  1.00  0.00     0.034 C 
BRANCH   5   6
ATOM      6  C   UNL     1     -13.888  15.524 -31.320  1.00  0.00    -0.077 C 
ATOM      7  C   UNL     1     -13.915  17.032 -31.317  1.00  0.00     0.039 C 
ATOM      8  C   UNL     1     -15.070  14.873 -31.236  1.00  0.00    -0.023 CG0
ATOM      9  G   UNL     1     -15.240  13.374 -31.154  1.00  0.00     0.000 G0
ENDBRANCH   5   6
ENDBRANCH   4   5
ENDBRANCH   2   4
BRANCH   1  10
ATOM     10  C   UNL     1     -12.488  12.619 -29.688  1.00  0.00     0.111 C 
BRANCH  10  11
ATOM     11  C   UNL     1     -13.849  12.037 -29.427  1.00  0.00     0.163 C 
ATOM     12  O   UNL     1     -13.942  10.897 -28.898  1.00  0.00    -0.294 OA
BRANCH  11  13
ATOM     13  C   UNL     1     -15.086  12.791 -29.756  1.00  0.00    -0.002 C 
ATOM     14  C   UNL     1     -16.054  12.964 -28.816  1.00  0.00    -0.069 C 
ATOM     15  C   UNL     1     -17.342  13.682 -29.147  1.00  0.00     0.039 C 
ATOM     16  C   UNL     1     -15.863  12.478 -27.397  1.00  0.00     0.039 C 
BRANCH  13  17
ATOM     17  C   UNL     1     -15.252  13.370 -31.157  1.00  0.00     0.066 CG0
ATOM     18  G   UNL     1     -15.066  14.869 -31.222  1.00  0.00     0.000 G0
ENDBRANCH  13  17
ENDBRANCH  11  13
ENDBRANCH  10  11
ENDBRANCH   1  10
TORSDOF 0
ENDMDL
