MODEL 1
REMARK VINA RESULT:    -3.525      0.000      0.000
REMARK INTER + INTRA:          -3.628
REMARK INTER:                  -3.628
REMARK INTRA:                   0.000
REMARK UNBOUND:                 0.000
REMARK SMILES Oc1ccc2[nH]ccc2c1
REMARK SMILES IDX 3 1 4 2 5 3 9 4 8 5 7 6 6 7 10 8 2 9 1 11
REMARK H PARENT 6 10 1 12
REMARK Flexibility Score: inf
ROOT
ATOM      1  C   UNL     1       7.963   7.892  -1.837  1.00  0.00     0.048 A 
ATOM      2  C   UNL     1       7.196   8.986  -1.396  1.00  0.00     0.030 A 
ATOM      3  C   UNL     1       5.925   9.153  -1.941  1.00  0.00     0.046 A 
ATOM      4  C   UNL     1       5.425   8.287  -2.878  1.00  0.00     0.003 A 
ATOM      5  C   UNL     1       4.161   8.725  -3.210  1.00  0.00     0.028 A 
ATOM      6  C   UNL     1       3.956   9.863  -2.437  1.00  0.00     0.083 A 
ATOM      7  N   UNL     1       5.037  10.120  -1.664  1.00  0.00    -0.361 N 
ATOM      8  C   UNL     1       6.157   7.194  -3.336  1.00  0.00     0.056 A 
ATOM      9  C   UNL     1       7.450   6.997  -2.804  1.00  0.00     0.116 A 
ATOM     10  H   UNL     1       5.152  10.910  -0.990  1.00  0.00     0.166 HD
ENDROOT
BRANCH   9  11
ATOM     11  O   UNL     1       8.229   5.921  -3.223  1.00  0.00    -0.508 OA
ATOM     12  H   UNL     1       9.127   6.061  -3.671  1.00  0.00     0.293 HD
ENDBRANCH   9  11
TORSDOF 1
ENDMDL
MODEL 2
REMARK VINA RESULT:    -3.461      2.767      3.970
REMARK INTER + INTRA:          -3.562
REMARK INTER:                  -3.562
REMARK INTRA:                   0.000
REMARK UNBOUND:                 0.000
REMARK SMILES Oc1ccc2[nH]ccc2c1
REMARK SMILES IDX 3 1 4 2 5 3 9 4 8 5 7 6 6 7 10 8 2 9 1 11
REMARK H PARENT 6 10 1 12
REMARK Flexibility Score: inf
ROOT
ATOM      1  C   UNL     1       4.450   7.842  -3.445  1.00  0.00     0.048 A 
ATOM      2  C   UNL     1       5.481   7.250  -2.694  1.00  0.00     0.030 A 
ATOM      3  C   UNL     1       6.791   7.417  -3.140  1.00  0.00     0.046 A 
ATOM      4  C   UNL     1       7.079   8.131  -4.272  1.00  0.00     0.003 A 
ATOM      5  C   UNL     1       8.447   8.107  -4.437  1.00  0.00     0.028 A 
ATOM      6  C   UNL     1       8.929   7.359  -3.367  1.00  0.00     0.083 A 
ATOM      7  N   UNL     1       7.912   6.939  -2.578  1.00  0.00    -0.361 N 
ATOM      8  C   UNL     1       6.083   8.730  -5.039  1.00  0.00     0.056 A 
ATOM      9  C   UNL     1       4.745   8.580  -4.614  1.00  0.00     0.116 A 
ATOM     10  H   UNL     1       7.990   6.363  -1.711  1.00  0.00     0.166 HD
ENDROOT
BRANCH   9  11
ATOM     11  O   UNL     1       3.705   9.158  -5.341  1.00  0.00    -0.508 OA
ATOM     12  H   UNL     1       2.990   8.591  -5.782  1.00  0.00     0.293 HD
ENDBRANCH   9  11
TORSDOF 1
ENDMDL
MODEL 3
REMARK VINA RESULT:    -3.412     22.153     22.388
REMARK INTER + INTRA:          -3.511
REMARK INTER:                  -3.511
REMARK INTRA:                   0.000
REMARK UNBOUND:                 0.000
REMARK SMILES Oc1ccc2[nH]ccc2c1
REMARK SMILES IDX 3 1 4 2 5 3 9 4 8 5 7 6 6 7 10 8 2 9 1 11
REMARK H PARENT 6 10 1 12
REMARK Flexibility Score: inf
ROOT
ATOM      1  C   UNL     1      -4.745  -8.058   7.470  1.00  0.00     0.048 A 
ATOM      2  C   UNL     1      -3.849  -8.965   6.875  1.00  0.00     0.030 A 
ATOM      3  C   UNL     1      -2.661  -9.244   7.549  1.00  0.00     0.046 A 
ATOM      4  C   UNL     1      -2.363  -8.661   8.752  1.00  0.00     0.003 A 
ATOM      5  C   UNL     1      -1.133  -9.139   9.148  1.00  0.00     0.028 A 
ATOM      6  C   UNL     1      -0.740 -10.010   8.137  1.00  0.00     0.083 A 
ATOM      7  N   UNL     1      -1.677 -10.070   7.163  1.00  0.00    -0.361 N 
ATOM      8  C   UNL     1      -3.228  -7.760   9.368  1.00  0.00     0.056 A 
ATOM      9  C   UNL     1      -4.440  -7.455   8.711  1.00  0.00     0.116 A 
ATOM     10  H   UNL     1      -1.638 -10.644   6.291  1.00  0.00     0.166 HD
ENDROOT
BRANCH   9  11
ATOM     11  O   UNL     1      -5.345  -6.561   9.280  1.00  0.00    -0.508 OA
ATOM     12  H   UNL     1      -6.110  -6.169   8.742  1.00  0.00     0.293 HD
ENDBRANCH   9  11
TORSDOF 1
ENDMDL
MODEL 4
REMARK VINA RESULT:    -3.388     21.846     22.122
REMARK INTER + INTRA:          -3.488
REMARK INTER:                  -3.488
REMARK INTRA:                   0.000
REMARK UNBOUND:                 0.000
REMARK SMILES Oc1ccc2[nH]ccc2c1
REMARK SMILES IDX 3 1 4 2 5 3 9 4 8 5 7 6 6 7 10 8 2 9 1 11
REMARK H PARENT 6 10 1 12
REMARK Flexibility Score: inf
ROOT
ATOM      1  C   UNL     1      -4.287  -7.496   8.140  1.00  0.00     0.048 A 
ATOM      2  C   UNL     1      -3.272  -7.648   9.101  1.00  0.00     0.030 A 
ATOM      3  C   UNL     1      -2.242  -8.545   8.824  1.00  0.00     0.046 A 
ATOM      4  C   UNL     1      -2.207  -9.261   7.658  1.00  0.00     0.003 A 
ATOM      5  C   UNL     1      -1.075 -10.047   7.691  1.00  0.00     0.028 A 
ATOM      6  C   UNL     1      -0.468  -9.757   8.908  1.00  0.00     0.083 A 
ATOM      7  N   UNL     1      -1.185  -8.839   9.597  1.00  0.00    -0.361 N 
ATOM      8  C   UNL     1      -3.196  -9.134   6.685  1.00  0.00     0.056 A 
ATOM      9  C   UNL     1      -4.254  -8.234   6.935  1.00  0.00     0.116 A 
ATOM     10  H   UNL     1      -0.958  -8.443  10.536  1.00  0.00     0.166 HD
ENDROOT
BRANCH   9  11
ATOM     11  O   UNL     1      -5.272  -8.065   5.999  1.00  0.00    -0.508 OA
ATOM     12  H   UNL     1      -5.297  -7.258   5.385  1.00  0.00     0.293 HD
ENDBRANCH   9  11
TORSDOF 1
ENDMDL
MODEL 5
REMARK VINA RESULT:    -3.381      2.779      4.067
REMARK INTER + INTRA:          -3.480
REMARK INTER:                  -3.480
REMARK INTRA:                   0.000
REMARK UNBOUND:                 0.000
REMARK SMILES Oc1ccc2[nH]ccc2c1
REMARK SMILES IDX 3 1 4 2 5 3 9 4 8 5 7 6 6 7 10 8 2 9 1 11
REMARK H PARENT 6 10 1 12
REMARK Flexibility Score: inf
ROOT
ATOM      1  C   UNL     1       4.703   8.972  -5.232  1.00  0.00     0.048 A 
ATOM      2  C   UNL     1       6.097   8.981  -5.422  1.00  0.00     0.030 A 
ATOM      3  C   UNL     1       6.885   8.305  -4.492  1.00  0.00     0.046 A 
ATOM      4  C   UNL     1       6.334   7.649  -3.424  1.00  0.00     0.003 A 
ATOM      5  C   UNL     1       7.368   7.091  -2.704  1.00  0.00     0.028 A 
ATOM      6  C   UNL     1       8.523   7.448  -3.393  1.00  0.00     0.083 A 
ATOM      7  N   UNL     1       8.222   8.190  -4.485  1.00  0.00    -0.361 N 
ATOM      8  C   UNL     1       4.958   7.620  -3.207  1.00  0.00     0.056 A 
ATOM      9  C   UNL     1       4.131   8.296  -4.130  1.00  0.00     0.116 A 
ATOM     10  H   UNL     1       8.895   8.588  -5.176  1.00  0.00     0.166 HD
ENDROOT
BRANCH   9  11
ATOM     11  O   UNL     1       2.747   8.301  -3.965  1.00  0.00    -0.508 OA
ATOM     12  H   UNL     1       2.188   9.107  -4.221  1.00  0.00     0.293 HD
ENDBRANCH   9  11
TORSDOF 1
ENDMDL
MODEL 6
REMARK VINA RESULT:    -3.368      2.358      2.942
REMARK INTER + INTRA:          -3.466
REMARK INTER:                  -3.466
REMARK INTRA:                   0.000
REMARK UNBOUND:                 0.000
REMARK SMILES Oc1ccc2[nH]ccc2c1
REMARK SMILES IDX 3 1 4 2 5 3 9 4 8 5 7 6 6 7 10 8 2 9 1 11
REMARK H PARENT 6 10 1 12
REMARK Flexibility Score: inf
ROOT
ATOM      1  C   UNL     1       5.534   7.268  -2.664  1.00  0.00     0.048 A 
ATOM      2  C   UNL     1       4.545   7.857  -3.474  1.00  0.00     0.030 A 
ATOM      3  C   UNL     1       4.958   8.512  -4.632  1.00  0.00     0.046 A 
ATOM      4  C   UNL     1       6.279   8.588  -4.984  1.00  0.00     0.003 A 
ATOM      5  C   UNL     1       6.351   9.293  -6.166  1.00  0.00     0.028 A 
ATOM      6  C   UNL     1       5.034   9.615  -6.477  1.00  0.00     0.083 A 
ATOM      7  N   UNL     1       4.187   9.136  -5.536  1.00  0.00    -0.361 N 
ATOM      8  C   UNL     1       7.283   8.016  -4.205  1.00  0.00     0.056 A 
ATOM      9  C   UNL     1       6.899   7.345  -3.025  1.00  0.00     0.116 A 
ATOM     10  H   UNL     1       3.147   9.233  -5.522  1.00  0.00     0.166 HD
ENDROOT
BRANCH   9  11
ATOM     11  O   UNL     1       7.858   6.753  -2.206  1.00  0.00    -0.508 OA
ATOM     12  H   UNL     1       8.185   7.207  -1.361  1.00  0.00     0.293 HD
ENDBRANCH   9  11
TORSDOF 1
ENDMDL
MODEL 7
REMARK VINA RESULT:    -3.333     21.831     22.126
REMARK INTER + INTRA:          -3.430
REMARK INTER:                  -3.430
REMARK INTRA:                   0.000
REMARK UNBOUND:                 0.000
REMARK SMILES Oc1ccc2[nH]ccc2c1
REMARK SMILES IDX 3 1 4 2 5 3 9 4 8 5 7 6 6 7 10 8 2 9 1 11
REMARK H PARENT 6 10 1 12
REMARK Flexibility Score: inf
ROOT
ATOM      1  C   UNL     1      -3.455  -9.663   6.571  1.00  0.00     0.048 A 
ATOM      2  C   UNL     1      -2.307  -9.744   7.381  1.00  0.00     0.030 A 
ATOM      3  C   UNL     1      -2.182  -8.830   8.426  1.00  0.00     0.046 A 
ATOM      4  C   UNL     1      -3.137  -7.879   8.668  1.00  0.00     0.003 A 
ATOM      5  C   UNL     1      -2.719  -7.143   9.755  1.00  0.00     0.028 A 
ATOM      6  C   UNL     1      -1.500  -7.702  10.125  1.00  0.00     0.083 A 
ATOM      7  N   UNL     1      -1.176  -8.732   9.309  1.00  0.00    -0.361 N 
ATOM      8  C   UNL     1      -4.284  -7.772   7.886  1.00  0.00     0.056 A 
ATOM      9  C   UNL     1      -4.442  -8.682   6.819  1.00  0.00     0.116 A 
ATOM     10  H   UNL     1      -0.319  -9.327   9.361  1.00  0.00     0.166 HD
ENDROOT
BRANCH   9  11
ATOM     11  O   UNL     1      -5.570  -8.624   6.002  1.00  0.00    -0.508 OA
ATOM     12  H   UNL     1      -6.402  -8.120   6.286  1.00  0.00     0.293 HD
ENDBRANCH   9  11
TORSDOF 1
ENDMDL
MODEL 8
REMARK VINA RESULT:    -3.248      1.955      2.299
REMARK INTER + INTRA:          -3.343
REMARK INTER:                  -3.343
REMARK INTRA:                   0.000
REMARK UNBOUND:                 0.000
REMARK SMILES Oc1ccc2[nH]ccc2c1
REMARK SMILES IDX 3 1 4 2 5 3 9 4 8 5 7 6 6 7 10 8 2 9 1 11
REMARK H PARENT 6 10 1 12
REMARK Flexibility Score: inf
ROOT
ATOM      1  C   UNL     1       8.623   7.664  -4.017  1.00  0.00     0.048 A 
ATOM      2  C   UNL     1       7.954   8.556  -4.875  1.00  0.00     0.030 A 
ATOM      3  C   UNL     1       6.571   8.673  -4.745  1.00  0.00     0.046 A 
ATOM      4  C   UNL     1       5.873   7.949  -3.815  1.00  0.00     0.003 A 
ATOM      5  C   UNL     1       4.544   8.289  -3.941  1.00  0.00     0.028 A 
ATOM      6  C   UNL     1       4.505   9.227  -4.968  1.00  0.00     0.083 A 
ATOM      7  N   UNL     1       5.747   9.458  -5.456  1.00  0.00    -0.361 N 
ATOM      8  C   UNL     1       6.505   7.058  -2.951  1.00  0.00     0.056 A 
ATOM      9  C   UNL     1       7.905   6.915  -3.057  1.00  0.00     0.116 A 
ATOM     10  H   UNL     1       6.005  10.113  -6.226  1.00  0.00     0.166 HD
ENDROOT
BRANCH   9  11
ATOM     11  O   UNL     1       8.591   6.039  -2.219  1.00  0.00    -0.508 OA
ATOM     12  H   UNL     1       8.419   5.040  -2.243  1.00  0.00     0.293 HD
ENDBRANCH   9  11
TORSDOF 1
ENDMDL
MODEL 9
REMARK VINA RESULT:    -3.217     22.217     22.349
REMARK INTER + INTRA:          -3.312
REMARK INTER:                  -3.312
REMARK INTRA:                   0.000
REMARK UNBOUND:                 0.000
REMARK SMILES Oc1ccc2[nH]ccc2c1
REMARK SMILES IDX 3 1 4 2 5 3 9 4 8 5 7 6 6 7 10 8 2 9 1 11
REMARK H PARENT 6 10 1 12
REMARK Flexibility Score: inf
ROOT
ATOM      1  C   UNL     1      -3.460  -7.236  10.085  1.00  0.00     0.048 A 
ATOM      2  C   UNL     1      -2.331  -8.040   9.844  1.00  0.00     0.030 A 
ATOM      3  C   UNL     1      -2.308  -8.796   8.673  1.00  0.00     0.046 A 
ATOM      4  C   UNL     1      -3.344  -8.766   7.778  1.00  0.00     0.003 A 
ATOM      5  C   UNL     1      -3.017  -9.613   6.741  1.00  0.00     0.028 A 
ATOM      6  C   UNL     1      -1.766 -10.125   7.072  1.00  0.00     0.083 A 
ATOM      7  N   UNL     1      -1.338  -9.622   8.254  1.00  0.00    -0.361 N 
ATOM      8  C   UNL     1      -4.476  -7.981   7.986  1.00  0.00     0.056 A 
ATOM      9  C   UNL     1      -4.531  -7.204   9.163  1.00  0.00     0.116 A 
ATOM     10  H   UNL     1      -0.436  -9.836   8.735  1.00  0.00     0.166 HD
ENDROOT
BRANCH   9  11
ATOM     11  O   UNL     1      -5.638  -6.399   9.425  1.00  0.00    -0.508 OA
ATOM     12  H   UNL     1      -6.207  -6.023   8.676  1.00  0.00     0.293 HD
ENDBRANCH   9  11
TORSDOF 1
ENDMDL
