MODEL 1
REMARK VINA RESULT:    -4.745      0.000      0.000
REMARK INTER + INTRA:          -6.758
REMARK INTER:                  -7.242
REMARK INTRA:                   0.484
REMARK UNBOUND:                 0.484
REMARK SMILES CC1=CCC[C@@H](C)C(=O)C[C@H](C(C)C)C(=O)C1
REMARK SMILES IDX 8 1 9 2 6 3 7 4 5 5 4 6 3 7 2 8 1 9 10 11 11 12 15 13 16 14
REMARK SMILES IDX 17 15 12 17 13 18 14 19
REMARK H PARENT
REMARK Flexibility Score: 70.00
ROOT
ATOM      1  C   UNL     1       4.040  12.915  32.155  1.00  0.00     0.136 C 
ATOM      2  O   UNL     1       4.522  11.949  32.729  1.00  0.00    -0.299 OA
ENDROOT
BRANCH   1   3
ATOM      3  C   UNL     1       4.933  14.062  31.740  1.00  0.00     0.053 C 
ATOM      4  C   UNL     1       4.875  15.207  32.758  1.00  0.00     0.016 C 
BRANCH   3   5
ATOM      5  C   UNL     1       4.515  14.538  30.327  1.00  0.00     0.015 C 
BRANCH   5   6
ATOM      6  C   UNL     1       5.316  13.944  29.151  1.00  0.00     0.028 C 
BRANCH   6   7
ATOM      7  C   UNL     1       4.523  13.366  27.997  1.00  0.00    -0.028 C 
ATOM      8  C   UNL     1       3.825  12.205  27.991  1.00  0.00    -0.070 CG0
ATOM      9  C   UNL     1       3.010  11.887  26.760  1.00  0.00     0.039 C 
ATOM     10  G   UNL     1       3.877  11.170  29.100  1.00  0.00     0.000 G0
ENDBRANCH   6   7
ENDBRANCH   5   6
ENDBRANCH   3   5
ENDBRANCH   1   3
BRANCH   1  11
ATOM     11  C   UNL     1       2.544  12.973  31.939  1.00  0.00     0.087 C 
BRANCH  11  12
ATOM     12  C   UNL     1       2.142  12.655  30.469  1.00  0.00     0.066 C 
BRANCH  12  13
ATOM     13  C   UNL     1       2.686  11.302  30.031  1.00  0.00     0.140 C 
ATOM     14  O   UNL     1       2.129  10.283  30.414  1.00  0.00    -0.299 OA
BRANCH  13  15
ATOM     15  C   UNL     1       3.881  11.173  29.107  1.00  0.00     0.106 CG0
ATOM     16  G   UNL     1       3.825  12.214  28.003  1.00  0.00     0.000 G0
ENDBRANCH  13  15
ENDBRANCH  12  13
BRANCH  12  17
ATOM     17  C   UNL     1       0.601  12.731  30.214  1.00  0.00    -0.006 C 
ATOM     18  C   UNL     1      -0.239  12.923  31.491  1.00  0.00     0.008 C 
ATOM     19  C   UNL     1       0.250  13.820  29.187  1.00  0.00     0.008 C 
ENDBRANCH  12  17
ENDBRANCH  11  12
ENDBRANCH   1  11
TORSDOF 1
ENDMDL
MODEL 2
REMARK VINA RESULT:    -4.552      1.612      4.032
REMARK INTER + INTRA:          -6.463
REMARK INTER:                  -6.645
REMARK INTRA:                   0.182
REMARK UNBOUND:                 0.484
REMARK SMILES CC1=CCC[C@@H](C)C(=O)C[C@H](C(C)C)C(=O)C1
REMARK SMILES IDX 8 1 9 2 6 3 7 4 5 5 4 6 3 7 2 8 1 9 10 11 11 12 15 13 16 14
REMARK SMILES IDX 17 15 12 17 13 18 14 19
REMARK H PARENT
REMARK Flexibility Score: 70.00
ROOT
ATOM      1  C   UNL     1       1.825  13.357  31.738  1.00  0.00     0.136 C 
ATOM      2  O   UNL     1       2.217  12.215  31.931  1.00  0.00    -0.299 OA
ENDROOT
BRANCH   1   3
ATOM      3  C   UNL     1       0.402  13.594  31.286  1.00  0.00     0.053 C 
ATOM      4  C   UNL     1      -0.540  12.513  31.828  1.00  0.00     0.016 C 
BRANCH   3   5
ATOM      5  C   UNL     1       0.369  13.652  29.738  1.00  0.00     0.015 C 
BRANCH   5   6
ATOM      6  C   UNL     1       1.429  12.804  29.009  1.00  0.00     0.028 C 
BRANCH   6   7
ATOM      7  C   UNL     1       2.379  13.534  28.082  1.00  0.00    -0.028 C 
ATOM      8  C   UNL     1       3.730  13.582  28.175  1.00  0.00    -0.070 CG0
ATOM      9  C   UNL     1       4.482  14.277  27.065  1.00  0.00     0.039 C 
ATOM     10  G   UNL     1       4.525  13.059  29.357  1.00  0.00     0.000 G0
ENDBRANCH   6   7
ENDBRANCH   5   6
ENDBRANCH   3   5
ENDBRANCH   1   3
BRANCH   1  11
ATOM     11  C   UNL     1       2.798  14.506  31.884  1.00  0.00     0.087 C 
BRANCH  11  12
ATOM     12  C   UNL     1       4.283  14.042  31.810  1.00  0.00     0.066 C 
BRANCH  12  13
ATOM     13  C   UNL     1       4.813  14.127  30.385  1.00  0.00     0.140 C 
ATOM     14  O   UNL     1       5.497  15.087  30.060  1.00  0.00    -0.299 OA
BRANCH  13  15
ATOM     15  C   UNL     1       4.550  13.042  29.359  1.00  0.00     0.106 CG0
ATOM     16  G   UNL     1       3.727  13.580  28.202  1.00  0.00     0.000 G0
ENDBRANCH  13  15
ENDBRANCH  12  13
BRANCH  12  17
ATOM     17  C   UNL     1       5.226  14.812  32.790  1.00  0.00    -0.006 C 
ATOM     18  C   UNL     1       4.666  16.163  33.271  1.00  0.00     0.008 C 
ATOM     19  C   UNL     1       5.615  13.946  34.000  1.00  0.00     0.008 C 
ENDBRANCH  12  17
ENDBRANCH  11  12
ENDBRANCH   1  11
TORSDOF 1
ENDMDL
MODEL 3
REMARK VINA RESULT:    -4.537      2.078      4.195
REMARK INTER + INTRA:          -6.441
REMARK INTER:                  -6.830
REMARK INTRA:                   0.389
REMARK UNBOUND:                 0.484
REMARK SMILES CC1=CCC[C@@H](C)C(=O)C[C@H](C(C)C)C(=O)C1
REMARK SMILES IDX 8 1 9 2 6 3 7 4 5 5 4 6 3 7 2 8 1 9 10 11 11 12 15 13 16 14
REMARK SMILES IDX 17 15 12 17 13 18 14 19
REMARK H PARENT
REMARK Flexibility Score: 70.00
ROOT
ATOM      1  C   UNL     1       4.289  11.457  30.383  1.00  0.00     0.136 C 
ATOM      2  O   UNL     1       4.281  10.453  29.686  1.00  0.00    -0.299 OA
ENDROOT
BRANCH   1   3
ATOM      3  C   UNL     1       3.705  11.406  31.777  1.00  0.00     0.053 C 
ATOM      4  C   UNL     1       4.186  10.163  32.535  1.00  0.00     0.016 C 
BRANCH   3   5
ATOM      5  C   UNL     1       2.160  11.448  31.677  1.00  0.00     0.015 C 
BRANCH   5   6
ATOM      6  C   UNL     1       1.512  12.838  31.830  1.00  0.00     0.028 C 
BRANCH   6   7
ATOM      7  C   UNL     1       0.404  13.194  30.860  1.00  0.00    -0.028 C 
ATOM      8  C   UNL     1       0.549  13.681  29.603  1.00  0.00    -0.070 CG0
ATOM      9  C   UNL     1      -0.701  13.852  28.773  1.00  0.00     0.039 C 
ATOM     10  G   UNL     1       1.868  14.142  29.012  1.00  0.00     0.000 G0
ENDBRANCH   6   7
ENDBRANCH   5   6
ENDBRANCH   3   5
ENDBRANCH   1   3
BRANCH   1  11
ATOM     11  C   UNL     1       4.817  12.752  29.806  1.00  0.00     0.087 C 
BRANCH  11  12
ATOM     12  C   UNL     1       4.206  13.075  28.411  1.00  0.00     0.066 C 
BRANCH  12  13
ATOM     13  C   UNL     1       2.685  13.014  28.450  1.00  0.00     0.140 C 
ATOM     14  O   UNL     1       2.119  12.002  28.065  1.00  0.00    -0.299 OA
BRANCH  13  15
ATOM     15  C   UNL     1       1.845  14.159  28.983  1.00  0.00     0.106 CG0
ATOM     16  G   UNL     1       0.553  13.643  29.590  1.00  0.00     0.000 G0
ENDBRANCH  13  15
ENDBRANCH  12  13
BRANCH  12  17
ATOM     17  C   UNL     1       4.683  14.444  27.824  1.00  0.00    -0.006 C 
ATOM     18  C   UNL     1       6.124  14.826  28.209  1.00  0.00     0.008 C 
ATOM     19  C   UNL     1       4.518  14.493  26.296  1.00  0.00     0.008 C 
ENDBRANCH  12  17
ENDBRANCH  11  12
ENDBRANCH   1  11
TORSDOF 1
ENDMDL
MODEL 4
REMARK VINA RESULT:    -4.501      2.039      4.627
REMARK INTER + INTRA:          -6.385
REMARK INTER:                  -6.152
REMARK INTRA:                  -0.233
REMARK UNBOUND:                 0.484
REMARK SMILES CC1=CCC[C@@H](C)C(=O)C[C@H](C(C)C)C(=O)C1
REMARK SMILES IDX 8 1 9 2 6 3 7 4 5 5 4 6 3 7 2 8 1 9 10 11 11 12 15 13 16 14
REMARK SMILES IDX 17 15 12 17 13 18 14 19
REMARK H PARENT
REMARK Flexibility Score: 70.00
ROOT
ATOM      1  C   UNL     1       4.532  13.690  28.301  1.00  0.00     0.136 C 
ATOM      2  O   UNL     1       5.139  14.553  27.681  1.00  0.00    -0.299 OA
ENDROOT
BRANCH   1   3
ATOM      3  C   UNL     1       3.238  13.141  27.746  1.00  0.00     0.053 C 
ATOM      4  C   UNL     1       3.373  12.802  26.256  1.00  0.00     0.016 C 
BRANCH   3   5
ATOM      5  C   UNL     1       2.107  14.170  27.994  1.00  0.00     0.015 C 
BRANCH   5   6
ATOM      6  C   UNL     1       0.931  13.682  28.862  1.00  0.00     0.028 C 
BRANCH   6   7
ATOM      7  C   UNL     1       1.101  12.354  29.571  1.00  0.00    -0.028 C 
ATOM      8  C   UNL     1       1.520  12.160  30.845  1.00  0.00    -0.070 CG0
ATOM      9  C   UNL     1       1.500  10.747  31.378  1.00  0.00     0.039 C 
ATOM     10  G   UNL     1       2.085  13.252  31.735  1.00  0.00     0.000 G0
ENDBRANCH   6   7
ENDBRANCH   5   6
ENDBRANCH   3   5
ENDBRANCH   1   3
BRANCH   1  11
ATOM     11  C   UNL     1       5.054  13.245  29.649  1.00  0.00     0.087 C 
BRANCH  11  12
ATOM     12  C   UNL     1       4.458  14.077  30.822  1.00  0.00     0.066 C 
BRANCH  12  13
ATOM     13  C   UNL     1       3.618  13.203  31.744  1.00  0.00     0.140 C 
ATOM     14  O   UNL     1       4.179  12.458  32.534  1.00  0.00    -0.299 OA
BRANCH  13  15
ATOM     15  C   UNL     1       2.102  13.248  31.739  1.00  0.00     0.106 CG0
ATOM     16  G   UNL     1       1.533  12.159  30.847  1.00  0.00     0.000 G0
ENDBRANCH  13  15
ENDBRANCH  12  13
BRANCH  12  17
ATOM     17  C   UNL     1       5.536  14.857  31.644  1.00  0.00    -0.006 C 
ATOM     18  C   UNL     1       6.383  15.832  30.805  1.00  0.00     0.008 C 
ATOM     19  C   UNL     1       4.911  15.600  32.837  1.00  0.00     0.008 C 
ENDBRANCH  12  17
ENDBRANCH  11  12
ENDBRANCH   1  11
TORSDOF 1
ENDMDL
MODEL 5
REMARK VINA RESULT:    -4.493      1.733      3.468
REMARK INTER + INTRA:          -6.373
REMARK INTER:                  -7.027
REMARK INTRA:                   0.654
REMARK UNBOUND:                 0.484
REMARK SMILES CC1=CCC[C@@H](C)C(=O)C[C@H](C(C)C)C(=O)C1
REMARK SMILES IDX 8 1 9 2 6 3 7 4 5 5 4 6 3 7 2 8 1 9 10 11 11 12 15 13 16 14
REMARK SMILES IDX 17 15 12 17 13 18 14 19
REMARK H PARENT
REMARK Flexibility Score: 70.00
ROOT
ATOM      1  C   UNL     1       1.909  12.005  31.674  1.00  0.00     0.136 C 
ATOM      2  O   UNL     1       0.735  11.869  31.357  1.00  0.00    -0.299 OA
ENDROOT
BRANCH   1   3
ATOM      3  C   UNL     1       2.743  10.786  31.997  1.00  0.00     0.053 C 
ATOM      4  C   UNL     1       4.134  11.184  32.504  1.00  0.00     0.016 C 
BRANCH   3   5
ATOM      5  C   UNL     1       2.833   9.890  30.737  1.00  0.00     0.015 C 
BRANCH   5   6
ATOM      6  C   UNL     1       3.909  10.282  29.707  1.00  0.00     0.028 C 
BRANCH   6   7
ATOM      7  C   UNL     1       3.429  10.698  28.331  1.00  0.00    -0.028 C 
ATOM      8  C   UNL     1       3.660  11.881  27.711  1.00  0.00    -0.070 CG0
ATOM      9  C   UNL     1       3.179  12.028  26.288  1.00  0.00     0.039 C 
ATOM     10  G   UNL     1       4.293  13.087  28.380  1.00  0.00     0.000 G0
ENDBRANCH   6   7
ENDBRANCH   5   6
ENDBRANCH   3   5
ENDBRANCH   1   3
BRANCH   1  11
ATOM     11  C   UNL     1       2.481  13.399  31.807  1.00  0.00     0.087 C 
BRANCH  11  12
ATOM     12  C   UNL     1       3.746  13.610  30.924  1.00  0.00     0.066 C 
BRANCH  12  13
ATOM     13  C   UNL     1       3.382  13.661  29.447  1.00  0.00     0.140 C 
ATOM     14  O   UNL     1       2.333  14.190  29.109  1.00  0.00    -0.299 OA
BRANCH  13  15
ATOM     15  C   UNL     1       4.295  13.106  28.371  1.00  0.00     0.106 CG0
ATOM     16  G   UNL     1       3.672  11.890  27.708  1.00  0.00     0.000 G0
ENDBRANCH  13  15
ENDBRANCH  12  13
BRANCH  12  17
ATOM     17  C   UNL     1       4.580  14.871  31.324  1.00  0.00    -0.006 C 
ATOM     18  C   UNL     1       5.019  14.893  32.800  1.00  0.00     0.008 C 
ATOM     19  C   UNL     1       5.805  15.052  30.411  1.00  0.00     0.008 C 
ENDBRANCH  12  17
ENDBRANCH  11  12
ENDBRANCH   1  11
TORSDOF 1
ENDMDL
MODEL 6
REMARK VINA RESULT:    -4.446      1.984      4.192
REMARK INTER + INTRA:          -6.301
REMARK INTER:                  -7.128
REMARK INTRA:                   0.827
REMARK UNBOUND:                 0.484
REMARK SMILES CC1=CCC[C@@H](C)C(=O)C[C@H](C(C)C)C(=O)C1
REMARK SMILES IDX 8 1 9 2 6 3 7 4 5 5 4 6 3 7 2 8 1 9 10 11 11 12 15 13 16 14
REMARK SMILES IDX 17 15 12 17 13 18 14 19
REMARK H PARENT
REMARK Flexibility Score: 70.00
ROOT
ATOM      1  C   UNL     1       4.342  13.584  29.235  1.00  0.00     0.136 C 
ATOM      2  O   UNL     1       5.442  14.087  29.052  1.00  0.00    -0.299 OA
ENDROOT
BRANCH   1   3
ATOM      3  C   UNL     1       3.352  13.514  28.094  1.00  0.00     0.053 C 
ATOM      4  C   UNL     1       3.992  13.964  26.775  1.00  0.00     0.016 C 
BRANCH   3   5
ATOM      5  C   UNL     1       2.115  14.375  28.448  1.00  0.00     0.015 C 
BRANCH   5   6
ATOM      6  C   UNL     1       0.816  13.599  28.742  1.00  0.00     0.028 C 
BRANCH   6   7
ATOM      7  C   UNL     1       0.409  13.460  30.195  1.00  0.00    -0.028 C 
ATOM      8  C   UNL     1       0.736  12.451  31.038  1.00  0.00    -0.070 CG0
ATOM      9  C   UNL     1       0.313  12.584  32.482  1.00  0.00     0.039 C 
ATOM     10  G   UNL     1       1.421  11.166  30.610  1.00  0.00     0.000 G0
ENDBRANCH   6   7
ENDBRANCH   5   6
ENDBRANCH   3   5
ENDBRANCH   1   3
BRANCH   1  11
ATOM     11  C   UNL     1       3.969  13.110  30.621  1.00  0.00     0.087 C 
BRANCH  11  12
ATOM     12  C   UNL     1       4.070  11.563  30.769  1.00  0.00     0.066 C 
BRANCH  12  13
ATOM     13  C   UNL     1       2.773  10.977  31.309  1.00  0.00     0.140 C 
ATOM     14  O   UNL     1       2.793  10.354  32.361  1.00  0.00    -0.299 OA
BRANCH  13  15
ATOM     15  C   UNL     1       1.445  11.166  30.602  1.00  0.00     0.106 CG0
ATOM     16  G   UNL     1       0.766  12.444  31.062  1.00  0.00     0.000 G0
ENDBRANCH  13  15
ENDBRANCH  12  13
BRANCH  12  17
ATOM     17  C   UNL     1       4.488  10.837  29.448  1.00  0.00    -0.006 C 
ATOM     18  C   UNL     1       5.691   9.889  29.605  1.00  0.00     0.008 C 
ATOM     19  C   UNL     1       3.305  10.084  28.818  1.00  0.00     0.008 C 
ENDBRANCH  12  17
ENDBRANCH  11  12
ENDBRANCH   1  11
TORSDOF 1
ENDMDL
MODEL 7
REMARK VINA RESULT:    -4.292      2.237      4.111
REMARK INTER + INTRA:          -6.067
REMARK INTER:                  -7.414
REMARK INTRA:                   1.347
REMARK UNBOUND:                 0.484
REMARK SMILES CC1=CCC[C@@H](C)C(=O)C[C@H](C(C)C)C(=O)C1
REMARK SMILES IDX 8 1 9 2 6 3 7 4 5 5 4 6 3 7 2 8 1 9 10 11 11 12 15 13 16 14
REMARK SMILES IDX 17 15 12 17 13 18 14 19
REMARK H PARENT
REMARK Flexibility Score: 70.00
ROOT
ATOM      1  C   UNL     1       1.203  13.622  29.292  1.00  0.00     0.136 C 
ATOM      2  O   UNL     1       0.136  13.535  28.701  1.00  0.00    -0.299 OA
ENDROOT
BRANCH   1   3
ATOM      3  C   UNL     1       1.288  13.223  30.747  1.00  0.00     0.053 C 
ATOM      4  C   UNL     1       2.532  13.820  31.415  1.00  0.00     0.016 C 
BRANCH   3   5
ATOM      5  C   UNL     1       1.277  11.678  30.846  1.00  0.00     0.015 C 
BRANCH   5   6
ATOM      6  C   UNL     1       2.311  11.056  31.805  1.00  0.00     0.028 C 
BRANCH   6   7
ATOM      7  C   UNL     1       3.583  10.510  31.189  1.00  0.00    -0.028 C 
ATOM      8  C   UNL     1       3.880  10.434  29.869  1.00  0.00    -0.070 CG0
ATOM      9  C   UNL     1       5.262   9.958  29.491  1.00  0.00     0.039 C 
ATOM     10  G   UNL     1       2.890  10.712  28.753  1.00  0.00     0.000 G0
ENDBRANCH   6   7
ENDBRANCH   5   6
ENDBRANCH   3   5
ENDBRANCH   1   3
BRANCH   1  11
ATOM     11  C   UNL     1       2.401  14.199  28.571  1.00  0.00     0.087 C 
BRANCH  11  12
ATOM     12  C   UNL     1       3.628  13.240  28.592  1.00  0.00     0.066 C 
BRANCH  12  13
ATOM     13  C   UNL     1       3.296  11.910  27.930  1.00  0.00     0.140 C 
ATOM     14  O   UNL     1       3.379  11.812  26.714  1.00  0.00    -0.299 OA
BRANCH  13  15
ATOM     15  C   UNL     1       2.895  10.687  28.731  1.00  0.00     0.106 CG0
ATOM     16  G   UNL     1       3.885  10.429  29.853  1.00  0.00     0.000 G0
ENDBRANCH  13  15
ENDBRANCH  12  13
BRANCH  12  17
ATOM     17  C   UNL     1       4.914  13.860  27.955  1.00  0.00    -0.006 C 
ATOM     18  C   UNL     1       4.652  14.680  26.678  1.00  0.00     0.008 C 
ATOM     19  C   UNL     1       5.696  14.710  28.971  1.00  0.00     0.008 C 
ENDBRANCH  12  17
ENDBRANCH  11  12
ENDBRANCH   1  11
TORSDOF 1
ENDMDL
MODEL 8
REMARK VINA RESULT:    -4.230      1.967      4.711
REMARK INTER + INTRA:          -5.972
REMARK INTER:                  -7.339
REMARK INTRA:                   1.367
REMARK UNBOUND:                 0.484
REMARK SMILES CC1=CCC[C@@H](C)C(=O)C[C@H](C(C)C)C(=O)C1
REMARK SMILES IDX 8 1 9 2 6 3 7 4 5 5 4 6 3 7 2 8 1 9 10 11 11 12 15 13 16 14
REMARK SMILES IDX 17 15 12 17 13 18 14 19
REMARK H PARENT
REMARK Flexibility Score: 70.00
ROOT
ATOM      1  C   UNL     1       1.903  12.638  28.620  1.00  0.00     0.136 C 
ATOM      2  O   UNL     1       2.043  11.429  28.495  1.00  0.00    -0.299 OA
ENDROOT
BRANCH   1   3
ATOM      3  C   UNL     1       0.662  13.183  29.290  1.00  0.00     0.053 C 
ATOM      4  C   UNL     1       0.067  14.350  28.493  1.00  0.00     0.016 C 
BRANCH   3   5
ATOM      5  C   UNL     1       1.017  13.607  30.737  1.00  0.00     0.015 C 
BRANCH   5   6
ATOM      6  C   UNL     1       0.767  12.549  31.830  1.00  0.00     0.028 C 
BRANCH   6   7
ATOM      7  C   UNL     1       1.812  11.463  31.991  1.00  0.00    -0.028 C 
ATOM      8  C   UNL     1       3.157  11.614  31.935  1.00  0.00    -0.070 CG0
ATOM      9  C   UNL     1       4.008  10.406  32.244  1.00  0.00     0.039 C 
ATOM     10  G   UNL     1       3.858  12.890  31.503  1.00  0.00     0.000 G0
ENDBRANCH   6   7
ENDBRANCH   5   6
ENDBRANCH   3   5
ENDBRANCH   1   3
BRANCH   1  11
ATOM     11  C   UNL     1       2.943  13.565  28.033  1.00  0.00     0.087 C 
BRANCH  11  12
ATOM     12  C   UNL     1       4.064  13.925  29.053  1.00  0.00     0.066 C 
BRANCH  12  13
ATOM     13  C   UNL     1       4.294  12.788  30.039  1.00  0.00     0.140 C 
ATOM     14  O   UNL     1       4.863  11.775  29.659  1.00  0.00    -0.299 OA
BRANCH  13  15
ATOM     15  C   UNL     1       3.870  12.881  31.492  1.00  0.00     0.106 CG0
ATOM     16  G   UNL     1       3.169  11.609  31.933  1.00  0.00     0.000 G0
ENDBRANCH  13  15
ENDBRANCH  12  13
BRANCH  12  17
ATOM     17  C   UNL     1       5.410  14.343  28.377  1.00  0.00    -0.006 C 
ATOM     18  C   UNL     1       5.244  14.998  26.994  1.00  0.00     0.008 C 
ATOM     19  C   UNL     1       6.244  15.255  29.293  1.00  0.00     0.008 C 
ENDBRANCH  12  17
ENDBRANCH  11  12
ENDBRANCH   1  11
TORSDOF 1
ENDMDL
MODEL 9
REMARK VINA RESULT:    -4.079      2.387      4.165
REMARK INTER + INTRA:          -5.741
REMARK INTER:                  -6.238
REMARK INTRA:                   0.497
REMARK UNBOUND:                 0.484
REMARK SMILES CC1=CCC[C@@H](C)C(=O)C[C@H](C(C)C)C(=O)C1
REMARK SMILES IDX 8 1 9 2 6 3 7 4 5 5 4 6 3 7 2 8 1 9 10 11 11 12 15 13 16 14
REMARK SMILES IDX 17 15 12 17 13 18 14 19
REMARK H PARENT
REMARK Flexibility Score: 70.00
ROOT
ATOM      1  C   UNL     1       4.628  14.630  27.716  1.00  0.00     0.136 C 
ATOM      2  O   UNL     1       5.344  14.481  26.736  1.00  0.00    -0.299 OA
ENDROOT
BRANCH   1   3
ATOM      3  C   UNL     1       5.238  15.059  29.031  1.00  0.00     0.053 C 
ATOM      4  C   UNL     1       6.684  15.531  28.844  1.00  0.00     0.016 C 
BRANCH   3   5
ATOM      5  C   UNL     1       5.149  13.883  30.034  1.00  0.00     0.015 C 
BRANCH   5   6
ATOM      6  C   UNL     1       4.457  14.191  31.376  1.00  0.00     0.028 C 
BRANCH   6   7
ATOM      7  C   UNL     1       3.518  13.137  31.927  1.00  0.00    -0.028 C 
ATOM      8  C   UNL     1       2.220  12.946  31.588  1.00  0.00    -0.070 CG0
ATOM      9  C   UNL     1       1.512  11.753  32.184  1.00  0.00     0.039 C 
ATOM     10  G   UNL     1       1.414  13.895  30.721  1.00  0.00     0.000 G0
ENDBRANCH   6   7
ENDBRANCH   5   6
ENDBRANCH   3   5
ENDBRANCH   1   3
BRANCH   1  11
ATOM     11  C   UNL     1       3.154  14.309  27.608  1.00  0.00     0.087 C 
BRANCH  11  12
ATOM     12  C   UNL     1       2.728  13.142  28.549  1.00  0.00     0.066 C 
BRANCH  12  13
ATOM     13  C   UNL     1       1.425  13.464  29.267  1.00  0.00     0.140 C 
ATOM     14  O   UNL     1       0.367  13.349  28.664  1.00  0.00    -0.299 OA
BRANCH  13  15
ATOM     15  C   UNL     1       1.388  13.893  30.721  1.00  0.00     0.106 CG0
ATOM     16  G   UNL     1       2.206  12.949  31.583  1.00  0.00     0.000 G0
ENDBRANCH  13  15
ENDBRANCH  12  13
BRANCH  12  17
ATOM     17  C   UNL     1       2.624  11.762  27.821  1.00  0.00    -0.006 C 
ATOM     18  C   UNL     1       3.060  11.795  26.345  1.00  0.00     0.008 C 
ATOM     19  C   UNL     1       3.398  10.666  28.572  1.00  0.00     0.008 C 
ENDBRANCH  12  17
ENDBRANCH  11  12
ENDBRANCH   1  11
TORSDOF 1
ENDMDL
