MODEL 1
REMARK VINA RESULT:    -6.556      0.000      0.000
REMARK INTER + INTRA:          -8.216
REMARK INTER:                  -7.897
REMARK INTRA:                  -0.318
REMARK UNBOUND:                -0.318
REMARK SMILES O=c1c(O)c(-c2ccc(O)c(O)c2)oc2cc(O)cc(O)c12
REMARK SMILES IDX 5 1 3 2 2 3 1 4 22 5 20 6 19 7 17 8 16 9 15 10 14 11 6 12
REMARK SMILES IDX 7 13 8 14 9 15 13 16 11 17 10 18 12 20 4 22 21 24 18 26
REMARK H PARENT 10 19 12 21 4 23 21 25 18 27
REMARK Flexibility Score: inf
ROOT
ATOM      1  C   UNL     1     -22.377  16.512  -1.457  1.00  0.00     0.180 A 
ATOM      2  C   UNL     1     -23.266  16.013  -2.425  1.00  0.00     0.208 A 
ATOM      3  C   UNL     1     -23.513  14.631  -2.475  1.00  0.00     0.238 A 
ATOM      4  O   UNL     1     -24.267  14.184  -3.377  1.00  0.00    -0.285 OA
ATOM      5  C   UNL     1     -22.879  13.768  -1.547  1.00  0.00     0.111 A 
ATOM      6  C   UNL     1     -23.088  12.358  -1.480  1.00  0.00     0.134 A 
ATOM      7  C   UNL     1     -22.310  11.586  -0.608  1.00  0.00     0.093 A 
ATOM      8  C   UNL     1     -21.379  12.182   0.246  1.00  0.00     0.123 A 
ATOM      9  C   UNL     1     -21.212  13.564   0.230  1.00  0.00     0.094 A 
ATOM     10  C   UNL     1     -21.946  14.358  -0.654  1.00  0.00     0.146 A 
ATOM     11  O   UNL     1     -21.748  15.670  -0.644  1.00  0.00    -0.452 OA
ENDROOT
BRANCH   1  12
ATOM     12  C   UNL     1     -22.085  17.958  -1.326  1.00  0.00     0.025 A 
ATOM     13  C   UNL     1     -20.994  18.547  -1.990  1.00  0.00     0.016 A 
ATOM     14  C   UNL     1     -20.752  19.918  -1.872  1.00  0.00     0.051 A 
ATOM     15  C   UNL     1     -21.602  20.722  -1.101  1.00  0.00     0.157 A 
ATOM     16  C   UNL     1     -22.945  18.772  -0.572  1.00  0.00     0.062 A 
ATOM     17  C   UNL     1     -22.703  20.148  -0.452  1.00  0.00     0.158 A 
BRANCH  15  18
ATOM     18  O   UNL     1     -21.364  22.089  -0.980  1.00  0.00    -0.504 OA
ATOM     19  H   UNL     1     -22.120  22.763  -1.002  1.00  0.00     0.293 HD
ENDBRANCH  15  18
BRANCH  17  20
ATOM     20  O   UNL     1     -23.552  20.951   0.308  1.00  0.00    -0.504 OA
ATOM     21  H   UNL     1     -24.556  20.938   0.171  1.00  0.00     0.293 HD
ENDBRANCH  17  20
ENDBRANCH   1  12
BRANCH   2  22
ATOM     22  O   UNL     1     -23.863  16.879  -3.344  1.00  0.00    -0.502 OA
ATOM     23  H   UNL     1     -24.630  17.492  -3.096  1.00  0.00     0.293 HD
ENDBRANCH   2  22
BRANCH   6  24
ATOM     24  O   UNL     1     -24.055  11.676  -2.223  1.00  0.00    -0.507 OA
ATOM     25  H   UNL     1     -24.503  12.036  -3.052  1.00  0.00     0.293 HD
ENDBRANCH   6  24
BRANCH   8  26
ATOM     26  O   UNL     1     -20.620  11.409   1.121  1.00  0.00    -0.508 OA
ATOM     27  H   UNL     1     -19.630  11.578   1.256  1.00  0.00     0.293 HD
ENDBRANCH   8  26
TORSDOF 6
ENDMDL
MODEL 2
REMARK VINA RESULT:    -6.215      0.793      1.487
REMARK INTER + INTRA:          -7.805
REMARK INTER:                  -7.473
REMARK INTRA:                  -0.332
REMARK UNBOUND:                -0.318
REMARK SMILES O=c1c(O)c(-c2ccc(O)c(O)c2)oc2cc(O)cc(O)c12
REMARK SMILES IDX 5 1 3 2 2 3 1 4 22 5 20 6 19 7 17 8 16 9 15 10 14 11 6 12
REMARK SMILES IDX 7 13 8 14 9 15 13 16 11 17 10 18 12 20 4 22 21 24 18 26
REMARK H PARENT 10 19 12 21 4 23 21 25 18 27
REMARK Flexibility Score: inf
ROOT
ATOM      1  C   UNL     1     -22.612  16.264  -1.226  1.00  0.00     0.180 A 
ATOM      2  C   UNL     1     -23.250  15.815  -2.396  1.00  0.00     0.208 A 
ATOM      3  C   UNL     1     -23.282  14.438  -2.669  1.00  0.00     0.238 A 
ATOM      4  O   UNL     1     -23.806  14.047  -3.745  1.00  0.00    -0.285 OA
ATOM      5  C   UNL     1     -22.690  13.526  -1.762  1.00  0.00     0.111 A 
ATOM      6  C   UNL     1     -22.699  12.107  -1.919  1.00  0.00     0.134 A 
ATOM      7  C   UNL     1     -21.970  11.310  -1.027  1.00  0.00     0.093 A 
ATOM      8  C   UNL     1     -21.287  11.875   0.052  1.00  0.00     0.123 A 
ATOM      9  C   UNL     1     -21.322  13.254   0.247  1.00  0.00     0.094 A 
ATOM     10  C   UNL     1     -22.010  14.079  -0.645  1.00  0.00     0.146 A 
ATOM     11  O   UNL     1     -22.009  15.389  -0.429  1.00  0.00    -0.452 OA
ENDROOT
BRANCH   1  12
ATOM     12  C   UNL     1     -22.559  17.697  -0.858  1.00  0.00     0.025 A 
ATOM     13  C   UNL     1     -23.603  18.306  -0.138  1.00  0.00     0.016 A 
ATOM     14  C   UNL     1     -23.520  19.654   0.220  1.00  0.00     0.051 A 
ATOM     15  C   UNL     1     -22.390  20.409  -0.122  1.00  0.00     0.157 A 
ATOM     16  C   UNL     1     -21.420  18.452  -1.179  1.00  0.00     0.062 A 
ATOM     17  C   UNL     1     -21.336  19.805  -0.821  1.00  0.00     0.158 A 
BRANCH  15  18
ATOM     18  O   UNL     1     -22.304  21.753   0.232  1.00  0.00    -0.504 OA
ATOM     19  H   UNL     1     -21.518  22.327  -0.052  1.00  0.00     0.293 HD
ENDBRANCH  15  18
BRANCH  17  20
ATOM     20  O   UNL     1     -20.209  20.555  -1.153  1.00  0.00    -0.504 OA
ATOM     21  H   UNL     1     -19.664  21.033  -0.445  1.00  0.00     0.293 HD
ENDBRANCH  17  20
ENDBRANCH   1  12
BRANCH   2  22
ATOM     22  O   UNL     1     -23.808  16.734  -3.289  1.00  0.00    -0.502 OA
ATOM     23  H   UNL     1     -24.566  17.354  -3.029  1.00  0.00     0.293 HD
ENDBRANCH   2  22
BRANCH   6  24
ATOM     24  O   UNL     1     -23.423  11.436  -2.908  1.00  0.00    -0.507 OA
ATOM     25  H   UNL     1     -23.329  11.597  -3.898  1.00  0.00     0.293 HD
ENDBRANCH   6  24
BRANCH   8  26
ATOM     26  O   UNL     1     -20.577  11.074   0.943  1.00  0.00    -0.508 OA
ATOM     27  H   UNL     1     -20.647  11.206   1.945  1.00  0.00     0.293 HD
ENDBRANCH   8  26
TORSDOF 6
ENDMDL
MODEL 3
REMARK VINA RESULT:    -6.056      1.606      6.954
REMARK INTER + INTRA:          -7.613
REMARK INTER:                  -7.374
REMARK INTRA:                  -0.239
REMARK UNBOUND:                -0.318
REMARK SMILES O=c1c(O)c(-c2ccc(O)c(O)c2)oc2cc(O)cc(O)c12
REMARK SMILES IDX 5 1 3 2 2 3 1 4 22 5 20 6 19 7 17 8 16 9 15 10 14 11 6 12
REMARK SMILES IDX 7 13 8 14 9 15 13 16 11 17 10 18 12 20 4 22 21 24 18 26
REMARK H PARENT 10 19 12 21 4 23 21 25 18 27
REMARK Flexibility Score: inf
ROOT
ATOM      1  C   UNL     1     -23.036  16.617  -0.783  1.00  0.00     0.180 A 
ATOM      2  C   UNL     1     -24.126  17.059  -0.014  1.00  0.00     0.208 A 
ATOM      3  C   UNL     1     -24.174  18.403   0.389  1.00  0.00     0.238 A 
ATOM      4  O   UNL     1     -25.125  18.781   1.123  1.00  0.00    -0.285 OA
ATOM      5  C   UNL     1     -23.140  19.292   0.005  1.00  0.00     0.111 A 
ATOM      6  C   UNL     1     -23.108  20.683   0.324  1.00  0.00     0.134 A 
ATOM      7  C   UNL     1     -21.972  21.437   0.004  1.00  0.00     0.093 A 
ATOM      8  C   UNL     1     -20.897  20.866  -0.680  1.00  0.00     0.123 A 
ATOM      9  C   UNL     1     -20.945  19.524  -1.048  1.00  0.00     0.094 A 
ATOM     10  C   UNL     1     -22.048  18.735  -0.711  1.00  0.00     0.146 A 
ATOM     11  O   UNL     1     -22.049  17.458  -1.071  1.00  0.00    -0.452 OA
ENDROOT
BRANCH   1  12
ATOM     12  C   UNL     1     -22.927  15.221  -1.266  1.00  0.00     0.025 A 
ATOM     13  C   UNL     1     -22.021  14.315  -0.687  1.00  0.00     0.016 A 
ATOM     14  C   UNL     1     -21.952  12.996  -1.142  1.00  0.00     0.051 A 
ATOM     15  C   UNL     1     -22.796  12.559  -2.172  1.00  0.00     0.157 A 
ATOM     16  C   UNL     1     -23.784  14.772  -2.284  1.00  0.00     0.062 A 
ATOM     17  C   UNL     1     -23.716  13.449  -2.742  1.00  0.00     0.158 A 
BRANCH  15  18
ATOM     18  O   UNL     1     -22.729  11.245  -2.630  1.00  0.00    -0.504 OA
ATOM     19  H   UNL     1     -22.074  10.579  -2.237  1.00  0.00     0.293 HD
ENDBRANCH  15  18
BRANCH  17  20
ATOM     20  O   UNL     1     -24.559  13.010  -3.761  1.00  0.00    -0.504 OA
ATOM     21  H   UNL     1     -25.058  12.130  -3.693  1.00  0.00     0.293 HD
ENDBRANCH  17  20
ENDBRANCH   1  12
BRANCH   2  22
ATOM     22  O   UNL     1     -25.124  16.161   0.373  1.00  0.00    -0.502 OA
ATOM     23  H   UNL     1     -25.147  15.200   0.051  1.00  0.00     0.293 HD
ENDBRANCH   2  22
BRANCH   6  24
ATOM     24  O   UNL     1     -24.166  21.371   0.924  1.00  0.00    -0.507 OA
ATOM     25  H   UNL     1     -24.723  21.017   1.686  1.00  0.00     0.293 HD
ENDBRANCH   6  24
BRANCH   8  26
ATOM     26  O   UNL     1     -19.777  21.627  -1.008  1.00  0.00    -0.508 OA
ATOM     27  H   UNL     1     -19.763  22.632  -0.877  1.00  0.00     0.293 HD
ENDBRANCH   8  26
TORSDOF 6
ENDMDL
MODEL 4
REMARK VINA RESULT:    -5.887      1.572      6.953
REMARK INTER + INTRA:          -7.410
REMARK INTER:                  -7.086
REMARK INTRA:                  -0.324
REMARK UNBOUND:                -0.318
REMARK SMILES O=c1c(O)c(-c2ccc(O)c(O)c2)oc2cc(O)cc(O)c12
REMARK SMILES IDX 5 1 3 2 2 3 1 4 22 5 20 6 19 7 17 8 16 9 15 10 14 11 6 12
REMARK SMILES IDX 7 13 8 14 9 15 13 16 11 17 10 18 12 20 4 22 21 24 18 26
REMARK H PARENT 10 19 12 21 4 23 21 25 18 27
REMARK Flexibility Score: inf
ROOT
ATOM      1  C   UNL     1     -23.055  16.564  -0.876  1.00  0.00     0.180 A 
ATOM      2  C   UNL     1     -24.136  16.980  -0.078  1.00  0.00     0.208 A 
ATOM      3  C   UNL     1     -24.184  18.312   0.363  1.00  0.00     0.238 A 
ATOM      4  O   UNL     1     -25.125  18.665   1.121  1.00  0.00    -0.285 OA
ATOM      5  C   UNL     1     -23.160  19.216  -0.013  1.00  0.00     0.111 A 
ATOM      6  C   UNL     1     -23.130  20.598   0.343  1.00  0.00     0.134 A 
ATOM      7  C   UNL     1     -22.003  21.367   0.026  1.00  0.00     0.093 A 
ATOM      8  C   UNL     1     -20.936  20.821  -0.690  1.00  0.00     0.123 A 
ATOM      9  C   UNL     1     -20.983  19.489  -1.093  1.00  0.00     0.094 A 
ATOM     10  C   UNL     1     -22.077  18.686  -0.762  1.00  0.00     0.146 A 
ATOM     11  O   UNL     1     -22.077  17.418  -1.156  1.00  0.00    -0.452 OA
ENDROOT
BRANCH   1  12
ATOM     12  C   UNL     1     -22.947  15.183  -1.398  1.00  0.00     0.025 A 
ATOM     13  C   UNL     1     -23.614  14.791  -2.573  1.00  0.00     0.016 A 
ATOM     14  C   UNL     1     -23.478  13.489  -3.061  1.00  0.00     0.051 A 
ATOM     15  C   UNL     1     -22.664  12.565  -2.393  1.00  0.00     0.157 A 
ATOM     16  C   UNL     1     -22.116  14.259  -0.744  1.00  0.00     0.062 A 
ATOM     17  C   UNL     1     -21.979  12.952  -1.233  1.00  0.00     0.158 A 
BRANCH  15  18
ATOM     18  O   UNL     1     -22.527  11.265  -2.875  1.00  0.00    -0.504 OA
ATOM     19  H   UNL     1     -21.733  10.992  -3.443  1.00  0.00     0.293 HD
ENDBRANCH  15  18
BRANCH  17  20
ATOM     20  O   UNL     1     -21.165  12.033  -0.574  1.00  0.00    -0.504 OA
ATOM     21  H   UNL     1     -21.042  11.089  -0.922  1.00  0.00     0.293 HD
ENDBRANCH  17  20
ENDBRANCH   1  12
BRANCH   2  22
ATOM     22  O   UNL     1     -25.123  16.066   0.300  1.00  0.00    -0.502 OA
ATOM     23  H   UNL     1     -25.024  15.068   0.156  1.00  0.00     0.293 HD
ENDBRANCH   2  22
BRANCH   6  24
ATOM     24  O   UNL     1     -24.182  21.264   0.978  1.00  0.00    -0.507 OA
ATOM     25  H   UNL     1     -25.004  20.815   1.350  1.00  0.00     0.293 HD
ENDBRANCH   6  24
BRANCH   8  26
ATOM     26  O   UNL     1     -19.826  21.597  -1.014  1.00  0.00    -0.508 OA
ATOM     27  H   UNL     1     -18.885  21.222  -0.967  1.00  0.00     0.293 HD
ENDBRANCH   8  26
TORSDOF 6
ENDMDL
MODEL 5
REMARK VINA RESULT:    -5.162      1.729      1.751
REMARK INTER + INTRA:          -6.537
REMARK INTER:                  -6.603
REMARK INTRA:                   0.067
REMARK UNBOUND:                -0.318
REMARK SMILES O=c1c(O)c(-c2ccc(O)c(O)c2)oc2cc(O)cc(O)c12
REMARK SMILES IDX 5 1 3 2 2 3 1 4 22 5 20 6 19 7 17 8 16 9 15 10 14 11 6 12
REMARK SMILES IDX 7 13 8 14 9 15 13 16 11 17 10 18 12 20 4 22 21 24 18 26
REMARK H PARENT 10 19 12 21 4 23 21 25 18 27
REMARK Flexibility Score: inf
ROOT
ATOM      1  C   UNL     1     -22.377  16.291  -0.603  1.00  0.00     0.180 A 
ATOM      2  C   UNL     1     -23.665  15.932  -0.169  1.00  0.00     0.208 A 
ATOM      3  C   UNL     1     -23.955  14.577   0.058  1.00  0.00     0.238 A 
ATOM      4  O   UNL     1     -25.125  14.257   0.394  1.00  0.00    -0.285 OA
ATOM      5  C   UNL     1     -22.949  13.599  -0.138  1.00  0.00     0.111 A 
ATOM      6  C   UNL     1     -23.121  12.203   0.101  1.00  0.00     0.134 A 
ATOM      7  C   UNL     1     -22.098  11.312  -0.250  1.00  0.00     0.093 A 
ATOM      8  C   UNL     1     -20.887  11.774  -0.770  1.00  0.00     0.123 A 
ATOM      9  C   UNL     1     -20.689  13.141  -0.951  1.00  0.00     0.094 A 
ATOM     10  C   UNL     1     -21.702  14.052  -0.643  1.00  0.00     0.146 A 
ATOM     11  O   UNL     1     -21.476  15.345  -0.841  1.00  0.00    -0.452 OA
ENDROOT
BRANCH   1  12
ATOM     12  C   UNL     1     -21.989  17.700  -0.840  1.00  0.00     0.025 A 
ATOM     13  C   UNL     1     -21.351  18.093  -2.030  1.00  0.00     0.016 A 
ATOM     14  C   UNL     1     -21.015  19.432  -2.242  1.00  0.00     0.051 A 
ATOM     15  C   UNL     1     -21.324  20.400  -1.277  1.00  0.00     0.157 A 
ATOM     16  C   UNL     1     -22.314  18.677   0.114  1.00  0.00     0.062 A 
ATOM     17  C   UNL     1     -21.978  20.022  -0.097  1.00  0.00     0.158 A 
BRANCH  15  18
ATOM     18  O   UNL     1     -20.990  21.737  -1.484  1.00  0.00    -0.504 OA
ATOM     19  H   UNL     1     -20.552  22.292  -0.759  1.00  0.00     0.293 HD
ENDBRANCH  15  18
BRANCH  17  20
ATOM     20  O   UNL     1     -22.291  20.987   0.858  1.00  0.00    -0.504 OA
ATOM     21  H   UNL     1     -22.532  20.733   1.809  1.00  0.00     0.293 HD
ENDBRANCH  17  20
ENDBRANCH   1  12
BRANCH   2  22
ATOM     22  O   UNL     1     -24.649  16.911  -0.004  1.00  0.00    -0.502 OA
ATOM     23  H   UNL     1     -24.524  17.711   0.605  1.00  0.00     0.293 HD
ENDBRANCH   2  22
BRANCH   6  24
ATOM     24  O   UNL     1     -24.254  11.647   0.700  1.00  0.00    -0.507 OA
ATOM     25  H   UNL     1     -24.247  11.103   1.549  1.00  0.00     0.293 HD
ENDBRANCH   6  24
BRANCH   8  26
ATOM     26  O   UNL     1     -19.870  10.884  -1.103  1.00  0.00    -0.508 OA
ATOM     27  H   UNL     1     -18.893  11.153  -1.058  1.00  0.00     0.293 HD
ENDBRANCH   8  26
TORSDOF 6
ENDMDL
MODEL 6
REMARK VINA RESULT:    -4.262      1.729      7.060
REMARK INTER + INTRA:          -5.453
REMARK INTER:                  -5.166
REMARK INTRA:                  -0.287
REMARK UNBOUND:                -0.318
REMARK SMILES O=c1c(O)c(-c2ccc(O)c(O)c2)oc2cc(O)cc(O)c12
REMARK SMILES IDX 5 1 3 2 2 3 1 4 22 5 20 6 19 7 17 8 16 9 15 10 14 11 6 12
REMARK SMILES IDX 7 13 8 14 9 15 13 16 11 17 10 18 12 20 4 22 21 24 18 26
REMARK H PARENT 10 19 12 21 4 23 21 25 18 27
REMARK Flexibility Score: inf
ROOT
ATOM      1  C   UNL     1     -22.988  17.350  -0.739  1.00  0.00     0.180 A 
ATOM      2  C   UNL     1     -23.975  18.005   0.019  1.00  0.00     0.208 A 
ATOM      3  C   UNL     1     -23.773  19.345   0.387  1.00  0.00     0.238 A 
ATOM      4  O   UNL     1     -24.634  19.909   1.112  1.00  0.00    -0.285 OA
ATOM      5  C   UNL     1     -22.595  20.018  -0.020  1.00  0.00     0.111 A 
ATOM      6  C   UNL     1     -22.307  21.387   0.262  1.00  0.00     0.134 A 
ATOM      7  C   UNL     1     -21.053  21.911  -0.077  1.00  0.00     0.093 A 
ATOM      8  C   UNL     1     -20.104  21.135  -0.746  1.00  0.00     0.123 A 
ATOM      9  C   UNL     1     -20.401  19.816  -1.079  1.00  0.00     0.094 A 
ATOM     10  C   UNL     1     -21.628  19.252  -0.722  1.00  0.00     0.146 A 
ATOM     11  O   UNL     1     -21.866  17.988  -1.049  1.00  0.00    -0.452 OA
ENDROOT
BRANCH   1  12
ATOM     12  C   UNL     1     -23.140  15.947  -1.186  1.00  0.00     0.025 A 
ATOM     13  C   UNL     1     -23.497  15.635  -2.510  1.00  0.00     0.016 A 
ATOM     14  C   UNL     1     -23.611  14.303  -2.916  1.00  0.00     0.051 A 
ATOM     15  C   UNL     1     -23.357  13.264  -2.011  1.00  0.00     0.157 A 
ATOM     16  C   UNL     1     -22.867  14.901  -0.289  1.00  0.00     0.062 A 
ATOM     17  C   UNL     1     -22.982  13.564  -0.695  1.00  0.00     0.158 A 
BRANCH  15  18
ATOM     18  O   UNL     1     -23.471  11.935  -2.412  1.00  0.00    -0.504 OA
ATOM     19  H   UNL     1     -24.367  11.460  -2.425  1.00  0.00     0.293 HD
ENDBRANCH  15  18
BRANCH  17  20
ATOM     20  O   UNL     1     -22.722  12.529   0.201  1.00  0.00    -0.504 OA
ATOM     21  H   UNL     1     -23.331  12.348   0.991  1.00  0.00     0.293 HD
ENDBRANCH  17  20
ENDBRANCH   1  12
BRANCH   2  22
ATOM     22  O   UNL     1     -25.120  17.316   0.429  1.00  0.00    -0.502 OA
ATOM     23  H   UNL     1     -25.811  17.726   1.046  1.00  0.00     0.293 HD
ENDBRANCH   2  22
BRANCH   6  24
ATOM     24  O   UNL     1     -23.217  22.273   0.845  1.00  0.00    -0.507 OA
ATOM     25  H   UNL     1     -22.967  23.032   1.459  1.00  0.00     0.293 HD
ENDBRANCH   6  24
BRANCH   8  26
ATOM     26  O   UNL     1     -18.866  21.669  -1.095  1.00  0.00    -0.508 OA
ATOM     27  H   UNL     1     -18.321  22.215  -0.437  1.00  0.00     0.293 HD
ENDBRANCH   8  26
TORSDOF 6
ENDMDL
MODEL 7
REMARK VINA RESULT:    -3.907      1.637      3.432
REMARK INTER + INTRA:          -5.024
REMARK INTER:                  -4.772
REMARK INTRA:                  -0.252
REMARK UNBOUND:                -0.318
REMARK SMILES O=c1c(O)c(-c2ccc(O)c(O)c2)oc2cc(O)cc(O)c12
REMARK SMILES IDX 5 1 3 2 2 3 1 4 22 5 20 6 19 7 17 8 16 9 15 10 14 11 6 12
REMARK SMILES IDX 7 13 8 14 9 15 13 16 11 17 10 18 12 20 4 22 21 24 18 26
REMARK H PARENT 10 19 12 21 4 23 21 25 18 27
REMARK Flexibility Score: inf
ROOT
ATOM      1  C   UNL     1     -22.957  15.582  -0.590  1.00  0.00     0.180 A 
ATOM      2  C   UNL     1     -21.820  14.979  -0.023  1.00  0.00     0.208 A 
ATOM      3  C   UNL     1     -21.511  13.653  -0.364  1.00  0.00     0.238 A 
ATOM      4  O   UNL     1     -20.523  13.101   0.188  1.00  0.00    -0.285 OA
ATOM      5  C   UNL     1     -22.333  12.951  -1.279  1.00  0.00     0.111 A 
ATOM      6  C   UNL     1     -22.091  11.617  -1.726  1.00  0.00     0.134 A 
ATOM      7  C   UNL     1     -23.041  10.977  -2.532  1.00  0.00     0.093 A 
ATOM      8  C   UNL     1     -24.192  11.644  -2.958  1.00  0.00     0.123 A 
ATOM      9  C   UNL     1     -24.407  12.965  -2.575  1.00  0.00     0.094 A 
ATOM     10  C   UNL     1     -23.496  13.620  -1.743  1.00  0.00     0.146 A 
ATOM     11  O   UNL     1     -23.744  14.876  -1.393  1.00  0.00    -0.452 OA
ENDROOT
BRANCH   1  12
ATOM     12  C   UNL     1     -23.334  16.984  -0.298  1.00  0.00     0.025 A 
ATOM     13  C   UNL     1     -24.396  17.290   0.572  1.00  0.00     0.016 A 
ATOM     14  C   UNL     1     -24.719  18.620   0.852  1.00  0.00     0.051 A 
ATOM     15  C   UNL     1     -23.977  19.663   0.279  1.00  0.00     0.157 A 
ATOM     16  C   UNL     1     -22.582  18.033  -0.852  1.00  0.00     0.062 A 
ATOM     17  C   UNL     1     -22.905  19.368  -0.572  1.00  0.00     0.158 A 
BRANCH  15  18
ATOM     18  O   UNL     1     -24.297  20.991   0.555  1.00  0.00    -0.504 OA
ATOM     19  H   UNL     1     -24.803  21.251   1.394  1.00  0.00     0.293 HD
ENDBRANCH  15  18
BRANCH  17  20
ATOM     20  O   UNL     1     -22.165  20.407  -1.135  1.00  0.00    -0.504 OA
ATOM     21  H   UNL     1     -21.331  20.766  -0.685  1.00  0.00     0.293 HD
ENDBRANCH  17  20
ENDBRANCH   1  12
BRANCH   2  22
ATOM     22  O   UNL     1     -21.035  15.683   0.895  1.00  0.00    -0.502 OA
ATOM     23  H   UNL     1     -20.288  15.245   1.420  1.00  0.00     0.293 HD
ENDBRANCH   2  22
BRANCH   6  24
ATOM     24  O   UNL     1     -20.931  10.894  -1.433  1.00  0.00    -0.507 OA
ATOM     25  H   UNL     1     -20.698   9.997  -1.830  1.00  0.00     0.293 HD
ENDBRANCH   6  24
BRANCH   8  26
ATOM     26  O   UNL     1     -25.124  11.005  -3.771  1.00  0.00    -0.508 OA
ATOM     27  H   UNL     1     -24.920  10.783  -4.739  1.00  0.00     0.293 HD
ENDBRANCH   8  26
TORSDOF 6
ENDMDL
