MODEL 1
REMARK VINA RESULT:    -3.045      0.000      0.000
REMARK INTER + INTRA:          -4.367
REMARK INTER:                  -3.936
REMARK INTRA:                  -0.432
REMARK UNBOUND:                -0.432
REMARK SMILES C=CC(=O)CCCCC
REMARK SMILES IDX 6 1 7 2 8 3 9 4 5 5 3 6 4 7 2 8 1 9
REMARK H PARENT
REMARK Flexibility Score: inf
ROOT
ATOM      1  C   UNL     1       7.905 -31.135  16.060  1.00  0.00     0.008 C 
ENDROOT
BRANCH   1   2
ATOM      2  C   UNL     1       8.899 -30.925  14.908  1.00  0.00     0.000 C 
BRANCH   2   3
ATOM      3  C   UNL     1       9.494 -29.513  14.946  1.00  0.00    -0.003 C 
ATOM      4  C   UNL     1      10.592 -29.348  13.900  1.00  0.00     0.004 C 
ENDBRANCH   2   3
ENDBRANCH   1   2
BRANCH   1   5
ATOM      5  C   UNL     1       7.054 -29.887  16.331  1.00  0.00     0.080 C 
BRANCH   5   6
ATOM      6  C   UNL     1       6.995 -29.557  17.795  1.00  0.00     0.155 C 
ATOM      7  O   UNL     1       5.912 -29.139  18.289  1.00  0.00    -0.295 OA
BRANCH   6   8
ATOM      8  C   UNL     1       8.200 -29.692  18.638  1.00  0.00     0.039 C 
ATOM      9  C   UNL     1       9.159 -28.770  18.668  1.00  0.00     0.012 C 
ENDBRANCH   6   8
ENDBRANCH   5   6
ENDBRANCH   1   5
TORSDOF 5
ENDMDL
MODEL 2
REMARK VINA RESULT:    -3.004      1.914      3.748
REMARK INTER + INTRA:          -4.314
REMARK INTER:                  -3.894
REMARK INTRA:                  -0.421
REMARK UNBOUND:                -0.432
REMARK SMILES C=CC(=O)CCCCC
REMARK SMILES IDX 6 1 7 2 8 3 9 4 5 5 3 6 4 7 2 8 1 9
REMARK H PARENT
REMARK Flexibility Score: inf
ROOT
ATOM      1  C   UNL     1       8.057 -30.324  16.955  1.00  0.00     0.008 C 
ENDROOT
BRANCH   1   2
ATOM      2  C   UNL     1       7.824 -29.522  18.245  1.00  0.00     0.000 C 
BRANCH   2   3
ATOM      3  C   UNL     1       9.142 -28.954  18.783  1.00  0.00    -0.003 C 
ATOM      4  C   UNL     1       9.942 -28.274  17.676  1.00  0.00     0.004 C 
ENDBRANCH   2   3
ENDBRANCH   1   2
BRANCH   1   5
ATOM      5  C   UNL     1       7.162 -29.847  15.803  1.00  0.00     0.080 C 
BRANCH   5   6
ATOM      6  C   UNL     1       7.854 -29.958  14.475  1.00  0.00     0.155 C 
ATOM      7  O   UNL     1       7.189 -29.782  13.417  1.00  0.00    -0.295 OA
BRANCH   6   8
ATOM      8  C   UNL     1       9.289 -30.299  14.409  1.00  0.00     0.039 C 
ATOM      9  C   UNL     1      10.226 -29.400  14.116  1.00  0.00     0.012 C 
ENDBRANCH   6   8
ENDBRANCH   5   6
ENDBRANCH   1   5
TORSDOF 5
ENDMDL
MODEL 3
REMARK VINA RESULT:    -2.944      1.538      2.001
REMARK INTER + INTRA:          -4.236
REMARK INTER:                  -4.007
REMARK INTRA:                  -0.229
REMARK UNBOUND:                -0.432
REMARK SMILES C=CC(=O)CCCCC
REMARK SMILES IDX 6 1 7 2 8 3 9 4 5 5 3 6 4 7 2 8 1 9
REMARK H PARENT
REMARK Flexibility Score: inf
ROOT
ATOM      1  C   UNL     1       7.924 -29.907  15.308  1.00  0.00     0.008 C 
ENDROOT
BRANCH   1   2
ATOM      2  C   UNL     1       8.487 -29.762  13.886  1.00  0.00     0.000 C 
BRANCH   2   3
ATOM      3  C   UNL     1       9.989 -29.456  13.919  1.00  0.00    -0.003 C 
ATOM      4  C   UNL     1      10.747 -30.305  12.903  1.00  0.00     0.004 C 
ENDBRANCH   2   3
ENDBRANCH   1   2
BRANCH   1   5
ATOM      5  C   UNL     1       8.933 -29.478  16.381  1.00  0.00     0.080 C 
BRANCH   5   6
ATOM      6  C   UNL     1       8.335 -29.516  17.758  1.00  0.00     0.155 C 
ATOM      7  O   UNL     1       9.053 -29.208  18.750  1.00  0.00    -0.295 OA
BRANCH   6   8
ATOM      8  C   UNL     1       6.934 -29.940  17.950  1.00  0.00     0.039 C 
ATOM      9  C   UNL     1       5.968 -29.087  18.284  1.00  0.00     0.012 C 
ENDBRANCH   6   8
ENDBRANCH   5   6
ENDBRANCH   1   5
TORSDOF 5
ENDMDL
MODEL 4
REMARK VINA RESULT:    -2.897      2.554      4.866
REMARK INTER + INTRA:          -4.175
REMARK INTER:                  -3.997
REMARK INTRA:                  -0.179
REMARK UNBOUND:                -0.432
REMARK SMILES C=CC(=O)CCCCC
REMARK SMILES IDX 6 1 7 2 8 3 9 4 5 5 3 6 4 7 2 8 1 9
REMARK H PARENT
REMARK Flexibility Score: inf
ROOT
ATOM      1  C   UNL     1       9.202 -29.378  16.028  1.00  0.00     0.008 C 
ENDROOT
BRANCH   1   2
ATOM      2  C   UNL     1       7.938 -29.915  16.718  1.00  0.00     0.000 C 
BRANCH   2   3
ATOM      3  C   UNL     1       8.026 -29.742  18.238  1.00  0.00    -0.003 C 
ATOM      4  C   UNL     1       9.237 -28.899  18.627  1.00  0.00     0.004 C 
ENDBRANCH   2   3
ENDBRANCH   1   2
BRANCH   1   5
ATOM      5  C   UNL     1       9.138 -29.522  14.502  1.00  0.00     0.080 C 
BRANCH   5   6
ATOM      6  C   UNL     1      10.508 -29.542  13.885  1.00  0.00     0.155 C 
ATOM      7  O   UNL     1      11.347 -28.661  14.219  1.00  0.00    -0.295 OA
BRANCH   6   8
ATOM      8  C   UNL     1      10.855 -30.563  12.877  1.00  0.00     0.039 C 
ATOM      9  C   UNL     1      10.849 -31.867  13.147  1.00  0.00     0.012 C 
ENDBRANCH   6   8
ENDBRANCH   5   6
ENDBRANCH   1   5
TORSDOF 5
ENDMDL
MODEL 5
REMARK VINA RESULT:    -2.890      1.903      2.141
REMARK INTER + INTRA:          -4.166
REMARK INTER:                  -3.953
REMARK INTRA:                  -0.213
REMARK UNBOUND:                -0.432
REMARK SMILES C=CC(=O)CCCCC
REMARK SMILES IDX 6 1 7 2 8 3 9 4 5 5 3 6 4 7 2 8 1 9
REMARK H PARENT
REMARK Flexibility Score: inf
ROOT
ATOM      1  C   UNL     1       9.103 -29.471  15.282  1.00  0.00     0.008 C 
ENDROOT
BRANCH   1   2
ATOM      2  C   UNL     1       9.104 -29.581  13.749  1.00  0.00     0.000 C 
BRANCH   2   3
ATOM      3  C   UNL     1       7.750 -30.083  13.235  1.00  0.00    -0.003 C 
ATOM      4  C   UNL     1       7.269 -29.252  12.048  1.00  0.00     0.004 C 
ENDBRANCH   2   3
ENDBRANCH   1   2
BRANCH   1   5
ATOM      5  C   UNL     1       7.737 -29.817  15.890  1.00  0.00     0.080 C 
BRANCH   5   6
ATOM      6  C   UNL     1       7.862 -30.291  17.310  1.00  0.00     0.155 C 
ATOM      7  O   UNL     1       7.830 -31.530  17.551  1.00  0.00    -0.295 OA
BRANCH   6   8
ATOM      8  C   UNL     1       7.988 -29.317  18.412  1.00  0.00     0.039 C 
ATOM      9  C   UNL     1       9.164 -28.975  18.934  1.00  0.00     0.012 C 
ENDBRANCH   6   8
ENDBRANCH   5   6
ENDBRANCH   1   5
TORSDOF 5
ENDMDL
MODEL 6
REMARK VINA RESULT:    -2.853      1.553      2.044
REMARK INTER + INTRA:          -4.119
REMARK INTER:                  -3.852
REMARK INTRA:                  -0.267
REMARK UNBOUND:                -0.432
REMARK SMILES C=CC(=O)CCCCC
REMARK SMILES IDX 6 1 7 2 8 3 9 4 5 5 3 6 4 7 2 8 1 9
REMARK H PARENT
REMARK Flexibility Score: inf
ROOT
ATOM      1  C   UNL     1       8.971 -29.645  15.355  1.00  0.00     0.008 C 
ENDROOT
BRANCH   1   2
ATOM      2  C   UNL     1       9.644 -30.420  14.211  1.00  0.00     0.000 C 
BRANCH   2   3
ATOM      3  C   UNL     1      10.465 -29.480  13.321  1.00  0.00    -0.003 C 
ATOM      4  C   UNL     1      11.470 -28.680  14.143  1.00  0.00     0.004 C 
ENDBRANCH   2   3
ENDBRANCH   1   2
BRANCH   1   5
ATOM      5  C   UNL     1       7.451 -29.859  15.387  1.00  0.00     0.080 C 
BRANCH   5   6
ATOM      6  C   UNL     1       6.977 -30.292  16.745  1.00  0.00     0.155 C 
ATOM      7  O   UNL     1       5.950 -29.751  17.240  1.00  0.00    -0.295 OA
BRANCH   6   8
ATOM      8  C   UNL     1       7.722 -31.317  17.502  1.00  0.00     0.039 C 
ATOM      9  C   UNL     1       7.572 -32.621  17.280  1.00  0.00     0.012 C 
ENDBRANCH   6   8
ENDBRANCH   5   6
ENDBRANCH   1   5
TORSDOF 5
ENDMDL
MODEL 7
REMARK VINA RESULT:    -2.836      2.722      4.652
REMARK INTER + INTRA:          -4.097
REMARK INTER:                  -3.796
REMARK INTRA:                  -0.301
REMARK UNBOUND:                -0.432
REMARK SMILES C=CC(=O)CCCCC
REMARK SMILES IDX 6 1 7 2 8 3 9 4 5 5 3 6 4 7 2 8 1 9
REMARK H PARENT
REMARK Flexibility Score: inf
ROOT
ATOM      1  C   UNL     1       8.704 -29.564  15.945  1.00  0.00     0.008 C 
ENDROOT
BRANCH   1   2
ATOM      2  C   UNL     1       7.469 -29.918  16.790  1.00  0.00     0.000 C 
BRANCH   2   3
ATOM      3  C   UNL     1       7.797 -29.874  18.286  1.00  0.00    -0.003 C 
ATOM      4  C   UNL     1       9.054 -29.051  18.551  1.00  0.00     0.004 C 
ENDBRANCH   2   3
ENDBRANCH   1   2
BRANCH   1   5
ATOM      5  C   UNL     1       8.843 -30.467  14.712  1.00  0.00     0.080 C 
BRANCH   5   6
ATOM      6  C   UNL     1       8.637 -29.703  13.435  1.00  0.00     0.155 C 
ATOM      7  O   UNL     1       9.608 -29.076  12.928  1.00  0.00    -0.295 OA
BRANCH   6   8
ATOM      8  C   UNL     1       7.305 -29.663  12.798  1.00  0.00     0.039 C 
ATOM      9  C   UNL     1       6.325 -30.497  13.137  1.00  0.00     0.012 C 
ENDBRANCH   6   8
ENDBRANCH   5   6
ENDBRANCH   1   5
TORSDOF 5
ENDMDL
MODEL 8
REMARK VINA RESULT:    -2.794      1.689      2.914
REMARK INTER + INTRA:          -4.043
REMARK INTER:                  -3.676
REMARK INTRA:                  -0.366
REMARK UNBOUND:                -0.432
REMARK SMILES C=CC(=O)CCCCC
REMARK SMILES IDX 6 1 7 2 8 3 9 4 5 5 3 6 4 7 2 8 1 9
REMARK H PARENT
REMARK Flexibility Score: inf
ROOT
ATOM      1  C   UNL     1       9.558 -30.022  14.482  1.00  0.00     0.008 C 
ENDROOT
BRANCH   1   2
ATOM      2  C   UNL     1      10.281 -29.227  13.383  1.00  0.00     0.000 C 
BRANCH   2   3
ATOM      3  C   UNL     1       9.411 -29.110  12.127  1.00  0.00    -0.003 C 
ATOM      4  C   UNL     1       7.992 -29.604  12.392  1.00  0.00     0.004 C 
ENDBRANCH   2   3
ENDBRANCH   1   2
BRANCH   1   5
ATOM      5  C   UNL     1       9.403 -29.215  15.778  1.00  0.00     0.080 C 
BRANCH   5   6
ATOM      6  C   UNL     1       8.226 -29.680  16.588  1.00  0.00     0.155 C 
ATOM      7  O   UNL     1       8.389 -29.956  17.809  1.00  0.00    -0.295 OA
BRANCH   6   8
ATOM      8  C   UNL     1       6.903 -29.841  15.954  1.00  0.00     0.039 C 
ATOM      9  C   UNL     1       6.191 -30.961  16.058  1.00  0.00     0.012 C 
ENDBRANCH   6   8
ENDBRANCH   5   6
ENDBRANCH   1   5
TORSDOF 5
ENDMDL
