MODEL 1
REMARK VINA RESULT:     2.450      0.000      0.000
REMARK INTER + INTRA:           4.632
REMARK INTER:                   4.313
REMARK INTRA:                   0.320
REMARK UNBOUND:                 0.320
REMARK SMILES CCCCCCCCCCCCCCC(=O)[O-]
REMARK SMILES IDX 9 1 10 2 11 3 12 4 13 5 14 6 15 7 16 8 17 9 8 10 7 11 6 12
REMARK SMILES IDX 5 13 4 14 3 15 2 16 1 17
REMARK H PARENT
REMARK Flexibility Score: inf
ROOT
ATOM      1  C   UNL     1     -29.263   7.032  -1.724  1.00  0.00     0.000 C 
ENDROOT
BRANCH   1   2
ATOM      2  C   UNL     1     -28.582   7.884  -0.648  1.00  0.00     0.000 C 
BRANCH   2   3
ATOM      3  C   UNL     1     -28.466   7.114   0.673  1.00  0.00     0.000 C 
BRANCH   3   4
ATOM      4  C   UNL     1     -29.315   7.770   1.770  1.00  0.00     0.000 C 
BRANCH   4   5
ATOM      5  C   UNL     1     -30.699   7.113   1.861  1.00  0.00     0.006 C 
BRANCH   5   6
ATOM      6  C   UNL     1     -31.346   6.924   0.483  1.00  0.00     0.053 C 
BRANCH   6   7
ATOM      7  C   UNL     1     -32.419   7.938   0.227  1.00  0.00     0.041 C 
ATOM      8  O   UNL     1     -32.829   8.142  -0.946  1.00  0.00    -0.550 OA
ATOM      9  O   UNL     1     -32.989   8.632   1.286  1.00  0.00    -0.550 OA
ENDBRANCH   6   7
ENDBRANCH   5   6
ENDBRANCH   4   5
ENDBRANCH   3   4
ENDBRANCH   2   3
ENDBRANCH   1   2
BRANCH   1  10
ATOM     10  C   UNL     1     -28.990   7.591  -3.125  1.00  0.00     0.000 C 
BRANCH  10  11
ATOM     11  C   UNL     1     -27.620   8.279  -3.186  1.00  0.00    -0.000 C 
BRANCH  11  12
ATOM     12  C   UNL     1     -27.054   8.249  -4.614  1.00  0.00    -0.000 C 
BRANCH  12  13
ATOM     13  C   UNL     1     -28.071   8.718  -5.667  1.00  0.00    -0.000 C 
BRANCH  13  14
ATOM     14  C   UNL     1     -27.453   8.842  -7.070  1.00  0.00    -0.000 C 
BRANCH  14  15
ATOM     15  C   UNL     1     -26.262   9.817  -7.115  1.00  0.00    -0.000 C 
BRANCH  15  16
ATOM     16  C   UNL     1     -24.875   9.152  -7.042  1.00  0.00    -0.003 C 
ATOM     17  C   UNL     1     -24.942   7.626  -7.015  1.00  0.00     0.004 C 
ENDBRANCH  15  16
ENDBRANCH  14  15
ENDBRANCH  13  14
ENDBRANCH  12  13
ENDBRANCH  11  12
ENDBRANCH  10  11
ENDBRANCH   1  10
TORSDOF 13
ENDMDL
MODEL 2
REMARK VINA RESULT:     3.271      3.442      7.946
REMARK INTER + INTRA:           6.077
REMARK INTER:                   6.693
REMARK INTRA:                  -0.616
REMARK UNBOUND:                 0.320
REMARK SMILES CCCCCCCCCCCCCCC(=O)[O-]
REMARK SMILES IDX 9 1 10 2 11 3 12 4 13 5 14 6 15 7 16 8 17 9 8 10 7 11 6 12
REMARK SMILES IDX 5 13 4 14 3 15 2 16 1 17
REMARK H PARENT
REMARK Flexibility Score: inf
ROOT
ATOM      1  C   UNL     1     -29.340   7.396  -2.058  1.00  0.00     0.000 C 
ENDROOT
BRANCH   1   2
ATOM      2  C   UNL     1     -29.345   7.431  -3.590  1.00  0.00     0.000 C 
BRANCH   2   3
ATOM      3  C   UNL     1     -28.633   8.684  -4.115  1.00  0.00     0.000 C 
BRANCH   3   4
ATOM      4  C   UNL     1     -27.205   8.356  -4.568  1.00  0.00     0.000 C 
BRANCH   4   5
ATOM      5  C   UNL     1     -27.204   7.239  -5.622  1.00  0.00     0.006 C 
BRANCH   5   6
ATOM      6  C   UNL     1     -26.833   7.756  -7.018  1.00  0.00     0.053 C 
BRANCH   6   7
ATOM      7  C   UNL     1     -26.141   9.084  -6.954  1.00  0.00     0.041 C 
ATOM      8  O   UNL     1     -24.889   9.139  -6.837  1.00  0.00    -0.550 OA
ATOM      9  O   UNL     1     -26.874  10.258  -7.060  1.00  0.00    -0.550 OA
ENDBRANCH   6   7
ENDBRANCH   5   6
ENDBRANCH   4   5
ENDBRANCH   3   4
ENDBRANCH   2   3
ENDBRANCH   1   2
BRANCH   1  10
ATOM     10  C   UNL     1     -28.164   8.202  -1.493  1.00  0.00     0.000 C 
BRANCH  10  11
ATOM     11  C   UNL     1     -28.005   7.963   0.014  1.00  0.00    -0.000 C 
BRANCH  11  12
ATOM     12  C   UNL     1     -29.031   6.936   0.518  1.00  0.00    -0.000 C 
BRANCH  12  13
ATOM     13  C   UNL     1     -29.690   7.355   1.842  1.00  0.00    -0.000 C 
BRANCH  13  14
ATOM     14  C   UNL     1     -31.223   7.241   1.800  1.00  0.00    -0.000 C 
BRANCH  14  15
ATOM     15  C   UNL     1     -31.780   7.180   0.366  1.00  0.00    -0.000 C 
BRANCH  15  16
ATOM     16  C   UNL     1     -32.824   8.259   0.027  1.00  0.00    -0.003 C 
ATOM     17  C   UNL     1     -33.145   9.174   1.209  1.00  0.00     0.004 C 
ENDBRANCH  15  16
ENDBRANCH  14  15
ENDBRANCH  13  14
ENDBRANCH  12  13
ENDBRANCH  11  12
ENDBRANCH  10  11
ENDBRANCH   1  10
TORSDOF 13
ENDMDL
MODEL 3
REMARK VINA RESULT:     3.354      3.534      8.060
REMARK INTER + INTRA:           6.222
REMARK INTER:                   5.502
REMARK INTRA:                   0.720
REMARK UNBOUND:                 0.320
REMARK SMILES CCCCCCCCCCCCCCC(=O)[O-]
REMARK SMILES IDX 9 1 10 2 11 3 12 4 13 5 14 6 15 7 16 8 17 9 8 10 7 11 6 12
REMARK SMILES IDX 5 13 4 14 3 15 2 16 1 17
REMARK H PARENT
REMARK Flexibility Score: inf
ROOT
ATOM      1  C   UNL     1     -28.404   7.207  -0.705  1.00  0.00     0.000 C 
ENDROOT
BRANCH   1   2
ATOM      2  C   UNL     1     -27.511   8.252  -1.382  1.00  0.00     0.000 C 
BRANCH   2   3
ATOM      3  C   UNL     1     -27.253   7.889  -2.849  1.00  0.00     0.000 C 
BRANCH   3   4
ATOM      4  C   UNL     1     -28.461   8.243  -3.725  1.00  0.00     0.000 C 
BRANCH   4   5
ATOM      5  C   UNL     1     -28.019   8.620  -5.146  1.00  0.00     0.006 C 
BRANCH   5   6
ATOM      6  C   UNL     1     -26.737   7.891  -5.569  1.00  0.00     0.053 C 
BRANCH   6   7
ATOM      7  C   UNL     1     -25.978   8.658  -6.608  1.00  0.00     0.041 C 
ATOM      8  O   UNL     1     -24.894   8.206  -7.062  1.00  0.00    -0.550 OA
ATOM      9  O   UNL     1     -26.484   9.855  -7.100  1.00  0.00    -0.550 OA
ENDBRANCH   6   7
ENDBRANCH   5   6
ENDBRANCH   4   5
ENDBRANCH   3   4
ENDBRANCH   2   3
ENDBRANCH   1   2
BRANCH   1  10
ATOM     10  C   UNL     1     -28.815   7.661   0.701  1.00  0.00     0.000 C 
BRANCH  10  11
ATOM     11  C   UNL     1     -30.191   7.101   1.081  1.00  0.00    -0.000 C 
BRANCH  11  12
ATOM     12  C   UNL     1     -30.849   6.400  -0.117  1.00  0.00    -0.000 C 
BRANCH  12  13
ATOM     13  C   UNL     1     -31.639   7.370  -1.012  1.00  0.00    -0.000 C 
BRANCH  13  14
ATOM     14  C   UNL     1     -32.687   8.177  -0.227  1.00  0.00    -0.000 C 
BRANCH  14  15
ATOM     15  C   UNL     1     -32.384   8.241   1.282  1.00  0.00    -0.000 C 
BRANCH  15  16
ATOM     16  C   UNL     1     -33.093   9.378   2.039  1.00  0.00    -0.003 C 
ATOM     17  C   UNL     1     -34.481   8.988   2.545  1.00  0.00     0.004 C 
ENDBRANCH  15  16
ENDBRANCH  14  15
ENDBRANCH  13  14
ENDBRANCH  12  13
ENDBRANCH  11  12
ENDBRANCH  10  11
ENDBRANCH   1  10
TORSDOF 13
ENDMDL
MODEL 4
REMARK VINA RESULT:     3.388      1.042      1.287
REMARK INTER + INTRA:           6.282
REMARK INTER:                   6.553
REMARK INTRA:                  -0.271
REMARK UNBOUND:                 0.320
REMARK SMILES CCCCCCCCCCCCCCC(=O)[O-]
REMARK SMILES IDX 9 1 10 2 11 3 12 4 13 5 14 6 15 7 16 8 17 9 8 10 7 11 6 12
REMARK SMILES IDX 5 13 4 14 3 15 2 16 1 17
REMARK H PARENT
REMARK Flexibility Score: inf
ROOT
ATOM      1  C   UNL     1     -29.196   7.483  -2.187  1.00  0.00     0.000 C 
ENDROOT
BRANCH   1   2
ATOM      2  C   UNL     1     -29.716   6.774  -0.932  1.00  0.00     0.000 C 
BRANCH   2   3
ATOM      3  C   UNL     1     -29.237   7.485   0.340  1.00  0.00     0.000 C 
BRANCH   3   4
ATOM      4  C   UNL     1     -30.339   7.506   1.407  1.00  0.00     0.000 C 
BRANCH   4   5
ATOM      5  C   UNL     1     -31.667   6.989   0.838  1.00  0.00     0.006 C 
BRANCH   5   6
ATOM      6  C   UNL     1     -32.499   8.107   0.195  1.00  0.00     0.053 C 
BRANCH   6   7
ATOM      7  C   UNL     1     -33.002   9.083   1.214  1.00  0.00     0.041 C 
ATOM      8  O   UNL     1     -33.025  10.315   0.953  1.00  0.00    -0.550 OA
ATOM      9  O   UNL     1     -33.478   8.630   2.438  1.00  0.00    -0.550 OA
ENDBRANCH   6   7
ENDBRANCH   5   6
ENDBRANCH   4   5
ENDBRANCH   3   4
ENDBRANCH   2   3
ENDBRANCH   1   2
BRANCH   1  10
ATOM     10  C   UNL     1     -27.729   7.896  -2.019  1.00  0.00     0.000 C 
BRANCH  10  11
ATOM     11  C   UNL     1     -27.024   7.993  -3.378  1.00  0.00    -0.000 C 
BRANCH  11  12
ATOM     12  C   UNL     1     -27.956   8.600  -4.438  1.00  0.00    -0.000 C 
BRANCH  12  13
ATOM     13  C   UNL     1     -27.641   8.105  -5.859  1.00  0.00    -0.000 C 
BRANCH  13  14
ATOM     14  C   UNL     1     -27.546   9.254  -6.876  1.00  0.00    -0.000 C 
BRANCH  14  15
ATOM     15  C   UNL     1     -26.114   9.801  -7.029  1.00  0.00    -0.000 C 
BRANCH  15  16
ATOM     16  C   UNL     1     -25.012   8.913  -6.424  1.00  0.00    -0.003 C 
ATOM     17  C   UNL     1     -24.889   7.555  -7.113  1.00  0.00     0.004 C 
ENDBRANCH  15  16
ENDBRANCH  14  15
ENDBRANCH  13  14
ENDBRANCH  12  13
ENDBRANCH  11  12
ENDBRANCH  10  11
ENDBRANCH   1  10
TORSDOF 13
ENDMDL
MODEL 5
REMARK VINA RESULT:     3.598      3.711      7.444
REMARK INTER + INTRA:           6.652
REMARK INTER:                   6.121
REMARK INTRA:                   0.531
REMARK UNBOUND:                 0.320
REMARK SMILES CCCCCCCCCCCCCCC(=O)[O-]
REMARK SMILES IDX 9 1 10 2 11 3 12 4 13 5 14 6 15 7 16 8 17 9 8 10 7 11 6 12
REMARK SMILES IDX 5 13 4 14 3 15 2 16 1 17
REMARK H PARENT
REMARK Flexibility Score: inf
ROOT
ATOM      1  C   UNL     1     -27.314   8.331  -0.566  1.00  0.00     0.000 C 
ENDROOT
BRANCH   1   2
ATOM      2  C   UNL     1     -26.786   7.806  -1.905  1.00  0.00     0.000 C 
BRANCH   2   3
ATOM      3  C   UNL     1     -27.761   8.126  -3.045  1.00  0.00     0.000 C 
BRANCH   3   4
ATOM      4  C   UNL     1     -27.048   8.102  -4.403  1.00  0.00     0.000 C 
BRANCH   4   5
ATOM      5  C   UNL     1     -27.827   8.912  -5.448  1.00  0.00     0.006 C 
BRANCH   5   6
ATOM      6  C   UNL     1     -27.227   8.778  -6.854  1.00  0.00     0.053 C 
BRANCH   6   7
ATOM      7  C   UNL     1     -25.753   8.515  -6.807  1.00  0.00     0.041 C 
ATOM      8  O   UNL     1     -25.302   7.384  -7.125  1.00  0.00    -0.550 OA
ATOM      9  O   UNL     1     -24.875   9.530  -6.447  1.00  0.00    -0.550 OA
ENDBRANCH   6   7
ENDBRANCH   5   6
ENDBRANCH   4   5
ENDBRANCH   3   4
ENDBRANCH   2   3
ENDBRANCH   1   2
BRANCH   1  10
ATOM     10  C   UNL     1     -28.683   7.723  -0.237  1.00  0.00     0.000 C 
BRANCH  10  11
ATOM     11  C   UNL     1     -28.722   7.200   1.205  1.00  0.00    -0.000 C 
BRANCH  11  12
ATOM     12  C   UNL     1     -30.049   7.569   1.886  1.00  0.00    -0.000 C 
BRANCH  12  13
ATOM     13  C   UNL     1     -31.260   6.873   1.244  1.00  0.00    -0.000 C 
BRANCH  13  14
ATOM     14  C   UNL     1     -32.100   7.830   0.381  1.00  0.00    -0.000 C 
BRANCH  14  15
ATOM     15  C   UNL     1     -32.000   7.523  -1.125  1.00  0.00    -0.000 C 
BRANCH  15  16
ATOM     16  C   UNL     1     -30.906   6.511  -1.510  1.00  0.00    -0.003 C 
ATOM     17  C   UNL     1     -30.382   6.707  -2.932  1.00  0.00     0.004 C 
ENDBRANCH  15  16
ENDBRANCH  14  15
ENDBRANCH  13  14
ENDBRANCH  12  13
ENDBRANCH  11  12
ENDBRANCH  10  11
ENDBRANCH   1  10
TORSDOF 13
ENDMDL
MODEL 6
REMARK VINA RESULT:     3.611      3.590      7.408
REMARK INTER + INTRA:           6.675
REMARK INTER:                   7.500
REMARK INTRA:                  -0.825
REMARK UNBOUND:                 0.320
REMARK SMILES CCCCCCCCCCCCCCC(=O)[O-]
REMARK SMILES IDX 9 1 10 2 11 3 12 4 13 5 14 6 15 7 16 8 17 9 8 10 7 11 6 12
REMARK SMILES IDX 5 13 4 14 3 15 2 16 1 17
REMARK H PARENT
REMARK Flexibility Score: inf
ROOT
ATOM      1  C   UNL     1     -28.731   7.573  -0.641  1.00  0.00     0.000 C 
ENDROOT
BRANCH   1   2
ATOM      2  C   UNL     1     -27.485   8.251  -1.220  1.00  0.00     0.000 C 
BRANCH   2   3
ATOM      3  C   UNL     1     -27.296   7.888  -2.697  1.00  0.00     0.000 C 
BRANCH   3   4
ATOM      4  C   UNL     1     -28.523   8.289  -3.525  1.00  0.00     0.000 C 
BRANCH   4   5
ATOM      5  C   UNL     1     -28.150   8.492  -5.000  1.00  0.00     0.006 C 
BRANCH   5   6
ATOM      6  C   UNL     1     -26.739   7.981  -5.319  1.00  0.00     0.053 C 
BRANCH   6   7
ATOM      7  C   UNL     1     -26.138   8.697  -6.490  1.00  0.00     0.041 C 
ATOM      8  O   UNL     1     -26.733   9.682  -7.002  1.00  0.00    -0.550 OA
ATOM      9  O   UNL     1     -24.907   8.300  -6.993  1.00  0.00    -0.550 OA
ENDBRANCH   6   7
ENDBRANCH   5   6
ENDBRANCH   4   5
ENDBRANCH   3   4
ENDBRANCH   2   3
ENDBRANCH   1   2
BRANCH   1  10
ATOM     10  C   UNL     1     -28.649   7.482   0.887  1.00  0.00     0.000 C 
BRANCH  10  11
ATOM     11  C   UNL     1     -30.014   7.128   1.493  1.00  0.00    -0.000 C 
BRANCH  11  12
ATOM     12  C   UNL     1     -31.108   7.120   0.414  1.00  0.00    -0.000 C 
BRANCH  12  13
ATOM     13  C   UNL     1     -32.361   7.906   0.834  1.00  0.00    -0.000 C 
BRANCH  13  14
ATOM     14  C   UNL     1     -33.002   8.665  -0.341  1.00  0.00    -0.000 C 
BRANCH  14  15
ATOM     15  C   UNL     1     -32.872   7.915  -1.680  1.00  0.00    -0.000 C 
BRANCH  15  16
ATOM     16  C   UNL     1     -33.880   8.340  -2.763  1.00  0.00    -0.003 C 
ATOM     17  C   UNL     1     -33.238   8.532  -4.137  1.00  0.00     0.004 C 
ENDBRANCH  15  16
ENDBRANCH  14  15
ENDBRANCH  13  14
ENDBRANCH  12  13
ENDBRANCH  11  12
ENDBRANCH  10  11
ENDBRANCH   1  10
TORSDOF 13
ENDMDL
MODEL 7
REMARK VINA RESULT:     4.014      1.690      2.444
REMARK INTER + INTRA:           7.385
REMARK INTER:                   7.334
REMARK INTRA:                   0.051
REMARK UNBOUND:                 0.320
REMARK SMILES CCCCCCCCCCCCCCC(=O)[O-]
REMARK SMILES IDX 9 1 10 2 11 3 12 4 13 5 14 6 15 7 16 8 17 9 8 10 7 11 6 12
REMARK SMILES IDX 5 13 4 14 3 15 2 16 1 17
REMARK H PARENT
REMARK Flexibility Score: inf
ROOT
ATOM      1  C   UNL     1     -28.725   7.723  -1.507  1.00  0.00     0.000 C 
ENDROOT
BRANCH   1   2
ATOM      2  C   UNL     1     -29.689   6.804  -2.265  1.00  0.00     0.000 C 
BRANCH   2   3
ATOM      3  C   UNL     1     -30.945   6.518  -1.435  1.00  0.00     0.000 C 
BRANCH   3   4
ATOM      4  C   UNL     1     -31.663   7.819  -1.055  1.00  0.00     0.000 C 
BRANCH   4   5
ATOM      5  C   UNL     1     -32.002   7.843   0.442  1.00  0.00     0.006 C 
BRANCH   5   6
ATOM      6  C   UNL     1     -31.264   6.749   1.224  1.00  0.00     0.053 C 
BRANCH   6   7
ATOM      7  C   UNL     1     -30.028   7.275   1.886  1.00  0.00     0.041 C 
ATOM      8  O   UNL     1     -30.008   7.465   3.131  1.00  0.00    -0.550 OA
ATOM      9  O   UNL     1     -28.886   7.523   1.135  1.00  0.00    -0.550 OA
ENDBRANCH   6   7
ENDBRANCH   5   6
ENDBRANCH   4   5
ENDBRANCH   3   4
ENDBRANCH   2   3
ENDBRANCH   1   2
BRANCH   1  10
ATOM     10  C   UNL     1     -27.973   8.648  -2.471  1.00  0.00     0.000 C 
BRANCH  10  11
ATOM     11  C   UNL     1     -26.741   7.949  -3.058  1.00  0.00    -0.000 C 
BRANCH  11  12
ATOM     12  C   UNL     1     -26.984   7.543  -4.520  1.00  0.00    -0.000 C 
BRANCH  12  13
ATOM     13  C   UNL     1     -27.909   8.522  -5.262  1.00  0.00    -0.000 C 
BRANCH  13  14
ATOM     14  C   UNL     1     -27.480   8.746  -6.722  1.00  0.00    -0.000 C 
BRANCH  14  15
ATOM     15  C   UNL     1     -26.261   7.896  -7.125  1.00  0.00    -0.000 C 
BRANCH  15  16
ATOM     16  C   UNL     1     -24.905   8.430  -6.630  1.00  0.00    -0.003 C 
ATOM     17  C   UNL     1     -24.879   9.950  -6.474  1.00  0.00     0.004 C 
ENDBRANCH  15  16
ENDBRANCH  14  15
ENDBRANCH  13  14
ENDBRANCH  12  13
ENDBRANCH  11  12
ENDBRANCH  10  11
ENDBRANCH   1  10
TORSDOF 13
ENDMDL
MODEL 8
REMARK VINA RESULT:     4.208      1.652      2.720
REMARK INTER + INTRA:           7.725
REMARK INTER:                   7.009
REMARK INTRA:                   0.716
REMARK UNBOUND:                 0.320
REMARK SMILES CCCCCCCCCCCCCCC(=O)[O-]
REMARK SMILES IDX 9 1 10 2 11 3 12 4 13 5 14 6 15 7 16 8 17 9 8 10 7 11 6 12
REMARK SMILES IDX 5 13 4 14 3 15 2 16 1 17
REMARK H PARENT
REMARK Flexibility Score: inf
ROOT
ATOM      1  C   UNL     1     -28.363   7.212   0.697  1.00  0.00     0.000 C 
ENDROOT
BRANCH   1   2
ATOM      2  C   UNL     1     -29.427   7.693   1.690  1.00  0.00     0.000 C 
BRANCH   2   3
ATOM      3  C   UNL     1     -30.720   6.883   1.546  1.00  0.00     0.000 C 
BRANCH   3   4
ATOM      4  C   UNL     1     -31.892   7.784   1.138  1.00  0.00     0.000 C 
BRANCH   4   5
ATOM      5  C   UNL     1     -32.411   7.416  -0.259  1.00  0.00     0.006 C 
BRANCH   5   6
ATOM      6  C   UNL     1     -31.393   7.738  -1.361  1.00  0.00     0.053 C 
BRANCH   6   7
ATOM      7  C   UNL     1     -30.763   6.498  -1.917  1.00  0.00     0.041 C 
ATOM      8  O   UNL     1     -30.650   5.470  -1.201  1.00  0.00    -0.550 OA
ATOM      9  O   UNL     1     -30.332   6.468  -3.237  1.00  0.00    -0.550 OA
ENDBRANCH   6   7
ENDBRANCH   5   6
ENDBRANCH   4   5
ENDBRANCH   3   4
ENDBRANCH   2   3
ENDBRANCH   1   2
BRANCH   1  10
ATOM     10  C   UNL     1     -28.475   7.963  -0.636  1.00  0.00     0.000 C 
BRANCH  10  11
ATOM     11  C   UNL     1     -27.088   8.306  -1.193  1.00  0.00    -0.000 C 
BRANCH  11  12
ATOM     12  C   UNL     1     -26.997   7.966  -2.689  1.00  0.00    -0.000 C 
BRANCH  12  13
ATOM     13  C   UNL     1     -28.257   8.376  -3.469  1.00  0.00    -0.000 C 
BRANCH  13  14
ATOM     14  C   UNL     1     -27.936   8.873  -4.889  1.00  0.00    -0.000 C 
BRANCH  14  15
ATOM     15  C   UNL     1     -27.013   7.914  -5.663  1.00  0.00    -0.000 C 
BRANCH  15  16
ATOM     16  C   UNL     1     -26.393   8.501  -6.944  1.00  0.00    -0.003 C 
ATOM     17  C   UNL     1     -24.876   8.664  -6.855  1.00  0.00     0.004 C 
ENDBRANCH  15  16
ENDBRANCH  14  15
ENDBRANCH  13  14
ENDBRANCH  12  13
ENDBRANCH  11  12
ENDBRANCH  10  11
ENDBRANCH   1  10
TORSDOF 13
ENDMDL
MODEL 9
REMARK VINA RESULT:     4.569      3.648      7.358
REMARK INTER + INTRA:           8.362
REMARK INTER:                   6.616
REMARK INTRA:                   1.746
REMARK UNBOUND:                 0.320
REMARK SMILES CCCCCCCCCCCCCCC(=O)[O-]
REMARK SMILES IDX 9 1 10 2 11 3 12 4 13 5 14 6 15 7 16 8 17 9 8 10 7 11 6 12
REMARK SMILES IDX 5 13 4 14 3 15 2 16 1 17
REMARK H PARENT
REMARK Flexibility Score: inf
ROOT
ATOM      1  C   UNL     1     -30.101   6.222  -2.741  1.00  0.00     0.000 C 
ENDROOT
BRANCH   1   2
ATOM      2  C   UNL     1     -29.639   7.562  -3.325  1.00  0.00     0.000 C 
BRANCH   2   3
ATOM      3  C   UNL     1     -28.130   7.755  -3.131  1.00  0.00     0.000 C 
BRANCH   3   4
ATOM      4  C   UNL     1     -27.407   7.837  -4.481  1.00  0.00     0.000 C 
BRANCH   4   5
ATOM      5  C   UNL     1     -27.891   9.047  -5.292  1.00  0.00     0.006 C 
BRANCH   5   6
ATOM      6  C   UNL     1     -27.232   9.121  -6.676  1.00  0.00     0.053 C 
BRANCH   6   7
ATOM      7  C   UNL     1     -25.851   8.540  -6.667  1.00  0.00     0.041 C 
ATOM      8  O   UNL     1     -24.886   9.212  -6.216  1.00  0.00    -0.550 OA
ATOM      9  O   UNL     1     -25.636   7.247  -7.123  1.00  0.00    -0.550 OA
ENDBRANCH   6   7
ENDBRANCH   5   6
ENDBRANCH   4   5
ENDBRANCH   3   4
ENDBRANCH   2   3
ENDBRANCH   1   2
BRANCH   1  10
ATOM     10  C   UNL     1     -30.677   6.405  -1.332  1.00  0.00     0.000 C 
BRANCH  10  11
ATOM     11  C   UNL     1     -31.713   7.536  -1.302  1.00  0.00    -0.000 C 
BRANCH  11  12
ATOM     12  C   UNL     1     -32.165   7.829   0.137  1.00  0.00    -0.000 C 
BRANCH  12  13
ATOM     13  C   UNL     1     -31.464   6.935   1.174  1.00  0.00    -0.000 C 
BRANCH  13  14
ATOM     14  C   UNL     1     -30.045   7.424   1.510  1.00  0.00    -0.000 C 
BRANCH  14  15
ATOM     15  C   UNL     1     -29.041   7.175   0.370  1.00  0.00    -0.000 C 
BRANCH  15  16
ATOM     16  C   UNL     1     -27.607   7.662   0.649  1.00  0.00    -0.003 C 
ATOM     17  C   UNL     1     -26.923   8.250  -0.584  1.00  0.00     0.004 C 
ENDBRANCH  15  16
ENDBRANCH  14  15
ENDBRANCH  13  14
ENDBRANCH  12  13
ENDBRANCH  11  12
ENDBRANCH  10  11
ENDBRANCH   1  10
TORSDOF 13
ENDMDL
