MODEL 1
REMARK VINA RESULT:    -5.584      0.000      0.000
REMARK INTER + INTRA:          -7.536
REMARK INTER:                  -7.053
REMARK INTRA:                  -0.482
REMARK UNBOUND:                -0.482
REMARK SMILES Oc1ccc(CCc2cc(O)cc(O)c2)cc1
REMARK SMILES IDX 6 1 5 2 4 3 3 4 2 5 16 6 17 7 1 8 7 10 8 11 15 12 9 13 13 14
REMARK SMILES IDX 10 15 12 16 14 17 11 19
REMARK H PARENT 1 9 14 18 11 20
REMARK Flexibility Score: inf
ROOT
ATOM      1  C   UNL     1     -31.833 -21.673 -33.705  1.00  0.00     0.040 C 
ENDROOT
BRANCH   1   2
ATOM      2  C   UNL     1     -32.265 -21.798 -35.144  1.00  0.00    -0.047 A 
ATOM      3  C   UNL     1     -33.599 -21.550 -35.509  1.00  0.00     0.007 A 
ATOM      4  C   UNL     1     -34.010 -21.715 -36.835  1.00  0.00     0.046 A 
ATOM      5  C   UNL     1     -33.096 -22.133 -37.807  1.00  0.00     0.115 A 
ATOM      6  C   UNL     1     -31.353 -22.225 -36.122  1.00  0.00     0.007 A 
ATOM      7  C   UNL     1     -31.765 -22.388 -37.448  1.00  0.00     0.046 A 
BRANCH   5   8
ATOM      8  O   UNL     1     -33.519 -22.293 -39.125  1.00  0.00    -0.508 OA
ATOM      9  H   UNL     1     -33.421 -21.550 -39.806  1.00  0.00     0.293 HD
ENDBRANCH   5   8
ENDBRANCH   1   2
BRANCH   1  10
ATOM     10  C   UNL     1     -31.967 -20.233 -33.193  1.00  0.00     0.040 C 
BRANCH  10  11
ATOM     11  C   UNL     1     -30.674 -19.725 -32.607  1.00  0.00    -0.040 A 
ATOM     12  C   UNL     1     -30.555 -19.526 -31.223  1.00  0.00     0.050 A 
ATOM     13  C   UNL     1     -29.559 -19.508 -33.433  1.00  0.00     0.050 A 
ATOM     14  C   UNL     1     -29.340 -19.100 -30.671  1.00  0.00     0.119 A 
ATOM     15  C   UNL     1     -28.344 -19.085 -32.884  1.00  0.00     0.119 A 
ATOM     16  C   UNL     1     -28.238 -18.878 -31.503  1.00  0.00     0.092 A 
BRANCH  14  17
ATOM     17  O   UNL     1     -29.216 -18.896 -29.298  1.00  0.00    -0.508 OA
ATOM     18  H   UNL     1     -28.570 -19.440 -28.738  1.00  0.00     0.293 HD
ENDBRANCH  14  17
BRANCH  15  19
ATOM     19  O   UNL     1     -27.248 -18.875 -33.719  1.00  0.00    -0.508 OA
ATOM     20  H   UNL     1     -26.493 -19.547 -33.780  1.00  0.00     0.293 HD
ENDBRANCH  15  19
ENDBRANCH  10  11
ENDBRANCH   1  10
TORSDOF 6
ENDMDL
MODEL 2
REMARK VINA RESULT:    -5.542      1.390      7.058
REMARK INTER + INTRA:          -7.482
REMARK INTER:                  -7.105
REMARK INTRA:                  -0.376
REMARK UNBOUND:                -0.482
REMARK SMILES Oc1ccc(CCc2cc(O)cc(O)c2)cc1
REMARK SMILES IDX 6 1 5 2 4 3 3 4 2 5 16 6 17 7 1 8 7 10 8 11 15 12 9 13 13 14
REMARK SMILES IDX 10 15 12 16 14 17 11 19
REMARK H PARENT 1 9 14 18 11 20
REMARK Flexibility Score: inf
ROOT
ATOM      1  C   UNL     1     -31.854 -20.272 -33.757  1.00  0.00     0.040 C 
ENDROOT
BRANCH   1   2
ATOM      2  C   UNL     1     -30.978 -19.865 -32.599  1.00  0.00    -0.047 A 
ATOM      3  C   UNL     1     -29.617 -19.584 -32.803  1.00  0.00     0.007 A 
ATOM      4  C   UNL     1     -28.795 -19.255 -31.721  1.00  0.00     0.046 A 
ATOM      5  C   UNL     1     -29.323 -19.208 -30.426  1.00  0.00     0.115 A 
ATOM      6  C   UNL     1     -31.502 -19.824 -31.298  1.00  0.00     0.007 A 
ATOM      7  C   UNL     1     -30.679 -19.492 -30.217  1.00  0.00     0.046 A 
BRANCH   5   8
ATOM      8  O   UNL     1     -28.493 -18.878 -29.357  1.00  0.00    -0.508 OA
ATOM      9  H   UNL     1     -27.804 -18.139 -29.430  1.00  0.00     0.293 HD
ENDBRANCH   5   8
ENDBRANCH   1   2
BRANCH   1  10
ATOM     10  C   UNL     1     -31.828 -21.789 -33.985  1.00  0.00     0.040 C 
BRANCH  10  11
ATOM     11  C   UNL     1     -32.093 -22.143 -35.427  1.00  0.00    -0.040 A 
ATOM     12  C   UNL     1     -32.975 -21.365 -36.194  1.00  0.00     0.050 A 
ATOM     13  C   UNL     1     -31.413 -23.212 -36.032  1.00  0.00     0.050 A 
ATOM     14  C   UNL     1     -33.186 -21.662 -37.548  1.00  0.00     0.119 A 
ATOM     15  C   UNL     1     -31.620 -23.509 -37.383  1.00  0.00     0.119 A 
ATOM     16  C   UNL     1     -32.510 -22.734 -38.138  1.00  0.00     0.092 A 
BRANCH  14  17
ATOM     17  O   UNL     1     -34.063 -20.897 -38.314  1.00  0.00    -0.508 OA
ATOM     18  H   UNL     1     -35.054 -20.863 -38.108  1.00  0.00     0.293 HD
ENDBRANCH  14  17
BRANCH  15  19
ATOM     19  O   UNL     1     -30.935 -24.573 -37.966  1.00  0.00    -0.508 OA
ATOM     20  H   UNL     1     -31.186 -25.534 -37.770  1.00  0.00     0.293 HD
ENDBRANCH  15  19
ENDBRANCH  10  11
ENDBRANCH   1  10
TORSDOF 6
ENDMDL
MODEL 3
REMARK VINA RESULT:    -5.429      1.386      7.147
REMARK INTER + INTRA:          -7.340
REMARK INTER:                  -6.972
REMARK INTRA:                  -0.368
REMARK UNBOUND:                -0.482
REMARK SMILES Oc1ccc(CCc2cc(O)cc(O)c2)cc1
REMARK SMILES IDX 6 1 5 2 4 3 3 4 2 5 16 6 17 7 1 8 7 10 8 11 15 12 9 13 13 14
REMARK SMILES IDX 10 15 12 16 14 17 11 19
REMARK H PARENT 1 9 14 18 11 20
REMARK Flexibility Score: inf
ROOT
ATOM      1  C   UNL     1     -31.819 -20.281 -33.838  1.00  0.00     0.040 C 
ENDROOT
BRANCH   1   2
ATOM      2  C   UNL     1     -30.958 -19.871 -32.670  1.00  0.00    -0.047 A 
ATOM      3  C   UNL     1     -29.597 -19.582 -32.858  1.00  0.00     0.007 A 
ATOM      4  C   UNL     1     -28.789 -19.251 -31.766  1.00  0.00     0.046 A 
ATOM      5  C   UNL     1     -29.331 -19.208 -30.478  1.00  0.00     0.115 A 
ATOM      6  C   UNL     1     -31.497 -19.834 -31.374  1.00  0.00     0.007 A 
ATOM      7  C   UNL     1     -30.688 -19.500 -30.283  1.00  0.00     0.046 A 
BRANCH   5   8
ATOM      8  O   UNL     1     -28.515 -18.876 -29.399  1.00  0.00    -0.508 OA
ATOM      9  H   UNL     1     -27.534 -19.130 -29.380  1.00  0.00     0.293 HD
ENDBRANCH   5   8
ENDBRANCH   1   2
BRANCH   1  10
ATOM     10  C   UNL     1     -31.769 -21.795 -34.079  1.00  0.00     0.040 C 
BRANCH  10  11
ATOM     11  C   UNL     1     -32.039 -22.141 -35.522  1.00  0.00    -0.040 A 
ATOM     12  C   UNL     1     -31.442 -23.272 -36.101  1.00  0.00     0.050 A 
ATOM     13  C   UNL     1     -32.939 -21.373 -36.279  1.00  0.00     0.050 A 
ATOM     14  C   UNL     1     -31.729 -23.623 -37.427  1.00  0.00     0.119 A 
ATOM     15  C   UNL     1     -33.229 -21.724 -37.602  1.00  0.00     0.119 A 
ATOM     16  C   UNL     1     -32.620 -22.848 -38.175  1.00  0.00     0.092 A 
BRANCH  14  17
ATOM     17  O   UNL     1     -31.136 -24.742 -38.009  1.00  0.00    -0.508 OA
ATOM     18  H   UNL     1     -30.142 -24.920 -37.923  1.00  0.00     0.293 HD
ENDBRANCH  14  17
BRANCH  15  19
ATOM     19  O   UNL     1     -34.125 -20.950 -38.337  1.00  0.00    -0.508 OA
ATOM     20  H   UNL     1     -33.804 -20.260 -39.005  1.00  0.00     0.293 HD
ENDBRANCH  15  19
ENDBRANCH  10  11
ENDBRANCH   1  10
TORSDOF 6
ENDMDL
MODEL 4
REMARK VINA RESULT:    -4.347      2.553      7.044
REMARK INTER + INTRA:          -5.972
REMARK INTER:                  -5.574
REMARK INTRA:                  -0.398
REMARK UNBOUND:                -0.482
REMARK SMILES Oc1ccc(CCc2cc(O)cc(O)c2)cc1
REMARK SMILES IDX 6 1 5 2 4 3 3 4 2 5 16 6 17 7 1 8 7 10 8 11 15 12 9 13 13 14
REMARK SMILES IDX 10 15 12 16 14 17 11 19
REMARK H PARENT 1 9 14 18 11 20
REMARK Flexibility Score: inf
ROOT
ATOM      1  C   UNL     1     -31.425 -20.998 -34.037  1.00  0.00     0.040 C 
ENDROOT
BRANCH   1   2
ATOM      2  C   UNL     1     -31.225 -21.037 -32.543  1.00  0.00    -0.047 A 
ATOM      3  C   UNL     1     -30.976 -22.256 -31.891  1.00  0.00     0.007 A 
ATOM      4  C   UNL     1     -30.841 -22.297 -30.500  1.00  0.00     0.046 A 
ATOM      5  C   UNL     1     -30.956 -21.124 -29.748  1.00  0.00     0.115 A 
ATOM      6  C   UNL     1     -31.347 -19.863 -31.783  1.00  0.00     0.007 A 
ATOM      7  C   UNL     1     -31.209 -19.905 -30.392  1.00  0.00     0.046 A 
BRANCH   5   8
ATOM      8  O   UNL     1     -30.819 -21.179 -28.363  1.00  0.00    -0.508 OA
ATOM      9  H   UNL     1     -30.709 -20.338 -27.808  1.00  0.00     0.293 HD
ENDBRANCH   5   8
ENDBRANCH   1   2
BRANCH   1  10
ATOM     10  C   UNL     1     -32.533 -21.958 -34.489  1.00  0.00     0.040 C 
BRANCH  10  11
ATOM     11  C   UNL     1     -32.269 -22.509 -35.867  1.00  0.00    -0.040 A 
ATOM     12  C   UNL     1     -32.649 -23.822 -36.188  1.00  0.00     0.050 A 
ATOM     13  C   UNL     1     -31.700 -21.694 -36.860  1.00  0.00     0.050 A 
ATOM     14  C   UNL     1     -32.448 -24.320 -37.482  1.00  0.00     0.119 A 
ATOM     15  C   UNL     1     -31.502 -22.189 -38.153  1.00  0.00     0.119 A 
ATOM     16  C   UNL     1     -31.874 -23.504 -38.461  1.00  0.00     0.092 A 
BRANCH  14  17
ATOM     17  O   UNL     1     -32.819 -25.624 -37.805  1.00  0.00    -0.508 OA
ATOM     18  H   UNL     1     -33.309 -25.837 -38.666  1.00  0.00     0.293 HD
ENDBRANCH  14  17
BRANCH  15  19
ATOM     19  O   UNL     1     -30.937 -21.365 -39.125  1.00  0.00    -0.508 OA
ATOM     20  H   UNL     1     -31.482 -21.013 -39.901  1.00  0.00     0.293 HD
ENDBRANCH  15  19
ENDBRANCH  10  11
ENDBRANCH   1  10
TORSDOF 6
ENDMDL
MODEL 5
REMARK VINA RESULT:    -4.076      1.245      2.473
REMARK INTER + INTRA:          -5.631
REMARK INTER:                  -5.176
REMARK INTRA:                  -0.455
REMARK UNBOUND:                -0.482
REMARK SMILES Oc1ccc(CCc2cc(O)cc(O)c2)cc1
REMARK SMILES IDX 6 1 5 2 4 3 3 4 2 5 16 6 17 7 1 8 7 10 8 11 15 12 9 13 13 14
REMARK SMILES IDX 10 15 12 16 14 17 11 19
REMARK H PARENT 1 9 14 18 11 20
REMARK Flexibility Score: inf
ROOT
ATOM      1  C   UNL     1     -31.190 -21.934 -34.162  1.00  0.00     0.040 C 
ENDROOT
BRANCH   1   2
ATOM      2  C   UNL     1     -31.980 -21.948 -35.447  1.00  0.00    -0.047 A 
ATOM      3  C   UNL     1     -31.434 -22.516 -36.610  1.00  0.00     0.007 A 
ATOM      4  C   UNL     1     -32.147 -22.483 -37.812  1.00  0.00     0.046 A 
ATOM      5  C   UNL     1     -33.407 -21.880 -37.866  1.00  0.00     0.115 A 
ATOM      6  C   UNL     1     -33.242 -21.337 -35.507  1.00  0.00     0.007 A 
ATOM      7  C   UNL     1     -33.955 -21.307 -36.710  1.00  0.00     0.046 A 
BRANCH   5   8
ATOM      8  O   UNL     1     -34.107 -21.854 -39.070  1.00  0.00    -0.508 OA
ATOM      9  H   UNL     1     -33.784 -21.306 -39.858  1.00  0.00     0.293 HD
ENDBRANCH   5   8
ENDBRANCH   1   2
BRANCH   1  10
ATOM     10  C   UNL     1     -30.290 -20.696 -34.059  1.00  0.00     0.040 C 
BRANCH  10  11
ATOM     11  C   UNL     1     -30.300 -20.111 -32.669  1.00  0.00    -0.040 A 
ATOM     12  C   UNL     1     -29.093 -19.785 -32.031  1.00  0.00     0.050 A 
ATOM     13  C   UNL     1     -31.518 -19.829 -32.027  1.00  0.00     0.050 A 
ATOM     14  C   UNL     1     -29.101 -19.197 -30.760  1.00  0.00     0.119 A 
ATOM     15  C   UNL     1     -31.527 -19.239 -30.759  1.00  0.00     0.119 A 
ATOM     16  C   UNL     1     -30.318 -18.927 -30.125  1.00  0.00     0.092 A 
BRANCH  14  17
ATOM     17  O   UNL     1     -27.906 -18.875 -30.119  1.00  0.00    -0.508 OA
ATOM     18  H   UNL     1     -27.071 -19.433 -30.246  1.00  0.00     0.293 HD
ENDBRANCH  14  17
BRANCH  15  19
ATOM     19  O   UNL     1     -32.745 -18.966 -30.138  1.00  0.00    -0.508 OA
ATOM     20  H   UNL     1     -33.300 -19.699 -29.716  1.00  0.00     0.293 HD
ENDBRANCH  15  19
ENDBRANCH  10  11
ENDBRANCH   1  10
TORSDOF 6
ENDMDL
