MODEL 1
REMARK VINA RESULT:    -4.937      0.000      0.000
REMARK INTER + INTRA:          -6.764
REMARK INTER:                  -6.380
REMARK INTRA:                  -0.384
REMARK UNBOUND:                -0.384
REMARK SMILES CCO[C@H]1O[C@H](CO)[C@@H](O)[C@H](O)[C@H]1O
REMARK SMILES IDX 4 1 13 2 11 3 9 4 6 5 5 6 3 7 2 8 1 9 14 10 12 12 7 14 8 15
REMARK SMILES IDX 10 17
REMARK H PARENT 14 11 12 13 8 16 10 18
REMARK Flexibility Score: inf
ROOT
ATOM      1  C   UNL     1      20.404  15.277  33.615  1.00  0.00     0.281 C 
ATOM      2  C   UNL     1      19.219  16.240  33.835  1.00  0.00     0.202 C 
ATOM      3  C   UNL     1      19.509  17.617  33.205  1.00  0.00     0.179 C 
ATOM      4  C   UNL     1      20.877  18.124  33.694  1.00  0.00     0.177 C 
ATOM      5  C   UNL     1      21.960  17.037  33.475  1.00  0.00     0.178 C 
ATOM      6  O   UNL     1      21.603  15.834  34.142  1.00  0.00    -0.341 OA
ENDROOT
BRANCH   1   7
ATOM      7  O   UNL     1      20.540  14.960  32.238  1.00  0.00    -0.350 OA
BRANCH   7   8
ATOM      8  C   UNL     1      21.100  13.672  32.087  1.00  0.00     0.160 C 
ATOM      9  C   UNL     1      22.535  13.808  31.603  1.00  0.00     0.035 C 
ENDBRANCH   7   8
ENDBRANCH   1   7
BRANCH   2  10
ATOM     10  O   UNL     1      18.022  15.690  33.341  1.00  0.00    -0.385 OA
ATOM     11  H   UNL     1      17.948  14.761  33.684  1.00  0.00     0.211 HD
ENDBRANCH   2  10
BRANCH   3  12
ATOM     12  O   UNL     1      18.515  18.537  33.577  1.00  0.00    -0.387 OA
ATOM     13  H   UNL     1      17.684  18.268  33.104  1.00  0.00     0.211 HD
ENDBRANCH   3  12
BRANCH   5  14
ATOM     14  C   UNL     1      23.317  17.506  34.019  1.00  0.00     0.191 C 
BRANCH  14  15
ATOM     15  O   UNL     1      24.001  18.254  33.050  1.00  0.00    -0.394 OA
ATOM     16  H   UNL     1      24.928  17.900  33.020  1.00  0.00     0.210 HD
ENDBRANCH  14  15
ENDBRANCH   5  14
BRANCH   4  17
ATOM     17  O   UNL     1      21.217  19.324  33.043  1.00  0.00    -0.387 OA
ATOM     18  H   UNL     1      20.401  19.888  33.003  1.00  0.00     0.211 HD
ENDBRANCH   4  17
TORSDOF 7
ENDMDL
MODEL 2
REMARK VINA RESULT:    -4.836      1.570      3.804
REMARK INTER + INTRA:          -6.633
REMARK INTER:                  -6.212
REMARK INTRA:                  -0.421
REMARK UNBOUND:                -0.384
REMARK SMILES CCO[C@H]1O[C@H](CO)[C@@H](O)[C@H](O)[C@H]1O
REMARK SMILES IDX 4 1 13 2 11 3 9 4 6 5 5 6 3 7 2 8 1 9 14 10 12 12 7 14 8 15
REMARK SMILES IDX 10 17
REMARK H PARENT 14 11 12 13 8 16 10 18
REMARK Flexibility Score: inf
ROOT
ATOM      1  C   UNL     1      22.126  16.428  34.217  1.00  0.00     0.281 C 
ATOM      2  C   UNL     1      21.625  15.107  33.597  1.00  0.00     0.202 C 
ATOM      3  C   UNL     1      20.784  15.379  32.333  1.00  0.00     0.179 C 
ATOM      4  C   UNL     1      19.695  16.416  32.658  1.00  0.00     0.177 C 
ATOM      5  C   UNL     1      20.326  17.660  33.334  1.00  0.00     0.178 C 
ATOM      6  O   UNL     1      21.030  17.287  34.510  1.00  0.00    -0.341 OA
ENDROOT
BRANCH   1   7
ATOM      7  O   UNL     1      23.063  17.058  33.357  1.00  0.00    -0.350 OA
BRANCH   7   8
ATOM      8  C   UNL     1      24.121  17.613  34.110  1.00  0.00     0.160 C 
ATOM      9  C   UNL     1      25.207  16.562  34.288  1.00  0.00     0.035 C 
ENDBRANCH   7   8
ENDBRANCH   1   7
BRANCH   2  10
ATOM     10  O   UNL     1      22.697  14.238  33.324  1.00  0.00    -0.385 OA
ATOM     11  H   UNL     1      23.390  14.752  32.833  1.00  0.00     0.211 HD
ENDBRANCH   2  10
BRANCH   3  12
ATOM     12  O   UNL     1      20.177  14.192  31.893  1.00  0.00    -0.387 OA
ATOM     13  H   UNL     1      20.598  13.449  32.400  1.00  0.00     0.211 HD
ENDBRANCH   3  12
BRANCH   5  14
ATOM     14  C   UNL     1      19.240  18.674  33.723  1.00  0.00     0.191 C 
BRANCH  14  15
ATOM     15  O   UNL     1      18.708  19.285  32.578  1.00  0.00    -0.394 OA
ATOM     16  H   UNL     1      18.150  18.600  32.124  1.00  0.00     0.210 HD
ENDBRANCH  14  15
ENDBRANCH   5  14
BRANCH   4  17
ATOM     17  O   UNL     1      18.989  16.768  31.494  1.00  0.00    -0.387 OA
ATOM     18  H   UNL     1      19.143  16.056  30.820  1.00  0.00     0.211 HD
ENDBRANCH   4  17
TORSDOF 7
ENDMDL
MODEL 3
REMARK VINA RESULT:    -4.804      5.108      7.697
REMARK INTER + INTRA:          -6.592
REMARK INTER:                  -6.346
REMARK INTRA:                  -0.247
REMARK UNBOUND:                -0.384
REMARK SMILES CCO[C@H]1O[C@H](CO)[C@@H](O)[C@H](O)[C@H]1O
REMARK SMILES IDX 4 1 13 2 11 3 9 4 6 5 5 6 3 7 2 8 1 9 14 10 12 12 7 14 8 15
REMARK SMILES IDX 10 17
REMARK H PARENT 14 11 12 13 8 16 10 18
REMARK Flexibility Score: inf
ROOT
ATOM      1  C   UNL     1      16.632  12.847  34.726  1.00  0.00     0.281 C 
ATOM      2  C   UNL     1      16.348  11.663  33.779  1.00  0.00     0.202 C 
ATOM      3  C   UNL     1      15.083  11.926  32.938  1.00  0.00     0.179 C 
ATOM      4  C   UNL     1      13.924  12.325  33.869  1.00  0.00     0.177 C 
ATOM      5  C   UNL     1      14.367  13.476  34.809  1.00  0.00     0.178 C 
ATOM      6  O   UNL     1      15.509  13.095  35.563  1.00  0.00    -0.341 OA
ENDROOT
BRANCH   1   7
ATOM      7  O   UNL     1      16.994  14.003  33.985  1.00  0.00    -0.350 OA
BRANCH   7   8
ATOM      8  C   UNL     1      18.059  14.677  34.621  1.00  0.00     0.160 C 
ATOM      9  C   UNL     1      19.375  14.185  34.039  1.00  0.00     0.035 C 
ENDBRANCH   7   8
ENDBRANCH   1   7
BRANCH   2  10
ATOM     10  O   UNL     1      17.461  11.390  32.962  1.00  0.00    -0.385 OA
ATOM     11  H   UNL     1      18.275  11.685  33.448  1.00  0.00     0.211 HD
ENDBRANCH   2  10
BRANCH   3  12
ATOM     12  O   UNL     1      14.726  10.769  32.227  1.00  0.00    -0.387 OA
ATOM     13  H   UNL     1      15.512  10.162  32.254  1.00  0.00     0.211 HD
ENDBRANCH   3  12
BRANCH   5  14
ATOM     14  C   UNL     1      13.241  13.839  35.788  1.00  0.00     0.191 C 
BRANCH  14  15
ATOM     15  O   UNL     1      13.577  13.439  37.090  1.00  0.00    -0.394 OA
ATOM     16  H   UNL     1      14.320  14.029  37.385  1.00  0.00     0.210 HD
ENDBRANCH  14  15
ENDBRANCH   5  14
BRANCH   4  17
ATOM     17  O   UNL     1      12.791  12.684  33.118  1.00  0.00    -0.387 OA
ATOM     18  H   UNL     1      11.991  12.338  33.594  1.00  0.00     0.211 HD
ENDBRANCH   4  17
TORSDOF 7
ENDMDL
MODEL 4
REMARK VINA RESULT:    -4.764      1.750      3.704
REMARK INTER + INTRA:          -6.540
REMARK INTER:                  -6.123
REMARK INTRA:                  -0.417
REMARK UNBOUND:                -0.384
REMARK SMILES CCO[C@H]1O[C@H](CO)[C@@H](O)[C@H](O)[C@H]1O
REMARK SMILES IDX 4 1 13 2 11 3 9 4 6 5 5 6 3 7 2 8 1 9 14 10 12 12 7 14 8 15
REMARK SMILES IDX 10 17
REMARK H PARENT 14 11 12 13 8 16 10 18
REMARK Flexibility Score: inf
ROOT
ATOM      1  C   UNL     1      20.209  15.571  32.736  1.00  0.00     0.281 C 
ATOM      2  C   UNL     1      20.968  14.505  31.919  1.00  0.00     0.202 C 
ATOM      3  C   UNL     1      22.257  14.072  32.645  1.00  0.00     0.179 C 
ATOM      4  C   UNL     1      23.071  15.320  33.029  1.00  0.00     0.177 C 
ATOM      5  C   UNL     1      22.173  16.333  33.785  1.00  0.00     0.178 C 
ATOM      6  O   UNL     1      21.048  16.691  32.994  1.00  0.00    -0.341 OA
ENDROOT
BRANCH   1   7
ATOM      7  O   UNL     1      19.706  15.010  33.940  1.00  0.00    -0.350 OA
BRANCH   7   8
ATOM      8  C   UNL     1      18.377  15.434  34.158  1.00  0.00     0.160 C 
ATOM      9  C   UNL     1      17.516  14.221  34.474  1.00  0.00     0.035 C 
ENDBRANCH   7   8
ENDBRANCH   1   7
BRANCH   2  10
ATOM     10  O   UNL     1      20.141  13.402  31.635  1.00  0.00    -0.385 OA
ATOM     11  H   UNL     1      19.670  13.586  30.780  1.00  0.00     0.211 HD
ENDBRANCH   2  10
BRANCH   3  12
ATOM     12  O   UNL     1      23.032  13.253  31.808  1.00  0.00    -0.387 OA
ATOM     13  H   UNL     1      23.546  12.644  32.399  1.00  0.00     0.211 HD
ENDBRANCH   3  12
BRANCH   5  14
ATOM     14  C   UNL     1      22.958  17.611  34.114  1.00  0.00     0.191 C 
BRANCH  14  15
ATOM     15  O   UNL     1      23.923  17.860  33.128  1.00  0.00    -0.394 OA
ATOM     16  H   UNL     1      24.539  18.545  33.499  1.00  0.00     0.210 HD
ENDBRANCH  14  15
ENDBRANCH   5  14
BRANCH   4  17
ATOM     17  O   UNL     1      24.193  14.958  33.795  1.00  0.00    -0.387 OA
ATOM     18  H   UNL     1      23.877  14.391  34.546  1.00  0.00     0.211 HD
ENDBRANCH   4  17
TORSDOF 7
ENDMDL
MODEL 5
REMARK VINA RESULT:    -4.718      8.472      9.673
REMARK INTER + INTRA:          -6.481
REMARK INTER:                  -6.015
REMARK INTRA:                  -0.466
REMARK UNBOUND:                -0.384
REMARK SMILES CCO[C@H]1O[C@H](CO)[C@@H](O)[C@H](O)[C@H]1O
REMARK SMILES IDX 4 1 13 2 11 3 9 4 6 5 5 6 3 7 2 8 1 9 14 10 12 12 7 14 8 15
REMARK SMILES IDX 10 17
REMARK H PARENT 14 11 12 13 8 16 10 18
REMARK Flexibility Score: inf
ROOT
ATOM      1  C   UNL     1      13.921  11.141  36.727  1.00  0.00     0.281 C 
ATOM      2  C   UNL     1      13.182  12.495  36.774  1.00  0.00     0.202 C 
ATOM      3  C   UNL     1      12.471  12.777  35.436  1.00  0.00     0.179 C 
ATOM      4  C   UNL     1      13.471  12.604  34.279  1.00  0.00     0.177 C 
ATOM      5  C   UNL     1      14.186  11.234  34.391  1.00  0.00     0.178 C 
ATOM      6  O   UNL     1      14.844  11.115  35.645  1.00  0.00    -0.341 OA
ENDROOT
BRANCH   1   7
ATOM      7  O   UNL     1      12.992  10.070  36.644  1.00  0.00    -0.350 OA
BRANCH   7   8
ATOM      8  C   UNL     1      13.448   8.969  37.402  1.00  0.00     0.160 C 
ATOM      9  C   UNL     1      13.789   9.441  38.807  1.00  0.00     0.035 C 
ENDBRANCH   7   8
ENDBRANCH   1   7
BRANCH   2  10
ATOM     10  O   UNL     1      12.283  12.545  37.855  1.00  0.00    -0.385 OA
ATOM     11  H   UNL     1      11.490  11.997  37.618  1.00  0.00     0.211 HD
ENDBRANCH   2  10
BRANCH   3  12
ATOM     12  O   UNL     1      11.970  14.089  35.422  1.00  0.00    -0.387 OA
ATOM     13  H   UNL     1      12.578  14.634  35.987  1.00  0.00     0.211 HD
ENDBRANCH   3  12
BRANCH   5  14
ATOM     14  C   UNL     1      15.235  11.078  33.280  1.00  0.00     0.191 C 
BRANCH  14  15
ATOM     15  O   UNL     1      14.623  10.680  32.083  1.00  0.00    -0.394 OA
ATOM     16  H   UNL     1      13.976   9.964  32.319  1.00  0.00     0.210 HD
ENDBRANCH  14  15
ENDBRANCH   5  14
BRANCH   4  17
ATOM     17  O   UNL     1      12.818  12.742  33.040  1.00  0.00    -0.387 OA
ATOM     18  H   UNL     1      11.865  12.950  33.223  1.00  0.00     0.211 HD
ENDBRANCH   4  17
TORSDOF 7
ENDMDL
MODEL 6
REMARK VINA RESULT:    -4.712      1.587      4.930
REMARK INTER + INTRA:          -6.474
REMARK INTER:                  -6.246
REMARK INTRA:                  -0.228
REMARK UNBOUND:                -0.384
REMARK SMILES CCO[C@H]1O[C@H](CO)[C@@H](O)[C@H](O)[C@H]1O
REMARK SMILES IDX 4 1 13 2 11 3 9 4 6 5 5 6 3 7 2 8 1 9 14 10 12 12 7 14 8 15
REMARK SMILES IDX 10 17
REMARK H PARENT 14 11 12 13 8 16 10 18
REMARK Flexibility Score: inf
ROOT
ATOM      1  C   UNL     1      20.934  17.060  33.910  1.00  0.00     0.281 C 
ATOM      2  C   UNL     1      22.111  16.125  33.560  1.00  0.00     0.202 C 
ATOM      3  C   UNL     1      21.644  14.976  32.645  1.00  0.00     0.179 C 
ATOM      4  C   UNL     1      20.414  14.293  33.268  1.00  0.00     0.177 C 
ATOM      5  C   UNL     1      19.341  15.351  33.630  1.00  0.00     0.178 C 
ATOM      6  O   UNL     1      19.877  16.325  34.515  1.00  0.00    -0.341 OA
ENDROOT
BRANCH   1   7
ATOM      7  O   UNL     1      20.489  17.754  32.753  1.00  0.00    -0.350 OA
BRANCH   7   8
ATOM      8  C   UNL     1      20.460  19.144  32.999  1.00  0.00     0.160 C 
ATOM      9  C   UNL     1      19.040  19.554  33.358  1.00  0.00     0.035 C 
ENDBRANCH   7   8
ENDBRANCH   1   7
BRANCH   2  10
ATOM     10  O   UNL     1      23.174  16.844  32.984  1.00  0.00    -0.385 OA
ATOM     11  H   UNL     1      23.644  16.240  32.352  1.00  0.00     0.211 HD
ENDBRANCH   2  10
BRANCH   3  12
ATOM     12  O   UNL     1      22.672  14.031  32.494  1.00  0.00    -0.387 OA
ATOM     13  H   UNL     1      23.523  14.539  32.444  1.00  0.00     0.211 HD
ENDBRANCH   3  12
BRANCH   5  14
ATOM     14  C   UNL     1      18.136  14.688  34.314  1.00  0.00     0.191 C 
BRANCH  14  15
ATOM     15  O   UNL     1      16.968  14.913  33.572  1.00  0.00    -0.394 OA
ATOM     16  H   UNL     1      16.586  14.020  33.365  1.00  0.00     0.210 HD
ENDBRANCH  14  15
ENDBRANCH   5  14
BRANCH   4  17
ATOM     17  O   UNL     1      19.899  13.317  32.396  1.00  0.00    -0.387 OA
ATOM     18  H   UNL     1      20.122  13.593  31.469  1.00  0.00     0.211 HD
ENDBRANCH   4  17
TORSDOF 7
ENDMDL
MODEL 7
REMARK VINA RESULT:    -4.705      1.753      3.813
REMARK INTER + INTRA:          -6.464
REMARK INTER:                  -6.072
REMARK INTRA:                  -0.392
REMARK UNBOUND:                -0.384
REMARK SMILES CCO[C@H]1O[C@H](CO)[C@@H](O)[C@H](O)[C@H]1O
REMARK SMILES IDX 4 1 13 2 11 3 9 4 6 5 5 6 3 7 2 8 1 9 14 10 12 12 7 14 8 15
REMARK SMILES IDX 10 17
REMARK H PARENT 14 11 12 13 8 16 10 18
REMARK Flexibility Score: inf
ROOT
ATOM      1  C   UNL     1      22.093  17.385  33.940  1.00  0.00     0.281 C 
ATOM      2  C   UNL     1      20.809  17.703  33.145  1.00  0.00     0.202 C 
ATOM      3  C   UNL     1      19.929  16.446  33.000  1.00  0.00     0.179 C 
ATOM      4  C   UNL     1      20.780  15.287  32.452  1.00  0.00     0.177 C 
ATOM      5  C   UNL     1      22.066  15.120  33.301  1.00  0.00     0.178 C 
ATOM      6  O   UNL     1      22.814  16.328  33.318  1.00  0.00    -0.341 OA
ENDROOT
BRANCH   1   7
ATOM      7  O   UNL     1      21.780  17.075  35.290  1.00  0.00    -0.350 OA
BRANCH   7   8
ATOM      8  C   UNL     1      22.896  17.321  36.119  1.00  0.00     0.160 C 
ATOM      9  C   UNL     1      22.876  16.339  37.280  1.00  0.00     0.035 C 
ENDBRANCH   7   8
ENDBRANCH   1   7
BRANCH   2  10
ATOM     10  O   UNL     1      20.099  18.765  33.736  1.00  0.00    -0.385 OA
ATOM     11  H   UNL     1      20.385  18.833  34.685  1.00  0.00     0.211 HD
ENDBRANCH   2  10
BRANCH   3  12
ATOM     12  O   UNL     1      18.868  16.700  32.116  1.00  0.00    -0.387 OA
ATOM     13  H   UNL     1      18.669  15.844  31.654  1.00  0.00     0.211 HD
ENDBRANCH   3  12
BRANCH   5  14
ATOM     14  C   UNL     1      22.955  14.010  32.724  1.00  0.00     0.191 C 
BRANCH  14  15
ATOM     15  O   UNL     1      22.696  13.837  31.356  1.00  0.00    -0.394 OA
ATOM     16  H   UNL     1      22.168  13.000  31.270  1.00  0.00     0.210 HD
ENDBRANCH  14  15
ENDBRANCH   5  14
BRANCH   4  17
ATOM     17  O   UNL     1      20.029  14.098  32.421  1.00  0.00    -0.387 OA
ATOM     18  H   UNL     1      19.175  14.292  31.952  1.00  0.00     0.211 HD
ENDBRANCH   4  17
TORSDOF 7
ENDMDL
MODEL 8
REMARK VINA RESULT:    -4.700      2.168      3.590
REMARK INTER + INTRA:          -6.458
REMARK INTER:                  -6.072
REMARK INTRA:                  -0.386
REMARK UNBOUND:                -0.384
REMARK SMILES CCO[C@H]1O[C@H](CO)[C@@H](O)[C@H](O)[C@H]1O
REMARK SMILES IDX 4 1 13 2 11 3 9 4 6 5 5 6 3 7 2 8 1 9 14 10 12 12 7 14 8 15
REMARK SMILES IDX 10 17
REMARK H PARENT 14 11 12 13 8 16 10 18
REMARK Flexibility Score: inf
ROOT
ATOM      1  C   UNL     1      21.394  14.990  34.790  1.00  0.00     0.281 C 
ATOM      2  C   UNL     1      20.304  14.581  35.802  1.00  0.00     0.202 C 
ATOM      3  C   UNL     1      18.955  14.353  35.091  1.00  0.00     0.179 C 
ATOM      4  C   UNL     1      18.625  15.574  34.215  1.00  0.00     0.177 C 
ATOM      5  C   UNL     1      19.827  15.914  33.298  1.00  0.00     0.178 C 
ATOM      6  O   UNL     1      20.996  16.151  34.071  1.00  0.00    -0.341 OA
ENDROOT
BRANCH   1   7
ATOM      7  O   UNL     1      21.691  13.913  33.914  1.00  0.00    -0.350 OA
BRANCH   7   8
ATOM      8  C   UNL     1      22.948  14.112  33.303  1.00  0.00     0.160 C 
ATOM      9  C   UNL     1      22.828  13.821  31.815  1.00  0.00     0.035 C 
ENDBRANCH   7   8
ENDBRANCH   1   7
BRANCH   2  10
ATOM     10  O   UNL     1      20.696  13.448  36.539  1.00  0.00    -0.385 OA
ATOM     11  H   UNL     1      21.076  12.787  35.903  1.00  0.00     0.211 HD
ENDBRANCH   2  10
BRANCH   3  12
ATOM     12  O   UNL     1      17.934  14.173  36.039  1.00  0.00    -0.387 OA
ATOM     13  H   UNL     1      18.335  14.351  36.929  1.00  0.00     0.211 HD
ENDBRANCH   3  12
BRANCH   5  14
ATOM     14  C   UNL     1      19.535  17.172  32.467  1.00  0.00     0.191 C 
BRANCH  14  15
ATOM     15  O   UNL     1      18.778  16.844  31.332  1.00  0.00    -0.394 OA
ATOM     16  H   UNL     1      17.874  16.594  31.657  1.00  0.00     0.210 HD
ENDBRANCH  14  15
ENDBRANCH   5  14
BRANCH   4  17
ATOM     17  O   UNL     1      17.458  15.341  33.466  1.00  0.00    -0.387 OA
ATOM     18  H   UNL     1      17.180  16.205  33.064  1.00  0.00     0.211 HD
ENDBRANCH   4  17
TORSDOF 7
ENDMDL
MODEL 9
REMARK VINA RESULT:    -4.579      1.822      2.091
REMARK INTER + INTRA:          -6.301
REMARK INTER:                  -5.945
REMARK INTRA:                  -0.356
REMARK UNBOUND:                -0.384
REMARK SMILES CCO[C@H]1O[C@H](CO)[C@@H](O)[C@H](O)[C@H]1O
REMARK SMILES IDX 4 1 13 2 11 3 9 4 6 5 5 6 3 7 2 8 1 9 14 10 12 12 7 14 8 15
REMARK SMILES IDX 10 17
REMARK H PARENT 14 11 12 13 8 16 10 18
REMARK Flexibility Score: inf
ROOT
ATOM      1  C   UNL     1      19.759  14.244  34.392  1.00  0.00     0.281 C 
ATOM      2  C   UNL     1      18.976  15.552  34.157  1.00  0.00     0.202 C 
ATOM      3  C   UNL     1      19.783  16.522  33.271  1.00  0.00     0.179 C 
ATOM      4  C   UNL     1      21.197  16.689  33.853  1.00  0.00     0.177 C 
ATOM      5  C   UNL     1      21.841  15.301  34.101  1.00  0.00     0.178 C 
ATOM      6  O   UNL     1      21.030  14.522  34.969  1.00  0.00    -0.341 OA
ENDROOT
BRANCH   1   7
ATOM      7  O   UNL     1      19.887  13.515  33.181  1.00  0.00    -0.350 OA
BRANCH   7   8
ATOM      8  C   UNL     1      19.915  12.128  33.446  1.00  0.00     0.160 C 
ATOM      9  C   UNL     1      18.772  11.457  32.700  1.00  0.00     0.035 C 
ENDBRANCH   7   8
ENDBRANCH   1   7
BRANCH   2  10
ATOM     10  O   UNL     1      17.706  15.290  33.610  1.00  0.00    -0.385 OA
ATOM     11  H   UNL     1      17.343  16.145  33.258  1.00  0.00     0.211 HD
ENDBRANCH   2  10
BRANCH   3  12
ATOM     12  O   UNL     1      19.150  17.775  33.225  1.00  0.00    -0.387 OA
ATOM     13  H   UNL     1      19.752  18.382  32.722  1.00  0.00     0.211 HD
ENDBRANCH   3  12
BRANCH   5  14
ATOM     14  C   UNL     1      23.227  15.454  34.745  1.00  0.00     0.191 C 
BRANCH  14  15
ATOM     15  O   UNL     1      24.230  15.397  33.766  1.00  0.00    -0.394 OA
ATOM     16  H   UNL     1      25.096  15.495  34.241  1.00  0.00     0.210 HD
ENDBRANCH  14  15
ENDBRANCH   5  14
BRANCH   4  17
ATOM     17  O   UNL     1      21.990  17.477  32.999  1.00  0.00    -0.387 OA
ATOM     18  H   UNL     1      22.195  16.936  32.193  1.00  0.00     0.211 HD
ENDBRANCH   4  17
TORSDOF 7
ENDMDL
