MODEL 1
REMARK VINA RESULT:    -7.644      0.000      0.000
REMARK INTER + INTRA:          -9.093
REMARK INTER:                  -9.207
REMARK INTRA:                   0.115
REMARK UNBOUND:                 0.115
REMARK SMILES O=c1c(O)c(-c2ccc(O)c(O)c2)oc2cc(O)cc(O)c12
REMARK SMILES IDX 5 1 3 2 2 3 1 4 22 5 20 6 19 7 17 8 16 9 15 10 14 11 6 12
REMARK SMILES IDX 7 13 8 14 9 15 13 16 11 17 10 18 12 20 4 22 21 24 18 26
REMARK H PARENT 10 19 12 21 4 23 21 25 18 27
REMARK Flexibility Score: inf
ROOT
ATOM      1  C   UNL     1      -0.682  -0.458  27.280  1.00  0.00     0.180 A 
ATOM      2  C   UNL     1       0.009  -1.312  28.156  1.00  0.00     0.208 A 
ATOM      3  C   UNL     1      -0.476  -1.484  29.463  1.00  0.00     0.238 A 
ATOM      4  O   UNL     1       0.117  -2.291  30.225  1.00  0.00    -0.285 OA
ATOM      5  C   UNL     1      -1.636  -0.789  29.881  1.00  0.00     0.111 A 
ATOM      6  C   UNL     1      -2.192  -0.858  31.194  1.00  0.00     0.134 A 
ATOM      7  C   UNL     1      -3.415  -0.231  31.460  1.00  0.00     0.093 A 
ATOM      8  C   UNL     1      -4.069   0.517  30.477  1.00  0.00     0.123 A 
ATOM      9  C   UNL     1      -3.504   0.638  29.210  1.00  0.00     0.094 A 
ATOM     10  C   UNL     1      -2.303  -0.005  28.904  1.00  0.00     0.146 A 
ATOM     11  O   UNL     1      -1.804   0.129  27.682  1.00  0.00    -0.452 OA
ENDROOT
BRANCH   1  12
ATOM     12  C   UNL     1      -0.219  -0.206  25.896  1.00  0.00     0.025 A 
ATOM     13  C   UNL     1       1.146  -0.056  25.597  1.00  0.00     0.016 A 
ATOM     14  C   UNL     1       1.557   0.205  24.288  1.00  0.00     0.051 A 
ATOM     15  C   UNL     1       0.613   0.333  23.261  1.00  0.00     0.157 A 
ATOM     16  C   UNL     1      -1.164  -0.055  24.867  1.00  0.00     0.062 A 
ATOM     17  C   UNL     1      -0.756   0.205  23.555  1.00  0.00     0.158 A 
BRANCH  15  18
ATOM     18  O   UNL     1       1.027   0.592  21.955  1.00  0.00    -0.504 OA
ATOM     19  H   UNL     1       1.404   1.494  21.687  1.00  0.00     0.293 HD
ENDBRANCH  15  18
BRANCH  17  20
ATOM     20  O   UNL     1      -1.721   0.335  22.558  1.00  0.00    -0.504 OA
ATOM     21  H   UNL     1      -2.609   0.796  22.724  1.00  0.00     0.293 HD
ENDBRANCH  17  20
ENDBRANCH   1  12
BRANCH   2  22
ATOM     22  O   UNL     1       1.140  -2.004  27.716  1.00  0.00    -0.502 OA
ATOM     23  H   UNL     1       2.000  -2.037  28.249  1.00  0.00     0.293 HD
ENDBRANCH   2  22
BRANCH   6  24
ATOM     24  O   UNL     1      -1.573  -1.500  32.271  1.00  0.00    -0.507 OA
ATOM     25  H   UNL     1      -1.738  -1.282  33.242  1.00  0.00     0.293 HD
ENDBRANCH   6  24
BRANCH   8  26
ATOM     26  O   UNL     1      -5.279   1.150  30.754  1.00  0.00    -0.508 OA
ATOM     27  H   UNL     1      -5.534   1.417  31.697  1.00  0.00     0.293 HD
ENDBRANCH   8  26
TORSDOF 6
ENDMDL
MODEL 2
REMARK VINA RESULT:    -7.640      5.083     11.132
REMARK INTER + INTRA:          -9.088
REMARK INTER:                  -9.166
REMARK INTRA:                   0.078
REMARK UNBOUND:                 0.115
REMARK SMILES O=c1c(O)c(-c2ccc(O)c(O)c2)oc2cc(O)cc(O)c12
REMARK SMILES IDX 5 1 3 2 2 3 1 4 22 5 20 6 19 7 17 8 16 9 15 10 14 11 6 12
REMARK SMILES IDX 7 13 8 14 9 15 13 16 11 17 10 18 12 20 4 22 21 24 18 26
REMARK H PARENT 10 19 12 21 4 23 21 25 18 27
REMARK Flexibility Score: inf
ROOT
ATOM      1  C   UNL     1       0.684  -0.068  19.607  1.00  0.00     0.180 A 
ATOM      2  C   UNL     1       0.010  -0.861  18.663  1.00  0.00     0.208 A 
ATOM      3  C   UNL     1       0.499  -0.920  17.348  1.00  0.00     0.238 A 
ATOM      4  O   UNL     1      -0.078  -1.674  16.522  1.00  0.00    -0.285 OA
ATOM      5  C   UNL     1       1.647  -0.172  16.990  1.00  0.00     0.111 A 
ATOM      6  C   UNL     1       2.205  -0.126  15.677  1.00  0.00     0.134 A 
ATOM      7  C   UNL     1       3.418   0.543  15.466  1.00  0.00     0.093 A 
ATOM      8  C   UNL     1       4.056   1.221  16.507  1.00  0.00     0.123 A 
ATOM      9  C   UNL     1       3.488   1.231  17.778  1.00  0.00     0.094 A 
ATOM     10  C   UNL     1       2.298   0.543  18.028  1.00  0.00     0.146 A 
ATOM     11  O   UNL     1       1.796   0.570  19.256  1.00  0.00    -0.452 OA
ENDROOT
BRANCH   1  12
ATOM     12  C   UNL     1       0.216   0.063  21.006  1.00  0.00     0.025 A 
ATOM     13  C   UNL     1      -1.148   0.221  21.308  1.00  0.00     0.016 A 
ATOM     14  C   UNL     1      -1.565   0.367  22.633  1.00  0.00     0.051 A 
ATOM     15  C   UNL     1      -0.627   0.373  23.674  1.00  0.00     0.157 A 
ATOM     16  C   UNL     1       1.155   0.092  22.050  1.00  0.00     0.062 A 
ATOM     17  C   UNL     1       0.741   0.238  23.379  1.00  0.00     0.158 A 
BRANCH  15  18
ATOM     18  O   UNL     1      -1.046   0.517  24.996  1.00  0.00    -0.504 OA
ATOM     19  H   UNL     1      -1.989   0.811  25.224  1.00  0.00     0.293 HD
ENDBRANCH  15  18
BRANCH  17  20
ATOM     20  O   UNL     1       1.700   0.247  24.390  1.00  0.00    -0.504 OA
ATOM     21  H   UNL     1       2.358   1.010  24.500  1.00  0.00     0.293 HD
ENDBRANCH  17  20
ENDBRANCH   1  12
BRANCH   2  22
ATOM     22  O   UNL     1      -1.108  -1.608  19.044  1.00  0.00    -0.502 OA
ATOM     23  H   UNL     1      -1.217  -2.586  18.805  1.00  0.00     0.293 HD
ENDBRANCH   2  22
BRANCH   6  24
ATOM     24  O   UNL     1       1.600  -0.690  14.551  1.00  0.00    -0.507 OA
ATOM     25  H   UNL     1       1.478  -1.680  14.398  1.00  0.00     0.293 HD
ENDBRANCH   6  24
BRANCH   8  26
ATOM     26  O   UNL     1       5.255   1.897  16.285  1.00  0.00    -0.508 OA
ATOM     27  H   UNL     1       6.123   1.399  16.130  1.00  0.00     0.293 HD
ENDBRANCH   8  26
TORSDOF 6
ENDMDL
MODEL 3
REMARK VINA RESULT:    -7.017      2.337      3.628
REMARK INTER + INTRA:          -8.338
REMARK INTER:                  -8.033
REMARK INTRA:                  -0.305
REMARK UNBOUND:                 0.115
REMARK SMILES O=c1c(O)c(-c2ccc(O)c(O)c2)oc2cc(O)cc(O)c12
REMARK SMILES IDX 5 1 3 2 2 3 1 4 22 5 20 6 19 7 17 8 16 9 15 10 14 11 6 12
REMARK SMILES IDX 7 13 8 14 9 15 13 16 11 17 10 18 12 20 4 22 21 24 18 26
REMARK H PARENT 10 19 12 21 4 23 21 25 18 27
REMARK Flexibility Score: inf
ROOT
ATOM      1  C   UNL     1      -0.169  -0.831  23.904  1.00  0.00     0.180 A 
ATOM      2  C   UNL     1       0.668  -1.797  24.488  1.00  0.00     0.208 A 
ATOM      3  C   UNL     1       0.667  -1.945  25.885  1.00  0.00     0.238 A 
ATOM      4  O   UNL     1       1.378  -2.849  26.397  1.00  0.00    -0.285 OA
ATOM      5  C   UNL     1      -0.159  -1.115  26.681  1.00  0.00     0.111 A 
ATOM      6  C   UNL     1      -0.209  -1.151  28.107  1.00  0.00     0.134 A 
ATOM      7  C   UNL     1      -1.158  -0.374  28.784  1.00  0.00     0.093 A 
ATOM      8  C   UNL     1      -2.012   0.486  28.089  1.00  0.00     0.123 A 
ATOM      9  C   UNL     1      -1.930   0.571  26.701  1.00  0.00     0.094 A 
ATOM     10  C   UNL     1      -1.019  -0.218  25.996  1.00  0.00     0.146 A 
ATOM     11  O   UNL     1      -0.980  -0.112  24.674  1.00  0.00    -0.452 OA
ENDROOT
BRANCH   1  12
ATOM     12  C   UNL     1      -0.205  -0.599  22.442  1.00  0.00     0.025 A 
ATOM     13  C   UNL     1       0.511   0.456  21.851  1.00  0.00     0.016 A 
ATOM     14  C   UNL     1       0.442   0.670  20.472  1.00  0.00     0.051 A 
ATOM     15  C   UNL     1      -0.352  -0.156  19.667  1.00  0.00     0.157 A 
ATOM     16  C   UNL     1      -1.017  -1.412  21.633  1.00  0.00     0.062 A 
ATOM     17  C   UNL     1      -1.087  -1.201  20.252  1.00  0.00     0.158 A 
BRANCH  15  18
ATOM     18  O   UNL     1      -0.417   0.059  18.290  1.00  0.00    -0.504 OA
ATOM     19  H   UNL     1      -0.090   0.923  17.872  1.00  0.00     0.293 HD
ENDBRANCH  15  18
BRANCH  17  20
ATOM     20  O   UNL     1      -1.892  -2.036  19.479  1.00  0.00    -0.504 OA
ATOM     21  H   UNL     1      -2.696  -2.518  19.866  1.00  0.00     0.293 HD
ENDBRANCH  17  20
ENDBRANCH   1  12
BRANCH   2  22
ATOM     22  O   UNL     1       1.458  -2.621  23.683  1.00  0.00    -0.502 OA
ATOM     23  H   UNL     1       1.974  -2.269  22.885  1.00  0.00     0.293 HD
ENDBRANCH   2  22
BRANCH   6  24
ATOM     24  O   UNL     1       0.661  -1.904  28.900  1.00  0.00    -0.507 OA
ATOM     25  H   UNL     1       0.861  -1.718  29.871  1.00  0.00     0.293 HD
ENDBRANCH   6  24
BRANCH   8  26
ATOM     26  O   UNL     1      -2.943   1.267  28.772  1.00  0.00    -0.508 OA
ATOM     27  H   UNL     1      -3.420   0.923  29.597  1.00  0.00     0.293 HD
ENDBRANCH   8  26
TORSDOF 6
ENDMDL
MODEL 4
REMARK VINA RESULT:    -6.992      2.861      8.455
REMARK INTER + INTRA:          -8.308
REMARK INTER:                  -8.006
REMARK INTRA:                  -0.302
REMARK UNBOUND:                 0.115
REMARK SMILES O=c1c(O)c(-c2ccc(O)c(O)c2)oc2cc(O)cc(O)c12
REMARK SMILES IDX 5 1 3 2 2 3 1 4 22 5 20 6 19 7 17 8 16 9 15 10 14 11 6 12
REMARK SMILES IDX 7 13 8 14 9 15 13 16 11 17 10 18 12 20 4 22 21 24 18 26
REMARK H PARENT 10 19 12 21 4 23 21 25 18 27
REMARK Flexibility Score: inf
ROOT
ATOM      1  C   UNL     1      -0.092  -0.865  23.371  1.00  0.00     0.180 A 
ATOM      2  C   UNL     1      -0.890  -1.806  22.696  1.00  0.00     0.208 A 
ATOM      3  C   UNL     1      -0.888  -1.819  21.292  1.00  0.00     0.238 A 
ATOM      4  O   UNL     1      -1.562  -2.698  20.695  1.00  0.00    -0.285 OA
ATOM      5  C   UNL     1      -0.101  -0.881  20.580  1.00  0.00     0.111 A 
ATOM      6  C   UNL     1      -0.054  -0.778  19.158  1.00  0.00     0.134 A 
ATOM      7  C   UNL     1       0.859   0.100  18.558  1.00  0.00     0.093 A 
ATOM      8  C   UNL     1       1.679   0.924  19.333  1.00  0.00     0.123 A 
ATOM      9  C   UNL     1       1.598   0.872  20.722  1.00  0.00     0.094 A 
ATOM     10  C   UNL     1       0.723  -0.019  21.349  1.00  0.00     0.146 A 
ATOM     11  O   UNL     1       0.685  -0.042  22.675  1.00  0.00    -0.452 OA
ENDROOT
BRANCH   1  12
ATOM     12  C   UNL     1      -0.061  -0.774  24.848  1.00  0.00     0.025 A 
ATOM     13  C   UNL     1      -0.803   0.201  25.537  1.00  0.00     0.016 A 
ATOM     14  C   UNL     1      -0.739   0.284  26.930  1.00  0.00     0.051 A 
ATOM     15  C   UNL     1       0.077  -0.595  27.654  1.00  0.00     0.157 A 
ATOM     16  C   UNL     1       0.773  -1.638  25.577  1.00  0.00     0.062 A 
ATOM     17  C   UNL     1       0.839  -1.559  26.972  1.00  0.00     0.158 A 
BRANCH  15  18
ATOM     18  O   UNL     1       0.138  -0.511  29.045  1.00  0.00    -0.504 OA
ATOM     19  H   UNL     1       0.989  -0.723  29.553  1.00  0.00     0.293 HD
ENDBRANCH  15  18
BRANCH  17  20
ATOM     20  O   UNL     1       1.667  -2.443  27.663  1.00  0.00    -0.504 OA
ATOM     21  H   UNL     1       1.840  -3.386  27.334  1.00  0.00     0.293 HD
ENDBRANCH  17  20
ENDBRANCH   1  12
BRANCH   2  22
ATOM     22  O   UNL     1      -1.642  -2.735  23.419  1.00  0.00    -0.502 OA
ATOM     23  H   UNL     1      -1.534  -3.735  23.297  1.00  0.00     0.293 HD
ENDBRANCH   2  22
BRANCH   6  24
ATOM     24  O   UNL     1      -0.895  -1.488  18.295  1.00  0.00    -0.507 OA
ATOM     25  H   UNL     1      -1.470  -1.070  17.580  1.00  0.00     0.293 HD
ENDBRANCH   6  24
BRANCH   8  26
ATOM     26  O   UNL     1       2.574   1.805  18.729  1.00  0.00    -0.508 OA
ATOM     27  H   UNL     1       3.563   1.597  18.668  1.00  0.00     0.293 HD
ENDBRANCH   8  26
TORSDOF 6
ENDMDL
MODEL 5
REMARK VINA RESULT:    -6.946      1.240      2.841
REMARK INTER + INTRA:          -8.252
REMARK INTER:                  -8.622
REMARK INTRA:                   0.370
REMARK UNBOUND:                 0.115
REMARK SMILES O=c1c(O)c(-c2ccc(O)c(O)c2)oc2cc(O)cc(O)c12
REMARK SMILES IDX 5 1 3 2 2 3 1 4 22 5 20 6 19 7 17 8 16 9 15 10 14 11 6 12
REMARK SMILES IDX 7 13 8 14 9 15 13 16 11 17 10 18 12 20 4 22 21 24 18 26
REMARK H PARENT 10 19 12 21 4 23 21 25 18 27
REMARK Flexibility Score: inf
ROOT
ATOM      1  C   UNL     1      -1.075  -0.101  27.441  1.00  0.00     0.180 A 
ATOM      2  C   UNL     1      -2.362   0.413  27.672  1.00  0.00     0.208 A 
ATOM      3  C   UNL     1      -2.937   0.264  28.945  1.00  0.00     0.238 A 
ATOM      4  O   UNL     1      -4.068   0.773  29.160  1.00  0.00    -0.285 OA
ATOM      5  C   UNL     1      -2.224  -0.409  29.965  1.00  0.00     0.111 A 
ATOM      6  C   UNL     1      -2.725  -0.652  31.279  1.00  0.00     0.134 A 
ATOM      7  C   UNL     1      -1.883  -1.213  32.247  1.00  0.00     0.093 A 
ATOM      8  C   UNL     1      -0.579  -1.599  31.930  1.00  0.00     0.123 A 
ATOM      9  C   UNL     1      -0.100  -1.420  30.634  1.00  0.00     0.094 A 
ATOM     10  C   UNL     1      -0.904  -0.831  29.657  1.00  0.00     0.146 A 
ATOM     11  O   UNL     1      -0.405  -0.670  28.437  1.00  0.00    -0.452 OA
ENDROOT
BRANCH   1  12
ATOM     12  C   UNL     1      -0.413  -0.005  26.119  1.00  0.00     0.025 A 
ATOM     13  C   UNL     1       0.987   0.030  26.003  1.00  0.00     0.016 A 
ATOM     14  C   UNL     1       1.588   0.146  24.748  1.00  0.00     0.051 A 
ATOM     15  C   UNL     1       0.802   0.242  23.593  1.00  0.00     0.157 A 
ATOM     16  C   UNL     1      -1.198   0.115  24.960  1.00  0.00     0.062 A 
ATOM     17  C   UNL     1      -0.599   0.230  23.701  1.00  0.00     0.158 A 
BRANCH  15  18
ATOM     18  O   UNL     1       1.406   0.356  22.340  1.00  0.00    -0.504 OA
ATOM     19  H   UNL     1       1.251  -0.332  21.612  1.00  0.00     0.293 HD
ENDBRANCH  15  18
BRANCH  17  20
ATOM     20  O   UNL     1      -1.410   0.332  22.572  1.00  0.00    -0.504 OA
ATOM     21  H   UNL     1      -1.090   0.773  21.717  1.00  0.00     0.293 HD
ENDBRANCH  17  20
ENDBRANCH   1  12
BRANCH   2  22
ATOM     22  O   UNL     1      -3.040   1.093  26.656  1.00  0.00    -0.502 OA
ATOM     23  H   UNL     1      -2.867   0.916  25.674  1.00  0.00     0.293 HD
ENDBRANCH   2  22
BRANCH   6  24
ATOM     24  O   UNL     1      -4.041  -0.390  31.673  1.00  0.00    -0.507 OA
ATOM     25  H   UNL     1      -4.407   0.527  31.883  1.00  0.00     0.293 HD
ENDBRANCH   6  24
BRANCH   8  26
ATOM     26  O   UNL     1       0.248  -2.170  32.896  1.00  0.00    -0.508 OA
ATOM     27  H   UNL     1       0.370  -1.746  33.807  1.00  0.00     0.293 HD
ENDBRANCH   8  26
TORSDOF 6
ENDMDL
MODEL 6
REMARK VINA RESULT:    -6.868      6.097      9.245
REMARK INTER + INTRA:          -8.158
REMARK INTER:                  -7.943
REMARK INTRA:                  -0.216
REMARK UNBOUND:                 0.115
REMARK SMILES O=c1c(O)c(-c2ccc(O)c(O)c2)oc2cc(O)cc(O)c12
REMARK SMILES IDX 5 1 3 2 2 3 1 4 22 5 20 6 19 7 17 8 16 9 15 10 14 11 6 12
REMARK SMILES IDX 7 13 8 14 9 15 13 16 11 17 10 18 12 20 4 22 21 24 18 26
REMARK H PARENT 10 19 12 21 4 23 21 25 18 27
REMARK Flexibility Score: inf
ROOT
ATOM      1  C   UNL     1       1.536  -1.085  18.432  1.00  0.00     0.180 A 
ATOM      2  C   UNL     1       1.671  -2.456  18.708  1.00  0.00     0.208 A 
ATOM      3  C   UNL     1       1.085  -2.978  19.873  1.00  0.00     0.238 A 
ATOM      4  O   UNL     1       1.164  -4.216  20.086  1.00  0.00    -0.285 OA
ATOM      5  C   UNL     1       0.385  -2.120  20.754  1.00  0.00     0.111 A 
ATOM      6  C   UNL     1      -0.213  -2.534  21.982  1.00  0.00     0.134 A 
ATOM      7  C   UNL     1      -0.992  -1.626  22.711  1.00  0.00     0.093 A 
ATOM      8  C   UNL     1      -1.139  -0.303  22.289  1.00  0.00     0.123 A 
ATOM      9  C   UNL     1      -0.510   0.126  21.122  1.00  0.00     0.094 A 
ATOM     10  C   UNL     1       0.243  -0.765  20.355  1.00  0.00     0.146 A 
ATOM     11  O   UNL     1       0.818  -0.318  19.246  1.00  0.00    -0.452 OA
ENDROOT
BRANCH   1  12
ATOM     12  C   UNL     1       2.146  -0.457  17.238  1.00  0.00     0.025 A 
ATOM     13  C   UNL     1       1.665  -0.725  15.944  1.00  0.00     0.016 A 
ATOM     14  C   UNL     1       2.272  -0.140  14.830  1.00  0.00     0.051 A 
ATOM     15  C   UNL     1       3.375   0.708  14.989  1.00  0.00     0.157 A 
ATOM     16  C   UNL     1       3.267   0.376  17.390  1.00  0.00     0.062 A 
ATOM     17  C   UNL     1       3.876   0.964  16.277  1.00  0.00     0.158 A 
BRANCH  15  18
ATOM     18  O   UNL     1       3.978   1.291  13.875  1.00  0.00    -0.504 OA
ATOM     19  H   UNL     1       3.869   0.899  12.947  1.00  0.00     0.293 HD
ENDBRANCH  15  18
BRANCH  17  20
ATOM     20  O   UNL     1       4.977   1.797  16.469  1.00  0.00    -0.504 OA
ATOM     21  H   UNL     1       4.979   2.765  16.166  1.00  0.00     0.293 HD
ENDBRANCH  17  20
ENDBRANCH   1  12
BRANCH   2  22
ATOM     22  O   UNL     1       2.348  -3.289  17.813  1.00  0.00    -0.502 OA
ATOM     23  H   UNL     1       2.784  -2.940  16.968  1.00  0.00     0.293 HD
ENDBRANCH   2  22
BRANCH   6  24
ATOM     24  O   UNL     1      -0.051  -3.805  22.540  1.00  0.00    -0.507 OA
ATOM     25  H   UNL     1      -0.687  -4.577  22.408  1.00  0.00     0.293 HD
ENDBRANCH   6  24
BRANCH   8  26
ATOM     26  O   UNL     1      -1.903   0.598  23.028  1.00  0.00    -0.508 OA
ATOM     27  H   UNL     1      -1.477   1.244  23.682  1.00  0.00     0.293 HD
ENDBRANCH   8  26
TORSDOF 6
ENDMDL
MODEL 7
REMARK VINA RESULT:    -6.847      2.146      6.844
REMARK INTER + INTRA:          -8.133
REMARK INTER:                  -7.860
REMARK INTRA:                  -0.273
REMARK UNBOUND:                 0.115
REMARK SMILES O=c1c(O)c(-c2ccc(O)c(O)c2)oc2cc(O)cc(O)c12
REMARK SMILES IDX 5 1 3 2 2 3 1 4 22 5 20 6 19 7 17 8 16 9 15 10 14 11 6 12
REMARK SMILES IDX 7 13 8 14 9 15 13 16 11 17 10 18 12 20 4 22 21 24 18 26
REMARK H PARENT 10 19 12 21 4 23 21 25 18 27
REMARK Flexibility Score: inf
ROOT
ATOM      1  C   UNL     1      -1.769  -1.627  28.524  1.00  0.00     0.180 A 
ATOM      2  C   UNL     1      -1.953  -2.960  28.121  1.00  0.00     0.208 A 
ATOM      3  C   UNL     1      -1.376  -3.394  26.915  1.00  0.00     0.238 A 
ATOM      4  O   UNL     1      -1.500  -4.603  26.587  1.00  0.00    -0.285 OA
ATOM      5  C   UNL     1      -0.637  -2.485  26.122  1.00  0.00     0.111 A 
ATOM      6  C   UNL     1      -0.043  -2.805  24.864  1.00  0.00     0.134 A 
ATOM      7  C   UNL     1       0.776  -1.864  24.227  1.00  0.00     0.093 A 
ATOM      8  C   UNL     1       0.969  -0.592  24.772  1.00  0.00     0.123 A 
ATOM      9  C   UNL     1       0.346  -0.251  25.970  1.00  0.00     0.094 A 
ATOM     10  C   UNL     1      -0.447  -1.180  26.646  1.00  0.00     0.146 A 
ATOM     11  O   UNL     1      -1.015  -0.816  27.789  1.00  0.00    -0.452 OA
ENDROOT
BRANCH   1  12
ATOM     12  C   UNL     1      -2.365  -1.090  29.768  1.00  0.00     0.025 A 
ATOM     13  C   UNL     1      -1.819  -1.387  31.029  1.00  0.00     0.016 A 
ATOM     14  C   UNL     1      -2.414  -0.890  32.191  1.00  0.00     0.051 A 
ATOM     15  C   UNL     1      -3.568  -0.101  32.113  1.00  0.00     0.157 A 
ATOM     16  C   UNL     1      -3.536  -0.317  29.697  1.00  0.00     0.062 A 
ATOM     17  C   UNL     1      -4.134   0.184  30.858  1.00  0.00     0.158 A 
BRANCH  15  18
ATOM     18  O   UNL     1      -4.158   0.396  33.275  1.00  0.00    -0.504 OA
ATOM     19  H   UNL     1      -4.135  -0.123  34.145  1.00  0.00     0.293 HD
ENDBRANCH  15  18
BRANCH  17  20
ATOM     20  O   UNL     1      -5.287   0.959  30.747  1.00  0.00    -0.504 OA
ATOM     21  H   UNL     1      -6.080   0.835  31.365  1.00  0.00     0.293 HD
ENDBRANCH  17  20
ENDBRANCH   1  12
BRANCH   2  22
ATOM     22  O   UNL     1      -2.669  -3.847  28.930  1.00  0.00    -0.502 OA
ATOM     23  H   UNL     1      -3.313  -4.530  28.551  1.00  0.00     0.293 HD
ENDBRANCH   2  22
BRANCH   6  24
ATOM     24  O   UNL     1      -0.249  -4.012  24.188  1.00  0.00    -0.507 OA
ATOM     25  H   UNL     1       0.067  -4.913  24.513  1.00  0.00     0.293 HD
ENDBRANCH   6  24
BRANCH   8  26
ATOM     26  O   UNL     1       1.774   0.343  24.124  1.00  0.00    -0.508 OA
ATOM     27  H   UNL     1       1.433   0.880  23.336  1.00  0.00     0.293 HD
ENDBRANCH   8  26
TORSDOF 6
ENDMDL
MODEL 8
REMARK VINA RESULT:    -6.792      6.918      9.755
REMARK INTER + INTRA:          -8.067
REMARK INTER:                  -7.865
REMARK INTRA:                  -0.201
REMARK UNBOUND:                 0.115
REMARK SMILES O=c1c(O)c(-c2ccc(O)c(O)c2)oc2cc(O)cc(O)c12
REMARK SMILES IDX 5 1 3 2 2 3 1 4 22 5 20 6 19 7 17 8 16 9 15 10 14 11 6 12
REMARK SMILES IDX 7 13 8 14 9 15 13 16 11 17 10 18 12 20 4 22 21 24 18 26
REMARK H PARENT 10 19 12 21 4 23 21 25 18 27
REMARK Flexibility Score: inf
ROOT
ATOM      1  C   UNL     1       1.459  -0.841  18.515  1.00  0.00     0.180 A 
ATOM      2  C   UNL     1       0.742  -0.020  19.403  1.00  0.00     0.208 A 
ATOM      3  C   UNL     1       0.130  -0.601  20.525  1.00  0.00     0.238 A 
ATOM      4  O   UNL     1      -0.465   0.147  21.344  1.00  0.00    -0.285 OA
ATOM      5  C   UNL     1       0.229  -1.997  20.738  1.00  0.00     0.111 A 
ATOM      6  C   UNL     1      -0.385  -2.697  21.820  1.00  0.00     0.134 A 
ATOM      7  C   UNL     1      -0.113  -4.058  22.005  1.00  0.00     0.093 A 
ATOM      8  C   UNL     1       0.700  -4.758  21.109  1.00  0.00     0.123 A 
ATOM      9  C   UNL     1       1.256  -4.096  20.017  1.00  0.00     0.094 A 
ATOM     10  C   UNL     1       1.032  -2.731  19.826  1.00  0.00     0.146 A 
ATOM     11  O   UNL     1       1.588  -2.137  18.778  1.00  0.00    -0.452 OA
ENDROOT
BRANCH   1  12
ATOM     12  C   UNL     1       2.110  -0.306  17.298  1.00  0.00     0.025 A 
ATOM     13  C   UNL     1       1.650  -0.644  16.014  1.00  0.00     0.016 A 
ATOM     14  C   UNL     1       2.296  -0.147  14.879  1.00  0.00     0.051 A 
ATOM     15  C   UNL     1       3.417   0.683  15.010  1.00  0.00     0.157 A 
ATOM     16  C   UNL     1       3.248   0.509  17.424  1.00  0.00     0.062 A 
ATOM     17  C   UNL     1       3.897   1.009  16.290  1.00  0.00     0.158 A 
BRANCH  15  18
ATOM     18  O   UNL     1       4.058   1.179  13.875  1.00  0.00    -0.504 OA
ATOM     19  H   UNL     1       4.826   0.681  13.439  1.00  0.00     0.293 HD
ENDBRANCH  15  18
BRANCH  17  20
ATOM     20  O   UNL     1       5.014   1.826  16.454  1.00  0.00    -0.504 OA
ATOM     21  H   UNL     1       5.954   1.450  16.496  1.00  0.00     0.293 HD
ENDBRANCH  17  20
ENDBRANCH   1  12
BRANCH   2  22
ATOM     22  O   UNL     1       0.675   1.359  19.185  1.00  0.00    -0.502 OA
ATOM     23  H   UNL     1       1.397   1.995  19.500  1.00  0.00     0.293 HD
ENDBRANCH   2  22
BRANCH   6  24
ATOM     24  O   UNL     1      -1.286  -2.114  22.715  1.00  0.00    -0.507 OA
ATOM     25  H   UNL     1      -1.868  -2.626  23.362  1.00  0.00     0.293 HD
ENDBRANCH   6  24
BRANCH   8  26
ATOM     26  O   UNL     1       0.954  -6.116  21.292  1.00  0.00    -0.508 OA
ATOM     27  H   UNL     1       1.898  -6.484  21.288  1.00  0.00     0.293 HD
ENDBRANCH   8  26
TORSDOF 6
ENDMDL
MODEL 9
REMARK VINA RESULT:    -6.645      4.442     10.009
REMARK INTER + INTRA:          -7.890
REMARK INTER:                  -7.568
REMARK INTRA:                  -0.322
REMARK UNBOUND:                 0.115
REMARK SMILES O=c1c(O)c(-c2ccc(O)c(O)c2)oc2cc(O)cc(O)c12
REMARK SMILES IDX 5 1 3 2 2 3 1 4 22 5 20 6 19 7 17 8 16 9 15 10 14 11 6 12
REMARK SMILES IDX 7 13 8 14 9 15 13 16 11 17 10 18 12 20 4 22 21 24 18 26
REMARK H PARENT 10 19 12 21 4 23 21 25 18 27
REMARK Flexibility Score: inf
ROOT
ATOM      1  C   UNL     1       0.089  -0.782  20.835  1.00  0.00     0.180 A 
ATOM      2  C   UNL     1       1.078   0.026  20.248  1.00  0.00     0.208 A 
ATOM      3  C   UNL     1       1.360  -0.126  18.881  1.00  0.00     0.238 A 
ATOM      4  O   UNL     1       2.209   0.637  18.351  1.00  0.00    -0.285 OA
ATOM      5  C   UNL     1       0.661  -1.094  18.121  1.00  0.00     0.111 A 
ATOM      6  C   UNL     1       0.893  -1.361  16.738  1.00  0.00     0.134 A 
ATOM      7  C   UNL     1       0.053  -2.250  16.056  1.00  0.00     0.093 A 
ATOM      8  C   UNL     1      -0.969  -2.930  16.723  1.00  0.00     0.123 A 
ATOM      9  C   UNL     1      -1.166  -2.720  18.085  1.00  0.00     0.094 A 
ATOM     10  C   UNL     1      -0.368  -1.813  18.785  1.00  0.00     0.146 A 
ATOM     11  O   UNL     1      -0.595  -1.635  20.080  1.00  0.00    -0.452 OA
ENDROOT
BRANCH   1  12
ATOM     12  C   UNL     1      -0.247  -0.697  22.274  1.00  0.00     0.025 A 
ATOM     13  C   UNL     1      -1.211   0.210  22.749  1.00  0.00     0.016 A 
ATOM     14  C   UNL     1      -1.493   0.289  24.114  1.00  0.00     0.051 A 
ATOM     15  C   UNL     1      -0.810  -0.524  25.027  1.00  0.00     0.157 A 
ATOM     16  C   UNL     1       0.452  -1.495  23.196  1.00  0.00     0.062 A 
ATOM     17  C   UNL     1       0.171  -1.418  24.564  1.00  0.00     0.158 A 
BRANCH  15  18
ATOM     18  O   UNL     1      -1.096  -0.443  26.390  1.00  0.00    -0.504 OA
ATOM     19  H   UNL     1      -1.389   0.427  26.819  1.00  0.00     0.293 HD
ENDBRANCH  15  18
BRANCH  17  20
ATOM     20  O   UNL     1       0.874  -2.235  25.447  1.00  0.00    -0.504 OA
ATOM     21  H   UNL     1       1.689  -2.765  25.158  1.00  0.00     0.293 HD
ENDBRANCH  17  20
ENDBRANCH   1  12
BRANCH   2  22
ATOM     22  O   UNL     1       1.741   0.990  21.012  1.00  0.00    -0.502 OA
ATOM     23  H   UNL     1       2.560   1.483  20.675  1.00  0.00     0.293 HD
ENDBRANCH   2  22
BRANCH   6  24
ATOM     24  O   UNL     1       1.945  -0.807  16.003  1.00  0.00    -0.507 OA
ATOM     25  H   UNL     1       2.681  -1.337  15.562  1.00  0.00     0.293 HD
ENDBRANCH   6  24
BRANCH   8  26
ATOM     26  O   UNL     1      -1.791  -3.824  16.039  1.00  0.00    -0.508 OA
ATOM     27  H   UNL     1      -1.456  -4.734  15.746  1.00  0.00     0.293 HD
ENDBRANCH   8  26
TORSDOF 6
ENDMDL
