MODEL 1
REMARK VINA RESULT:    -2.411      0.000      0.000
REMARK INTER + INTRA:          -2.411
REMARK INTER:                  -2.411
REMARK INTRA:                   0.000
REMARK UNBOUND:                 0.000
REMARK SMILES CC(=O)[O-]
REMARK SMILES IDX 1 1 2 2 3 3 4 4
REMARK H PARENT
REMARK Flexibility Score: inf
ROOT
ATOM      1  C   UNL     1     -14.040  59.098   1.161  1.00  0.00     0.063 C 
ATOM      2  C   UNL     1     -15.272  58.540   0.535  1.00  0.00     0.038 C 
ATOM      3  O   UNL     1     -15.342  58.407  -0.715  1.00  0.00    -0.550 OA
ATOM      4  O   UNL     1     -16.328  58.116   1.332  1.00  0.00    -0.550 OA
ENDROOT
TORSDOF 0
ENDMDL
MODEL 2
REMARK VINA RESULT:    -2.343     16.457     16.883
REMARK INTER + INTRA:          -2.343
REMARK INTER:                  -2.343
REMARK INTRA:                   0.000
REMARK UNBOUND:                 0.000
REMARK SMILES CC(=O)[O-]
REMARK SMILES IDX 1 1 2 2 3 3 4 4
REMARK H PARENT
REMARK Flexibility Score: inf
ROOT
ATOM      1  C   UNL     1     -19.432  47.253 -10.336  1.00  0.00     0.063 C 
ATOM      2  C   UNL     1     -19.763  45.994  -9.608  1.00  0.00     0.038 C 
ATOM      3  O   UNL     1     -20.728  45.966  -8.801  1.00  0.00    -0.550 OA
ATOM      4  O   UNL     1     -19.040  44.835  -9.858  1.00  0.00    -0.550 OA
ENDROOT
TORSDOF 0
ENDMDL
MODEL 3
REMARK VINA RESULT:    -2.295      0.886      1.814
REMARK INTER + INTRA:          -2.295
REMARK INTER:                  -2.295
REMARK INTRA:                   0.000
REMARK UNBOUND:                 0.000
REMARK SMILES CC(=O)[O-]
REMARK SMILES IDX 1 1 2 2 3 3 4 4
REMARK H PARENT
REMARK Flexibility Score: inf
ROOT
ATOM      1  C   UNL     1     -14.806  59.034   0.890  1.00  0.00     0.063 C 
ATOM      2  C   UNL     1     -15.907  58.045   0.708  1.00  0.00     0.038 C 
ATOM      3  O   UNL     1     -16.638  57.726   1.683  1.00  0.00    -0.550 OA
ATOM      4  O   UNL     1     -16.165  57.512  -0.549  1.00  0.00    -0.550 OA
ENDROOT
TORSDOF 0
ENDMDL
MODEL 4
REMARK VINA RESULT:    -2.235      5.526      6.018
REMARK INTER + INTRA:          -2.235
REMARK INTER:                  -2.235
REMARK INTRA:                   0.000
REMARK UNBOUND:                 0.000
REMARK SMILES CC(=O)[O-]
REMARK SMILES IDX 1 1 2 2 3 3 4 4
REMARK H PARENT
REMARK Flexibility Score: inf
ROOT
ATOM      1  C   UNL     1     -17.954  56.262  -4.009  1.00  0.00     0.063 C 
ATOM      2  C   UNL     1     -19.124  56.364  -3.091  1.00  0.00     0.038 C 
ATOM      3  O   UNL     1     -18.960  56.273  -1.846  1.00  0.00    -0.550 OA
ATOM      4  O   UNL     1     -20.391  56.613  -3.601  1.00  0.00    -0.550 OA
ENDROOT
TORSDOF 0
ENDMDL
MODEL 5
REMARK VINA RESULT:    -2.206      5.285      5.699
REMARK INTER + INTRA:          -2.206
REMARK INTER:                  -2.206
REMARK INTRA:                   0.000
REMARK UNBOUND:                 0.000
REMARK SMILES CC(=O)[O-]
REMARK SMILES IDX 1 1 2 2 3 3 4 4
REMARK H PARENT
REMARK Flexibility Score: inf
ROOT
ATOM      1  C   UNL     1     -17.818  56.161  -4.018  1.00  0.00     0.063 C 
ATOM      2  C   UNL     1     -18.891  56.405  -3.013  1.00  0.00     0.038 C 
ATOM      3  O   UNL     1     -20.068  56.644  -3.389  1.00  0.00    -0.550 OA
ATOM      4  O   UNL     1     -18.606  56.317  -1.655  1.00  0.00    -0.550 OA
ENDROOT
TORSDOF 0
ENDMDL
MODEL 6
REMARK VINA RESULT:    -2.183      4.325      4.979
REMARK INTER + INTRA:          -2.183
REMARK INTER:                  -2.183
REMARK INTRA:                   0.000
REMARK UNBOUND:                 0.000
REMARK SMILES CC(=O)[O-]
REMARK SMILES IDX 1 1 2 2 3 3 4 4
REMARK H PARENT
REMARK Flexibility Score: inf
ROOT
ATOM      1  C   UNL     1     -18.015  56.665  -3.719  1.00  0.00     0.063 C 
ATOM      2  C   UNL     1     -17.343  56.075  -2.526  1.00  0.00     0.038 C 
ATOM      3  O   UNL     1     -17.306  56.712  -1.441  1.00  0.00    -0.550 OA
ATOM      4  O   UNL     1     -16.801  54.797  -2.593  1.00  0.00    -0.550 OA
ENDROOT
TORSDOF 0
ENDMDL
MODEL 7
REMARK VINA RESULT:    -2.114     16.595     16.853
REMARK INTER + INTRA:          -2.114
REMARK INTER:                  -2.114
REMARK INTRA:                   0.000
REMARK UNBOUND:                 0.000
REMARK SMILES CC(=O)[O-]
REMARK SMILES IDX 1 1 2 2 3 3 4 4
REMARK H PARENT
REMARK Flexibility Score: inf
ROOT
ATOM      1  C   UNL     1     -19.169  45.224 -10.487  1.00  0.00     0.063 C 
ATOM      2  C   UNL     1     -19.979  46.312  -9.867  1.00  0.00     0.038 C 
ATOM      3  O   UNL     1     -20.030  47.448 -10.406  1.00  0.00    -0.550 OA
ATOM      4  O   UNL     1     -20.723  46.060  -8.722  1.00  0.00    -0.550 OA
ENDROOT
TORSDOF 0
ENDMDL
MODEL 8
REMARK VINA RESULT:    -2.045      8.081      8.201
REMARK INTER + INTRA:          -2.045
REMARK INTER:                  -2.045
REMARK INTRA:                   0.000
REMARK UNBOUND:                 0.000
REMARK SMILES CC(=O)[O-]
REMARK SMILES IDX 1 1 2 2 3 3 4 4
REMARK H PARENT
REMARK Flexibility Score: inf
ROOT
ATOM      1  C   UNL     1     -19.846  51.703  -0.729  1.00  0.00     0.063 C 
ATOM      2  C   UNL     1     -20.457  52.735  -1.613  1.00  0.00     0.038 C 
ATOM      3  O   UNL     1     -19.875  53.085  -2.674  1.00  0.00    -0.550 OA
ATOM      4  O   UNL     1     -21.697  53.278  -1.298  1.00  0.00    -0.550 OA
ENDROOT
TORSDOF 0
ENDMDL
MODEL 9
REMARK VINA RESULT:    -2.033     16.455     16.875
REMARK INTER + INTRA:          -2.033
REMARK INTER:                  -2.033
REMARK INTRA:                   0.000
REMARK UNBOUND:                 0.000
REMARK SMILES CC(=O)[O-]
REMARK SMILES IDX 1 1 2 2 3 3 4 4
REMARK H PARENT
REMARK Flexibility Score: inf
ROOT
ATOM      1  C   UNL     1     -25.729  44.495   4.308  1.00  0.00     0.063 C 
ATOM      2  C   UNL     1     -25.201  45.790   4.823  1.00  0.00     0.038 C 
ATOM      3  O   UNL     1     -25.667  46.879   4.397  1.00  0.00    -0.550 OA
ATOM      4  O   UNL     1     -24.227  45.800   5.815  1.00  0.00    -0.550 OA
ENDROOT
TORSDOF 0
ENDMDL
