MODEL 1
REMARK VINA RESULT:    -5.043      0.000      0.000
REMARK INTER + INTRA:          -5.371
REMARK INTER:                  -5.337
REMARK INTRA:                  -0.033
REMARK UNBOUND:                -0.033
REMARK SMILES COc1ccc2ccc(=O)oc2c1
REMARK SMILES IDX 3 1 13 2 12 3 6 4 5 5 4 6 7 7 8 8 9 9 10 10 11 11 2 12 1 13
REMARK H PARENT
REMARK Flexibility Score: inf
ROOT
ATOM      1  C   UNL     1      11.840 -22.652  18.504  1.00  0.00     0.122 A 
ATOM      2  C   UNL     1      13.184 -22.287  18.348  1.00  0.00     0.094 A 
ATOM      3  C   UNL     1      13.604 -20.985  18.636  1.00  0.00     0.142 A 
ATOM      4  C   UNL     1      12.668 -20.028  19.085  1.00  0.00     0.018 A 
ATOM      5  C   UNL     1      11.324 -20.388  19.241  1.00  0.00     0.016 A 
ATOM      6  C   UNL     1      10.911 -21.693  18.953  1.00  0.00     0.047 A 
ATOM      7  C   UNL     1      13.118 -18.734  19.363  1.00  0.00     0.019 A 
ATOM      8  C   UNL     1      14.467 -18.428  19.190  1.00  0.00     0.094 A 
ATOM      9  C   UNL     1      15.338 -19.426  18.742  1.00  0.00     0.336 A 
ATOM     10  O   UNL     1      16.560 -19.169  18.579  1.00  0.00    -0.246 OA
ATOM     11  O   UNL     1      14.883 -20.650  18.484  1.00  0.00    -0.423 OA
ENDROOT
BRANCH   1  12
ATOM     12  O   UNL     1      11.471 -23.972  18.203  1.00  0.00    -0.497 OA
ATOM     13  C   UNL     1      10.254 -24.340  17.562  1.00  0.00     0.278 C 
ENDBRANCH   1  12
TORSDOF 1
ENDMDL
MODEL 2
REMARK VINA RESULT:    -5.021      2.458      3.174
REMARK INTER + INTRA:          -5.348
REMARK INTER:                  -5.305
REMARK INTRA:                  -0.043
REMARK UNBOUND:                -0.033
REMARK SMILES COc1ccc2ccc(=O)oc2c1
REMARK SMILES IDX 3 1 13 2 12 3 6 4 5 5 4 6 7 7 8 8 9 9 10 10 11 11 2 12 1 13
REMARK H PARENT
REMARK Flexibility Score: inf
ROOT
ATOM      1  C   UNL     1      14.079 -23.938  19.777  1.00  0.00     0.122 A 
ATOM      2  C   UNL     1      14.360 -22.728  20.424  1.00  0.00     0.094 A 
ATOM      3  C   UNL     1      13.731 -21.546  20.024  1.00  0.00     0.142 A 
ATOM      4  C   UNL     1      12.806 -21.569  18.958  1.00  0.00     0.018 A 
ATOM      5  C   UNL     1      12.522 -22.776  18.307  1.00  0.00     0.016 A 
ATOM      6  C   UNL     1      13.154 -23.955  18.713  1.00  0.00     0.047 A 
ATOM      7  C   UNL     1      12.193 -20.370  18.580  1.00  0.00     0.019 A 
ATOM      8  C   UNL     1      12.511 -19.196  19.261  1.00  0.00     0.094 A 
ATOM      9  C   UNL     1      13.437 -19.247  20.308  1.00  0.00     0.336 A 
ATOM     10  O   UNL     1      13.738 -18.198  20.934  1.00  0.00    -0.246 OA
ATOM     11  O   UNL     1      14.006 -20.402  20.646  1.00  0.00    -0.423 OA
ENDROOT
BRANCH   1  12
ATOM     12  O   UNL     1      14.737 -25.097  20.217  1.00  0.00    -0.497 OA
ATOM     13  C   UNL     1      15.542 -25.169  21.390  1.00  0.00     0.278 C 
ENDBRANCH   1  12
TORSDOF 1
ENDMDL
MODEL 3
REMARK VINA RESULT:    -4.910      2.664      3.686
REMARK INTER + INTRA:          -5.230
REMARK INTER:                  -5.197
REMARK INTRA:                  -0.033
REMARK UNBOUND:                -0.033
REMARK SMILES COc1ccc2ccc(=O)oc2c1
REMARK SMILES IDX 3 1 13 2 12 3 6 4 5 5 4 6 7 7 8 8 9 9 10 10 11 11 2 12 1 13
REMARK H PARENT
REMARK Flexibility Score: inf
ROOT
ATOM      1  C   UNL     1      14.097 -23.422  20.212  1.00  0.00     0.122 A 
ATOM      2  C   UNL     1      12.849 -22.881  19.879  1.00  0.00     0.094 A 
ATOM      3  C   UNL     1      12.757 -21.612  19.298  1.00  0.00     0.142 A 
ATOM      4  C   UNL     1      13.930 -20.870  19.044  1.00  0.00     0.018 A 
ATOM      5  C   UNL     1      15.181 -21.406  19.376  1.00  0.00     0.016 A 
ATOM      6  C   UNL     1      15.265 -22.676  19.957  1.00  0.00     0.047 A 
ATOM      7  C   UNL     1      13.807 -19.605  18.462  1.00  0.00     0.019 A 
ATOM      8  C   UNL     1      12.538 -19.116  18.152  1.00  0.00     0.094 A 
ATOM      9  C   UNL     1      11.419 -19.908  18.431  1.00  0.00     0.336 A 
ATOM     10  O   UNL     1      10.265 -19.484  18.158  1.00  0.00    -0.246 OA
ATOM     11  O   UNL     1      11.566 -21.108  18.986  1.00  0.00    -0.423 OA
ENDROOT
BRANCH   1  12
ATOM     12  O   UNL     1      14.135 -24.699  20.794  1.00  0.00    -0.497 OA
ATOM     13  C   UNL     1      13.994 -24.953  22.188  1.00  0.00     0.278 C 
ENDBRANCH   1  12
TORSDOF 1
ENDMDL
MODEL 4
REMARK VINA RESULT:    -4.909      2.202      4.760
REMARK INTER + INTRA:          -5.230
REMARK INTER:                  -5.193
REMARK INTRA:                  -0.037
REMARK UNBOUND:                -0.033
REMARK SMILES COc1ccc2ccc(=O)oc2c1
REMARK SMILES IDX 3 1 13 2 12 3 6 4 5 5 4 6 7 7 8 8 9 9 10 10 11 11 2 12 1 13
REMARK H PARENT
REMARK Flexibility Score: inf
ROOT
ATOM      1  C   UNL     1      13.474 -19.079  20.163  1.00  0.00     0.122 A 
ATOM      2  C   UNL     1      14.060 -20.265  20.623  1.00  0.00     0.094 A 
ATOM      3  C   UNL     1      13.779 -21.484  19.998  1.00  0.00     0.142 A 
ATOM      4  C   UNL     1      12.899 -21.522  18.896  1.00  0.00     0.018 A 
ATOM      5  C   UNL     1      12.310 -20.339  18.433  1.00  0.00     0.016 A 
ATOM      6  C   UNL     1      12.595 -19.123  19.062  1.00  0.00     0.047 A 
ATOM      7  C   UNL     1      12.638 -22.756  18.292  1.00  0.00     0.019 A 
ATOM      8  C   UNL     1      13.249 -23.904  18.792  1.00  0.00     0.094 A 
ATOM      9  C   UNL     1      14.112 -23.792  19.888  1.00  0.00     0.336 A 
ATOM     10  O   UNL     1      14.674 -24.818  20.354  1.00  0.00    -0.246 OA
ATOM     11  O   UNL     1      14.342 -22.605  20.444  1.00  0.00    -0.423 OA
ENDROOT
BRANCH   1  12
ATOM     12  O   UNL     1      13.788 -17.882  20.825  1.00  0.00    -0.497 OA
ATOM     13  C   UNL     1      15.110 -17.382  21.000  1.00  0.00     0.278 C 
ENDBRANCH   1  12
TORSDOF 1
ENDMDL
MODEL 5
REMARK VINA RESULT:    -4.850      2.824      4.492
REMARK INTER + INTRA:          -5.167
REMARK INTER:                  -5.126
REMARK INTRA:                  -0.041
REMARK UNBOUND:                -0.033
REMARK SMILES COc1ccc2ccc(=O)oc2c1
REMARK SMILES IDX 3 1 13 2 12 3 6 4 5 5 4 6 7 7 8 8 9 9 10 10 11 11 2 12 1 13
REMARK H PARENT
REMARK Flexibility Score: inf
ROOT
ATOM      1  C   UNL     1      13.441 -20.929  18.593  1.00  0.00     0.122 A 
ATOM      2  C   UNL     1      14.617 -21.136  19.326  1.00  0.00     0.094 A 
ATOM      3  C   UNL     1      14.894 -22.387  19.886  1.00  0.00     0.142 A 
ATOM      4  C   UNL     1      13.984 -23.451  19.713  1.00  0.00     0.018 A 
ATOM      5  C   UNL     1      12.807 -23.249  18.981  1.00  0.00     0.016 A 
ATOM      6  C   UNL     1      12.536 -21.996  18.423  1.00  0.00     0.047 A 
ATOM      7  C   UNL     1      14.288 -24.690  20.285  1.00  0.00     0.019 A 
ATOM      8  C   UNL     1      15.473 -24.837  21.005  1.00  0.00     0.094 A 
ATOM      9  C   UNL     1      16.329 -23.739  21.136  1.00  0.00     0.336 A 
ATOM     10  O   UNL     1      17.404 -23.852  21.782  1.00  0.00    -0.246 OA
ATOM     11  O   UNL     1      16.014 -22.570  20.581  1.00  0.00    -0.423 OA
ENDROOT
BRANCH   1  12
ATOM     12  O   UNL     1      13.210 -19.656  18.051  1.00  0.00    -0.497 OA
ATOM     13  C   UNL     1      13.679 -18.440  18.626  1.00  0.00     0.278 C 
ENDBRANCH   1  12
TORSDOF 1
ENDMDL
MODEL 6
REMARK VINA RESULT:    -4.830      1.089      4.839
REMARK INTER + INTRA:          -5.146
REMARK INTER:                  -5.111
REMARK INTRA:                  -0.035
REMARK UNBOUND:                -0.033
REMARK SMILES COc1ccc2ccc(=O)oc2c1
REMARK SMILES IDX 3 1 13 2 12 3 6 4 5 5 4 6 7 7 8 8 9 9 10 10 11 11 2 12 1 13
REMARK H PARENT
REMARK Flexibility Score: inf
ROOT
ATOM      1  C   UNL     1      15.204 -19.528  19.016  1.00  0.00     0.122 A 
ATOM      2  C   UNL     1      14.614 -20.768  18.742  1.00  0.00     0.094 A 
ATOM      3  C   UNL     1      13.230 -20.937  18.856  1.00  0.00     0.142 A 
ATOM      4  C   UNL     1      12.421 -19.850  19.251  1.00  0.00     0.018 A 
ATOM      5  C   UNL     1      13.006 -18.608  19.526  1.00  0.00     0.016 A 
ATOM      6  C   UNL     1      14.391 -18.446  19.409  1.00  0.00     0.047 A 
ATOM      7  C   UNL     1      11.041 -20.049  19.356  1.00  0.00     0.019 A 
ATOM      8  C   UNL     1      10.508 -21.306  19.072  1.00  0.00     0.094 A 
ATOM      9  C   UNL     1      11.371 -22.338  18.686  1.00  0.00     0.336 A 
ATOM     10  O   UNL     1      10.909 -23.480  18.425  1.00  0.00    -0.246 OA
ATOM     11  O   UNL     1      12.681 -22.120  18.594  1.00  0.00    -0.423 OA
ENDROOT
BRANCH   1  12
ATOM     12  O   UNL     1      16.596 -19.411  18.886  1.00  0.00    -0.497 OA
ATOM     13  C   UNL     1      17.374 -18.368  19.464  1.00  0.00     0.278 C 
ENDBRANCH   1  12
TORSDOF 1
ENDMDL
MODEL 7
REMARK VINA RESULT:    -4.725      2.201      5.542
REMARK INTER + INTRA:          -5.035
REMARK INTER:                  -4.994
REMARK INTRA:                  -0.040
REMARK UNBOUND:                -0.033
REMARK SMILES COc1ccc2ccc(=O)oc2c1
REMARK SMILES IDX 3 1 13 2 12 3 6 4 5 5 4 6 7 7 8 8 9 9 10 10 11 11 2 12 1 13
REMARK H PARENT
REMARK Flexibility Score: inf
ROOT
ATOM      1  C   UNL     1      14.979 -17.971  20.422  1.00  0.00     0.122 A 
ATOM      2  C   UNL     1      13.596 -18.198  20.441  1.00  0.00     0.094 A 
ATOM      3  C   UNL     1      13.055 -19.340  19.842  1.00  0.00     0.142 A 
ATOM      4  C   UNL     1      13.906 -20.272  19.211  1.00  0.00     0.018 A 
ATOM      5  C   UNL     1      15.289 -20.050  19.188  1.00  0.00     0.016 A 
ATOM      6  C   UNL     1      15.824 -18.906  19.790  1.00  0.00     0.047 A 
ATOM      7  C   UNL     1      13.336 -21.403  18.620  1.00  0.00     0.019 A 
ATOM      8  C   UNL     1      11.953 -21.576  18.670  1.00  0.00     0.094 A 
ATOM      9  C   UNL     1      11.171 -20.611  19.313  1.00  0.00     0.336 A 
ATOM     10  O   UNL     1       9.920 -20.750  19.369  1.00  0.00    -0.246 OA
ATOM     11  O   UNL     1      11.740 -19.543  19.867  1.00  0.00    -0.423 OA
ENDROOT
BRANCH   1  12
ATOM     12  O   UNL     1      15.471 -16.811  21.038  1.00  0.00    -0.497 OA
ATOM     13  C   UNL     1      14.897 -16.207  22.193  1.00  0.00     0.278 C 
ENDBRANCH   1  12
TORSDOF 1
ENDMDL
MODEL 8
REMARK VINA RESULT:    -4.680      2.305      3.220
REMARK INTER + INTRA:          -4.987
REMARK INTER:                  -4.947
REMARK INTRA:                  -0.040
REMARK UNBOUND:                -0.033
REMARK SMILES COc1ccc2ccc(=O)oc2c1
REMARK SMILES IDX 3 1 13 2 12 3 6 4 5 5 4 6 7 7 8 8 9 9 10 10 11 11 2 12 1 13
REMARK H PARENT
REMARK Flexibility Score: inf
ROOT
ATOM      1  C   UNL     1      12.381 -20.551  19.098  1.00  0.00     0.122 A 
ATOM      2  C   UNL     1      12.566 -19.405  19.883  1.00  0.00     0.094 A 
ATOM      3  C   UNL     1      13.836 -18.836  20.019  1.00  0.00     0.142 A 
ATOM      4  C   UNL     1      14.941 -19.418  19.363  1.00  0.00     0.018 A 
ATOM      5  C   UNL     1      14.761 -20.563  18.577  1.00  0.00     0.016 A 
ATOM      6  C   UNL     1      13.488 -21.128  18.444  1.00  0.00     0.047 A 
ATOM      7  C   UNL     1      16.198 -18.826  19.519  1.00  0.00     0.019 A 
ATOM      8  C   UNL     1      16.323 -17.687  20.313  1.00  0.00     0.094 A 
ATOM      9  C   UNL     1      15.183 -17.163  20.934  1.00  0.00     0.336 A 
ATOM     10  O   UNL     1      15.276 -16.135  21.655  1.00  0.00    -0.246 OA
ATOM     11  O   UNL     1      13.999 -17.748  20.769  1.00  0.00    -0.423 OA
ENDROOT
BRANCH   1  12
ATOM     12  O   UNL     1      11.087 -21.083  18.992  1.00  0.00    -0.497 OA
ATOM     13  C   UNL     1       9.896 -20.302  18.953  1.00  0.00     0.278 C 
ENDBRANCH   1  12
TORSDOF 1
ENDMDL
MODEL 9
REMARK VINA RESULT:    -4.616      3.686      5.054
REMARK INTER + INTRA:          -4.919
REMARK INTER:                  -4.886
REMARK INTRA:                  -0.033
REMARK UNBOUND:                -0.033
REMARK SMILES COc1ccc2ccc(=O)oc2c1
REMARK SMILES IDX 3 1 13 2 12 3 6 4 5 5 4 6 7 7 8 8 9 9 10 10 11 11 2 12 1 13
REMARK H PARENT
REMARK Flexibility Score: inf
ROOT
ATOM      1  C   UNL     1      15.221 -23.462  22.461  1.00  0.00     0.122 A 
ATOM      2  C   UNL     1      14.749 -22.294  21.847  1.00  0.00     0.094 A 
ATOM      3  C   UNL     1      14.094 -22.355  20.613  1.00  0.00     0.142 A 
ATOM      4  C   UNL     1      13.906 -23.602  19.979  1.00  0.00     0.018 A 
ATOM      5  C   UNL     1      14.376 -24.772  20.588  1.00  0.00     0.016 A 
ATOM      6  C   UNL     1      15.030 -24.704  21.823  1.00  0.00     0.047 A 
ATOM      7  C   UNL     1      13.248 -23.630  18.746  1.00  0.00     0.019 A 
ATOM      8  C   UNL     1      12.800 -22.436  18.182  1.00  0.00     0.094 A 
ATOM      9  C   UNL     1      13.021 -21.237  18.868  1.00  0.00     0.336 A 
ATOM     10  O   UNL     1      12.625 -20.148  18.375  1.00  0.00    -0.246 OA
ATOM     11  O   UNL     1      13.651 -21.239  20.040  1.00  0.00    -0.423 OA
ENDROOT
BRANCH   1  12
ATOM     12  O   UNL     1      15.871 -23.347  23.699  1.00  0.00    -0.497 OA
ATOM     13  C   UNL     1      15.212 -23.380  24.960  1.00  0.00     0.278 C 
ENDBRANCH   1  12
TORSDOF 1
ENDMDL
