MODEL 1
REMARK VINA RESULT:    -5.847      0.000      0.000
REMARK INTER + INTRA:          -6.605
REMARK INTER:                  -6.531
REMARK INTRA:                  -0.074
REMARK UNBOUND:                -0.074
REMARK SMILES COc1cc2ccc(=O)oc2cc1OC
REMARK SMILES IDX 3 1 13 2 12 3 11 4 5 5 4 6 6 7 7 8 8 9 9 10 10 11 2 12 1 13
REMARK SMILES IDX 14 14 15 15
REMARK H PARENT
REMARK Flexibility Score: inf
ROOT
ATOM      1  C   UNL     1      74.325  41.920  -5.332  1.00  0.00     0.161 A 
ATOM      2  C   UNL     1      73.329  41.190  -4.662  1.00  0.00     0.164 A 
ATOM      3  C   UNL     1      72.709  41.737  -3.522  1.00  0.00     0.098 A 
ATOM      4  C   UNL     1      73.076  43.001  -3.054  1.00  0.00     0.142 A 
ATOM      5  C   UNL     1      74.075  43.733  -3.725  1.00  0.00     0.022 A 
ATOM      6  C   UNL     1      74.696  43.195  -4.859  1.00  0.00     0.062 A 
ATOM      7  C   UNL     1      74.422  44.996  -3.232  1.00  0.00     0.019 A 
ATOM      8  C   UNL     1      73.775  45.489  -2.099  1.00  0.00     0.094 A 
ATOM      9  C   UNL     1      72.793  44.705  -1.485  1.00  0.00     0.336 A 
ATOM     10  O   UNL     1      72.198  45.133  -0.461  1.00  0.00    -0.246 OA
ATOM     11  O   UNL     1      72.484  43.507  -1.975  1.00  0.00    -0.423 OA
ENDROOT
BRANCH   1  12
ATOM     12  O   UNL     1      74.922  41.344  -6.465  1.00  0.00    -0.493 OA
ATOM     13  C   UNL     1      74.359  41.363  -7.773  1.00  0.00     0.278 C 
ENDBRANCH   1  12
BRANCH   2  14
ATOM     14  O   UNL     1      72.985  39.923  -5.160  1.00  0.00    -0.493 OA
ATOM     15  C   UNL     1      71.727  39.599  -5.744  1.00  0.00     0.278 C 
ENDBRANCH   2  14
TORSDOF 2
ENDMDL
MODEL 2
REMARK VINA RESULT:    -5.785      1.350      2.646
REMARK INTER + INTRA:          -6.535
REMARK INTER:                  -6.381
REMARK INTRA:                  -0.154
REMARK UNBOUND:                -0.074
REMARK SMILES COc1cc2ccc(=O)oc2cc1OC
REMARK SMILES IDX 3 1 13 2 12 3 11 4 5 5 4 6 6 7 7 8 8 9 9 10 10 11 2 12 1 13
REMARK SMILES IDX 14 14 15 15
REMARK H PARENT
REMARK Flexibility Score: inf
ROOT
ATOM      1  C   UNL     1      72.916  40.977  -4.515  1.00  0.00     0.161 A 
ATOM      2  C   UNL     1      73.943  41.472  -5.336  1.00  0.00     0.164 A 
ATOM      3  C   UNL     1      74.536  42.716  -5.041  1.00  0.00     0.098 A 
ATOM      4  C   UNL     1      74.111  43.459  -3.937  1.00  0.00     0.142 A 
ATOM      5  C   UNL     1      73.081  42.962  -3.113  1.00  0.00     0.022 A 
ATOM      6  C   UNL     1      72.487  41.727  -3.401  1.00  0.00     0.062 A 
ATOM      7  C   UNL     1      72.677  43.730  -2.015  1.00  0.00     0.019 A 
ATOM      8  C   UNL     1      73.299  44.954  -1.770  1.00  0.00     0.094 A 
ATOM      9  C   UNL     1      74.314  45.383  -2.632  1.00  0.00     0.336 A 
ATOM     10  O   UNL     1      74.888  46.484  -2.428  1.00  0.00    -0.246 OA
ATOM     11  O   UNL     1      74.678  44.632  -3.669  1.00  0.00    -0.423 OA
ENDROOT
BRANCH   1  12
ATOM     12  O   UNL     1      72.347  39.734  -4.838  1.00  0.00    -0.493 OA
ATOM     13  C   UNL     1      71.013  39.552  -5.300  1.00  0.00     0.278 C 
ENDBRANCH   1  12
BRANCH   2  14
ATOM     14  O   UNL     1      74.345  40.699  -6.437  1.00  0.00    -0.493 OA
ATOM     15  C   UNL     1      74.035  41.002  -7.793  1.00  0.00     0.278 C 
ENDBRANCH   2  14
TORSDOF 2
ENDMDL
MODEL 3
REMARK VINA RESULT:    -5.362      1.603      2.485
REMARK INTER + INTRA:          -6.062
REMARK INTER:                  -5.903
REMARK INTRA:                  -0.159
REMARK UNBOUND:                -0.074
REMARK SMILES COc1cc2ccc(=O)oc2cc1OC
REMARK SMILES IDX 3 1 13 2 12 3 11 4 5 5 4 6 6 7 7 8 8 9 9 10 10 11 2 12 1 13
REMARK SMILES IDX 14 14 15 15
REMARK H PARENT
REMARK Flexibility Score: inf
ROOT
ATOM      1  C   UNL     1      74.264  40.537  -7.342  1.00  0.00     0.161 A 
ATOM      2  C   UNL     1      73.141  39.892  -6.797  1.00  0.00     0.164 A 
ATOM      3  C   UNL     1      72.634  40.304  -5.549  1.00  0.00     0.098 A 
ATOM      4  C   UNL     1      73.240  41.352  -4.850  1.00  0.00     0.142 A 
ATOM      5  C   UNL     1      74.367  41.999  -5.396  1.00  0.00     0.022 A 
ATOM      6  C   UNL     1      74.875  41.593  -6.636  1.00  0.00     0.062 A 
ATOM      7  C   UNL     1      74.952  43.044  -4.672  1.00  0.00     0.019 A 
ATOM      8  C   UNL     1      74.409  43.411  -3.441  1.00  0.00     0.094 A 
ATOM      9  C   UNL     1      73.289  42.723  -2.962  1.00  0.00     0.336 A 
ATOM     10  O   UNL     1      72.784  43.040  -1.853  1.00  0.00    -0.246 OA
ATOM     11  O   UNL     1      72.753  41.733  -3.672  1.00  0.00    -0.423 OA
ENDROOT
BRANCH   1  12
ATOM     12  O   UNL     1      74.742  40.100  -8.588  1.00  0.00    -0.493 OA
ATOM     13  C   UNL     1      74.412  40.701  -9.836  1.00  0.00     0.278 C 
ENDBRANCH   1  12
BRANCH   2  14
ATOM     14  O   UNL     1      72.557  38.844  -7.526  1.00  0.00    -0.493 OA
ATOM     15  C   UNL     1      71.366  38.962  -8.298  1.00  0.00     0.278 C 
ENDBRANCH   2  14
TORSDOF 2
ENDMDL
MODEL 4
REMARK VINA RESULT:    -5.092      1.176      5.623
REMARK INTER + INTRA:          -5.761
REMARK INTER:                  -5.769
REMARK INTRA:                   0.008
REMARK UNBOUND:                -0.074
REMARK SMILES COc1cc2ccc(=O)oc2cc1OC
REMARK SMILES IDX 3 1 13 2 12 3 11 4 5 5 4 6 6 7 7 8 8 9 9 10 10 11 2 12 1 13
REMARK SMILES IDX 14 14 15 15
REMARK H PARENT
REMARK Flexibility Score: inf
ROOT
ATOM      1  C   UNL     1      73.225  42.969  -2.678  1.00  0.00     0.161 A 
ATOM      2  C   UNL     1      74.195  43.678  -3.405  1.00  0.00     0.164 A 
ATOM      3  C   UNL     1      74.566  43.238  -4.691  1.00  0.00     0.098 A 
ATOM      4  C   UNL     1      73.974  42.102  -5.249  1.00  0.00     0.142 A 
ATOM      5  C   UNL     1      73.000  41.391  -4.520  1.00  0.00     0.022 A 
ATOM      6  C   UNL     1      72.628  41.823  -3.241  1.00  0.00     0.062 A 
ATOM      7  C   UNL     1      72.426  40.257  -5.105  1.00  0.00     0.019 A 
ATOM      8  C   UNL     1      72.830  39.866  -6.381  1.00  0.00     0.094 A 
ATOM      9  C   UNL     1      73.803  40.622  -7.045  1.00  0.00     0.336 A 
ATOM     10  O   UNL     1      74.181  40.286  -8.197  1.00  0.00    -0.246 OA
ATOM     11  O   UNL     1      74.333  41.696  -6.464  1.00  0.00    -0.423 OA
ENDROOT
BRANCH   1  12
ATOM     12  O   UNL     1      72.879  43.436  -1.400  1.00  0.00    -0.493 OA
ATOM     13  C   UNL     1      71.928  44.465  -1.145  1.00  0.00     0.278 C 
ENDBRANCH   1  12
BRANCH   2  14
ATOM     14  O   UNL     1      74.770  44.815  -2.814  1.00  0.00    -0.493 OA
ATOM     15  C   UNL     1      74.333  46.151  -3.042  1.00  0.00     0.278 C 
ENDBRANCH   2  14
TORSDOF 2
ENDMDL
MODEL 5
REMARK VINA RESULT:    -4.975      1.183      5.061
REMARK INTER + INTRA:          -5.631
REMARK INTER:                  -5.678
REMARK INTRA:                   0.048
REMARK UNBOUND:                -0.074
REMARK SMILES COc1cc2ccc(=O)oc2cc1OC
REMARK SMILES IDX 3 1 13 2 12 3 11 4 5 5 4 6 6 7 7 8 8 9 9 10 10 11 2 12 1 13
REMARK SMILES IDX 14 14 15 15
REMARK H PARENT
REMARK Flexibility Score: inf
ROOT
ATOM      1  C   UNL     1      74.231  43.660  -3.425  1.00  0.00     0.161 A 
ATOM      2  C   UNL     1      73.230  42.929  -2.765  1.00  0.00     0.164 A 
ATOM      3  C   UNL     1      72.665  41.798  -3.386  1.00  0.00     0.098 A 
ATOM      4  C   UNL     1      73.096  41.397  -4.654  1.00  0.00     0.142 A 
ATOM      5  C   UNL     1      74.101  42.131  -5.316  1.00  0.00     0.022 A 
ATOM      6  C   UNL     1      74.665  43.257  -4.703  1.00  0.00     0.062 A 
ATOM      7  C   UNL     1      74.511  41.705  -6.584  1.00  0.00     0.019 A 
ATOM      8  C   UNL     1      73.919  40.578  -7.152  1.00  0.00     0.094 A 
ATOM      9  C   UNL     1      72.927  39.900  -6.436  1.00  0.00     0.336 A 
ATOM     10  O   UNL     1      72.380  38.880  -6.931  1.00  0.00    -0.246 OA
ATOM     11  O   UNL     1      72.556  40.327  -5.231  1.00  0.00    -0.423 OA
ENDROOT
BRANCH   1  12
ATOM     12  O   UNL     1      74.772  44.782  -2.776  1.00  0.00    -0.493 OA
ATOM     13  C   UNL     1      74.358  46.125  -3.005  1.00  0.00     0.278 C 
ENDBRANCH   1  12
BRANCH   2  14
ATOM     14  O   UNL     1      72.821  43.359  -1.493  1.00  0.00    -0.493 OA
ATOM     15  C   UNL     1      71.900  44.419  -1.256  1.00  0.00     0.278 C 
ENDBRANCH   2  14
TORSDOF 2
ENDMDL
MODEL 6
REMARK VINA RESULT:    -4.801     12.223     14.397
REMARK INTER + INTRA:          -5.436
REMARK INTER:                  -5.313
REMARK INTRA:                  -0.123
REMARK UNBOUND:                -0.074
REMARK SMILES COc1cc2ccc(=O)oc2cc1OC
REMARK SMILES IDX 3 1 13 2 12 3 11 4 5 5 4 6 6 7 7 8 8 9 9 10 10 11 2 12 1 13
REMARK SMILES IDX 14 14 15 15
REMARK H PARENT
REMARK Flexibility Score: inf
ROOT
ATOM      1  C   UNL     1      68.918  48.921   9.102  1.00  0.00     0.161 A 
ATOM      2  C   UNL     1      68.637  48.378   7.837  1.00  0.00     0.164 A 
ATOM      3  C   UNL     1      69.692  48.104   6.944  1.00  0.00     0.098 A 
ATOM      4  C   UNL     1      71.014  48.366   7.309  1.00  0.00     0.142 A 
ATOM      5  C   UNL     1      71.296  48.910   8.578  1.00  0.00     0.022 A 
ATOM      6  C   UNL     1      70.252  49.186   9.470  1.00  0.00     0.062 A 
ATOM      7  C   UNL     1      72.631  49.162   8.914  1.00  0.00     0.019 A 
ATOM      8  C   UNL     1      73.636  48.871   7.992  1.00  0.00     0.094 A 
ATOM      9  C   UNL     1      73.280  48.333   6.751  1.00  0.00     0.336 A 
ATOM     10  O   UNL     1      74.172  48.063   5.904  1.00  0.00    -0.246 OA
ATOM     11  O   UNL     1      72.002  48.104   6.457  1.00  0.00    -0.423 OA
ENDROOT
BRANCH   1  12
ATOM     12  O   UNL     1      67.842  49.181   9.967  1.00  0.00    -0.493 OA
ATOM     13  C   UNL     1      67.218  50.452  10.120  1.00  0.00     0.278 C 
ENDBRANCH   1  12
BRANCH   2  14
ATOM     14  O   UNL     1      67.297  48.127   7.504  1.00  0.00    -0.493 OA
ATOM     15  C   UNL     1      66.785  46.856   7.116  1.00  0.00     0.278 C 
ENDBRANCH   2  14
TORSDOF 2
ENDMDL
MODEL 7
REMARK VINA RESULT:    -4.697     11.588     14.521
REMARK INTER + INTRA:          -5.320
REMARK INTER:                  -5.175
REMARK INTRA:                  -0.145
REMARK UNBOUND:                -0.074
REMARK SMILES COc1cc2ccc(=O)oc2cc1OC
REMARK SMILES IDX 3 1 13 2 12 3 11 4 5 5 4 6 6 7 7 8 8 9 9 10 10 11 2 12 1 13
REMARK SMILES IDX 14 14 15 15
REMARK H PARENT
REMARK Flexibility Score: inf
ROOT
ATOM      1  C   UNL     1      70.657  49.151   8.439  1.00  0.00     0.161 A 
ATOM      2  C   UNL     1      70.533  48.578   7.162  1.00  0.00     0.164 A 
ATOM      3  C   UNL     1      69.281  48.096   6.731  1.00  0.00     0.098 A 
ATOM      4  C   UNL     1      68.163  48.185   7.563  1.00  0.00     0.142 A 
ATOM      5  C   UNL     1      68.287  48.759   8.844  1.00  0.00     0.022 A 
ATOM      6  C   UNL     1      69.528  49.240   9.279  1.00  0.00     0.062 A 
ATOM      7  C   UNL     1      67.149  48.834   9.655  1.00  0.00     0.019 A 
ATOM      8  C   UNL     1      65.935  48.341   9.177  1.00  0.00     0.094 A 
ATOM      9  C   UNL     1      65.888  47.784   7.894  1.00  0.00     0.336 A 
ATOM     10  O   UNL     1      64.802  47.334   7.445  1.00  0.00    -0.246 OA
ATOM     11  O   UNL     1      66.986  47.726   7.145  1.00  0.00    -0.423 OA
ENDROOT
BRANCH   1  12
ATOM     12  O   UNL     1      71.919  49.622   8.837  1.00  0.00    -0.493 OA
ATOM     13  C   UNL     1      72.863  48.865   9.588  1.00  0.00     0.278 C 
ENDBRANCH   1  12
BRANCH   2  14
ATOM     14  O   UNL     1      71.677  48.505   6.352  1.00  0.00    -0.493 OA
ATOM     15  C   UNL     1      72.292  47.292   5.931  1.00  0.00     0.278 C 
ENDBRANCH   2  14
TORSDOF 2
ENDMDL
MODEL 8
REMARK VINA RESULT:    -4.599     12.766     13.587
REMARK INTER + INTRA:          -5.210
REMARK INTER:                  -5.045
REMARK INTRA:                  -0.165
REMARK UNBOUND:                -0.074
REMARK SMILES COc1cc2ccc(=O)oc2cc1OC
REMARK SMILES IDX 3 1 13 2 12 3 11 4 5 5 4 6 6 7 7 8 8 9 9 10 10 11 2 12 1 13
REMARK SMILES IDX 14 14 15 15
REMARK H PARENT
REMARK Flexibility Score: inf
ROOT
ATOM      1  C   UNL     1      68.330  47.686   7.315  1.00  0.00     0.161 A 
ATOM      2  C   UNL     1      68.925  46.413   7.314  1.00  0.00     0.164 A 
ATOM      3  C   UNL     1      70.314  46.291   7.510  1.00  0.00     0.098 A 
ATOM      4  C   UNL     1      71.104  47.426   7.706  1.00  0.00     0.142 A 
ATOM      5  C   UNL     1      70.508  48.703   7.707  1.00  0.00     0.022 A 
ATOM      6  C   UNL     1      69.127  48.831   7.512  1.00  0.00     0.062 A 
ATOM      7  C   UNL     1      71.326  49.821   7.906  1.00  0.00     0.019 A 
ATOM      8  C   UNL     1      72.696  49.641   8.094  1.00  0.00     0.094 A 
ATOM      9  C   UNL     1      73.218  48.343   8.081  1.00  0.00     0.336 A 
ATOM     10  O   UNL     1      74.452  48.160   8.250  1.00  0.00    -0.246 OA
ATOM     11  O   UNL     1      72.416  47.298   7.889  1.00  0.00    -0.423 OA
ENDROOT
BRANCH   1  12
ATOM     12  O   UNL     1      66.942  47.772   7.117  1.00  0.00    -0.493 OA
ATOM     13  C   UNL     1      65.985  47.925   8.161  1.00  0.00     0.278 C 
ENDBRANCH   1  12
BRANCH   2  14
ATOM     14  O   UNL     1      68.101  45.294   7.114  1.00  0.00    -0.493 OA
ATOM     15  C   UNL     1      67.659  44.421   8.149  1.00  0.00     0.278 C 
ENDBRANCH   2  14
TORSDOF 2
ENDMDL
