MODEL 1
REMARK VINA RESULT:    -4.990      0.000      0.000
REMARK INTER + INTRA:          -5.676
REMARK INTER:                  -5.428
REMARK INTRA:                  -0.249
REMARK UNBOUND:                -0.249
REMARK SMILES C=C(C)[C@H]1CC[C@H](C)C[C@@H]1O
REMARK SMILES IDX 8 1 7 2 6 3 5 4 4 5 10 6 9 7 11 8 2 10 1 11 3 12
REMARK H PARENT 11 9
REMARK Flexibility Score: inf
ROOT
ATOM      1  C   UNL     1     117.615 120.427 134.372  1.00  0.00     0.008 C 
ATOM      2  C   UNL     1     116.460 121.137 133.653  1.00  0.00    -0.012 C 
ATOM      3  C   UNL     1     116.902 121.657 132.260  1.00  0.00     0.004 C 
ATOM      4  C   UNL     1     116.607 120.651 131.138  1.00  0.00     0.011 C 
ATOM      5  C   UNL     1     115.108 120.241 131.066  1.00  0.00     0.043 C 
ATOM      6  C   UNL     1     114.330 120.535 132.378  1.00  0.00     0.121 C 
ATOM      7  C   UNL     1     115.213 120.218 133.591  1.00  0.00     0.035 C 
ENDROOT
BRANCH   6   8
ATOM      8  O   UNL     1     113.171 119.745 132.439  1.00  0.00    -0.392 OA
ATOM      9  H   UNL     1     112.531 120.218 133.034  1.00  0.00     0.210 HD
ENDBRANCH   6   8
BRANCH   5  10
ATOM     10  C   UNL     1     114.407 120.852 129.856  1.00  0.00    -0.075 C 
ATOM     11  C   UNL     1     114.299 120.177 128.699  1.00  0.00     0.008 C 
ATOM     12  C   UNL     1     113.818 122.237 129.939  1.00  0.00     0.039 C 
ENDBRANCH   5  10
TORSDOF 2
ENDMDL
MODEL 2
REMARK VINA RESULT:    -4.867      1.662      4.428
REMARK INTER + INTRA:          -5.543
REMARK INTER:                  -5.304
REMARK INTRA:                  -0.238
REMARK UNBOUND:                -0.249
REMARK SMILES C=C(C)[C@H]1CC[C@H](C)C[C@@H]1O
REMARK SMILES IDX 8 1 7 2 6 3 5 4 4 5 10 6 9 7 11 8 2 10 1 11 3 12
REMARK H PARENT 11 9
REMARK Flexibility Score: inf
ROOT
ATOM      1  C   UNL     1     114.636 120.970 126.952  1.00  0.00     0.008 C 
ATOM      2  C   UNL     1     113.947 120.918 128.323  1.00  0.00    -0.012 C 
ATOM      3  C   UNL     1     114.574 119.821 129.223  1.00  0.00     0.004 C 
ATOM      4  C   UNL     1     115.692 120.370 130.122  1.00  0.00     0.011 C 
ATOM      5  C   UNL     1     115.226 121.550 131.022  1.00  0.00     0.043 C 
ATOM      6  C   UNL     1     113.925 122.230 130.514  1.00  0.00     0.121 C 
ATOM      7  C   UNL     1     113.947 122.320 128.983  1.00  0.00     0.035 C 
ENDROOT
BRANCH   6   8
ATOM      8  O   UNL     1     113.819 123.525 131.045  1.00  0.00    -0.392 OA
ATOM      9  H   UNL     1     114.648 124.010 130.791  1.00  0.00     0.210 HD
ENDBRANCH   6   8
BRANCH   5  10
ATOM     10  C   UNL     1     115.102 121.137 132.486  1.00  0.00    -0.075 C 
ATOM     11  C   UNL     1     113.993 120.534 132.949  1.00  0.00     0.008 C 
ATOM     12  C   UNL     1     116.232 121.401 133.447  1.00  0.00     0.039 C 
ENDBRANCH   5  10
TORSDOF 2
ENDMDL
MODEL 3
REMARK VINA RESULT:    -4.729      2.120      5.086
REMARK INTER + INTRA:          -5.392
REMARK INTER:                  -5.212
REMARK INTRA:                  -0.180
REMARK UNBOUND:                -0.249
REMARK SMILES C=C(C)[C@H]1CC[C@H](C)C[C@@H]1O
REMARK SMILES IDX 8 1 7 2 6 3 5 4 4 5 10 6 9 7 11 8 2 10 1 11 3 12
REMARK H PARENT 11 9
REMARK Flexibility Score: inf
ROOT
ATOM      1  C   UNL     1     113.237 122.342 125.822  1.00  0.00     0.008 C 
ATOM      2  C   UNL     1     114.315 121.995 126.857  1.00  0.00    -0.012 C 
ATOM      3  C   UNL     1     114.392 123.073 127.970  1.00  0.00     0.004 C 
ATOM      4  C   UNL     1     113.517 122.727 129.184  1.00  0.00     0.011 C 
ATOM      5  C   UNL     1     113.858 121.342 129.805  1.00  0.00     0.043 C 
ATOM      6  C   UNL     1     114.641 120.413 128.836  1.00  0.00     0.121 C 
ATOM      7  C   UNL     1     114.094 120.564 127.412  1.00  0.00     0.035 C 
ENDROOT
BRANCH   6   8
ATOM      8  O   UNL     1     114.506 119.074 129.237  1.00  0.00    -0.392 OA
ATOM      9  H   UNL     1     113.689 118.723 128.795  1.00  0.00     0.210 HD
ENDBRANCH   6   8
BRANCH   5  10
ATOM     10  C   UNL     1     114.576 121.479 131.145  1.00  0.00    -0.075 C 
ATOM     11  C   UNL     1     115.591 122.345 131.306  1.00  0.00     0.008 C 
ATOM     12  C   UNL     1     114.153 120.638 132.321  1.00  0.00     0.039 C 
ENDBRANCH   5  10
TORSDOF 2
ENDMDL
MODEL 4
REMARK VINA RESULT:    -4.727      2.031      3.006
REMARK INTER + INTRA:          -5.391
REMARK INTER:                  -5.175
REMARK INTRA:                  -0.216
REMARK UNBOUND:                -0.249
REMARK SMILES C=C(C)[C@H]1CC[C@H](C)C[C@@H]1O
REMARK SMILES IDX 8 1 7 2 6 3 5 4 4 5 10 6 9 7 11 8 2 10 1 11 3 12
REMARK H PARENT 11 9
REMARK Flexibility Score: inf
ROOT
ATOM      1  C   UNL     1     114.752 120.125 132.830  1.00  0.00     0.008 C 
ATOM      2  C   UNL     1     115.152 121.073 131.692  1.00  0.00    -0.012 C 
ATOM      3  C   UNL     1     115.799 120.296 130.516  1.00  0.00     0.004 C 
ATOM      4  C   UNL     1     114.774 119.899 129.442  1.00  0.00     0.011 C 
ATOM      5  C   UNL     1     113.991 121.114 128.869  1.00  0.00     0.043 C 
ATOM      6  C   UNL     1     114.044 122.366 129.787  1.00  0.00     0.121 C 
ATOM      7  C   UNL     1     113.942 121.939 131.257  1.00  0.00     0.035 C 
ENDROOT
BRANCH   6   8
ATOM      8  O   UNL     1     112.979 123.230 129.488  1.00  0.00    -0.392 OA
ATOM      9  H   UNL     1     113.160 123.610 128.588  1.00  0.00     0.210 HD
ENDBRANCH   6   8
BRANCH   5  10
ATOM     10  C   UNL     1     114.424 121.451 127.445  1.00  0.00    -0.075 C 
ATOM     11  C   UNL     1     113.907 120.802 126.387  1.00  0.00     0.008 C 
ATOM     12  C   UNL     1     115.449 122.528 127.198  1.00  0.00     0.039 C 
ENDBRANCH   5  10
TORSDOF 2
ENDMDL
MODEL 5
REMARK VINA RESULT:    -4.699     15.368     16.611
REMARK INTER + INTRA:          -5.360
REMARK INTER:                  -5.216
REMARK INTRA:                  -0.143
REMARK UNBOUND:                -0.249
REMARK SMILES C=C(C)[C@H]1CC[C@H](C)C[C@@H]1O
REMARK SMILES IDX 8 1 7 2 6 3 5 4 4 5 10 6 9 7 11 8 2 10 1 11 3 12
REMARK H PARENT 11 9
REMARK Flexibility Score: inf
ROOT
ATOM      1  C   UNL     1     124.105 118.067 121.669  1.00  0.00     0.008 C 
ATOM      2  C   UNL     1     124.587 119.429 121.152  1.00  0.00    -0.012 C 
ATOM      3  C   UNL     1     125.974 119.793 121.745  1.00  0.00     0.004 C 
ATOM      4  C   UNL     1     127.133 119.356 120.836  1.00  0.00     0.011 C 
ATOM      5  C   UNL     1     127.033 119.941 119.398  1.00  0.00     0.043 C 
ATOM      6  C   UNL     1     125.604 120.430 119.034  1.00  0.00     0.121 C 
ATOM      7  C   UNL     1     124.561 119.462 119.603  1.00  0.00     0.035 C 
ENDROOT
BRANCH   6   8
ATOM      8  O   UNL     1     125.457 120.492 117.639  1.00  0.00    -0.392 OA
ATOM      9  H   UNL     1     125.696 119.596 117.284  1.00  0.00     0.210 HD
ENDBRANCH   6   8
BRANCH   5  10
ATOM     10  C   UNL     1     128.073 121.031 119.153  1.00  0.00    -0.075 C 
ATOM     11  C   UNL     1     127.734 122.332 119.160  1.00  0.00     0.008 C 
ATOM     12  C   UNL     1     129.512 120.663 118.897  1.00  0.00     0.039 C 
ENDBRANCH   5  10
TORSDOF 2
ENDMDL
MODEL 6
REMARK VINA RESULT:    -4.624      1.928      2.611
REMARK INTER + INTRA:          -5.278
REMARK INTER:                  -5.036
REMARK INTRA:                  -0.242
REMARK UNBOUND:                -0.249
REMARK SMILES C=C(C)[C@H]1CC[C@H](C)C[C@@H]1O
REMARK SMILES IDX 8 1 7 2 6 3 5 4 4 5 10 6 9 7 11 8 2 10 1 11 3 12
REMARK H PARENT 11 9
REMARK Flexibility Score: inf
ROOT
ATOM      1  C   UNL     1     114.945 120.884 134.271  1.00  0.00     0.008 C 
ATOM      2  C   UNL     1     115.076 120.174 132.918  1.00  0.00    -0.012 C 
ATOM      3  C   UNL     1     113.759 120.269 132.104  1.00  0.00     0.004 C 
ATOM      4  C   UNL     1     113.745 121.472 131.150  1.00  0.00     0.011 C 
ATOM      5  C   UNL     1     114.945 121.480 130.161  1.00  0.00     0.043 C 
ATOM      6  C   UNL     1     116.127 120.584 130.625  1.00  0.00     0.121 C 
ATOM      7  C   UNL     1     116.309 120.706 132.143  1.00  0.00     0.035 C 
ENDROOT
BRANCH   6   8
ATOM      8  O   UNL     1     117.313 120.982 129.990  1.00  0.00    -0.392 OA
ATOM      9  H   UNL     1     117.890 120.176 129.926  1.00  0.00     0.210 HD
ENDBRANCH   6   8
BRANCH   5  10
ATOM     10  C   UNL     1     114.514 121.137 128.738  1.00  0.00    -0.075 C 
ATOM     11  C   UNL     1     114.331 119.862 128.353  1.00  0.00     0.008 C 
ATOM     12  C   UNL     1     114.283 122.234 127.730  1.00  0.00     0.039 C 
ENDBRANCH   5  10
TORSDOF 2
ENDMDL
MODEL 7
REMARK VINA RESULT:    -4.478      2.460      3.611
REMARK INTER + INTRA:          -5.119
REMARK INTER:                  -4.872
REMARK INTRA:                  -0.247
REMARK UNBOUND:                -0.249
REMARK SMILES C=C(C)[C@H]1CC[C@H](C)C[C@@H]1O
REMARK SMILES IDX 8 1 7 2 6 3 5 4 4 5 10 6 9 7 11 8 2 10 1 11 3 12
REMARK H PARENT 11 9
REMARK Flexibility Score: inf
ROOT
ATOM      1  C   UNL     1     118.314 124.902 130.648  1.00  0.00     0.008 C 
ATOM      2  C   UNL     1     117.188 124.055 130.041  1.00  0.00    -0.012 C 
ATOM      3  C   UNL     1     117.488 122.540 130.182  1.00  0.00     0.004 C 
ATOM      4  C   UNL     1     116.873 121.935 131.453  1.00  0.00     0.011 C 
ATOM      5  C   UNL     1     115.335 122.151 131.547  1.00  0.00     0.043 C 
ATOM      6  C   UNL     1     114.821 123.296 130.632  1.00  0.00     0.121 C 
ATOM      7  C   UNL     1     115.818 124.461 130.643  1.00  0.00     0.035 C 
ENDROOT
BRANCH   6   8
ATOM      8  O   UNL     1     113.576 123.757 131.089  1.00  0.00    -0.392 OA
ATOM      9  H   UNL     1     113.581 124.746 130.990  1.00  0.00     0.210 HD
ENDBRANCH   6   8
BRANCH   5  10
ATOM     10  C   UNL     1     114.562 120.858 131.306  1.00  0.00    -0.075 C 
ATOM     11  C   UNL     1     113.917 120.234 132.307  1.00  0.00     0.008 C 
ATOM     12  C   UNL     1     114.508 120.252 129.928  1.00  0.00     0.039 C 
ENDBRANCH   5  10
TORSDOF 2
ENDMDL
MODEL 8
REMARK VINA RESULT:    -4.469     15.468     16.686
REMARK INTER + INTRA:          -5.110
REMARK INTER:                  -4.931
REMARK INTRA:                  -0.179
REMARK UNBOUND:                -0.249
REMARK SMILES C=C(C)[C@H]1CC[C@H](C)C[C@@H]1O
REMARK SMILES IDX 8 1 7 2 6 3 5 4 4 5 10 6 9 7 11 8 2 10 1 11 3 12
REMARK H PARENT 11 9
REMARK Flexibility Score: inf
ROOT
ATOM      1  C   UNL     1     129.137 122.057 120.428  1.00  0.00     0.008 C 
ATOM      2  C   UNL     1     128.507 120.866 119.694  1.00  0.00    -0.012 C 
ATOM      3  C   UNL     1     128.224 119.693 120.669  1.00  0.00     0.004 C 
ATOM      4  C   UNL     1     126.798 119.733 121.236  1.00  0.00     0.011 C 
ATOM      5  C   UNL     1     125.703 119.741 120.132  1.00  0.00     0.043 C 
ATOM      6  C   UNL     1     126.240 120.177 118.741  1.00  0.00     0.121 C 
ATOM      7  C   UNL     1     127.251 121.317 118.906  1.00  0.00     0.035 C 
ENDROOT
BRANCH   6   8
ATOM      8  O   UNL     1     125.181 120.619 117.932  1.00  0.00    -0.392 OA
ATOM      9  H   UNL     1     124.437 119.972 118.051  1.00  0.00     0.210 HD
ENDBRANCH   6   8
BRANCH   5  10
ATOM     10  C   UNL     1     124.966 118.407 120.050  1.00  0.00    -0.075 C 
ATOM     11  C   UNL     1     123.623 118.353 120.010  1.00  0.00     0.008 C 
ATOM     12  C   UNL     1     125.739 117.114 120.012  1.00  0.00     0.039 C 
ENDBRANCH   5  10
TORSDOF 2
ENDMDL
