MODEL 1
REMARK VINA RESULT:    -4.459      0.000      0.000
REMARK INTER + INTRA:         -11.268
REMARK INTER:                  -8.630
REMARK INTRA:                  -2.638
REMARK UNBOUND:                -2.638
REMARK SMILES CCCCCCCCCCCCCCCCCC(=O)[O-]
REMARK SMILES IDX 10 1 11 2 12 3 13 4 14 5 15 6 16 7 17 8 18 9 19 10 20 11
REMARK SMILES IDX 9 12 8 13 7 14 6 15 5 16 4 17 3 18 2 19 1 20
REMARK H PARENT
REMARK Flexibility Score: inf
ROOT
ATOM      1  C   UNL     1      52.634  42.523  46.636  1.00  0.00     0.000 C 
ENDROOT
BRANCH   1   2
ATOM      2  C   UNL     1      51.888  41.760  47.740  1.00  0.00     0.000 C 
BRANCH   2   3
ATOM      3  C   UNL     1      52.462  40.352  47.985  1.00  0.00     0.000 C 
BRANCH   3   4
ATOM      4  C   UNL     1      53.548  39.910  46.984  1.00  0.00     0.000 C 
BRANCH   4   5
ATOM      5  C   UNL     1      54.597  38.930  47.545  1.00  0.00     0.000 C 
BRANCH   5   6
ATOM      6  C   UNL     1      55.195  39.326  48.908  1.00  0.00     0.000 C 
BRANCH   6   7
ATOM      7  C   UNL     1      54.920  38.285  50.006  1.00  0.00     0.006 C 
BRANCH   7   8
ATOM      8  C   UNL     1      56.057  38.212  51.032  1.00  0.00     0.053 C 
BRANCH   8   9
ATOM      9  C   UNL     1      56.146  39.462  51.853  1.00  0.00     0.041 C 
ATOM     10  O   UNL     1      57.107  40.260  51.693  1.00  0.00    -0.550 OA
ATOM     11  O   UNL     1      55.153  39.759  52.778  1.00  0.00    -0.550 OA
ENDBRANCH   8   9
ENDBRANCH   7   8
ENDBRANCH   6   7
ENDBRANCH   5   6
ENDBRANCH   4   5
ENDBRANCH   3   4
ENDBRANCH   2   3
ENDBRANCH   1   2
BRANCH   1  12
ATOM     12  C   UNL     1      51.996  43.899  46.395  1.00  0.00     0.000 C 
BRANCH  12  13
ATOM     13  C   UNL     1      52.554  44.991  47.328  1.00  0.00    -0.000 C 
BRANCH  13  14
ATOM     14  C   UNL     1      54.023  44.798  47.747  1.00  0.00    -0.000 C 
BRANCH  14  15
ATOM     15  C   UNL     1      54.242  44.557  49.253  1.00  0.00    -0.000 C 
BRANCH  15  16
ATOM     16  C   UNL     1      54.949  43.222  49.572  1.00  0.00    -0.000 C 
BRANCH  16  17
ATOM     17  C   UNL     1      54.175  42.382  50.602  1.00  0.00    -0.000 C 
BRANCH  17  18
ATOM     18  C   UNL     1      52.845  43.032  51.018  1.00  0.00    -0.000 C 
BRANCH  18  19
ATOM     19  C   UNL     1      52.072  42.194  52.047  1.00  0.00    -0.003 C 
ATOM     20  C   UNL     1      51.980  40.735  51.610  1.00  0.00     0.004 C 
ENDBRANCH  18  19
ENDBRANCH  17  18
ENDBRANCH  16  17
ENDBRANCH  15  16
ENDBRANCH  14  15
ENDBRANCH  13  14
ENDBRANCH  12  13
ENDBRANCH   1  12
TORSDOF 16
ENDMDL
MODEL 2
REMARK VINA RESULT:    -4.440      1.649      4.634
REMARK INTER + INTRA:         -11.231
REMARK INTER:                  -8.301
REMARK INTRA:                  -2.931
REMARK UNBOUND:                -2.638
REMARK SMILES CCCCCCCCCCCCCCCCCC(=O)[O-]
REMARK SMILES IDX 10 1 11 2 12 3 13 4 14 5 15 6 16 7 17 8 18 9 19 10 20 11
REMARK SMILES IDX 9 12 8 13 7 14 6 15 5 16 4 17 3 18 2 19 1 20
REMARK H PARENT
REMARK Flexibility Score: inf
ROOT
ATOM      1  C   UNL     1      55.297  40.193  48.515  1.00  0.00     0.000 C 
ENDROOT
BRANCH   1   2
ATOM      2  C   UNL     1      55.529  39.511  49.871  1.00  0.00     0.000 C 
BRANCH   2   3
ATOM      3  C   UNL     1      54.575  38.327  50.115  1.00  0.00     0.000 C 
BRANCH   3   4
ATOM      4  C   UNL     1      53.378  38.637  51.037  1.00  0.00     0.000 C 
BRANCH   4   5
ATOM      5  C   UNL     1      53.425  40.011  51.734  1.00  0.00     0.000 C 
BRANCH   5   6
ATOM      6  C   UNL     1      52.090  40.777  51.753  1.00  0.00     0.000 C 
BRANCH   6   7
ATOM      7  C   UNL     1      52.277  42.302  51.793  1.00  0.00     0.006 C 
BRANCH   7   8
ATOM      8  C   UNL     1      53.683  42.725  51.350  1.00  0.00     0.053 C 
BRANCH   8   9
ATOM      9  C   UNL     1      54.446  43.373  52.466  1.00  0.00     0.041 C 
ATOM     10  O   UNL     1      55.307  44.257  52.216  1.00  0.00    -0.550 OA
ATOM     11  O   UNL     1      54.185  43.018  53.784  1.00  0.00    -0.550 OA
ENDBRANCH   8   9
ENDBRANCH   7   8
ENDBRANCH   6   7
ENDBRANCH   5   6
ENDBRANCH   4   5
ENDBRANCH   3   4
ENDBRANCH   2   3
ENDBRANCH   1   2
BRANCH   1  12
ATOM     12  C   UNL     1      54.521  39.269  47.564  1.00  0.00     0.000 C 
BRANCH  12  13
ATOM     13  C   UNL     1      53.280  39.945  46.950  1.00  0.00    -0.000 C 
BRANCH  13  14
ATOM     14  C   UNL     1      52.232  40.426  47.971  1.00  0.00    -0.000 C 
BRANCH  14  15
ATOM     15  C   UNL     1      52.119  41.956  48.114  1.00  0.00    -0.000 C 
BRANCH  15  16
ATOM     16  C   UNL     1      51.943  42.694  46.770  1.00  0.00    -0.000 C 
BRANCH  16  17
ATOM     17  C   UNL     1      52.866  43.919  46.650  1.00  0.00    -0.000 C 
BRANCH  17  18
ATOM     18  C   UNL     1      54.337  43.534  46.428  1.00  0.00    -0.000 C 
BRANCH  18  19
ATOM     19  C   UNL     1      55.221  43.841  47.645  1.00  0.00    -0.003 C 
ATOM     20  C   UNL     1      54.589  44.916  48.526  1.00  0.00     0.004 C 
ENDBRANCH  18  19
ENDBRANCH  17  18
ENDBRANCH  16  17
ENDBRANCH  15  16
ENDBRANCH  14  15
ENDBRANCH  13  14
ENDBRANCH  12  13
ENDBRANCH   1  12
TORSDOF 16
ENDMDL
MODEL 3
REMARK VINA RESULT:    -4.333      2.088      3.924
REMARK INTER + INTRA:         -11.023
REMARK INTER:                  -8.432
REMARK INTRA:                  -2.591
REMARK UNBOUND:                -2.638
REMARK SMILES CCCCCCCCCCCCCCCCCC(=O)[O-]
REMARK SMILES IDX 10 1 11 2 12 3 13 4 14 5 15 6 16 7 17 8 18 9 19 10 20 11
REMARK SMILES IDX 9 12 8 13 7 14 6 15 5 16 4 17 3 18 2 19 1 20
REMARK H PARENT
REMARK Flexibility Score: inf
ROOT
ATOM      1  C   UNL     1      51.860  40.063  49.210  1.00  0.00     0.000 C 
ENDROOT
BRANCH   1   2
ATOM      2  C   UNL     1      52.661  41.047  50.075  1.00  0.00     0.000 C 
BRANCH   2   3
ATOM      3  C   UNL     1      53.781  40.360  50.878  1.00  0.00     0.000 C 
BRANCH   3   4
ATOM      4  C   UNL     1      53.702  38.821  50.920  1.00  0.00     0.000 C 
BRANCH   4   5
ATOM      5  C   UNL     1      54.910  38.085  50.307  1.00  0.00     0.000 C 
BRANCH   5   6
ATOM      6  C   UNL     1      55.999  39.000  49.719  1.00  0.00     0.000 C 
BRANCH   6   7
ATOM      7  C   UNL     1      57.420  38.573  50.124  1.00  0.00     0.006 C 
BRANCH   7   8
ATOM      8  C   UNL     1      57.425  37.703  51.387  1.00  0.00     0.053 C 
BRANCH   8   9
ATOM      9  C   UNL     1      58.564  36.729  51.386  1.00  0.00     0.041 C 
ATOM     10  O   UNL     1      58.898  36.142  52.449  1.00  0.00    -0.550 OA
ATOM     11  O   UNL     1      59.239  36.450  50.204  1.00  0.00    -0.550 OA
ENDBRANCH   8   9
ENDBRANCH   7   8
ENDBRANCH   6   7
ENDBRANCH   5   6
ENDBRANCH   4   5
ENDBRANCH   3   4
ENDBRANCH   2   3
ENDBRANCH   1   2
BRANCH   1  12
ATOM     12  C   UNL     1      52.089  40.337  47.716  1.00  0.00     0.000 C 
BRANCH  12  13
ATOM     13  C   UNL     1      53.401  39.724  47.188  1.00  0.00    -0.000 C 
BRANCH  13  14
ATOM     14  C   UNL     1      54.294  40.692  46.391  1.00  0.00    -0.000 C 
BRANCH  14  15
ATOM     15  C   UNL     1      55.213  41.583  47.248  1.00  0.00    -0.000 C 
BRANCH  15  16
ATOM     16  C   UNL     1      54.920  43.093  47.109  1.00  0.00    -0.000 C 
BRANCH  16  17
ATOM     17  C   UNL     1      54.366  43.704  48.408  1.00  0.00    -0.000 C 
BRANCH  17  18
ATOM     18  C   UNL     1      52.954  44.286  48.234  1.00  0.00    -0.000 C 
BRANCH  18  19
ATOM     19  C   UNL     1      52.290  43.847  46.921  1.00  0.00    -0.003 C 
ATOM     20  C   UNL     1      51.631  45.030  46.216  1.00  0.00     0.004 C 
ENDBRANCH  18  19
ENDBRANCH  17  18
ENDBRANCH  16  17
ENDBRANCH  15  16
ENDBRANCH  14  15
ENDBRANCH  13  14
ENDBRANCH  12  13
ENDBRANCH   1  12
TORSDOF 16
ENDMDL
MODEL 4
REMARK VINA RESULT:    -4.264      1.306      4.941
REMARK INTER + INTRA:         -10.891
REMARK INTER:                  -8.086
REMARK INTRA:                  -2.805
REMARK UNBOUND:                -2.638
REMARK SMILES CCCCCCCCCCCCCCCCCC(=O)[O-]
REMARK SMILES IDX 10 1 11 2 12 3 13 4 14 5 15 6 16 7 17 8 18 9 19 10 20 11
REMARK SMILES IDX 9 12 8 13 7 14 6 15 5 16 4 17 3 18 2 19 1 20
REMARK H PARENT
REMARK Flexibility Score: inf
ROOT
ATOM      1  C   UNL     1      54.104  39.221  51.219  1.00  0.00     0.000 C 
ENDROOT
BRANCH   1   2
ATOM      2  C   UNL     1      52.642  39.146  50.754  1.00  0.00     0.000 C 
BRANCH   2   3
ATOM      3  C   UNL     1      52.009  40.535  50.551  1.00  0.00     0.000 C 
BRANCH   3   4
ATOM      4  C   UNL     1      52.377  41.581  51.623  1.00  0.00     0.000 C 
BRANCH   4   5
ATOM      5  C   UNL     1      52.545  43.022  51.102  1.00  0.00     0.000 C 
BRANCH   5   6
ATOM      6  C   UNL     1      53.885  43.309  50.400  1.00  0.00     0.000 C 
BRANCH   6   7
ATOM      7  C   UNL     1      55.035  43.560  51.389  1.00  0.00     0.006 C 
BRANCH   7   8
ATOM      8  C   UNL     1      56.149  42.514  51.259  1.00  0.00     0.053 C 
BRANCH   8   9
ATOM      9  C   UNL     1      56.290  41.695  52.506  1.00  0.00     0.041 C 
ATOM     10  O   UNL     1      55.617  41.978  53.532  1.00  0.00    -0.550 OA
ATOM     11  O   UNL     1      57.147  40.601  52.525  1.00  0.00    -0.550 OA
ENDBRANCH   8   9
ENDBRANCH   7   8
ENDBRANCH   6   7
ENDBRANCH   5   6
ENDBRANCH   4   5
ENDBRANCH   3   4
ENDBRANCH   2   3
ENDBRANCH   1   2
BRANCH   1  12
ATOM     12  C   UNL     1      54.998  38.315  50.359  1.00  0.00     0.000 C 
BRANCH  12  13
ATOM     13  C   UNL     1      55.985  39.106  49.480  1.00  0.00    -0.000 C 
BRANCH  13  14
ATOM     14  C   UNL     1      55.330  40.003  48.414  1.00  0.00    -0.000 C 
BRANCH  14  15
ATOM     15  C   UNL     1      54.427  39.264  47.409  1.00  0.00    -0.000 C 
BRANCH  15  16
ATOM     16  C   UNL     1      53.341  40.160  46.774  1.00  0.00    -0.000 C 
BRANCH  16  17
ATOM     17  C   UNL     1      53.441  41.622  47.243  1.00  0.00    -0.000 C 
BRANCH  17  18
ATOM     18  C   UNL     1      52.067  42.296  47.376  1.00  0.00    -0.000 C 
BRANCH  18  19
ATOM     19  C   UNL     1      51.796  43.318  46.262  1.00  0.00    -0.003 C 
ATOM     20  C   UNL     1      52.120  44.735  46.725  1.00  0.00     0.004 C 
ENDBRANCH  18  19
ENDBRANCH  17  18
ENDBRANCH  16  17
ENDBRANCH  15  16
ENDBRANCH  14  15
ENDBRANCH  13  14
ENDBRANCH  12  13
ENDBRANCH   1  12
TORSDOF 16
ENDMDL
MODEL 5
REMARK VINA RESULT:    -4.258      1.619      3.914
REMARK INTER + INTRA:         -10.878
REMARK INTER:                  -8.116
REMARK INTRA:                  -2.762
REMARK UNBOUND:                -2.638
REMARK SMILES CCCCCCCCCCCCCCCCCC(=O)[O-]
REMARK SMILES IDX 10 1 11 2 12 3 13 4 14 5 15 6 16 7 17 8 18 9 19 10 20 11
REMARK SMILES IDX 9 12 8 13 7 14 6 15 5 16 4 17 3 18 2 19 1 20
REMARK H PARENT
REMARK Flexibility Score: inf
ROOT
ATOM      1  C   UNL     1      54.621  39.368  47.319  1.00  0.00     0.000 C 
ENDROOT
BRANCH   1   2
ATOM      2  C   UNL     1      55.397  40.465  48.062  1.00  0.00     0.000 C 
BRANCH   2   3
ATOM      3  C   UNL     1      56.136  39.936  49.305  1.00  0.00     0.000 C 
BRANCH   3   4
ATOM      4  C   UNL     1      55.786  38.487  49.701  1.00  0.00     0.000 C 
BRANCH   4   5
ATOM      5  C   UNL     1      54.940  38.343  50.981  1.00  0.00     0.000 C 
BRANCH   5   6
ATOM      6  C   UNL     1      53.431  38.577  50.794  1.00  0.00     0.000 C 
BRANCH   6   7
ATOM      7  C   UNL     1      52.994  39.999  51.185  1.00  0.00     0.006 C 
BRANCH   7   8
ATOM      8  C   UNL     1      53.895  40.605  52.268  1.00  0.00     0.053 C 
BRANCH   8   9
ATOM      9  C   UNL     1      53.119  41.459  53.223  1.00  0.00     0.041 C 
ATOM     10  O   UNL     1      53.358  41.410  54.459  1.00  0.00    -0.550 OA
ATOM     11  O   UNL     1      52.148  42.331  52.744  1.00  0.00    -0.550 OA
ENDBRANCH   8   9
ENDBRANCH   7   8
ENDBRANCH   6   7
ENDBRANCH   5   6
ENDBRANCH   4   5
ENDBRANCH   3   4
ENDBRANCH   2   3
ENDBRANCH   1   2
BRANCH   1  12
ATOM     12  C   UNL     1      53.358  39.943  46.660  1.00  0.00     0.000 C 
BRANCH  12  13
ATOM     13  C   UNL     1      52.246  40.268  47.676  1.00  0.00    -0.000 C 
BRANCH  13  14
ATOM     14  C   UNL     1      51.874  41.759  47.776  1.00  0.00    -0.000 C 
BRANCH  14  15
ATOM     15  C   UNL     1      52.457  42.650  46.662  1.00  0.00    -0.000 C 
BRANCH  15  16
ATOM     16  C   UNL     1      52.170  44.155  46.857  1.00  0.00    -0.000 C 
BRANCH  16  17
ATOM     17  C   UNL     1      53.440  44.951  47.205  1.00  0.00    -0.000 C 
BRANCH  17  18
ATOM     18  C   UNL     1      54.622  44.046  47.585  1.00  0.00    -0.000 C 
BRANCH  18  19
ATOM     19  C   UNL     1      55.054  44.218  49.048  1.00  0.00    -0.003 C 
ATOM     20  C   UNL     1      54.056  43.560  49.997  1.00  0.00     0.004 C 
ENDBRANCH  18  19
ENDBRANCH  17  18
ENDBRANCH  16  17
ENDBRANCH  15  16
ENDBRANCH  14  15
ENDBRANCH  13  14
ENDBRANCH  12  13
ENDBRANCH   1  12
TORSDOF 16
ENDMDL
MODEL 6
REMARK VINA RESULT:    -4.245      1.950      4.112
REMARK INTER + INTRA:         -10.852
REMARK INTER:                  -7.991
REMARK INTRA:                  -2.861
REMARK UNBOUND:                -2.638
REMARK SMILES CCCCCCCCCCCCCCCCCC(=O)[O-]
REMARK SMILES IDX 10 1 11 2 12 3 13 4 14 5 15 6 16 7 17 8 18 9 19 10 20 11
REMARK SMILES IDX 9 12 8 13 7 14 6 15 5 16 4 17 3 18 2 19 1 20
REMARK H PARENT
REMARK Flexibility Score: inf
ROOT
ATOM      1  C   UNL     1      55.141  40.732  47.851  1.00  0.00     0.000 C 
ENDROOT
BRANCH   1   2
ATOM      2  C   UNL     1      55.826  40.044  49.041  1.00  0.00     0.000 C 
BRANCH   2   3
ATOM      3  C   UNL     1      55.296  38.620  49.292  1.00  0.00     0.000 C 
BRANCH   3   4
ATOM      4  C   UNL     1      55.214  38.210  50.777  1.00  0.00     0.000 C 
BRANCH   4   5
ATOM      5  C   UNL     1      55.385  39.363  51.786  1.00  0.00     0.000 C 
BRANCH   5   6
ATOM      6  C   UNL     1      56.396  39.095  52.915  1.00  0.00     0.000 C 
BRANCH   6   7
ATOM      7  C   UNL     1      57.838  38.941  52.402  1.00  0.00     0.006 C 
BRANCH   7   8
ATOM      8  C   UNL     1      58.452  37.592  52.796  1.00  0.00     0.053 C 
BRANCH   8   9
ATOM      9  C   UNL     1      58.705  36.726  51.600  1.00  0.00     0.041 C 
ATOM     10  O   UNL     1      58.991  35.508  51.747  1.00  0.00    -0.550 OA
ATOM     11  O   UNL     1      58.599  37.259  50.322  1.00  0.00    -0.550 OA
ENDBRANCH   8   9
ENDBRANCH   7   8
ENDBRANCH   6   7
ENDBRANCH   5   6
ENDBRANCH   4   5
ENDBRANCH   3   4
ENDBRANCH   2   3
ENDBRANCH   1   2
BRANCH   1  12
ATOM     12  C   UNL     1      54.462  39.700  46.939  1.00  0.00     0.000 C 
BRANCH  12  13
ATOM     13  C   UNL     1      52.926  39.831  46.925  1.00  0.00    -0.000 C 
BRANCH  13  14
ATOM     14  C   UNL     1      52.342  40.745  48.018  1.00  0.00    -0.000 C 
BRANCH  14  15
ATOM     15  C   UNL     1      51.882  40.016  49.296  1.00  0.00    -0.000 C 
BRANCH  15  16
ATOM     16  C   UNL     1      52.210  40.780  50.597  1.00  0.00    -0.000 C 
BRANCH  16  17
ATOM     17  C   UNL     1      52.583  42.249  50.335  1.00  0.00    -0.000 C 
BRANCH  17  18
ATOM     18  C   UNL     1      53.913  42.650  50.994  1.00  0.00    -0.000 C 
BRANCH  18  19
ATOM     19  C   UNL     1      54.641  43.765  50.230  1.00  0.00    -0.003 C 
ATOM     20  C   UNL     1      53.832  44.220  49.018  1.00  0.00     0.004 C 
ENDBRANCH  18  19
ENDBRANCH  17  18
ENDBRANCH  16  17
ENDBRANCH  15  16
ENDBRANCH  14  15
ENDBRANCH  13  14
ENDBRANCH  12  13
ENDBRANCH   1  12
TORSDOF 16
ENDMDL
MODEL 7
REMARK VINA RESULT:    -4.239      2.553      5.190
REMARK INTER + INTRA:         -10.841
REMARK INTER:                  -7.852
REMARK INTRA:                  -2.989
REMARK UNBOUND:                -2.638
REMARK SMILES CCCCCCCCCCCCCCCCCC(=O)[O-]
REMARK SMILES IDX 10 1 11 2 12 3 13 4 14 5 15 6 16 7 17 8 18 9 19 10 20 11
REMARK SMILES IDX 9 12 8 13 7 14 6 15 5 16 4 17 3 18 2 19 1 20
REMARK H PARENT
REMARK Flexibility Score: inf
ROOT
ATOM      1  C   UNL     1      55.354  38.500  49.344  1.00  0.00     0.000 C 
ENDROOT
BRANCH   1   2
ATOM      2  C   UNL     1      54.840  39.745  48.606  1.00  0.00     0.000 C 
BRANCH   2   3
ATOM      3  C   UNL     1      54.439  39.452  47.148  1.00  0.00     0.000 C 
BRANCH   3   4
ATOM      4  C   UNL     1      52.992  39.840  46.781  1.00  0.00     0.000 C 
BRANCH   4   5
ATOM      5  C   UNL     1      52.249  40.677  47.841  1.00  0.00     0.000 C 
BRANCH   5   6
ATOM      6  C   UNL     1      51.902  42.114  47.409  1.00  0.00     0.000 C 
BRANCH   6   7
ATOM      7  C   UNL     1      52.970  42.738  46.496  1.00  0.00     0.006 C 
BRANCH   7   8
ATOM      8  C   UNL     1      54.130  43.347  47.293  1.00  0.00     0.053 C 
BRANCH   8   9
ATOM      9  C   UNL     1      53.854  44.768  47.679  1.00  0.00     0.041 C 
ATOM     10  O   UNL     1      54.271  45.713  46.958  1.00  0.00    -0.550 OA
ATOM     11  O   UNL     1      53.114  45.047  48.821  1.00  0.00    -0.550 OA
ENDBRANCH   8   9
ENDBRANCH   7   8
ENDBRANCH   6   7
ENDBRANCH   5   6
ENDBRANCH   4   5
ENDBRANCH   3   4
ENDBRANCH   2   3
ENDBRANCH   1   2
BRANCH   1  12
ATOM     12  C   UNL     1      54.730  38.397  50.743  1.00  0.00     0.000 C 
BRANCH  12  13
ATOM     13  C   UNL     1      53.297  38.960  50.804  1.00  0.00    -0.000 C 
BRANCH  13  14
ATOM     14  C   UNL     1      53.062  40.022  51.895  1.00  0.00    -0.000 C 
BRANCH  14  15
ATOM     15  C   UNL     1      52.037  41.113  51.529  1.00  0.00    -0.000 C 
BRANCH  15  16
ATOM     16  C   UNL     1      52.679  42.434  51.055  1.00  0.00    -0.000 C 
BRANCH  16  17
ATOM     17  C   UNL     1      53.599  43.054  52.121  1.00  0.00    -0.000 C 
BRANCH  17  18
ATOM     18  C   UNL     1      54.899  43.619  51.527  1.00  0.00    -0.000 C 
BRANCH  18  19
ATOM     19  C   UNL     1      55.627  42.609  50.627  1.00  0.00    -0.003 C 
ATOM     20  C   UNL     1      56.464  41.639  51.455  1.00  0.00     0.004 C 
ENDBRANCH  18  19
ENDBRANCH  17  18
ENDBRANCH  16  17
ENDBRANCH  15  16
ENDBRANCH  14  15
ENDBRANCH  13  14
ENDBRANCH  12  13
ENDBRANCH   1  12
TORSDOF 16
ENDMDL
MODEL 8
REMARK VINA RESULT:    -4.213      1.912      3.044
REMARK INTER + INTRA:         -10.791
REMARK INTER:                  -8.257
REMARK INTRA:                  -2.534
REMARK UNBOUND:                -2.638
REMARK SMILES CCCCCCCCCCCCCCCCCC(=O)[O-]
REMARK SMILES IDX 10 1 11 2 12 3 13 4 14 5 15 6 16 7 17 8 18 9 19 10 20 11
REMARK SMILES IDX 9 12 8 13 7 14 6 15 5 16 4 17 3 18 2 19 1 20
REMARK H PARENT
REMARK Flexibility Score: inf
ROOT
ATOM      1  C   UNL     1      53.426  40.093  46.728  1.00  0.00     0.000 C 
ENDROOT
BRANCH   1   2
ATOM      2  C   UNL     1      54.485  39.188  47.375  1.00  0.00     0.000 C 
BRANCH   2   3
ATOM      3  C   UNL     1      54.817  39.597  48.822  1.00  0.00     0.000 C 
BRANCH   3   4
ATOM      4  C   UNL     1      54.745  38.453  49.853  1.00  0.00     0.000 C 
BRANCH   4   5
ATOM      5  C   UNL     1      55.608  38.653  51.115  1.00  0.00     0.000 C 
BRANCH   5   6
ATOM      6  C   UNL     1      56.802  39.609  50.943  1.00  0.00     0.000 C 
BRANCH   6   7
ATOM      7  C   UNL     1      58.133  38.991  51.403  1.00  0.00     0.006 C 
BRANCH   7   8
ATOM      8  C   UNL     1      58.391  37.624  50.759  1.00  0.00     0.053 C 
BRANCH   8   9
ATOM      9  C   UNL     1      58.694  36.574  51.784  1.00  0.00     0.041 C 
ATOM     10  O   UNL     1      58.524  36.815  53.009  1.00  0.00    -0.550 OA
ATOM     11  O   UNL     1      59.140  35.321  51.384  1.00  0.00    -0.550 OA
ENDBRANCH   8   9
ENDBRANCH   7   8
ENDBRANCH   6   7
ENDBRANCH   5   6
ENDBRANCH   4   5
ENDBRANCH   3   4
ENDBRANCH   2   3
ENDBRANCH   1   2
BRANCH   1  12
ATOM     12  C   UNL     1      52.290  40.397  47.716  1.00  0.00     0.000 C 
BRANCH  12  13
ATOM     13  C   UNL     1      51.861  41.877  47.699  1.00  0.00    -0.000 C 
BRANCH  13  14
ATOM     14  C   UNL     1      52.930  42.857  47.182  1.00  0.00    -0.000 C 
BRANCH  14  15
ATOM     15  C   UNL     1      53.264  44.018  48.139  1.00  0.00    -0.000 C 
BRANCH  15  16
ATOM     16  C   UNL     1      53.009  43.690  49.626  1.00  0.00    -0.000 C 
BRANCH  16  17
ATOM     17  C   UNL     1      54.243  43.078  50.310  1.00  0.00    -0.000 C 
BRANCH  17  18
ATOM     18  C   UNL     1      53.873  42.045  51.387  1.00  0.00    -0.000 C 
BRANCH  18  19
ATOM     19  C   UNL     1      52.359  41.957  51.629  1.00  0.00    -0.003 C 
ATOM     20  C   UNL     1      51.827  40.570  51.283  1.00  0.00     0.004 C 
ENDBRANCH  18  19
ENDBRANCH  17  18
ENDBRANCH  16  17
ENDBRANCH  15  16
ENDBRANCH  14  15
ENDBRANCH  13  14
ENDBRANCH  12  13
ENDBRANCH   1  12
TORSDOF 16
ENDMDL
MODEL 9
REMARK VINA RESULT:    -4.211      1.441      2.704
REMARK INTER + INTRA:         -10.788
REMARK INTER:                  -8.354
REMARK INTRA:                  -2.434
REMARK UNBOUND:                -2.638
REMARK SMILES CCCCCCCCCCCCCCCCCC(=O)[O-]
REMARK SMILES IDX 10 1 11 2 12 3 13 4 14 5 15 6 16 7 17 8 18 9 19 10 20 11
REMARK SMILES IDX 9 12 8 13 7 14 6 15 5 16 4 17 3 18 2 19 1 20
REMARK H PARENT
REMARK Flexibility Score: inf
ROOT
ATOM      1  C   UNL     1      53.429  40.270  46.709  1.00  0.00     0.000 C 
ENDROOT
BRANCH   1   2
ATOM      2  C   UNL     1      54.436  39.280  47.313  1.00  0.00     0.000 C 
BRANCH   2   3
ATOM      3  C   UNL     1      54.958  39.726  48.691  1.00  0.00     0.000 C 
BRANCH   3   4
ATOM      4  C   UNL     1      54.715  38.721  49.835  1.00  0.00     0.000 C 
BRANCH   4   5
ATOM      5  C   UNL     1      55.989  38.126  50.467  1.00  0.00     0.000 C 
BRANCH   5   6
ATOM      6  C   UNL     1      56.459  38.818  51.759  1.00  0.00     0.000 C 
BRANCH   6   7
ATOM      7  C   UNL     1      55.344  39.628  52.442  1.00  0.00     0.006 C 
BRANCH   7   8
ATOM      8  C   UNL     1      55.859  40.414  53.654  1.00  0.00     0.053 C 
BRANCH   8   9
ATOM      9  C   UNL     1      54.879  40.392  54.788  1.00  0.00     0.041 C 
ATOM     10  O   UNL     1      53.752  40.940  54.663  1.00  0.00    -0.550 OA
ATOM     11  O   UNL     1      55.201  39.742  55.973  1.00  0.00    -0.550 OA
ENDBRANCH   8   9
ENDBRANCH   7   8
ENDBRANCH   6   7
ENDBRANCH   5   6
ENDBRANCH   4   5
ENDBRANCH   3   4
ENDBRANCH   2   3
ENDBRANCH   1   2
BRANCH   1  12
ATOM     12  C   UNL     1      52.493  40.827  47.792  1.00  0.00     0.000 C 
BRANCH  12  13
ATOM     13  C   UNL     1      51.857  42.175  47.400  1.00  0.00    -0.000 C 
BRANCH  13  14
ATOM     14  C   UNL     1      52.804  43.387  47.477  1.00  0.00    -0.000 C 
BRANCH  14  15
ATOM     15  C   UNL     1      52.985  43.981  48.887  1.00  0.00    -0.000 C 
BRANCH  15  16
ATOM     16  C   UNL     1      54.273  43.510  49.598  1.00  0.00    -0.000 C 
BRANCH  16  17
ATOM     17  C   UNL     1      53.988  42.467  50.692  1.00  0.00    -0.000 C 
BRANCH  17  18
ATOM     18  C   UNL     1      53.125  43.026  51.834  1.00  0.00    -0.000 C 
BRANCH  18  19
ATOM     19  C   UNL     1      51.873  42.178  52.102  1.00  0.00    -0.003 C 
ATOM     20  C   UNL     1      51.983  40.811  51.434  1.00  0.00     0.004 C 
ENDBRANCH  18  19
ENDBRANCH  17  18
ENDBRANCH  16  17
ENDBRANCH  15  16
ENDBRANCH  14  15
ENDBRANCH  13  14
ENDBRANCH  12  13
ENDBRANCH   1  12
TORSDOF 16
ENDMDL
