MODEL 1
REMARK VINA RESULT:    -5.906      0.000      0.000
REMARK INTER + INTRA:          -7.535
REMARK INTER:                  -7.805
REMARK INTRA:                   0.270
REMARK UNBOUND:                 0.270
REMARK SMILES CC[C@@H](C=C[C@@H](C)[C@@H]1CC[C@@H]2C3=CC[C@H]4C[C@@H](O)CC[C@]4(C)[C@@H]3CC[C@@]21C)C(C)C
REMARK SMILES IDX 6 1 7 2 5 3 4 4 3 5 2 6 1 7 28 8 29 9 30 10 8 11 9 12 26 13
REMARK SMILES IDX 10 14 11 15 25 16 27 17 12 18 24 19 23 20 13 21 21 22 14 23
REMARK SMILES IDX 15 24 20 25 22 26 16 27 19 28 17 29 18 30
REMARK H PARENT 18 31
REMARK Flexibility Score: inf
ROOT
ATOM      1  C   UNL     1      41.128  11.391   1.764  1.00  0.00     0.012 C 
ATOM      2  C   UNL     1      39.795  12.125   1.533  1.00  0.00     0.012 C 
ENDROOT
BRANCH   1   3
ATOM      3  C   UNL     1      41.603  10.820   0.445  1.00  0.00    -0.028 C 
ATOM      4  C   UNL     1      40.732  10.378  -0.476  1.00  0.00    -0.027 C 
BRANCH   4   5
ATOM      5  C   UNL     1      41.189   9.855  -1.823  1.00  0.00     0.014 C 
BRANCH   5   6
ATOM      6  C   UNL     1      40.089   8.906  -2.382  1.00  0.00     0.004 C 
ATOM      7  C   UNL     1      39.795   9.160  -3.860  1.00  0.00     0.004 C 
ENDBRANCH   5   6
BRANCH   5   8
ATOM      8  C   UNL     1      42.577   9.155  -1.683  1.00  0.00    -0.011 C 
ATOM      9  C   UNL     1      42.520   7.946  -0.734  1.00  0.00     0.008 C 
ATOM     10  C   UNL     1      43.110   8.689  -3.051  1.00  0.00     0.008 C 
ENDBRANCH   5   8
ENDBRANCH   4   5
ENDBRANCH   1   3
BRANCH   1  11
ATOM     11  C   UNL     1      41.100  10.268   2.863  1.00  0.00     0.002 C 
ATOM     12  C   UNL     1      40.758   8.854   2.386  1.00  0.00     0.005 C 
ATOM     13  C   UNL     1      40.200  10.514   4.106  1.00  0.00    -0.023 C 
ATOM     14  C   UNL     1      40.303   8.096   3.633  1.00  0.00     0.009 C 
ATOM     15  C   UNL     1      40.192   9.122   4.777  1.00  0.00     0.021 C 
ATOM     16  C   UNL     1      38.757  10.925   3.711  1.00  0.00     0.008 C 
ATOM     17  C   UNL     1      40.845  11.570   5.041  1.00  0.00     0.012 C 
ATOM     18  C   UNL     1      38.999   8.824   5.673  1.00  0.00    -0.067 C 
ATOM     19  C   UNL     1      37.825  11.024   4.919  1.00  0.00     0.009 C 
ATOM     20  C   UNL     1      37.767   9.728   5.772  1.00  0.00     0.021 C 
ATOM     21  C   UNL     1      39.013   7.693   6.413  1.00  0.00    -0.027 C 
ATOM     22  C   UNL     1      36.379   8.934   5.732  1.00  0.00    -0.023 C 
ATOM     23  C   UNL     1      37.737   7.187   7.037  1.00  0.00     0.031 C 
ATOM     24  C   UNL     1      36.625   7.412   6.004  1.00  0.00     0.002 C 
ATOM     25  C   UNL     1      35.619   9.025   4.365  1.00  0.00     0.010 C 
ATOM     26  C   UNL     1      35.480   9.577   6.831  1.00  0.00     0.012 C 
ATOM     27  C   UNL     1      35.319   6.651   6.280  1.00  0.00     0.036 C 
ATOM     28  C   UNL     1      34.763   7.779   3.994  1.00  0.00     0.032 C 
ATOM     29  C   UNL     1      34.248   6.926   5.186  1.00  0.00     0.114 C 
BRANCH  29  30
ATOM     30  O   UNL     1      33.114   7.525   5.761  1.00  0.00    -0.393 OA
ATOM     31  H   UNL     1      33.286   8.503   5.786  1.00  0.00     0.210 HD
ENDBRANCH  29  30
ENDBRANCH   1  11
TORSDOF 6
ENDMDL
MODEL 2
REMARK VINA RESULT:    -5.509      4.179      7.334
REMARK INTER + INTRA:          -7.010
REMARK INTER:                  -6.611
REMARK INTRA:                  -0.399
REMARK UNBOUND:                 0.270
REMARK SMILES CC[C@@H](C=C[C@@H](C)[C@@H]1CC[C@@H]2C3=CC[C@H]4C[C@@H](O)CC[C@]4(C)[C@@H]3CC[C@@]21C)C(C)C
REMARK SMILES IDX 6 1 7 2 5 3 4 4 3 5 2 6 1 7 28 8 29 9 30 10 8 11 9 12 26 13
REMARK SMILES IDX 10 14 11 15 25 16 27 17 12 18 24 19 23 20 13 21 21 22 14 23
REMARK SMILES IDX 15 24 20 25 22 26 16 27 19 28 17 29 18 30
REMARK H PARENT 18 31
REMARK Flexibility Score: inf
ROOT
ATOM      1  C   UNL     1      33.816   7.689   5.647  1.00  0.00     0.012 C 
ATOM      2  C   UNL     1      32.975   6.500   5.147  1.00  0.00     0.012 C 
ENDROOT
BRANCH   1   3
ATOM      3  C   UNL     1      34.339   8.452   4.449  1.00  0.00    -0.028 C 
ATOM      4  C   UNL     1      34.329   9.794   4.420  1.00  0.00    -0.027 C 
BRANCH   4   5
ATOM      5  C   UNL     1      34.898  10.574   3.252  1.00  0.00     0.014 C 
BRANCH   5   6
ATOM      6  C   UNL     1      36.154  11.350   3.744  1.00  0.00     0.004 C 
ATOM      7  C   UNL     1      36.304  11.314   5.264  1.00  0.00     0.004 C 
ENDBRANCH   5   6
BRANCH   5   8
ATOM      8  C   UNL     1      33.805  11.509   2.648  1.00  0.00    -0.011 C 
ATOM      9  C   UNL     1      32.902  10.769   1.646  1.00  0.00     0.008 C 
ATOM     10  C   UNL     1      32.924  12.125   3.750  1.00  0.00     0.008 C 
ENDBRANCH   5   8
ENDBRANCH   4   5
ENDBRANCH   1   3
BRANCH   1  11
ATOM     11  C   UNL     1      34.999   7.321   6.614  1.00  0.00     0.002 C 
ATOM     12  C   UNL     1      35.353   8.358   7.685  1.00  0.00     0.005 C 
ATOM     13  C   UNL     1      36.351   6.921   5.963  1.00  0.00    -0.023 C 
ATOM     14  C   UNL     1      36.778   8.025   8.125  1.00  0.00     0.009 C 
ATOM     15  C   UNL     1      37.309   6.935   7.175  1.00  0.00     0.021 C 
ATOM     16  C   UNL     1      36.817   7.953   4.902  1.00  0.00     0.008 C 
ATOM     17  C   UNL     1      36.259   5.498   5.353  1.00  0.00     0.012 C 
ATOM     18  C   UNL     1      38.781   7.149   6.855  1.00  0.00    -0.067 C 
ATOM     19  C   UNL     1      38.215   7.647   4.362  1.00  0.00     0.009 C 
ATOM     20  C   UNL     1      39.300   7.532   5.466  1.00  0.00     0.021 C 
ATOM     21  C   UNL     1      39.685   7.010   7.851  1.00  0.00    -0.027 C 
ATOM     22  C   UNL     1      40.396   8.697   5.485  1.00  0.00    -0.023 C 
ATOM     23  C   UNL     1      41.086   7.539   7.673  1.00  0.00     0.031 C 
ATOM     24  C   UNL     1      40.958   8.879   6.936  1.00  0.00     0.002 C 
ATOM     25  C   UNL     1      39.860  10.099   5.037  1.00  0.00     0.010 C 
ATOM     26  C   UNL     1      41.510   8.260   4.487  1.00  0.00     0.012 C 
ATOM     27  C   UNL     1      42.217   9.758   6.966  1.00  0.00     0.036 C 
ATOM     28  C   UNL     1      40.549  11.322   5.709  1.00  0.00     0.032 C 
ATOM     29  C   UNL     1      42.005  11.098   6.205  1.00  0.00     0.114 C 
BRANCH  29  30
ATOM     30  O   UNL     1      42.905  11.191   5.131  1.00  0.00    -0.393 OA
ATOM     31  H   UNL     1      42.413  10.909   4.315  1.00  0.00     0.210 HD
ENDBRANCH  29  30
ENDBRANCH   1  11
TORSDOF 6
ENDMDL
MODEL 3
REMARK VINA RESULT:    -5.444      1.294      2.199
REMARK INTER + INTRA:          -6.923
REMARK INTER:                  -7.573
REMARK INTRA:                   0.650
REMARK UNBOUND:                 0.270
REMARK SMILES CC[C@@H](C=C[C@@H](C)[C@@H]1CC[C@@H]2C3=CC[C@H]4C[C@@H](O)CC[C@]4(C)[C@@H]3CC[C@@]21C)C(C)C
REMARK SMILES IDX 6 1 7 2 5 3 4 4 3 5 2 6 1 7 28 8 29 9 30 10 8 11 9 12 26 13
REMARK SMILES IDX 10 14 11 15 25 16 27 17 12 18 24 19 23 20 13 21 21 22 14 23
REMARK SMILES IDX 15 24 20 25 22 26 16 27 19 28 17 29 18 30
REMARK H PARENT 18 31
REMARK Flexibility Score: inf
ROOT
ATOM      1  C   UNL     1      41.189  11.207   4.236  1.00  0.00     0.012 C 
ATOM      2  C   UNL     1      39.958  12.125   4.139  1.00  0.00     0.012 C 
ENDROOT
BRANCH   1   3
ATOM      3  C   UNL     1      41.750  10.998   2.846  1.00  0.00    -0.028 C 
ATOM      4  C   UNL     1      41.056  10.334   1.908  1.00  0.00    -0.027 C 
BRANCH   4   5
ATOM      5  C   UNL     1      41.580  10.164   0.496  1.00  0.00     0.014 C 
BRANCH   5   6
ATOM      6  C   UNL     1      41.168  11.413  -0.336  1.00  0.00     0.004 C 
ATOM      7  C   UNL     1      39.947  12.125   0.246  1.00  0.00     0.004 C 
ENDBRANCH   5   6
BRANCH   5   8
ATOM      8  C   UNL     1      41.051   8.829  -0.115  1.00  0.00    -0.011 C 
ATOM      9  C   UNL     1      41.654   8.551  -1.503  1.00  0.00     0.008 C 
ATOM     10  C   UNL     1      41.354   7.633   0.807  1.00  0.00     0.008 C 
ENDBRANCH   5   8
ENDBRANCH   4   5
ENDBRANCH   1   3
BRANCH   1  11
ATOM     11  C   UNL     1      40.946   9.822   4.938  1.00  0.00     0.002 C 
ATOM     12  C   UNL     1      40.625   8.638   4.020  1.00  0.00     0.005 C 
ATOM     13  C   UNL     1      39.876   9.774   6.064  1.00  0.00    -0.023 C 
ATOM     14  C   UNL     1      39.952   7.596   4.912  1.00  0.00     0.009 C 
ATOM     15  C   UNL     1      39.708   8.254   6.283  1.00  0.00     0.021 C 
ATOM     16  C   UNL     1      38.529  10.402   5.617  1.00  0.00     0.008 C 
ATOM     17  C   UNL     1      40.411  10.459   7.349  1.00  0.00     0.012 C 
ATOM     18  C   UNL     1      38.380   7.813   6.881  1.00  0.00    -0.067 C 
ATOM     19  C   UNL     1      37.427  10.228   6.663  1.00  0.00     0.009 C 
ATOM     20  C   UNL     1      37.185   8.751   7.076  1.00  0.00     0.021 C 
ATOM     21  C   UNL     1      38.234   6.519   7.246  1.00  0.00    -0.027 C 
ATOM     22  C   UNL     1      35.789   8.122   6.615  1.00  0.00    -0.023 C 
ATOM     23  C   UNL     1      36.858   5.965   7.513  1.00  0.00     0.031 C 
ATOM     24  C   UNL     1      35.928   6.571   6.453  1.00  0.00     0.002 C 
ATOM     25  C   UNL     1      35.253   8.666   5.247  1.00  0.00     0.010 C 
ATOM     26  C   UNL     1      34.758   8.495   7.723  1.00  0.00     0.012 C 
ATOM     27  C   UNL     1      34.565   5.876   6.311  1.00  0.00     0.036 C 
ATOM     28  C   UNL     1      34.415   7.657   4.410  1.00  0.00     0.032 C 
ATOM     29  C   UNL     1      33.687   6.543   5.214  1.00  0.00     0.114 C 
BRANCH  29  30
ATOM     30  O   UNL     1      32.504   7.044   5.782  1.00  0.00    -0.393 OA
ATOM     31  H   UNL     1      32.441   6.667   6.699  1.00  0.00     0.210 HD
ENDBRANCH  29  30
ENDBRANCH   1  11
TORSDOF 6
ENDMDL
MODEL 4
REMARK VINA RESULT:    -5.146     12.562     14.344
REMARK INTER + INTRA:          -6.530
REMARK INTER:                  -5.966
REMARK INTRA:                  -0.563
REMARK UNBOUND:                 0.270
REMARK SMILES CC[C@@H](C=C[C@@H](C)[C@@H]1CC[C@@H]2C3=CC[C@H]4C[C@@H](O)CC[C@]4(C)[C@@H]3CC[C@@]21C)C(C)C
REMARK SMILES IDX 6 1 7 2 5 3 4 4 3 5 2 6 1 7 28 8 29 9 30 10 8 11 9 12 26 13
REMARK SMILES IDX 10 14 11 15 25 16 27 17 12 18 24 19 23 20 13 21 21 22 14 23
REMARK SMILES IDX 15 24 20 25 22 26 16 27 19 28 17 29 18 30
REMARK H PARENT 18 31
REMARK Flexibility Score: inf
ROOT
ATOM      1  C   UNL     1      44.118   7.875  -9.609  1.00  0.00     0.012 C 
ATOM      2  C   UNL     1      44.053   8.347  -8.146  1.00  0.00     0.012 C 
ENDROOT
BRANCH   1   3
ATOM      3  C   UNL     1      43.149   8.699 -10.429  1.00  0.00    -0.028 C 
ATOM      4  C   UNL     1      42.600   9.821  -9.938  1.00  0.00    -0.027 C 
BRANCH   4   5
ATOM      5  C   UNL     1      41.670  10.686 -10.766  1.00  0.00     0.014 C 
BRANCH   5   6
ATOM      6  C   UNL     1      42.314  12.094 -10.918  1.00  0.00     0.004 C 
ATOM      7  C   UNL     1      43.769  12.125 -10.451  1.00  0.00     0.004 C 
ENDBRANCH   5   6
BRANCH   5   8
ATOM      8  C   UNL     1      40.256  10.733 -10.109  1.00  0.00    -0.011 C 
ATOM      9  C   UNL     1      39.422  11.920 -10.623  1.00  0.00     0.008 C 
ATOM     10  C   UNL     1      39.475   9.431 -10.364  1.00  0.00     0.008 C 
ENDBRANCH   5   8
ENDBRANCH   4   5
ENDBRANCH   1   3
BRANCH   1  11
ATOM     11  C   UNL     1      43.857   6.342  -9.837  1.00  0.00     0.002 C 
ATOM     12  C   UNL     1      43.643   5.894 -11.286  1.00  0.00     0.005 C 
ATOM     13  C   UNL     1      42.701   5.691  -9.028  1.00  0.00    -0.023 C 
ATOM     14  C   UNL     1      42.929   4.546 -11.199  1.00  0.00     0.009 C 
ATOM     15  C   UNL     1      42.556   4.318  -9.722  1.00  0.00     0.021 C 
ATOM     16  C   UNL     1      41.378   6.493  -9.150  1.00  0.00     0.008 C 
ATOM     17  C   UNL     1      43.111   5.515  -7.543  1.00  0.00     0.012 C 
ATOM     18  C   UNL     1      41.197   3.648  -9.591  1.00  0.00    -0.067 C 
ATOM     19  C   UNL     1      40.200   5.783  -8.481  1.00  0.00     0.009 C 
ATOM     20  C   UNL     1      39.965   4.338  -8.998  1.00  0.00     0.021 C 
ATOM     21  C   UNL     1      41.057   2.378 -10.036  1.00  0.00    -0.027 C 
ATOM     22  C   UNL     1      38.628   4.114  -9.847  1.00  0.00    -0.023 C 
ATOM     23  C   UNL     1      39.679   1.803 -10.243  1.00  0.00     0.031 C 
ATOM     24  C   UNL     1      38.822   2.924 -10.847  1.00  0.00     0.002 C 
ATOM     25  C   UNL     1      38.191   5.349 -10.706  1.00  0.00     0.010 C 
ATOM     26  C   UNL     1      37.501   3.818  -8.812  1.00  0.00     0.012 C 
ATOM     27  C   UNL     1      37.495   2.464 -11.468  1.00  0.00     0.036 C 
ATOM     28  C   UNL     1      37.451   5.011 -12.032  1.00  0.00     0.032 C 
ATOM     29  C   UNL     1      36.691   3.656 -12.063  1.00  0.00     0.114 C 
BRANCH  29  30
ATOM     30  O   UNL     1      35.453   3.775 -11.411  1.00  0.00    -0.393 OA
ATOM     31  H   UNL     1      34.842   3.111 -11.826  1.00  0.00     0.210 HD
ENDBRANCH  29  30
ENDBRANCH   1  11
TORSDOF 6
ENDMDL
MODEL 5
REMARK VINA RESULT:    -5.116     12.699     15.130
REMARK INTER + INTRA:          -6.490
REMARK INTER:                  -5.943
REMARK INTRA:                  -0.547
REMARK UNBOUND:                 0.270
REMARK SMILES CC[C@@H](C=C[C@@H](C)[C@@H]1CC[C@@H]2C3=CC[C@H]4C[C@@H](O)CC[C@]4(C)[C@@H]3CC[C@@]21C)C(C)C
REMARK SMILES IDX 6 1 7 2 5 3 4 4 3 5 2 6 1 7 28 8 29 9 30 10 8 11 9 12 26 13
REMARK SMILES IDX 10 14 11 15 25 16 27 17 12 18 24 19 23 20 13 21 21 22 14 23
REMARK SMILES IDX 15 24 20 25 22 26 16 27 19 28 17 29 18 30
REMARK H PARENT 18 31
REMARK Flexibility Score: inf
ROOT
ATOM      1  C   UNL     1      41.865   2.643  -7.413  1.00  0.00     0.012 C 
ATOM      2  C   UNL     1      42.684   1.610  -6.619  1.00  0.00     0.012 C 
ENDROOT
BRANCH   1   3
ATOM      3  C   UNL     1      40.824   1.912  -8.234  1.00  0.00    -0.028 C 
ATOM      4  C   UNL     1      39.512   2.113  -8.033  1.00  0.00    -0.027 C 
BRANCH   4   5
ATOM      5  C   UNL     1      38.459   1.430  -8.883  1.00  0.00     0.014 C 
BRANCH   5   6
ATOM      6  C   UNL     1      39.066   0.117  -9.457  1.00  0.00     0.004 C 
ATOM      7  C   UNL     1      38.453  -1.133  -8.828  1.00  0.00     0.004 C 
ENDBRANCH   5   6
BRANCH   5   8
ATOM      8  C   UNL     1      37.955   2.402  -9.995  1.00  0.00    -0.011 C 
ATOM      9  C   UNL     1      38.501   2.022 -11.382  1.00  0.00     0.008 C 
ATOM     10  C   UNL     1      36.417   2.433 -10.057  1.00  0.00     0.008 C 
ENDBRANCH   5   8
ENDBRANCH   4   5
ENDBRANCH   1   3
BRANCH   1  11
ATOM     11  C   UNL     1      42.701   3.608  -8.330  1.00  0.00     0.002 C 
ATOM     12  C   UNL     1      43.343   4.817  -7.643  1.00  0.00     0.005 C 
ATOM     13  C   UNL     1      41.995   4.177  -9.592  1.00  0.00    -0.023 C 
ATOM     14  C   UNL     1      43.634   5.819  -8.759  1.00  0.00     0.009 C 
ATOM     15  C   UNL     1      42.982   5.276 -10.045  1.00  0.00     0.021 C 
ATOM     16  C   UNL     1      40.615   4.804  -9.258  1.00  0.00     0.008 C 
ATOM     17  C   UNL     1      41.860   3.079 -10.679  1.00  0.00     0.012 C 
ATOM     18  C   UNL     1      42.387   6.400 -10.881  1.00  0.00    -0.067 C 
ATOM     19  C   UNL     1      39.979   5.497 -10.464  1.00  0.00     0.009 C 
ATOM     20  C   UNL     1      40.884   6.580 -11.110  1.00  0.00     0.021 C 
ATOM     21  C   UNL     1      43.225   7.301 -11.441  1.00  0.00    -0.027 C 
ATOM     22  C   UNL     1      40.383   8.090 -10.945  1.00  0.00    -0.023 C 
ATOM     23  C   UNL     1      42.680   8.601 -11.976  1.00  0.00     0.031 C 
ATOM     24  C   UNL     1      41.606   9.068 -10.984  1.00  0.00     0.002 C 
ATOM     25  C   UNL     1      39.626   8.379  -9.604  1.00  0.00     0.010 C 
ATOM     26  C   UNL     1      39.399   8.353 -12.125  1.00  0.00     0.012 C 
ATOM     27  C   UNL     1      41.175  10.534 -11.137  1.00  0.00     0.036 C 
ATOM     28  C   UNL     1      39.786   9.823  -9.045  1.00  0.00     0.032 C 
ATOM     29  C   UNL     1      40.091  10.930 -10.093  1.00  0.00     0.114 C 
BRANCH  29  30
ATOM     30  O   UNL     1      38.912  11.322 -10.747  1.00  0.00    -0.393 OA
ATOM     31  H   UNL     1      38.211  10.660 -10.502  1.00  0.00     0.210 HD
ENDBRANCH  29  30
ENDBRANCH   1  11
TORSDOF 6
ENDMDL
MODEL 6
REMARK VINA RESULT:    -4.866      1.651      3.645
REMARK INTER + INTRA:          -6.160
REMARK INTER:                  -5.716
REMARK INTRA:                  -0.444
REMARK UNBOUND:                 0.270
REMARK SMILES CC[C@@H](C=C[C@@H](C)[C@@H]1CC[C@@H]2C3=CC[C@H]4C[C@@H](O)CC[C@]4(C)[C@@H]3CC[C@@]21C)C(C)C
REMARK SMILES IDX 6 1 7 2 5 3 4 4 3 5 2 6 1 7 28 8 29 9 30 10 8 11 9 12 26 13
REMARK SMILES IDX 10 14 11 15 25 16 27 17 12 18 24 19 23 20 13 21 21 22 14 23
REMARK SMILES IDX 15 24 20 25 22 26 16 27 19 28 17 29 18 30
REMARK H PARENT 18 31
REMARK Flexibility Score: inf
ROOT
ATOM      1  C   UNL     1      41.468  11.050   5.175  1.00  0.00     0.012 C 
ATOM      2  C   UNL     1      42.519  11.890   5.922  1.00  0.00     0.012 C 
ENDROOT
BRANCH   1   3
ATOM      3  C   UNL     1      41.599  11.317   3.691  1.00  0.00    -0.028 C 
ATOM      4  C   UNL     1      41.655  10.310   2.805  1.00  0.00    -0.027 C 
BRANCH   4   5
ATOM      5  C   UNL     1      41.731  10.561   1.312  1.00  0.00     0.014 C 
BRANCH   5   6
ATOM      6  C   UNL     1      41.284  12.025   1.036  1.00  0.00     0.004 C 
ATOM      7  C   UNL     1      39.802  12.125   0.676  1.00  0.00     0.004 C 
ENDBRANCH   5   6
BRANCH   5   8
ATOM      8  C   UNL     1      40.868   9.509   0.547  1.00  0.00    -0.011 C 
ATOM      9  C   UNL     1      41.358   9.303  -0.897  1.00  0.00     0.008 C 
ATOM     10  C   UNL     1      40.870   8.150   1.271  1.00  0.00     0.008 C 
ENDBRANCH   5   8
ENDBRANCH   4   5
ENDBRANCH   1   3
BRANCH   1  11
ATOM     11  C   UNL     1      39.980  11.264   5.635  1.00  0.00     0.002 C 
ATOM     12  C   UNL     1      39.699  11.103   7.132  1.00  0.00     0.005 C 
ATOM     13  C   UNL     1      38.888  10.423   4.918  1.00  0.00    -0.023 C 
ATOM     14  C   UNL     1      38.197  10.851   7.245  1.00  0.00     0.009 C 
ATOM     15  C   UNL     1      37.654  10.666   5.815  1.00  0.00     0.021 C 
ATOM     16  C   UNL     1      39.237   8.912   4.889  1.00  0.00     0.008 C 
ATOM     17  C   UNL     1      38.640  10.966   3.486  1.00  0.00     0.012 C 
ATOM     18  C   UNL     1      36.575   9.595   5.767  1.00  0.00    -0.067 C 
ATOM     19  C   UNL     1      38.102   8.060   4.318  1.00  0.00     0.009 C 
ATOM     20  C   UNL     1      36.748   8.252   5.051  1.00  0.00     0.021 C 
ATOM     21  C   UNL     1      35.404   9.826   6.402  1.00  0.00    -0.027 C 
ATOM     22  C   UNL     1      36.235   6.997   5.900  1.00  0.00    -0.023 C 
ATOM     23  C   UNL     1      34.458   8.685   6.672  1.00  0.00     0.031 C 
ATOM     24  C   UNL     1      35.324   7.484   7.077  1.00  0.00     0.002 C 
ATOM     25  C   UNL     1      37.377   6.142   6.547  1.00  0.00     0.010 C 
ATOM     26  C   UNL     1      35.452   6.089   4.904  1.00  0.00     0.012 C 
ATOM     27  C   UNL     1      34.560   6.327   7.739  1.00  0.00     0.036 C 
ATOM     28  C   UNL     1      37.015   5.456   7.896  1.00  0.00     0.032 C 
ATOM     29  C   UNL     1      35.507   5.155   8.125  1.00  0.00     0.114 C 
BRANCH  29  30
ATOM     30  O   UNL     1      35.133   3.987   7.440  1.00  0.00    -0.393 OA
ATOM     31  H   UNL     1      35.116   3.252   8.109  1.00  0.00     0.210 HD
ENDBRANCH  29  30
ENDBRANCH   1  11
TORSDOF 6
ENDMDL
MODEL 7
REMARK VINA RESULT:    -4.828      1.779      2.943
REMARK INTER + INTRA:          -6.110
REMARK INTER:                  -6.140
REMARK INTRA:                   0.030
REMARK UNBOUND:                 0.270
REMARK SMILES CC[C@@H](C=C[C@@H](C)[C@@H]1CC[C@@H]2C3=CC[C@H]4C[C@@H](O)CC[C@]4(C)[C@@H]3CC[C@@]21C)C(C)C
REMARK SMILES IDX 6 1 7 2 5 3 4 4 3 5 2 6 1 7 28 8 29 9 30 10 8 11 9 12 26 13
REMARK SMILES IDX 10 14 11 15 25 16 27 17 12 18 24 19 23 20 13 21 21 22 14 23
REMARK SMILES IDX 15 24 20 25 22 26 16 27 19 28 17 29 18 30
REMARK H PARENT 18 31
REMARK Flexibility Score: inf
ROOT
ATOM      1  C   UNL     1      41.943  10.841   4.279  1.00  0.00     0.012 C 
ATOM      2  C   UNL     1      42.045  12.125   5.122  1.00  0.00     0.012 C 
ENDROOT
BRANCH   1   3
ATOM      3  C   UNL     1      41.639  11.224   2.846  1.00  0.00    -0.028 C 
ATOM      4  C   UNL     1      41.965  10.415   1.825  1.00  0.00    -0.027 C 
BRANCH   4   5
ATOM      5  C   UNL     1      41.619  10.758   0.390  1.00  0.00     0.014 C 
BRANCH   5   6
ATOM      6  C   UNL     1      40.857  12.115   0.379  1.00  0.00     0.004 C 
ATOM      7  C   UNL     1      39.391  11.965   0.783  1.00  0.00     0.004 C 
ENDBRANCH   5   6
BRANCH   5   8
ATOM      8  C   UNL     1      40.799   9.598  -0.256  1.00  0.00    -0.011 C 
ATOM      9  C   UNL     1      41.020   9.514  -1.776  1.00  0.00     0.008 C 
ATOM     10  C   UNL     1      41.158   8.240   0.375  1.00  0.00     0.008 C 
ENDBRANCH   5   8
ENDBRANCH   4   5
ENDBRANCH   1   3
BRANCH   1  11
ATOM     11  C   UNL     1      40.903   9.779   4.789  1.00  0.00     0.002 C 
ATOM     12  C   UNL     1      40.380   8.782   3.750  1.00  0.00     0.005 C 
ATOM     13  C   UNL     1      39.640  10.314   5.519  1.00  0.00    -0.023 C 
ATOM     14  C   UNL     1      39.075   8.233   4.325  1.00  0.00     0.009 C 
ATOM     15  C   UNL     1      38.749   9.054   5.587  1.00  0.00     0.021 C 
ATOM     16  C   UNL     1      38.927  11.430   4.711  1.00  0.00     0.008 C 
ATOM     17  C   UNL     1      40.007  10.805   6.944  1.00  0.00     0.012 C 
ATOM     18  C   UNL     1      37.254   9.305   5.713  1.00  0.00    -0.067 C 
ATOM     19  C   UNL     1      37.604  11.860   5.349  1.00  0.00     0.009 C 
ATOM     20  C   UNL     1      36.612  10.689   5.579  1.00  0.00     0.021 C 
ATOM     21  C   UNL     1      36.439   8.250   5.940  1.00  0.00    -0.027 C 
ATOM     22  C   UNL     1      35.297  10.705   4.670  1.00  0.00    -0.023 C 
ATOM     23  C   UNL     1      34.952   8.390   5.731  1.00  0.00     0.031 C 
ATOM     24  C   UNL     1      34.766   9.245   4.470  1.00  0.00     0.002 C 
ATOM     25  C   UNL     1      35.507  11.302   3.236  1.00  0.00     0.010 C 
ATOM     26  C   UNL     1      34.261  11.596   5.420  1.00  0.00     0.012 C 
ATOM     27  C   UNL     1      33.352   9.217   3.870  1.00  0.00     0.036 C 
ATOM     28  C   UNL     1      34.603  10.697   2.123  1.00  0.00     0.032 C 
ATOM     29  C   UNL     1      33.248  10.101   2.594  1.00  0.00     0.114 C 
BRANCH  29  30
ATOM     30  O   UNL     1      32.306  11.124   2.792  1.00  0.00    -0.393 OA
ATOM     31  H   UNL     1      31.530  10.717   3.259  1.00  0.00     0.210 HD
ENDBRANCH  29  30
ENDBRANCH   1  11
TORSDOF 6
ENDMDL
MODEL 8
REMARK VINA RESULT:    -4.598     12.041     13.833
REMARK INTER + INTRA:          -5.807
REMARK INTER:                  -6.108
REMARK INTRA:                   0.302
REMARK UNBOUND:                 0.270
REMARK SMILES CC[C@@H](C=C[C@@H](C)[C@@H]1CC[C@@H]2C3=CC[C@H]4C[C@@H](O)CC[C@]4(C)[C@@H]3CC[C@@]21C)C(C)C
REMARK SMILES IDX 6 1 7 2 5 3 4 4 3 5 2 6 1 7 28 8 29 9 30 10 8 11 9 12 26 13
REMARK SMILES IDX 10 14 11 15 25 16 27 17 12 18 24 19 23 20 13 21 21 22 14 23
REMARK SMILES IDX 15 24 20 25 22 26 16 27 19 28 17 29 18 30
REMARK H PARENT 18 31
REMARK Flexibility Score: inf
ROOT
ATOM      1  C   UNL     1      43.658   8.411 -10.664  1.00  0.00     0.012 C 
ATOM      2  C   UNL     1      44.110   9.594  -9.789  1.00  0.00     0.012 C 
ENDROOT
BRANCH   1   3
ATOM      3  C   UNL     1      42.236   8.657 -11.118  1.00  0.00    -0.028 C 
ATOM      4  C   UNL     1      41.418   9.474 -10.435  1.00  0.00    -0.027 C 
BRANCH   4   5
ATOM      5  C   UNL     1      40.010   9.774 -10.906  1.00  0.00     0.014 C 
BRANCH   5   6
ATOM      6  C   UNL     1      39.693   8.858 -12.124  1.00  0.00     0.004 C 
ATOM      7  C   UNL     1      38.770   7.696 -11.756  1.00  0.00     0.004 C 
ENDBRANCH   5   6
BRANCH   5   8
ATOM      8  C   UNL     1      39.867  11.292 -11.238  1.00  0.00    -0.011 C 
ATOM      9  C   UNL     1      38.615  11.908 -10.589  1.00  0.00     0.008 C 
ATOM     10  C   UNL     1      41.106  12.084 -10.779  1.00  0.00     0.008 C 
ENDBRANCH   5   8
ENDBRANCH   4   5
ENDBRANCH   1   3
BRANCH   1  11
ATOM     11  C   UNL     1      43.778   6.993  -9.996  1.00  0.00     0.002 C 
ATOM     12  C   UNL     1      43.883   5.797 -10.948  1.00  0.00     0.005 C 
ATOM     13  C   UNL     1      42.688   6.601  -8.961  1.00  0.00    -0.023 C 
ATOM     14  C   UNL     1      43.480   4.576 -10.122  1.00  0.00     0.009 C 
ATOM     15  C   UNL     1      42.954   5.091  -8.769  1.00  0.00     0.021 C 
ATOM     16  C   UNL     1      41.254   6.826  -9.507  1.00  0.00     0.008 C 
ATOM     17  C   UNL     1      42.904   7.370  -7.630  1.00  0.00     0.012 C 
ATOM     18  C   UNL     1      41.772   4.266  -8.284  1.00  0.00    -0.067 C 
ATOM     19  C   UNL     1      40.176   6.307  -8.555  1.00  0.00     0.009 C 
ATOM     20  C   UNL     1      40.345   4.811  -8.176  1.00  0.00     0.021 C 
ATOM     21  C   UNL     1      41.982   2.974  -7.944  1.00  0.00    -0.027 C 
ATOM     22  C   UNL     1      39.230   3.820  -8.754  1.00  0.00    -0.023 C 
ATOM     23  C   UNL     1      40.811   2.037  -7.793  1.00  0.00     0.031 C 
ATOM     24  C   UNL     1      39.826   2.381  -8.919  1.00  0.00     0.002 C 
ATOM     25  C   UNL     1      38.662   4.229 -10.155  1.00  0.00     0.010 C 
ATOM     26  C   UNL     1      38.056   3.842  -7.728  1.00  0.00     0.012 C 
ATOM     27  C   UNL     1      38.739   1.326  -9.175  1.00  0.00     0.036 C 
ATOM     28  C   UNL     1      38.217   3.048 -11.065  1.00  0.00     0.032 C 
ATOM     29  C   UNL     1      37.788   1.746 -10.333  1.00  0.00     0.114 C 
BRANCH  29  30
ATOM     30  O   UNL     1      36.472   1.865  -9.857  1.00  0.00    -0.393 OA
ATOM     31  H   UNL     1      36.445   1.420  -8.968  1.00  0.00     0.210 HD
ENDBRANCH  29  30
ENDBRANCH   1  11
TORSDOF 6
ENDMDL
MODEL 9
REMARK VINA RESULT:    -3.647     11.934     15.056
REMARK INTER + INTRA:          -4.550
REMARK INTER:                  -4.430
REMARK INTRA:                  -0.119
REMARK UNBOUND:                 0.270
REMARK SMILES CC[C@@H](C=C[C@@H](C)[C@@H]1CC[C@@H]2C3=CC[C@H]4C[C@@H](O)CC[C@]4(C)[C@@H]3CC[C@@]21C)C(C)C
REMARK SMILES IDX 6 1 7 2 5 3 4 4 3 5 2 6 1 7 28 8 29 9 30 10 8 11 9 12 26 13
REMARK SMILES IDX 10 14 11 15 25 16 27 17 12 18 24 19 23 20 13 21 21 22 14 23
REMARK SMILES IDX 15 24 20 25 22 26 16 27 19 28 17 29 18 30
REMARK H PARENT 18 31
REMARK Flexibility Score: inf
ROOT
ATOM      1  C   UNL     1      39.645   1.373  -9.347  1.00  0.00     0.012 C 
ATOM      2  C   UNL     1      38.504   0.497  -8.800  1.00  0.00     0.012 C 
ENDROOT
BRANCH   1   3
ATOM      3  C   UNL     1      40.340   2.048  -8.184  1.00  0.00    -0.028 C 
ATOM      4  C   UNL     1      41.671   1.971  -8.028  1.00  0.00    -0.027 C 
BRANCH   4   5
ATOM      5  C   UNL     1      42.387   2.687  -6.900  1.00  0.00     0.014 C 
BRANCH   5   6
ATOM      6  C   UNL     1      43.683   3.332  -7.471  1.00  0.00     0.004 C 
ATOM      7  C   UNL     1      43.956   2.914  -8.915  1.00  0.00     0.004 C 
ENDBRANCH   5   6
BRANCH   5   8
ATOM      8  C   UNL     1      42.670   1.694  -5.730  1.00  0.00    -0.011 C 
ATOM      9  C   UNL     1      41.478   1.589  -4.762  1.00  0.00     0.008 C 
ATOM     10  C   UNL     1      43.006   0.287  -6.258  1.00  0.00     0.008 C 
ENDBRANCH   5   8
ENDBRANCH   4   5
ENDBRANCH   1   3
BRANCH   1  11
ATOM     11  C   UNL     1      39.223   2.440 -10.421  1.00  0.00     0.002 C 
ATOM     12  C   UNL     1      40.224   2.706 -11.549  1.00  0.00     0.005 C 
ATOM     13  C   UNL     1      38.805   3.843  -9.901  1.00  0.00    -0.023 C 
ATOM     14  C   UNL     1      39.844   4.069 -12.125  1.00  0.00     0.009 C 
ATOM     15  C   UNL     1      38.764   4.670 -11.205  1.00  0.00     0.021 C 
ATOM     16  C   UNL     1      39.850   4.440  -8.922  1.00  0.00     0.008 C 
ATOM     17  C   UNL     1      37.399   3.781  -9.247  1.00  0.00     0.012 C 
ATOM     18  C   UNL     1      38.947   6.172 -11.045  1.00  0.00    -0.067 C 
ATOM     19  C   UNL     1      39.521   5.879  -8.521  1.00  0.00     0.009 C 
ATOM     20  C   UNL     1      39.351   6.841  -9.728  1.00  0.00     0.021 C 
ATOM     21  C   UNL     1      38.761   6.964 -12.125  1.00  0.00    -0.027 C 
ATOM     22  C   UNL     1      40.486   7.956  -9.891  1.00  0.00    -0.023 C 
ATOM     23  C   UNL     1      39.257   8.388 -12.106  1.00  0.00     0.031 C 
ATOM     24  C   UNL     1      40.618   8.369 -11.396  1.00  0.00     0.002 C 
ATOM     25  C   UNL     1      41.912   7.502  -9.428  1.00  0.00     0.010 C 
ATOM     26  C   UNL     1      40.045   9.157  -9.002  1.00  0.00     0.012 C 
ATOM     27  C   UNL     1      41.463   9.638 -11.579  1.00  0.00     0.036 C 
ATOM     28  C   UNL     1      43.100   8.145 -10.200  1.00  0.00     0.032 C 
ATOM     29  C   UNL     1      42.827   9.537 -10.837  1.00  0.00     0.114 C 
BRANCH  29  30
ATOM     30  O   UNL     1      42.922  10.546  -9.864  1.00  0.00    -0.393 OA
ATOM     31  H   UNL     1      42.283  10.311  -9.140  1.00  0.00     0.210 HD
ENDBRANCH  29  30
ENDBRANCH   1  11
TORSDOF 6
ENDMDL
