MODEL 1
REMARK VINA RESULT:    -4.472      0.000      0.000
REMARK INTER + INTRA:          -5.574
REMARK INTER:                  -5.517
REMARK INTRA:                  -0.056
REMARK UNBOUND:                -0.056
REMARK SMILES CCCCCC(=O)[O-]
REMARK SMILES IDX 4 1 5 2 6 3 7 4 8 5 3 6 2 7 1 8
REMARK H PARENT
REMARK Flexibility Score: inf
ROOT
ATOM      1  C   UNL     1      -3.171   8.239  -0.106  1.00  0.00     0.006 C 
ENDROOT
BRANCH   1   2
ATOM      2  C   UNL     1      -4.150   9.400  -0.321  1.00  0.00     0.053 C 
BRANCH   2   3
ATOM      3  C   UNL     1      -4.867   9.243  -1.625  1.00  0.00     0.041 C 
ATOM      4  O   UNL     1      -6.111   9.418  -1.689  1.00  0.00    -0.550 OA
ATOM      5  O   UNL     1      -4.153   8.951  -2.781  1.00  0.00    -0.550 OA
ENDBRANCH   2   3
ENDBRANCH   1   2
BRANCH   1   6
ATOM      6  C   UNL     1      -1.715   8.630  -0.408  1.00  0.00     0.000 C 
BRANCH   6   7
ATOM      7  C   UNL     1      -1.152   7.904  -1.638  1.00  0.00    -0.003 C 
ATOM      8  C   UNL     1       0.368   7.796  -1.563  1.00  0.00     0.004 C 
ENDBRANCH   6   7
ENDBRANCH   1   6
TORSDOF 4
ENDMDL
MODEL 2
REMARK VINA RESULT:    -3.456     12.928     13.493
REMARK INTER + INTRA:          -4.321
REMARK INTER:                  -4.232
REMARK INTRA:                  -0.089
REMARK UNBOUND:                -0.056
REMARK SMILES CCCCCC(=O)[O-]
REMARK SMILES IDX 4 1 5 2 6 3 7 4 8 5 3 6 2 7 1 8
REMARK H PARENT
REMARK Flexibility Score: inf
ROOT
ATOM      1  C   UNL     1       9.622   8.233  -7.242  1.00  0.00     0.006 C 
ENDROOT
BRANCH   1   2
ATOM      2  C   UNL     1       9.118   8.222  -8.691  1.00  0.00     0.053 C 
BRANCH   2   3
ATOM      3  C   UNL     1       7.751   8.825  -8.772  1.00  0.00     0.041 C 
ATOM      4  O   UNL     1       7.529   9.960  -8.275  1.00  0.00    -0.550 OA
ATOM      5  O   UNL     1       6.734   8.156  -9.442  1.00  0.00    -0.550 OA
ENDBRANCH   2   3
ENDBRANCH   1   2
BRANCH   1   6
ATOM      6  C   UNL     1       9.874   6.819  -6.694  1.00  0.00     0.000 C 
BRANCH   6   7
ATOM      7  C   UNL     1       8.646   6.234  -5.983  1.00  0.00    -0.003 C 
ATOM      8  C   UNL     1       9.009   4.969  -5.211  1.00  0.00     0.004 C 
ENDBRANCH   6   7
ENDBRANCH   1   6
TORSDOF 4
ENDMDL
MODEL 3
REMARK VINA RESULT:    -3.399     10.749     11.431
REMARK INTER + INTRA:          -4.250
REMARK INTER:                  -4.138
REMARK INTRA:                  -0.112
REMARK UNBOUND:                -0.056
REMARK SMILES CCCCCC(=O)[O-]
REMARK SMILES IDX 4 1 5 2 6 3 7 4 8 5 3 6 2 7 1 8
REMARK H PARENT
REMARK Flexibility Score: inf
ROOT
ATOM      1  C   UNL     1      -3.772   5.538   8.263  1.00  0.00     0.006 C 
ENDROOT
BRANCH   1   2
ATOM      2  C   UNL     1      -4.629   5.367   9.523  1.00  0.00     0.053 C 
BRANCH   2   3
ATOM      3  C   UNL     1      -5.412   4.094   9.452  1.00  0.00     0.041 C 
ATOM      4  O   UNL     1      -4.818   2.986   9.409  1.00  0.00    -0.550 OA
ATOM      5  O   UNL     1      -6.802   4.129   9.483  1.00  0.00    -0.550 OA
ENDBRANCH   2   3
ENDBRANCH   1   2
BRANCH   1   6
ATOM      6  C   UNL     1      -2.336   5.985   8.582  1.00  0.00     0.000 C 
BRANCH   6   7
ATOM      7  C   UNL     1      -2.239   6.767   9.899  1.00  0.00    -0.003 C 
ATOM      8  C   UNL     1      -0.985   7.636   9.930  1.00  0.00     0.004 C 
ENDBRANCH   6   7
ENDBRANCH   1   6
TORSDOF 4
ENDMDL
MODEL 4
REMARK VINA RESULT:    -3.383     10.289     11.378
REMARK INTER + INTRA:          -4.231
REMARK INTER:                  -4.115
REMARK INTRA:                  -0.115
REMARK UNBOUND:                -0.056
REMARK SMILES CCCCCC(=O)[O-]
REMARK SMILES IDX 4 1 5 2 6 3 7 4 8 5 3 6 2 7 1 8
REMARK H PARENT
REMARK Flexibility Score: inf
ROOT
ATOM      1  C   UNL     1      -4.303   3.865   8.024  1.00  0.00     0.006 C 
ENDROOT
BRANCH   1   2
ATOM      2  C   UNL     1      -4.008   5.232   8.655  1.00  0.00     0.053 C 
BRANCH   2   3
ATOM      3  C   UNL     1      -2.941   5.943   7.885  1.00  0.00     0.041 C 
ATOM      4  O   UNL     1      -3.004   6.012   6.630  1.00  0.00    -0.550 OA
ATOM      5  O   UNL     1      -1.900   6.573   8.558  1.00  0.00    -0.550 OA
ENDBRANCH   2   3
ENDBRANCH   1   2
BRANCH   1   6
ATOM      6  C   UNL     1      -5.238   3.004   8.889  1.00  0.00     0.000 C 
BRANCH   6   7
ATOM      7  C   UNL     1      -5.755   3.753  10.125  1.00  0.00    -0.003 C 
ATOM      8  C   UNL     1      -7.273   3.903  10.080  1.00  0.00     0.004 C 
ENDBRANCH   6   7
ENDBRANCH   1   6
TORSDOF 4
ENDMDL
MODEL 5
REMARK VINA RESULT:    -3.308      1.132      1.545
REMARK INTER + INTRA:          -4.138
REMARK INTER:                  -4.093
REMARK INTRA:                  -0.046
REMARK UNBOUND:                -0.056
REMARK SMILES CCCCCC(=O)[O-]
REMARK SMILES IDX 4 1 5 2 6 3 7 4 8 5 3 6 2 7 1 8
REMARK H PARENT
REMARK Flexibility Score: inf
ROOT
ATOM      1  C   UNL     1      -2.535   8.435  -1.015  1.00  0.00     0.006 C 
ENDROOT
BRANCH   1   2
ATOM      2  C   UNL     1      -3.770   8.619  -1.906  1.00  0.00     0.053 C 
BRANCH   2   3
ATOM      3  C   UNL     1      -4.823   9.399  -1.183  1.00  0.00     0.041 C 
ATOM      4  O   UNL     1      -5.993   9.460  -1.642  1.00  0.00    -0.550 OA
ATOM      5  O   UNL     1      -4.524  10.019   0.024  1.00  0.00    -0.550 OA
ENDBRANCH   2   3
ENDBRANCH   1   2
BRANCH   1   6
ATOM      6  C   UNL     1      -1.306   7.951  -1.801  1.00  0.00     0.000 C 
BRANCH   6   7
ATOM      7  C   UNL     1       0.017   8.328  -1.119  1.00  0.00    -0.003 C 
ATOM      8  C   UNL     1       1.116   7.327  -1.462  1.00  0.00     0.004 C 
ENDBRANCH   6   7
ENDBRANCH   1   6
TORSDOF 4
ENDMDL
MODEL 6
REMARK VINA RESULT:    -3.291      2.049      3.935
REMARK INTER + INTRA:          -4.117
REMARK INTER:                  -4.019
REMARK INTRA:                  -0.098
REMARK UNBOUND:                -0.056
REMARK SMILES CCCCCC(=O)[O-]
REMARK SMILES IDX 4 1 5 2 6 3 7 4 8 5 3 6 2 7 1 8
REMARK H PARENT
REMARK Flexibility Score: inf
ROOT
ATOM      1  C   UNL     1      -3.203   8.243  -0.342  1.00  0.00     0.006 C 
ENDROOT
BRANCH   1   2
ATOM      2  C   UNL     1      -1.712   8.585  -0.227  1.00  0.00     0.053 C 
BRANCH   2   3
ATOM      3  C   UNL     1      -0.977   8.136  -1.450  1.00  0.00     0.041 C 
ATOM      4  O   UNL     1      -1.538   8.175  -2.576  1.00  0.00    -0.550 OA
ATOM      5  O   UNL     1       0.345   7.719  -1.354  1.00  0.00    -0.550 OA
ENDBRANCH   2   3
ENDBRANCH   1   2
BRANCH   1   6
ATOM      6  C   UNL     1      -4.111   9.434   0.006  1.00  0.00     0.000 C 
BRANCH   6   7
ATOM      7  C   UNL     1      -5.079   9.790  -1.130  1.00  0.00    -0.003 C 
ATOM      8  C   UNL     1      -4.687   9.087  -2.426  1.00  0.00     0.004 C 
ENDBRANCH   6   7
ENDBRANCH   1   6
TORSDOF 4
ENDMDL
MODEL 7
REMARK VINA RESULT:    -3.284     10.509     11.070
REMARK INTER + INTRA:          -4.108
REMARK INTER:                  -4.059
REMARK INTRA:                  -0.050
REMARK UNBOUND:                -0.056
REMARK SMILES CCCCCC(=O)[O-]
REMARK SMILES IDX 4 1 5 2 6 3 7 4 8 5 3 6 2 7 1 8
REMARK H PARENT
REMARK Flexibility Score: inf
ROOT
ATOM      1  C   UNL     1      -2.267   6.580   9.162  1.00  0.00     0.006 C 
ENDROOT
BRANCH   1   2
ATOM      2  C   UNL     1      -3.520   6.098   9.904  1.00  0.00     0.053 C 
BRANCH   2   3
ATOM      3  C   UNL     1      -4.475   5.453   8.950  1.00  0.00     0.041 C 
ATOM      4  O   UNL     1      -5.585   5.023   9.359  1.00  0.00    -0.550 OA
ATOM      5  O   UNL     1      -4.161   5.372   7.599  1.00  0.00    -0.550 OA
ENDBRANCH   2   3
ENDBRANCH   1   2
BRANCH   1   6
ATOM      6  C   UNL     1      -1.217   7.187  10.107  1.00  0.00     0.000 C 
BRANCH   6   7
ATOM      7  C   UNL     1      -1.161   8.718  10.022  1.00  0.00    -0.003 C 
ATOM      8  C   UNL     1       0.281   9.217  10.049  1.00  0.00     0.004 C 
ENDBRANCH   6   7
ENDBRANCH   1   6
TORSDOF 4
ENDMDL
MODEL 8
REMARK VINA RESULT:    -3.194     13.270     14.011
REMARK INTER + INTRA:          -3.997
REMARK INTER:                  -3.904
REMARK INTRA:                  -0.092
REMARK UNBOUND:                -0.056
REMARK SMILES CCCCCC(=O)[O-]
REMARK SMILES IDX 4 1 5 2 6 3 7 4 8 5 3 6 2 7 1 8
REMARK H PARENT
REMARK Flexibility Score: inf
ROOT
ATOM      1  C   UNL     1      10.014   7.128  -6.751  1.00  0.00     0.006 C 
ENDROOT
BRANCH   1   2
ATOM      2  C   UNL     1       8.846   6.362  -6.117  1.00  0.00     0.053 C 
BRANCH   2   3
ATOM      3  C   UNL     1       9.342   5.124  -5.438  1.00  0.00     0.041 C 
ATOM      4  O   UNL     1       9.016   4.880  -4.247  1.00  0.00    -0.550 OA
ATOM      5  O   UNL     1      10.125   4.212  -6.138  1.00  0.00    -0.550 OA
ENDBRANCH   2   3
ENDBRANCH   1   2
BRANCH   1   6
ATOM      6  C   UNL     1       9.561   8.418  -7.455  1.00  0.00     0.000 C 
BRANCH   6   7
ATOM      7  C   UNL     1       8.227   8.250  -8.195  1.00  0.00    -0.003 C 
ATOM      8  C   UNL     1       7.621   9.605  -8.549  1.00  0.00     0.004 C 
ENDBRANCH   6   7
ENDBRANCH   1   6
TORSDOF 4
ENDMDL
MODEL 9
REMARK VINA RESULT:    -2.687     10.806     11.584
REMARK INTER + INTRA:          -3.371
REMARK INTER:                  -3.191
REMARK INTRA:                  -0.181
REMARK UNBOUND:                -0.056
REMARK SMILES CCCCCC(=O)[O-]
REMARK SMILES IDX 4 1 5 2 6 3 7 4 8 5 3 6 2 7 1 8
REMARK H PARENT
REMARK Flexibility Score: inf
ROOT
ATOM      1  C   UNL     1      -4.703   5.467   9.175  1.00  0.00     0.006 C 
ENDROOT
BRANCH   1   2
ATOM      2  C   UNL     1      -3.700   6.163  10.104  1.00  0.00     0.053 C 
BRANCH   2   3
ATOM      3  C   UNL     1      -2.388   6.350   9.409  1.00  0.00     0.041 C 
ATOM      4  O   UNL     1      -2.297   6.163   8.168  1.00  0.00    -0.550 OA
ATOM      5  O   UNL     1      -1.277   6.779  10.125  1.00  0.00    -0.550 OA
ENDBRANCH   2   3
ENDBRANCH   1   2
BRANCH   1   6
ATOM      6  C   UNL     1      -5.317   4.207   9.806  1.00  0.00     0.000 C 
BRANCH   6   7
ATOM      7  C   UNL     1      -5.311   3.005   8.850  1.00  0.00    -0.003 C 
ATOM      8  C   UNL     1      -4.138   3.085   7.877  1.00  0.00     0.004 C 
ENDBRANCH   6   7
ENDBRANCH   1   6
TORSDOF 4
ENDMDL
