MODEL 1
REMARK VINA RESULT:    -3.854      0.000      0.000
REMARK INTER + INTRA:          -5.181
REMARK INTER:                  -4.755
REMARK INTRA:                  -0.427
REMARK UNBOUND:                -0.427
REMARK SMILES CCCCC=CC(C)=O
REMARK SMILES IDX 4 1 3 2 2 3 1 4 5 5 6 6 7 7 9 8 8 9
REMARK H PARENT
REMARK Flexibility Score: inf
ROOT
ATOM      1  C   UNL     1     103.096 115.874 125.403  1.00  0.00     0.027 C 
ENDROOT
BRANCH   1   2
ATOM      2  C   UNL     1     102.724 114.399 125.624  1.00  0.00     0.004 C 
BRANCH   2   3
ATOM      3  C   UNL     1     102.672 113.603 124.311  1.00  0.00    -0.003 C 
ATOM      4  C   UNL     1     101.259 113.127 123.969  1.00  0.00     0.004 C 
ENDBRANCH   2   3
ENDBRANCH   1   2
BRANCH   1   5
ATOM      5  C   UNL     1     102.159 116.788 126.146  1.00  0.00    -0.023 C 
ATOM      6  C   UNL     1     101.239 117.594 125.589  1.00  0.00     0.042 C 
BRANCH   6   7
ATOM      7  C   UNL     1     100.930 117.712 124.146  1.00  0.00     0.152 C 
ATOM      8  O   UNL     1     101.398 118.646 123.442  1.00  0.00    -0.295 OA
ATOM      9  C   UNL     1     100.097 116.659 123.489  1.00  0.00     0.093 C 
ENDBRANCH   6   7
ENDBRANCH   1   5
TORSDOF 4
ENDMDL
MODEL 2
REMARK VINA RESULT:    -3.845      1.258      2.457
REMARK INTER + INTRA:          -5.170
REMARK INTER:                  -4.675
REMARK INTRA:                  -0.495
REMARK UNBOUND:                -0.427
REMARK SMILES CCCCC=CC(C)=O
REMARK SMILES IDX 4 1 3 2 2 3 1 4 5 5 6 6 7 7 9 8 8 9
REMARK H PARENT
REMARK Flexibility Score: inf
ROOT
ATOM      1  C   UNL     1     102.523 115.914 123.849  1.00  0.00     0.027 C 
ENDROOT
BRANCH   1   2
ATOM      2  C   UNL     1     102.834 114.635 124.642  1.00  0.00     0.004 C 
BRANCH   2   3
ATOM      3  C   UNL     1     102.860 114.876 126.159  1.00  0.00    -0.003 C 
ATOM      4  C   UNL     1     103.609 116.154 126.539  1.00  0.00     0.004 C 
ENDBRANCH   2   3
ENDBRANCH   1   2
BRANCH   1   5
ATOM      5  C   UNL     1     101.058 116.006 123.519  1.00  0.00    -0.023 C 
ATOM      6  C   UNL     1     100.232 117.005 123.874  1.00  0.00     0.042 C 
BRANCH   6   7
ATOM      7  C   UNL     1     100.603 118.233 124.615  1.00  0.00     0.152 C 
ATOM      8  O   UNL     1     100.877 119.309 124.021  1.00  0.00    -0.295 OA
ATOM      9  C   UNL     1     100.586 118.216 126.110  1.00  0.00     0.093 C 
ENDBRANCH   6   7
ENDBRANCH   1   5
TORSDOF 4
ENDMDL
MODEL 3
REMARK VINA RESULT:    -3.833      2.481      4.339
REMARK INTER + INTRA:          -5.156
REMARK INTER:                  -4.823
REMARK INTRA:                  -0.333
REMARK UNBOUND:                -0.427
REMARK SMILES CCCCC=CC(C)=O
REMARK SMILES IDX 4 1 3 2 2 3 1 4 5 5 6 6 7 7 9 8 8 9
REMARK H PARENT
REMARK Flexibility Score: inf
ROOT
ATOM      1  C   UNL     1     103.191 115.902 125.208  1.00  0.00     0.027 C 
ENDROOT
BRANCH   1   2
ATOM      2  C   UNL     1     101.899 116.694 124.947  1.00  0.00     0.004 C 
BRANCH   2   3
ATOM      3  C   UNL     1     101.429 117.475 126.183  1.00  0.00    -0.003 C 
ATOM      4  C   UNL     1     100.611 118.715 125.818  1.00  0.00     0.004 C 
ENDBRANCH   2   3
ENDBRANCH   1   2
BRANCH   1   5
ATOM      5  C   UNL     1     102.964 114.807 126.214  1.00  0.00    -0.023 C 
ATOM      6  C   UNL     1     102.647 113.532 125.933  1.00  0.00     0.042 C 
BRANCH   6   7
ATOM      7  C   UNL     1     102.504 112.938 124.584  1.00  0.00     0.152 C 
ATOM      8  O   UNL     1     103.443 112.300 124.037  1.00  0.00    -0.295 OA
ATOM      9  C   UNL     1     101.190 113.037 123.878  1.00  0.00     0.093 C 
ENDBRANCH   6   7
ENDBRANCH   1   5
TORSDOF 4
ENDMDL
MODEL 4
REMARK VINA RESULT:    -3.833      2.362      3.870
REMARK INTER + INTRA:          -5.156
REMARK INTER:                  -4.621
REMARK INTRA:                  -0.535
REMARK UNBOUND:                -0.427
REMARK SMILES CCCCC=CC(C)=O
REMARK SMILES IDX 4 1 3 2 2 3 1 4 5 5 6 6 7 7 9 8 8 9
REMARK H PARENT
REMARK Flexibility Score: inf
ROOT
ATOM      1  C   UNL     1     100.204 116.840 123.833  1.00  0.00     0.027 C 
ENDROOT
BRANCH   1   2
ATOM      2  C   UNL     1     101.650 116.892 124.351  1.00  0.00     0.004 C 
BRANCH   2   3
ATOM      3  C   UNL     1     101.725 117.175 125.859  1.00  0.00    -0.003 C 
ATOM      4  C   UNL     1     100.690 118.204 126.316  1.00  0.00     0.004 C 
ENDBRANCH   2   3
ENDBRANCH   1   2
BRANCH   1   5
ATOM      5  C   UNL     1     100.100 117.423 122.450  1.00  0.00    -0.023 C 
ATOM      6  C   UNL     1      99.901 118.718 122.155  1.00  0.00     0.042 C 
BRANCH   6   7
ATOM      7  C   UNL     1      99.792 119.835 123.121  1.00  0.00     0.152 C 
ATOM      8  O   UNL     1      98.752 120.020 123.805  1.00  0.00    -0.295 OA
ATOM      9  C   UNL     1     100.972 120.727 123.342  1.00  0.00     0.093 C 
ENDBRANCH   6   7
ENDBRANCH   1   5
TORSDOF 4
ENDMDL
MODEL 5
REMARK VINA RESULT:    -3.810      1.959      3.824
REMARK INTER + INTRA:          -5.128
REMARK INTER:                  -4.687
REMARK INTRA:                  -0.441
REMARK UNBOUND:                -0.427
REMARK SMILES CCCCC=CC(C)=O
REMARK SMILES IDX 4 1 3 2 2 3 1 4 5 5 6 6 7 7 9 8 8 9
REMARK H PARENT
REMARK Flexibility Score: inf
ROOT
ATOM      1  C   UNL     1     102.908 116.196 125.636  1.00  0.00     0.027 C 
ENDROOT
BRANCH   1   2
ATOM      2  C   UNL     1     101.772 117.099 126.145  1.00  0.00     0.004 C 
BRANCH   2   3
ATOM      3  C   UNL     1     100.950 117.711 125.000  1.00  0.00    -0.003 C 
ATOM      4  C   UNL     1     100.684 116.715 123.870  1.00  0.00     0.004 C 
ENDBRANCH   2   3
ENDBRANCH   1   2
BRANCH   1   5
ATOM      5  C   UNL     1     102.912 114.873 126.352  1.00  0.00    -0.023 C 
ATOM      6  C   UNL     1     102.729 113.670 125.783  1.00  0.00     0.042 C 
BRANCH   6   7
ATOM      7  C   UNL     1     102.534 113.398 124.340  1.00  0.00     0.152 C 
ATOM      8  O   UNL     1     103.494 113.418 123.526  1.00  0.00    -0.295 OA
ATOM      9  C   UNL     1     101.174 113.023 123.845  1.00  0.00     0.093 C 
ENDBRANCH   6   7
ENDBRANCH   1   5
TORSDOF 4
ENDMDL
MODEL 6
REMARK VINA RESULT:    -3.746      2.377      4.442
REMARK INTER + INTRA:          -5.048
REMARK INTER:                  -4.591
REMARK INTRA:                  -0.457
REMARK UNBOUND:                -0.427
REMARK SMILES CCCCC=CC(C)=O
REMARK SMILES IDX 4 1 3 2 2 3 1 4 5 5 6 6 7 7 9 8 8 9
REMARK H PARENT
REMARK Flexibility Score: inf
ROOT
ATOM      1  C   UNL     1     100.799 116.752 124.149  1.00  0.00     0.027 C 
ENDROOT
BRANCH   1   2
ATOM      2  C   UNL     1     100.469 118.235 123.915  1.00  0.00     0.004 C 
BRANCH   2   3
ATOM      3  C   UNL     1     100.619 119.078 125.191  1.00  0.00    -0.003 C 
ATOM      4  C   UNL     1     100.623 118.227 126.461  1.00  0.00     0.004 C 
ENDBRANCH   2   3
ENDBRANCH   1   2
BRANCH   1   5
ATOM      5  C   UNL     1     102.167 116.410 123.624  1.00  0.00    -0.023 C 
ATOM      6  C   UNL     1     103.139 115.783 124.307  1.00  0.00     0.042 C 
BRANCH   6   7
ATOM      7  C   UNL     1     103.047 115.262 125.691  1.00  0.00     0.152 C 
ATOM      8  O   UNL     1     102.538 114.139 125.944  1.00  0.00    -0.295 OA
ATOM      9  C   UNL     1     103.636 116.059 126.811  1.00  0.00     0.093 C 
ENDBRANCH   6   7
ENDBRANCH   1   5
TORSDOF 4
ENDMDL
MODEL 7
REMARK VINA RESULT:    -3.612      1.321      1.933
REMARK INTER + INTRA:          -4.884
REMARK INTER:                  -4.474
REMARK INTRA:                  -0.410
REMARK UNBOUND:                -0.427
REMARK SMILES CCCCC=CC(C)=O
REMARK SMILES IDX 4 1 3 2 2 3 1 4 5 5 6 6 7 7 9 8 8 9
REMARK H PARENT
REMARK Flexibility Score: inf
ROOT
ATOM      1  C   UNL     1     102.678 114.683 125.258  1.00  0.00     0.027 C 
ENDROOT
BRANCH   1   2
ATOM      2  C   UNL     1     102.493 113.238 124.767  1.00  0.00     0.004 C 
BRANCH   2   3
ATOM      3  C   UNL     1     101.211 113.058 123.940  1.00  0.00    -0.003 C 
ATOM      4  C   UNL     1     101.482 112.465 122.557  1.00  0.00     0.004 C 
ENDBRANCH   2   3
ENDBRANCH   1   2
BRANCH   1   5
ATOM      5  C   UNL     1     103.070 115.596 124.128  1.00  0.00    -0.023 C 
ATOM      6  C   UNL     1     102.316 116.583 123.617  1.00  0.00     0.042 C 
BRANCH   6   7
ATOM      7  C   UNL     1     100.976 117.003 124.089  1.00  0.00     0.152 C 
ATOM      8  O   UNL     1      99.920 116.554 123.570  1.00  0.00    -0.295 OA
ATOM      9  C   UNL     1     100.871 117.931 125.257  1.00  0.00     0.093 C 
ENDBRANCH   6   7
ENDBRANCH   1   5
TORSDOF 4
ENDMDL
MODEL 8
REMARK VINA RESULT:    -3.541      1.820      4.406
REMARK INTER + INTRA:          -4.796
REMARK INTER:                  -4.489
REMARK INTRA:                  -0.307
REMARK UNBOUND:                -0.427
REMARK SMILES CCCCC=CC(C)=O
REMARK SMILES IDX 4 1 3 2 2 3 1 4 5 5 6 6 7 7 9 8 8 9
REMARK H PARENT
REMARK Flexibility Score: inf
ROOT
ATOM      1  C   UNL     1     100.567 117.422 124.580  1.00  0.00     0.027 C 
ENDROOT
BRANCH   1   2
ATOM      2  C   UNL     1     101.108 118.413 123.537  1.00  0.00     0.004 C 
BRANCH   2   3
ATOM      3  C   UNL     1     100.631 119.851 123.790  1.00  0.00    -0.003 C 
ATOM      4  C   UNL     1      99.165 120.061 123.408  1.00  0.00     0.004 C 
ENDBRANCH   2   3
ENDBRANCH   1   2
BRANCH   1   5
ATOM      5  C   UNL     1     101.349 117.501 125.863  1.00  0.00    -0.023 C 
ATOM      6  C   UNL     1     102.368 116.700 126.214  1.00  0.00     0.042 C 
BRANCH   6   7
ATOM      7  C   UNL     1     102.956 115.613 125.397  1.00  0.00     0.152 C 
ATOM      8  O   UNL     1     103.731 115.852 124.434  1.00  0.00    -0.295 OA
ATOM      9  C   UNL     1     102.678 114.191 125.766  1.00  0.00     0.093 C 
ENDBRANCH   6   7
ENDBRANCH   1   5
TORSDOF 4
ENDMDL
MODEL 9
REMARK VINA RESULT:    -3.518      2.184      4.507
REMARK INTER + INTRA:          -4.768
REMARK INTER:                  -4.378
REMARK INTRA:                  -0.390
REMARK UNBOUND:                -0.427
REMARK SMILES CCCCC=CC(C)=O
REMARK SMILES IDX 4 1 3 2 2 3 1 4 5 5 6 6 7 7 9 8 8 9
REMARK H PARENT
REMARK Flexibility Score: inf
ROOT
ATOM      1  C   UNL     1     100.168 116.716 123.684  1.00  0.00     0.027 C 
ENDROOT
BRANCH   1   2
ATOM      2  C   UNL     1     100.396 118.232 123.797  1.00  0.00     0.004 C 
BRANCH   2   3
ATOM      3  C   UNL     1     100.481 118.707 125.255  1.00  0.00    -0.003 C 
ATOM      4  C   UNL     1     101.240 117.726 126.149  1.00  0.00     0.004 C 
ENDBRANCH   2   3
ENDBRANCH   1   2
BRANCH   1   5
ATOM      5  C   UNL     1     101.099 116.100 122.675  1.00  0.00    -0.023 C 
ATOM      6  C   UNL     1     101.779 114.952 122.831  1.00  0.00     0.042 C 
BRANCH   6   7
ATOM      7  C   UNL     1     101.717 114.042 123.998  1.00  0.00     0.152 C 
ATOM      8  O   UNL     1     100.941 113.051 124.025  1.00  0.00    -0.295 OA
ATOM      9  C   UNL     1     102.648 114.264 125.146  1.00  0.00     0.093 C 
ENDBRANCH   6   7
ENDBRANCH   1   5
TORSDOF 4
ENDMDL
