MODEL 1
REMARK VINA RESULT:    -5.792      0.000      0.000
REMARK INTER + INTRA:          -6.331
REMARK INTER:                  -6.300
REMARK INTRA:                  -0.031
REMARK UNBOUND:                -0.031
REMARK SMILES C[C@H]1[C@H](C)CC[C@@]2(C(=O)[O-])CC[C@]3(C)C(=CC[C@H]4[C@@]5(C)CC[C@H](O)C(C)(C)[C@@H]5CC[C@]43C)[C@@H]12
REMARK SMILES IDX 7 1 6 2 11 3 33 4 5 5 12 6 15 7 2 8 3 9 13 10 16 11 1 12
REMARK SMILES IDX 4 13 14 14 31 15 17 16 18 17 30 18 32 19 19 20 29 21 28 22
REMARK SMILES IDX 21 23 20 24 25 25 22 26 23 27 26 28 27 29 8 30 9 31 10 32
REMARK SMILES IDX 24 33
REMARK H PARENT 24 34
REMARK Flexibility Score: inf
ROOT
ATOM      1  C   UNL     1      52.275  24.490  75.466  1.00  0.00     0.017 C 
ATOM      2  C   UNL     1      52.705  23.480  74.369  1.00  0.00     0.014 C 
ATOM      3  C   UNL     1      51.148  25.430  74.910  1.00  0.00     0.014 C 
ATOM      4  C   UNL     1      51.818  23.682  76.738  1.00  0.00     0.030 C 
ATOM      5  C   UNL     1      53.874  22.593  74.826  1.00  0.00     0.004 C 
ATOM      6  C   UNL     1      49.695  24.887  74.945  1.00  0.00     0.013 C 
ATOM      7  C   UNL     1      50.387  23.147  76.525  1.00  0.00    -0.063 C 
ATOM      8  C   UNL     1      52.931  22.680  77.217  1.00  0.00    -0.003 C 
ATOM      9  C   UNL     1      53.537  21.780  76.089  1.00  0.00    -0.011 C 
ATOM     10  C   UNL     1      49.296  24.186  76.284  1.00  0.00    -0.006 C 
ATOM     11  C   UNL     1      50.176  21.895  76.096  1.00  0.00    -0.027 C 
ATOM     12  C   UNL     1      52.501  21.887  78.468  1.00  0.00     0.008 C 
ATOM     13  C   UNL     1      54.804  21.055  76.574  1.00  0.00     0.008 C 
ATOM     14  C   UNL     1      49.357  25.253  77.440  1.00  0.00     0.017 C 
ATOM     15  C   UNL     1      47.819  23.496  76.208  1.00  0.00    -0.020 C 
ATOM     16  C   UNL     1      49.190  21.606  75.014  1.00  0.00     0.032 C 
ATOM     17  C   UNL     1      47.768  22.206  75.246  1.00  0.00     0.006 C 
ATOM     18  C   UNL     1      47.295  23.101  77.654  1.00  0.00     0.008 C 
ATOM     19  C   UNL     1      46.822  24.565  75.632  1.00  0.00     0.012 C 
ATOM     20  C   UNL     1      46.684  21.103  75.660  1.00  0.00    -0.025 C 
ATOM     21  C   UNL     1      47.483  21.639  78.099  1.00  0.00     0.005 C 
ATOM     22  C   UNL     1      47.128  20.538  77.051  1.00  0.00     0.003 C 
ATOM     23  C   UNL     1      46.603  19.920  74.625  1.00  0.00     0.010 C 
ATOM     24  C   UNL     1      45.256  21.743  75.651  1.00  0.00     0.012 C 
ATOM     25  C   UNL     1      46.303  19.308  77.597  1.00  0.00    -0.006 C 
ATOM     26  C   UNL     1      45.775  18.719  75.123  1.00  0.00     0.033 C 
ATOM     27  C   UNL     1      46.254  18.201  76.492  1.00  0.00     0.120 C 
ATOM     28  C   UNL     1      44.873  19.689  78.066  1.00  0.00     0.014 C 
ATOM     29  C   UNL     1      47.048  18.699  78.819  1.00  0.00     0.014 C 
ENDROOT
BRANCH   1  30
ATOM     30  C   UNL     1      53.451  25.411  75.792  1.00  0.00     0.048 C 
ATOM     31  O   UNL     1      53.643  25.828  76.967  1.00  0.00    -0.550 OA
ATOM     32  O   UNL     1      54.257  25.904  74.771  1.00  0.00    -0.550 OA
ENDBRANCH   1  30
BRANCH  27  33
ATOM     33  O   UNL     1      45.428  17.140  76.903  1.00  0.00    -0.393 OA
ATOM     34  H   UNL     1      44.997  17.419  77.752  1.00  0.00     0.210 HD
ENDBRANCH  27  33
TORSDOF 2
ENDMDL
MODEL 2
REMARK VINA RESULT:    -5.778      1.603      7.645
REMARK INTER + INTRA:          -6.315
REMARK INTER:                  -6.285
REMARK INTRA:                  -0.030
REMARK UNBOUND:                -0.031
REMARK SMILES C[C@H]1[C@H](C)CC[C@@]2(C(=O)[O-])CC[C@]3(C)C(=CC[C@H]4[C@@]5(C)CC[C@H](O)C(C)(C)[C@@H]5CC[C@]43C)[C@@H]12
REMARK SMILES IDX 7 1 6 2 11 3 33 4 5 5 12 6 15 7 2 8 3 9 13 10 16 11 1 12
REMARK SMILES IDX 4 13 14 14 31 15 17 16 18 17 30 18 32 19 19 20 29 21 28 22
REMARK SMILES IDX 21 23 20 24 25 25 22 26 23 27 26 28 27 29 8 30 9 31 10 32
REMARK SMILES IDX 24 33
REMARK H PARENT 24 34
REMARK Flexibility Score: inf
ROOT
ATOM      1  C   UNL     1      46.477  20.650  77.559  1.00  0.00     0.017 C 
ATOM      2  C   UNL     1      46.463  19.943  76.178  1.00  0.00     0.014 C 
ATOM      3  C   UNL     1      47.518  19.950  78.502  1.00  0.00     0.014 C 
ATOM      4  C   UNL     1      46.791  22.177  77.337  1.00  0.00     0.030 C 
ATOM      5  C   UNL     1      45.393  20.527  75.241  1.00  0.00     0.004 C 
ATOM      6  C   UNL     1      49.002  20.374  78.354  1.00  0.00     0.013 C 
ATOM      7  C   UNL     1      48.306  22.365  77.109  1.00  0.00    -0.063 C 
ATOM      8  C   UNL     1      45.791  22.830  76.314  1.00  0.00    -0.003 C 
ATOM      9  C   UNL     1      45.595  22.031  74.982  1.00  0.00    -0.011 C 
ATOM     10  C   UNL     1      49.229  21.916  78.237  1.00  0.00    -0.006 C 
ATOM     11  C   UNL     1      48.811  22.449  75.871  1.00  0.00    -0.027 C 
ATOM     12  C   UNL     1      46.081  24.328  76.092  1.00  0.00     0.008 C 
ATOM     13  C   UNL     1      44.397  22.569  74.180  1.00  0.00     0.008 C 
ATOM     14  C   UNL     1      48.748  22.591  79.576  1.00  0.00     0.017 C 
ATOM     15  C   UNL     1      50.785  22.294  77.924  1.00  0.00    -0.020 C 
ATOM     16  C   UNL     1      50.035  21.688  75.484  1.00  0.00     0.032 C 
ATOM     17  C   UNL     1      51.254  21.877  76.440  1.00  0.00     0.006 C 
ATOM     18  C   UNL     1      51.057  23.841  78.151  1.00  0.00     0.008 C 
ATOM     19  C   UNL     1      51.682  21.511  78.949  1.00  0.00     0.012 C 
ATOM     20  C   UNL     1      52.400  22.803  75.815  1.00  0.00    -0.025 C 
ATOM     21  C   UNL     1      51.034  24.753  76.911  1.00  0.00     0.005 C 
ATOM     22  C   UNL     1      51.781  24.230  75.644  1.00  0.00     0.003 C 
ATOM     23  C   UNL     1      52.896  22.284  74.414  1.00  0.00     0.010 C 
ATOM     24  C   UNL     1      53.668  22.756  76.731  1.00  0.00     0.012 C 
ATOM     25  C   UNL     1      52.672  25.288  74.885  1.00  0.00    -0.006 C 
ATOM     26  C   UNL     1      53.795  23.289  73.665  1.00  0.00     0.033 C 
ATOM     27  C   UNL     1      53.138  24.674  73.523  1.00  0.00     0.120 C 
ATOM     28  C   UNL     1      53.888  25.777  75.718  1.00  0.00     0.014 C 
ATOM     29  C   UNL     1      51.806  26.536  74.550  1.00  0.00     0.014 C 
ENDROOT
BRANCH   1  30
ATOM     30  C   UNL     1      45.119  20.460  78.236  1.00  0.00     0.048 C 
ATOM     31  O   UNL     1      44.642  21.349  78.992  1.00  0.00    -0.550 OA
ATOM     32  O   UNL     1      44.445  19.248  78.125  1.00  0.00    -0.550 OA
ENDBRANCH   1  30
BRANCH  27  33
ATOM     33  O   UNL     1      54.030  25.547  72.875  1.00  0.00    -0.393 OA
ATOM     34  H   UNL     1      53.693  25.674  71.951  1.00  0.00     0.210 HD
ENDBRANCH  27  33
TORSDOF 2
ENDMDL
MODEL 3
REMARK VINA RESULT:    -5.643      2.795      7.078
REMARK INTER + INTRA:          -6.169
REMARK INTER:                  -6.144
REMARK INTRA:                  -0.025
REMARK UNBOUND:                -0.031
REMARK SMILES C[C@H]1[C@H](C)CC[C@@]2(C(=O)[O-])CC[C@]3(C)C(=CC[C@H]4[C@@]5(C)CC[C@H](O)C(C)(C)[C@@H]5CC[C@]43C)[C@@H]12
REMARK SMILES IDX 7 1 6 2 11 3 33 4 5 5 12 6 15 7 2 8 3 9 13 10 16 11 1 12
REMARK SMILES IDX 4 13 14 14 31 15 17 16 18 17 30 18 32 19 19 20 29 21 28 22
REMARK SMILES IDX 21 23 20 24 25 25 22 26 23 27 26 28 27 29 8 30 9 31 10 32
REMARK SMILES IDX 24 33
REMARK H PARENT 24 34
REMARK Flexibility Score: inf
ROOT
ATOM      1  C   UNL     1      48.757  23.143  79.225  1.00  0.00     0.017 C 
ATOM      2  C   UNL     1      49.186  21.980  80.160  1.00  0.00     0.014 C 
ATOM      3  C   UNL     1      49.689  24.383  79.460  1.00  0.00     0.014 C 
ATOM      4  C   UNL     1      48.794  22.629  77.737  1.00  0.00     0.030 C 
ATOM      5  C   UNL     1      48.248  20.768  80.041  1.00  0.00     0.004 C 
ATOM      6  C   UNL     1      51.053  24.392  78.721  1.00  0.00     0.013 C 
ATOM      7  C   UNL     1      50.251  22.621  77.229  1.00  0.00    -0.063 C 
ATOM      8  C   UNL     1      47.928  21.330  77.552  1.00  0.00    -0.003 C 
ATOM      9  C   UNL     1      48.190  20.206  78.609  1.00  0.00    -0.011 C 
ATOM     10  C   UNL     1      50.981  23.961  77.220  1.00  0.00    -0.006 C 
ATOM     11  C   UNL     1      50.985  21.500  77.257  1.00  0.00    -0.027 C 
ATOM     12  C   UNL     1      47.947  20.819  76.097  1.00  0.00     0.008 C 
ATOM     13  C   UNL     1      47.111  19.112  78.541  1.00  0.00     0.008 C 
ATOM     14  C   UNL     1      50.094  25.007  76.446  1.00  0.00     0.017 C 
ATOM     15  C   UNL     1      52.458  23.834  76.538  1.00  0.00    -0.020 C 
ATOM     16  C   UNL     1      52.392  21.511  77.754  1.00  0.00     0.032 C 
ATOM     17  C   UNL     1      53.311  22.587  77.096  1.00  0.00     0.006 C 
ATOM     18  C   UNL     1      52.353  23.740  74.957  1.00  0.00     0.008 C 
ATOM     19  C   UNL     1      53.252  25.148  76.870  1.00  0.00     0.012 C 
ATOM     20  C   UNL     1      54.352  21.966  76.051  1.00  0.00    -0.025 C 
ATOM     21  C   UNL     1      52.413  22.336  74.326  1.00  0.00     0.005 C 
ATOM     22  C   UNL     1      53.507  21.368  74.877  1.00  0.00     0.003 C 
ATOM     23  C   UNL     1      55.233  20.826  76.685  1.00  0.00     0.010 C 
ATOM     24  C   UNL     1      55.375  23.067  75.614  1.00  0.00     0.012 C 
ATOM     25  C   UNL     1      54.307  20.546  73.794  1.00  0.00    -0.006 C 
ATOM     26  C   UNL     1      56.049  20.028  75.649  1.00  0.00     0.033 C 
ATOM     27  C   UNL     1      55.171  19.460  74.518  1.00  0.00     0.120 C 
ATOM     28  C   UNL     1      55.188  21.435  72.875  1.00  0.00     0.014 C 
ATOM     29  C   UNL     1      53.298  19.790  72.882  1.00  0.00     0.014 C 
ENDROOT
BRANCH   1  30
ATOM     30  C   UNL     1      47.353  23.607  79.612  1.00  0.00     0.048 C 
ATOM     31  O   UNL     1      46.501  23.901  78.730  1.00  0.00    -0.550 OA
ATOM     32  O   UNL     1      47.033  23.832  80.947  1.00  0.00    -0.550 OA
ENDBRANCH   1  30
BRANCH  27  33
ATOM     33  O   UNL     1      55.985  18.787  73.590  1.00  0.00    -0.393 OA
ATOM     34  H   UNL     1      55.472  18.728  72.743  1.00  0.00     0.210 HD
ENDBRANCH  27  33
TORSDOF 2
ENDMDL
MODEL 4
REMARK VINA RESULT:    -5.628      3.955      6.339
REMARK INTER + INTRA:          -6.152
REMARK INTER:                  -6.334
REMARK INTRA:                   0.181
REMARK UNBOUND:                -0.031
REMARK SMILES C[C@H]1[C@H](C)CC[C@@]2(C(=O)[O-])CC[C@]3(C)C(=CC[C@H]4[C@@]5(C)CC[C@H](O)C(C)(C)[C@@H]5CC[C@]43C)[C@@H]12
REMARK SMILES IDX 7 1 6 2 11 3 33 4 5 5 12 6 15 7 2 8 3 9 13 10 16 11 1 12
REMARK SMILES IDX 4 13 14 14 31 15 17 16 18 17 30 18 32 19 19 20 29 21 28 22
REMARK SMILES IDX 21 23 20 24 25 25 22 26 23 27 26 28 27 29 8 30 9 31 10 32
REMARK SMILES IDX 24 33
REMARK H PARENT 24 34
REMARK Flexibility Score: inf
ROOT
ATOM      1  C   UNL     1      48.196  21.208  77.886  1.00  0.00     0.017 C 
ATOM      2  C   UNL     1      48.096  20.040  78.903  1.00  0.00     0.014 C 
ATOM      3  C   UNL     1      47.680  20.734  76.482  1.00  0.00     0.014 C 
ATOM      4  C   UNL     1      47.383  22.433  78.449  1.00  0.00     0.030 C 
ATOM      5  C   UNL     1      48.676  20.418  80.275  1.00  0.00     0.004 C 
ATOM      6  C   UNL     1      46.146  20.760  76.247  1.00  0.00     0.013 C 
ATOM      7  C   UNL     1      45.876  22.211  78.203  1.00  0.00    -0.063 C 
ATOM      8  C   UNL     1      47.857  22.826  79.896  1.00  0.00    -0.003 C 
ATOM      9  C   UNL     1      47.965  21.631  80.901  1.00  0.00    -0.011 C 
ATOM     10  C   UNL     1      45.434  22.057  76.750  1.00  0.00    -0.006 C 
ATOM     11  C   UNL     1      45.088  21.706  79.162  1.00  0.00    -0.027 C 
ATOM     12  C   UNL     1      47.075  24.031  80.458  1.00  0.00     0.008 C 
ATOM     13  C   UNL     1      48.709  22.045  82.183  1.00  0.00     0.008 C 
ATOM     14  C   UNL     1      45.990  23.279  75.927  1.00  0.00     0.017 C 
ATOM     15  C   UNL     1      43.810  21.964  76.625  1.00  0.00    -0.020 C 
ATOM     16  C   UNL     1      44.103  20.626  78.861  1.00  0.00     0.032 C 
ATOM     17  C   UNL     1      43.151  20.922  77.660  1.00  0.00     0.006 C 
ATOM     18  C   UNL     1      43.138  23.390  76.808  1.00  0.00     0.008 C 
ATOM     19  C   UNL     1      43.471  21.477  75.170  1.00  0.00     0.012 C 
ATOM     20  C   UNL     1      41.661  21.282  78.118  1.00  0.00    -0.025 C 
ATOM     21  C   UNL     1      42.581  23.736  78.201  1.00  0.00     0.005 C 
ATOM     22  C   UNL     1      41.750  22.625  78.917  1.00  0.00     0.003 C 
ATOM     23  C   UNL     1      41.029  20.174  79.040  1.00  0.00     0.010 C 
ATOM     24  C   UNL     1      40.727  21.340  76.864  1.00  0.00     0.012 C 
ATOM     25  C   UNL     1      40.421  23.105  79.621  1.00  0.00    -0.006 C 
ATOM     26  C   UNL     1      39.712  20.609  79.715  1.00  0.00     0.033 C 
ATOM     27  C   UNL     1      39.856  21.932  80.489  1.00  0.00     0.120 C 
ATOM     28  C   UNL     1      39.352  23.624  78.622  1.00  0.00     0.014 C 
ATOM     29  C   UNL     1      40.754  24.272  80.594  1.00  0.00     0.014 C 
ENDROOT
BRANCH   1  30
ATOM     30  C   UNL     1      49.667  21.571  77.680  1.00  0.00     0.048 C 
ATOM     31  O   UNL     1      50.586  20.815  78.096  1.00  0.00    -0.550 OA
ATOM     32  O   UNL     1      50.014  22.806  77.140  1.00  0.00    -0.550 OA
ENDBRANCH   1  30
BRANCH  27  33
ATOM     33  O   UNL     1      38.610  22.289  81.036  1.00  0.00    -0.393 OA
ATOM     34  H   UNL     1      38.688  22.197  82.021  1.00  0.00     0.210 HD
ENDBRANCH  27  33
TORSDOF 2
ENDMDL
MODEL 5
REMARK VINA RESULT:    -5.612     11.923     14.619
REMARK INTER + INTRA:          -6.135
REMARK INTER:                  -6.181
REMARK INTRA:                   0.046
REMARK UNBOUND:                -0.031
REMARK SMILES C[C@H]1[C@H](C)CC[C@@]2(C(=O)[O-])CC[C@]3(C)C(=CC[C@H]4[C@@]5(C)CC[C@H](O)C(C)(C)[C@@H]5CC[C@]43C)[C@@H]12
REMARK SMILES IDX 7 1 6 2 11 3 33 4 5 5 12 6 15 7 2 8 3 9 13 10 16 11 1 12
REMARK SMILES IDX 4 13 14 14 31 15 17 16 18 17 30 18 32 19 19 20 29 21 28 22
REMARK SMILES IDX 21 23 20 24 25 25 22 26 23 27 26 28 27 29 8 30 9 31 10 32
REMARK SMILES IDX 24 33
REMARK H PARENT 24 34
REMARK Flexibility Score: inf
ROOT
ATOM      1  C   UNL     1      50.141  33.616  83.884  1.00  0.00     0.017 C 
ATOM      2  C   UNL     1      48.777  34.357  83.854  1.00  0.00     0.014 C 
ATOM      3  C   UNL     1      51.057  34.238  84.998  1.00  0.00     0.014 C 
ATOM      4  C   UNL     1      49.873  32.081  84.107  1.00  0.00     0.030 C 
ATOM      5  C   UNL     1      47.872  33.853  82.719  1.00  0.00     0.004 C 
ATOM      6  C   UNL     1      50.839  33.739  86.450  1.00  0.00     0.013 C 
ATOM      7  C   UNL     1      49.580  31.818  85.599  1.00  0.00    -0.063 C 
ATOM      8  C   UNL     1      48.878  31.507  83.034  1.00  0.00    -0.003 C 
ATOM      9  C   UNL     1      47.573  32.347  82.828  1.00  0.00    -0.011 C 
ATOM     10  C   UNL     1      50.679  32.191  86.589  1.00  0.00    -0.006 C 
ATOM     11  C   UNL     1      48.321  31.737  86.050  1.00  0.00    -0.027 C 
ATOM     12  C   UNL     1      48.611  30.001  83.233  1.00  0.00     0.008 C 
ATOM     13  C   UNL     1      46.808  31.893  81.573  1.00  0.00     0.008 C 
ATOM     14  C   UNL     1      52.021  31.510  86.125  1.00  0.00     0.017 C 
ATOM     15  C   UNL     1      50.295  31.739  88.109  1.00  0.00    -0.020 C 
ATOM     16  C   UNL     1      47.901  32.442  87.297  1.00  0.00     0.032 C 
ATOM     17  C   UNL     1      48.803  32.165  88.541  1.00  0.00     0.006 C 
ATOM     18  C   UNL     1      50.477  30.174  88.305  1.00  0.00     0.008 C 
ATOM     19  C   UNL     1      51.299  32.447  89.086  1.00  0.00     0.012 C 
ATOM     20  C   UNL     1      48.111  31.196  89.610  1.00  0.00    -0.025 C 
ATOM     21  C   UNL     1      49.219  29.294  88.184  1.00  0.00     0.005 C 
ATOM     22  C   UNL     1      47.934  29.807  88.909  1.00  0.00     0.003 C 
ATOM     23  C   UNL     1      46.703  31.720  90.077  1.00  0.00     0.010 C 
ATOM     24  C   UNL     1      48.976  31.153  90.914  1.00  0.00     0.012 C 
ATOM     25  C   UNL     1      47.117  28.722  89.711  1.00  0.00    -0.006 C 
ATOM     26  C   UNL     1      45.897  30.688  90.890  1.00  0.00     0.033 C 
ATOM     27  C   UNL     1      45.751  29.343  90.155  1.00  0.00     0.120 C 
ATOM     28  C   UNL     1      47.889  28.150  90.930  1.00  0.00     0.014 C 
ATOM     29  C   UNL     1      46.789  27.531  88.766  1.00  0.00     0.014 C 
ENDROOT
BRANCH   1  30
ATOM     30  C   UNL     1      50.876  33.861  82.566  1.00  0.00     0.048 C 
ATOM     31  O   UNL     1      51.829  33.117  82.207  1.00  0.00    -0.550 OA
ATOM     32  O   UNL     1      50.586  34.987  81.802  1.00  0.00    -0.550 OA
ENDBRANCH   1  30
BRANCH  27  33
ATOM     33  O   UNL     1      45.048  28.440  90.972  1.00  0.00    -0.393 OA
ATOM     34  H   UNL     1      45.063  28.809  91.893  1.00  0.00     0.210 HD
ENDBRANCH  27  33
TORSDOF 2
ENDMDL
MODEL 6
REMARK VINA RESULT:    -5.475      2.913      5.424
REMARK INTER + INTRA:          -5.986
REMARK INTER:                  -5.959
REMARK INTRA:                  -0.027
REMARK UNBOUND:                -0.031
REMARK SMILES C[C@H]1[C@H](C)CC[C@@]2(C(=O)[O-])CC[C@]3(C)C(=CC[C@H]4[C@@]5(C)CC[C@H](O)C(C)(C)[C@@H]5CC[C@]43C)[C@@H]12
REMARK SMILES IDX 7 1 6 2 11 3 33 4 5 5 12 6 15 7 2 8 3 9 13 10 16 11 1 12
REMARK SMILES IDX 4 13 14 14 31 15 17 16 18 17 30 18 32 19 19 20 29 21 28 22
REMARK SMILES IDX 21 23 20 24 25 25 22 26 23 27 26 28 27 29 8 30 9 31 10 32
REMARK SMILES IDX 24 33
REMARK H PARENT 24 34
REMARK Flexibility Score: inf
ROOT
ATOM      1  C   UNL     1      49.844  22.640  77.117  1.00  0.00     0.017 C 
ATOM      2  C   UNL     1      49.872  23.551  78.374  1.00  0.00     0.014 C 
ATOM      3  C   UNL     1      49.761  21.135  77.555  1.00  0.00     0.014 C 
ATOM      4  C   UNL     1      48.633  23.076  76.210  1.00  0.00     0.030 C 
ATOM      5  C   UNL     1      50.048  25.034  78.009  1.00  0.00     0.004 C 
ATOM      6  C   UNL     1      48.355  20.577  77.899  1.00  0.00     0.013 C 
ATOM      7  C   UNL     1      47.322  22.498  76.785  1.00  0.00    -0.063 C 
ATOM      8  C   UNL     1      48.690  24.608  75.866  1.00  0.00    -0.003 C 
ATOM      9  C   UNL     1      48.924  25.552  77.093  1.00  0.00    -0.011 C 
ATOM     10  C   UNL     1      47.231  20.979  76.891  1.00  0.00    -0.006 C 
ATOM     11  C   UNL     1      46.532  23.238  77.575  1.00  0.00    -0.027 C 
ATOM     12  C   UNL     1      47.515  25.049  74.970  1.00  0.00     0.008 C 
ATOM     13  C   UNL     1      49.263  26.983  76.641  1.00  0.00     0.008 C 
ATOM     14  C   UNL     1      47.580  20.359  75.486  1.00  0.00     0.017 C 
ATOM     15  C   UNL     1      45.751  20.501  77.385  1.00  0.00    -0.020 C 
ATOM     16  C   UNL     1      45.959  22.678  78.834  1.00  0.00     0.032 C 
ATOM     17  C   UNL     1      45.215  21.316  78.666  1.00  0.00     0.006 C 
ATOM     18  C   UNL     1      44.692  20.606  76.207  1.00  0.00     0.008 C 
ATOM     19  C   UNL     1      45.848  18.985  77.784  1.00  0.00     0.012 C 
ATOM     20  C   UNL     1      43.623  21.459  78.752  1.00  0.00    -0.025 C 
ATOM     21  C   UNL     1      43.801  21.862  76.167  1.00  0.00     0.005 C 
ATOM     22  C   UNL     1      43.184  22.325  77.524  1.00  0.00     0.003 C 
ATOM     23  C   UNL     1      43.152  22.165  80.077  1.00  0.00     0.010 C 
ATOM     24  C   UNL     1      42.972  20.036  78.802  1.00  0.00     0.012 C 
ATOM     25  C   UNL     1      41.664  22.748  77.480  1.00  0.00    -0.006 C 
ATOM     26  C   UNL     1      41.662  22.560  80.071  1.00  0.00     0.033 C 
ATOM     27  C   UNL     1      41.284  23.413  78.846  1.00  0.00     0.120 C 
ATOM     28  C   UNL     1      40.709  21.570  77.151  1.00  0.00     0.014 C 
ATOM     29  C   UNL     1      41.469  23.828  76.378  1.00  0.00     0.014 C 
ENDROOT
BRANCH   1  30
ATOM     30  C   UNL     1      51.170  22.775  76.368  1.00  0.00     0.048 C 
ATOM     31  O   UNL     1      51.221  22.656  75.114  1.00  0.00    -0.550 OA
ATOM     32  O   UNL     1      52.362  22.909  77.073  1.00  0.00    -0.550 OA
ENDBRANCH   1  30
BRANCH  27  33
ATOM     33  O   UNL     1      39.907  23.695  78.882  1.00  0.00    -0.393 OA
ATOM     34  H   UNL     1      39.710  24.285  78.108  1.00  0.00     0.210 HD
ENDBRANCH  27  33
TORSDOF 2
ENDMDL
MODEL 7
REMARK VINA RESULT:    -5.438     11.882     15.000
REMARK INTER + INTRA:          -5.945
REMARK INTER:                  -5.917
REMARK INTRA:                  -0.029
REMARK UNBOUND:                -0.031
REMARK SMILES C[C@H]1[C@H](C)CC[C@@]2(C(=O)[O-])CC[C@]3(C)C(=CC[C@H]4[C@@]5(C)CC[C@H](O)C(C)(C)[C@@H]5CC[C@]43C)[C@@H]12
REMARK SMILES IDX 7 1 6 2 11 3 33 4 5 5 12 6 15 7 2 8 3 9 13 10 16 11 1 12
REMARK SMILES IDX 4 13 14 14 31 15 17 16 18 17 30 18 32 19 19 20 29 21 28 22
REMARK SMILES IDX 21 23 20 24 25 25 22 26 23 27 26 28 27 29 8 30 9 31 10 32
REMARK SMILES IDX 24 33
REMARK H PARENT 24 34
REMARK Flexibility Score: inf
ROOT
ATOM      1  C   UNL     1      49.954  33.241  82.328  1.00  0.00     0.017 C 
ATOM      2  C   UNL     1      50.488  31.851  81.891  1.00  0.00     0.014 C 
ATOM      3  C   UNL     1      48.565  33.076  83.040  1.00  0.00     0.014 C 
ATOM      4  C   UNL     1      51.031  33.924  83.251  1.00  0.00     0.030 C 
ATOM      5  C   UNL     1      51.804  31.959  81.103  1.00  0.00     0.004 C 
ATOM      6  C   UNL     1      48.583  32.694  84.543  1.00  0.00     0.013 C 
ATOM      7  C   UNL     1      50.945  33.330  84.673  1.00  0.00    -0.063 C 
ATOM      8  C   UNL     1      52.436  33.991  82.549  1.00  0.00    -0.003 C 
ATOM      9  C   UNL     1      52.920  32.644  81.913  1.00  0.00    -0.011 C 
ATOM     10  C   UNL     1      49.616  33.491  85.404  1.00  0.00    -0.006 C 
ATOM     11  C   UNL     1      51.765  32.341  85.057  1.00  0.00    -0.027 C 
ATOM     12  C   UNL     1      53.501  34.665  83.438  1.00  0.00     0.008 C 
ATOM     13  C   UNL     1      54.140  32.864  81.002  1.00  0.00     0.008 C 
ATOM     14  C   UNL     1      49.213  35.013  85.378  1.00  0.00     0.017 C 
ATOM     15  C   UNL     1      49.705  32.940  86.937  1.00  0.00    -0.020 C 
ATOM     16  C   UNL     1      51.246  31.151  85.793  1.00  0.00     0.032 C 
ATOM     17  C   UNL     1      50.384  31.484  87.051  1.00  0.00     0.006 C 
ATOM     18  C   UNL     1      50.483  33.962  87.869  1.00  0.00     0.008 C 
ATOM     19  C   UNL     1      48.240  32.832  87.492  1.00  0.00     0.012 C 
ATOM     20  C   UNL     1      51.154  31.208  88.426  1.00  0.00    -0.025 C 
ATOM     21  C   UNL     1      51.973  33.682  88.137  1.00  0.00     0.005 C 
ATOM     22  C   UNL     1      52.359  32.207  88.474  1.00  0.00     0.003 C 
ATOM     23  C   UNL     1      51.700  29.736  88.527  1.00  0.00     0.010 C 
ATOM     24  C   UNL     1      50.155  31.347  89.623  1.00  0.00     0.012 C 
ATOM     25  C   UNL     1      53.374  32.015  89.666  1.00  0.00    -0.006 C 
ATOM     26  C   UNL     1      52.671  29.515  89.704  1.00  0.00     0.033 C 
ATOM     27  C   UNL     1      53.837  30.521  89.701  1.00  0.00     0.120 C 
ATOM     28  C   UNL     1      52.796  32.451  91.040  1.00  0.00     0.014 C 
ATOM     29  C   UNL     1      54.640  32.878  89.399  1.00  0.00     0.014 C 
ENDROOT
BRANCH   1  30
ATOM     30  C   UNL     1      49.678  34.088  81.085  1.00  0.00     0.048 C 
ATOM     31  O   UNL     1      49.895  35.330  81.085  1.00  0.00    -0.550 OA
ATOM     32  O   UNL     1      49.065  33.520  79.973  1.00  0.00    -0.550 OA
ENDBRANCH   1  30
BRANCH  27  33
ATOM     33  O   UNL     1      54.652  30.291  90.824  1.00  0.00    -0.393 OA
ATOM     34  H   UNL     1      54.894  29.328  90.816  1.00  0.00     0.210 HD
ENDBRANCH  27  33
TORSDOF 2
ENDMDL
MODEL 8
REMARK VINA RESULT:    -5.434     11.324     14.591
REMARK INTER + INTRA:          -5.941
REMARK INTER:                  -6.025
REMARK INTRA:                   0.083
REMARK UNBOUND:                -0.031
REMARK SMILES C[C@H]1[C@H](C)CC[C@@]2(C(=O)[O-])CC[C@]3(C)C(=CC[C@H]4[C@@]5(C)CC[C@H](O)C(C)(C)[C@@H]5CC[C@]43C)[C@@H]12
REMARK SMILES IDX 7 1 6 2 11 3 33 4 5 5 12 6 15 7 2 8 3 9 13 10 16 11 1 12
REMARK SMILES IDX 4 13 14 14 31 15 17 16 18 17 30 18 32 19 19 20 29 21 28 22
REMARK SMILES IDX 21 23 20 24 25 25 22 26 23 27 26 28 27 29 8 30 9 31 10 32
REMARK SMILES IDX 24 33
REMARK H PARENT 24 34
REMARK Flexibility Score: inf
ROOT
ATOM      1  C   UNL     1      52.400  33.053  88.031  1.00  0.00     0.017 C 
ATOM      2  C   UNL     1      53.763  33.767  87.827  1.00  0.00     0.014 C 
ATOM      3  C   UNL     1      51.232  34.093  87.903  1.00  0.00     0.014 C 
ATOM      4  C   UNL     1      52.288  31.882  86.984  1.00  0.00     0.030 C 
ATOM      5  C   UNL     1      54.951  32.814  88.035  1.00  0.00     0.004 C 
ATOM      6  C   UNL     1      50.750  34.440  86.469  1.00  0.00     0.013 C 
ATOM      7  C   UNL     1      51.898  32.456  85.606  1.00  0.00    -0.063 C 
ATOM      8  C   UNL     1      53.519  30.908  87.071  1.00  0.00    -0.003 C 
ATOM      9  C   UNL     1      54.917  31.612  87.075  1.00  0.00    -0.011 C 
ATOM     10  C   UNL     1      50.572  33.207  85.527  1.00  0.00    -0.006 C 
ATOM     11  C   UNL     1      52.830  32.715  84.679  1.00  0.00    -0.027 C 
ATOM     12  C   UNL     1      53.419  29.750  86.057  1.00  0.00     0.008 C 
ATOM     13  C   UNL     1      56.037  30.629  87.458  1.00  0.00     0.008 C 
ATOM     14  C   UNL     1      49.440  32.288  86.122  1.00  0.00     0.017 C 
ATOM     15  C   UNL     1      50.221  33.641  83.994  1.00  0.00    -0.020 C 
ATOM     16  C   UNL     1      52.819  33.994  83.910  1.00  0.00     0.032 C 
ATOM     17  C   UNL     1      51.456  34.338  83.232  1.00  0.00     0.006 C 
ATOM     18  C   UNL     1      49.709  32.399  83.148  1.00  0.00     0.008 C 
ATOM     19  C   UNL     1      49.043  34.679  84.049  1.00  0.00     0.012 C 
ATOM     20  C   UNL     1      51.476  34.121  81.646  1.00  0.00    -0.025 C 
ATOM     21  C   UNL     1      50.737  31.680  82.254  1.00  0.00     0.005 C 
ATOM     22  C   UNL     1      51.682  32.588  81.406  1.00  0.00     0.003 C 
ATOM     23  C   UNL     1      52.639  34.914  80.943  1.00  0.00     0.010 C 
ATOM     24  C   UNL     1      50.162  34.699  81.023  1.00  0.00     0.012 C 
ATOM     25  C   UNL     1      51.903  32.142  79.909  1.00  0.00    -0.006 C 
ATOM     26  C   UNL     1      52.854  34.518  79.468  1.00  0.00     0.033 C 
ATOM     27  C   UNL     1      53.054  33.002  79.289  1.00  0.00     0.120 C 
ATOM     28  C   UNL     1      50.616  32.232  79.045  1.00  0.00     0.014 C 
ATOM     29  C   UNL     1      52.378  30.661  79.884  1.00  0.00     0.014 C 
ENDROOT
BRANCH   1  30
ATOM     30  C   UNL     1      52.319  32.521  89.462  1.00  0.00     0.048 C 
ATOM     31  O   UNL     1      51.431  31.691  89.797  1.00  0.00    -0.550 OA
ATOM     32  O   UNL     1      53.149  33.042  90.450  1.00  0.00    -0.550 OA
ENDBRANCH   1  30
BRANCH  27  33
ATOM     33  O   UNL     1      53.197  32.711  77.921  1.00  0.00    -0.393 OA
ATOM     34  H   UNL     1      53.987  32.117  77.831  1.00  0.00     0.210 HD
ENDBRANCH  27  33
TORSDOF 2
ENDMDL
MODEL 9
REMARK VINA RESULT:    -5.419     11.491     13.941
REMARK INTER + INTRA:          -5.925
REMARK INTER:                  -5.902
REMARK INTRA:                  -0.024
REMARK UNBOUND:                -0.031
REMARK SMILES C[C@H]1[C@H](C)CC[C@@]2(C(=O)[O-])CC[C@]3(C)C(=CC[C@H]4[C@@]5(C)CC[C@H](O)C(C)(C)[C@@H]5CC[C@]43C)[C@@H]12
REMARK SMILES IDX 7 1 6 2 11 3 33 4 5 5 12 6 15 7 2 8 3 9 13 10 16 11 1 12
REMARK SMILES IDX 4 13 14 14 31 15 17 16 18 17 30 18 32 19 19 20 29 21 28 22
REMARK SMILES IDX 21 23 20 24 25 25 22 26 23 27 26 28 27 29 8 30 9 31 10 32
REMARK SMILES IDX 24 33
REMARK H PARENT 24 34
REMARK Flexibility Score: inf
ROOT
ATOM      1  C   UNL     1      52.098  33.469  82.709  1.00  0.00     0.017 C 
ATOM      2  C   UNL     1      51.442  32.319  81.899  1.00  0.00     0.014 C 
ATOM      3  C   UNL     1      51.048  34.608  82.958  1.00  0.00     0.014 C 
ATOM      4  C   UNL     1      52.677  32.873  84.046  1.00  0.00     0.030 C 
ATOM      5  C   UNL     1      52.451  31.215  81.543  1.00  0.00     0.004 C 
ATOM      6  C   UNL     1      50.076  34.422  84.153  1.00  0.00     0.013 C 
ATOM      7  C   UNL     1      51.532  32.674  85.061  1.00  0.00    -0.063 C 
ATOM      8  C   UNL     1      53.653  31.672  83.770  1.00  0.00    -0.003 C 
ATOM      9  C   UNL     1      53.100  30.586  82.788  1.00  0.00    -0.011 C 
ATOM     10  C   UNL     1      50.753  33.921  85.469  1.00  0.00    -0.006 C 
ATOM     11  C   UNL     1      50.940  31.480  85.206  1.00  0.00    -0.027 C 
ATOM     12  C   UNL     1      54.235  31.083  85.071  1.00  0.00     0.008 C 
ATOM     13  C   UNL     1      54.210  29.618  82.344  1.00  0.00     0.008 C 
ATOM     14  C   UNL     1      51.778  35.016  85.949  1.00  0.00     0.017 C 
ATOM     15  C   UNL     1      49.666  33.591  86.641  1.00  0.00    -0.020 C 
ATOM     16  C   UNL     1      49.454  31.360  85.278  1.00  0.00     0.032 C 
ATOM     17  C   UNL     1      48.771  32.288  86.330  1.00  0.00     0.006 C 
ATOM     18  C   UNL     1      50.376  33.422  88.051  1.00  0.00     0.008 C 
ATOM     19  C   UNL     1      48.699  34.823  86.756  1.00  0.00     0.012 C 
ATOM     20  C   UNL     1      48.265  31.497  87.626  1.00  0.00    -0.025 C 
ATOM     21  C   UNL     1      50.679  31.988  88.523  1.00  0.00     0.005 C 
ATOM     22  C   UNL     1      49.542  30.935  88.336  1.00  0.00     0.003 C 
ATOM     23  C   UNL     1      47.306  30.302  87.266  1.00  0.00     0.010 C 
ATOM     24  C   UNL     1      47.400  32.450  88.516  1.00  0.00     0.012 C 
ATOM     25  C   UNL     1      49.290  29.969  89.557  1.00  0.00    -0.006 C 
ATOM     26  C   UNL     1      47.019  29.361  88.453  1.00  0.00     0.033 C 
ATOM     27  C   UNL     1      48.307  28.835  89.112  1.00  0.00     0.120 C 
ATOM     28  C   UNL     1      48.757  30.701  90.819  1.00  0.00     0.014 C 
ATOM     29  C   UNL     1      50.630  29.283  89.948  1.00  0.00     0.014 C 
ENDROOT
BRANCH   1  30
ATOM     30  C   UNL     1      53.204  34.110  81.868  1.00  0.00     0.048 C 
ATOM     31  O   UNL     1      54.219  34.622  82.413  1.00  0.00    -0.550 OA
ATOM     32  O   UNL     1      53.046  34.248  80.493  1.00  0.00    -0.550 OA
ENDBRANCH   1  30
BRANCH  27  33
ATOM     33  O   UNL     1      47.970  28.024  90.210  1.00  0.00    -0.393 OA
ATOM     34  H   UNL     1      48.804  27.870  90.725  1.00  0.00     0.210 HD
ENDBRANCH  27  33
TORSDOF 2
ENDMDL
