MODEL 1
REMARK VINA RESULT:    -4.778      0.000      0.000
REMARK INTER + INTRA:          -6.226
REMARK INTER:                  -5.895
REMARK INTRA:                  -0.331
REMARK UNBOUND:                -0.331
REMARK SMILES COC(=O)c1ccccc1C(=O)OC
REMARK SMILES IDX 5 1 6 2 7 3 8 4 9 5 10 6 3 7 4 8 2 9 1 10 11 11 12 12 13 13
REMARK SMILES IDX 14 14
REMARK H PARENT
REMARK Flexibility Score: inf
ROOT
ATOM      1  C   UNL     1     108.687  92.880 116.527  1.00  0.00     0.074 A 
ATOM      2  C   UNL     1     108.748  92.105 115.354  1.00  0.00     0.016 A 
ATOM      3  C   UNL     1     109.610  92.452 114.313  1.00  0.00     0.001 A 
ATOM      4  C   UNL     1     110.424  93.576 114.426  1.00  0.00     0.001 A 
ATOM      5  C   UNL     1     110.397  94.346 115.589  1.00  0.00     0.016 A 
ATOM      6  C   UNL     1     109.553  94.002 116.661  1.00  0.00     0.074 A 
ENDROOT
BRANCH   1   7
ATOM      7  C   UNL     1     107.671  92.520 117.542  1.00  0.00     0.338 C 
ATOM      8  O   UNL     1     107.866  91.549 118.323  1.00  0.00    -0.246 OA
BRANCH   7   9
ATOM      9  O   UNL     1     106.518  93.302 117.670  1.00  0.00    -0.465 OA
ATOM     10  C   UNL     1     106.105  93.864 118.910  1.00  0.00     0.282 C 
ENDBRANCH   7   9
ENDBRANCH   1   7
BRANCH   6  11
ATOM     11  C   UNL     1     109.658  94.796 117.907  1.00  0.00     0.338 C 
ATOM     12  O   UNL     1     110.569  94.549 118.745  1.00  0.00    -0.246 OA
BRANCH  11  13
ATOM     13  O   UNL     1     108.778  95.861 118.122  1.00  0.00    -0.465 OA
ATOM     14  C   UNL     1     108.433  96.789 117.101  1.00  0.00     0.282 C 
ENDBRANCH  11  13
ENDBRANCH   6  11
TORSDOF 4
ENDMDL
MODEL 2
REMARK VINA RESULT:    -4.774      0.042      3.082
REMARK INTER + INTRA:          -6.222
REMARK INTER:                  -5.888
REMARK INTRA:                  -0.334
REMARK UNBOUND:                -0.331
REMARK SMILES COC(=O)c1ccccc1C(=O)OC
REMARK SMILES IDX 5 1 6 2 7 3 8 4 9 5 10 6 3 7 4 8 2 9 1 10 11 11 12 12 13 13
REMARK SMILES IDX 14 14
REMARK H PARENT
REMARK Flexibility Score: inf
ROOT
ATOM      1  C   UNL     1     109.572  93.989 116.638  1.00  0.00     0.074 A 
ATOM      2  C   UNL     1     110.419  94.317 115.564  1.00  0.00     0.016 A 
ATOM      3  C   UNL     1     110.438  93.540 114.405  1.00  0.00     0.001 A 
ATOM      4  C   UNL     1     109.614  92.423 114.301  1.00  0.00     0.001 A 
ATOM      5  C   UNL     1     108.749  92.091 115.344  1.00  0.00     0.016 A 
ATOM      6  C   UNL     1     108.696  92.873 116.512  1.00  0.00     0.074 A 
ENDROOT
BRANCH   1   7
ATOM      7  C   UNL     1     109.685  94.789 117.878  1.00  0.00     0.338 C 
ATOM      8  O   UNL     1     110.597  94.543 118.715  1.00  0.00    -0.246 OA
BRANCH   7   9
ATOM      9  O   UNL     1     108.811  95.861 118.089  1.00  0.00    -0.465 OA
ATOM     10  C   UNL     1     108.472  96.788 117.065  1.00  0.00     0.282 C 
ENDBRANCH   7   9
ENDBRANCH   1   7
BRANCH   6  11
ATOM     11  C   UNL     1     107.676  92.530 117.530  1.00  0.00     0.338 C 
ATOM     12  O   UNL     1     107.874  91.577 118.334  1.00  0.00    -0.246 OA
BRANCH  11  13
ATOM     13  O   UNL     1     106.518  93.307 117.634  1.00  0.00    -0.465 OA
ATOM     14  C   UNL     1     106.112  93.921 118.850  1.00  0.00     0.282 C 
ENDBRANCH  11  13
ENDBRANCH   6  11
TORSDOF 4
ENDMDL
MODEL 3
REMARK VINA RESULT:    -4.722      0.800      3.343
REMARK INTER + INTRA:          -6.158
REMARK INTER:                  -5.831
REMARK INTRA:                  -0.327
REMARK UNBOUND:                -0.331
REMARK SMILES COC(=O)c1ccccc1C(=O)OC
REMARK SMILES IDX 5 1 6 2 7 3 8 4 9 5 10 6 3 7 4 8 2 9 1 10 11 11 12 12 13 13
REMARK SMILES IDX 14 14
REMARK H PARENT
REMARK Flexibility Score: inf
ROOT
ATOM      1  C   UNL     1     109.678  93.919 116.793  1.00  0.00     0.074 A 
ATOM      2  C   UNL     1     110.504  94.312 115.723  1.00  0.00     0.016 A 
ATOM      3  C   UNL     1     110.448  93.650 114.497  1.00  0.00     0.001 A 
ATOM      4  C   UNL     1     109.568  92.586 114.317  1.00  0.00     0.001 A 
ATOM      5  C   UNL     1     108.724  92.193 115.356  1.00  0.00     0.016 A 
ATOM      6  C   UNL     1     108.747  92.861 116.594  1.00  0.00     0.074 A 
ENDROOT
BRANCH   1   7
ATOM      7  C   UNL     1     109.870  94.590 118.098  1.00  0.00     0.338 C 
ATOM      8  O   UNL     1     109.008  95.406 118.528  1.00  0.00    -0.246 OA
BRANCH   7   9
ATOM      9  O   UNL     1     110.983  94.270 118.881  1.00  0.00    -0.465 OA
ATOM     10  C   UNL     1     111.442  92.934 119.054  1.00  0.00     0.282 C 
ENDBRANCH   7   9
ENDBRANCH   1   7
BRANCH   6  11
ATOM     11  C   UNL     1     107.746  92.465 117.612  1.00  0.00     0.338 C 
ATOM     12  O   UNL     1     107.985  91.511 118.403  1.00  0.00    -0.246 OA
BRANCH  11  13
ATOM     13  O   UNL     1     106.560  93.196 117.732  1.00  0.00    -0.465 OA
ATOM     14  C   UNL     1     106.116  93.741 118.968  1.00  0.00     0.282 C 
ENDBRANCH  11  13
ENDBRANCH   6  11
TORSDOF 4
ENDMDL
MODEL 4
REMARK VINA RESULT:    -4.710      2.089      3.931
REMARK INTER + INTRA:          -6.143
REMARK INTER:                  -5.818
REMARK INTRA:                  -0.325
REMARK UNBOUND:                -0.331
REMARK SMILES COC(=O)c1ccccc1C(=O)OC
REMARK SMILES IDX 5 1 6 2 7 3 8 4 9 5 10 6 3 7 4 8 2 9 1 10 11 11 12 12 13 13
REMARK SMILES IDX 14 14
REMARK H PARENT
REMARK Flexibility Score: inf
ROOT
ATOM      1  C   UNL     1     109.979  93.970 117.520  1.00  0.00     0.074 A 
ATOM      2  C   UNL     1     111.050  94.189 118.405  1.00  0.00     0.016 A 
ATOM      3  C   UNL     1     112.030  93.214 118.597  1.00  0.00     0.001 A 
ATOM      4  C   UNL     1     111.954  92.005 117.910  1.00  0.00     0.001 A 
ATOM      5  C   UNL     1     110.913  91.774 117.011  1.00  0.00     0.016 A 
ATOM      6  C   UNL     1     109.928  92.752 116.784  1.00  0.00     0.074 A 
ENDROOT
BRANCH   1   7
ATOM      7  C   UNL     1     108.917  94.999 117.450  1.00  0.00     0.338 C 
ATOM      8  O   UNL     1     107.833  94.841 118.076  1.00  0.00    -0.246 OA
BRANCH   7   9
ATOM      9  O   UNL     1     109.146  96.178 116.732  1.00  0.00    -0.465 OA
ATOM     10  C   UNL     1     108.461  97.393 117.013  1.00  0.00     0.282 C 
ENDBRANCH   7   9
ENDBRANCH   1   7
BRANCH   6  11
ATOM     11  C   UNL     1     108.917  92.485 115.734  1.00  0.00     0.338 C 
ATOM     12  O   UNL     1     109.235  92.546 114.514  1.00  0.00    -0.246 OA
BRANCH  11  13
ATOM     13  O   UNL     1     107.623  92.108 116.105  1.00  0.00    -0.465 OA
ATOM     14  C   UNL     1     107.353  91.320 117.257  1.00  0.00     0.282 C 
ENDBRANCH  11  13
ENDBRANCH   6  11
TORSDOF 4
ENDMDL
MODEL 5
REMARK VINA RESULT:    -4.702      0.800      1.672
REMARK INTER + INTRA:          -6.132
REMARK INTER:                  -5.797
REMARK INTRA:                  -0.336
REMARK UNBOUND:                -0.331
REMARK SMILES COC(=O)c1ccccc1C(=O)OC
REMARK SMILES IDX 5 1 6 2 7 3 8 4 9 5 10 6 3 7 4 8 2 9 1 10 11 11 12 12 13 13
REMARK SMILES IDX 14 14
REMARK H PARENT
REMARK Flexibility Score: inf
ROOT
ATOM      1  C   UNL     1     108.716  92.913 116.648  1.00  0.00     0.074 A 
ATOM      2  C   UNL     1     108.664  92.234 115.416  1.00  0.00     0.016 A 
ATOM      3  C   UNL     1     109.499  92.605 114.361  1.00  0.00     0.001 A 
ATOM      4  C   UNL     1     110.396  93.658 114.517  1.00  0.00     0.001 A 
ATOM      5  C   UNL     1     110.481  94.331 115.737  1.00  0.00     0.016 A 
ATOM      6  C   UNL     1     109.666  93.959 116.822  1.00  0.00     0.074 A 
ENDROOT
BRANCH   1   7
ATOM      7  C   UNL     1     107.726  92.543 117.684  1.00  0.00     0.338 C 
ATOM      8  O   UNL     1     107.945  91.568 118.455  1.00  0.00    -0.246 OA
BRANCH   7   9
ATOM      9  O   UNL     1     106.573  93.317 117.844  1.00  0.00    -0.465 OA
ATOM     10  C   UNL     1     106.116  93.762 119.116  1.00  0.00     0.282 C 
ENDBRANCH   7   9
ENDBRANCH   1   7
BRANCH   6  11
ATOM     11  C   UNL     1     109.888  94.640 118.118  1.00  0.00     0.338 C 
ATOM     12  O   UNL     1     109.049  95.479 118.549  1.00  0.00    -0.246 OA
BRANCH  11  13
ATOM     13  O   UNL     1     111.003  94.303 118.892  1.00  0.00    -0.465 OA
ATOM     14  C   UNL     1     111.479  92.968 119.012  1.00  0.00     0.282 C 
ENDBRANCH  11  13
ENDBRANCH   6  11
TORSDOF 4
ENDMDL
MODEL 6
REMARK VINA RESULT:    -4.699      2.080      2.775
REMARK INTER + INTRA:          -6.129
REMARK INTER:                  -5.805
REMARK INTRA:                  -0.324
REMARK UNBOUND:                -0.331
REMARK SMILES COC(=O)c1ccccc1C(=O)OC
REMARK SMILES IDX 5 1 6 2 7 3 8 4 9 5 10 6 3 7 4 8 2 9 1 10 11 11 12 12 13 13
REMARK SMILES IDX 14 14
REMARK H PARENT
REMARK Flexibility Score: inf
ROOT
ATOM      1  C   UNL     1     109.928  92.726 116.849  1.00  0.00     0.074 A 
ATOM      2  C   UNL     1     110.940  91.780 117.092  1.00  0.00     0.016 A 
ATOM      3  C   UNL     1     111.980  92.058 117.980  1.00  0.00     0.001 A 
ATOM      4  C   UNL     1     112.027  93.285 118.637  1.00  0.00     0.001 A 
ATOM      5  C   UNL     1     111.022  94.229 118.429  1.00  0.00     0.016 A 
ATOM      6  C   UNL     1     109.951  93.961 117.557  1.00  0.00     0.074 A 
ENDROOT
BRANCH   1   7
ATOM      7  C   UNL     1     108.920  92.410 115.812  1.00  0.00     0.338 C 
ATOM      8  O   UNL     1     109.231  92.437 114.590  1.00  0.00    -0.246 OA
BRANCH   7   9
ATOM      9  O   UNL     1     107.633  92.020 116.199  1.00  0.00    -0.465 OA
ATOM     10  C   UNL     1     107.390  91.171 117.313  1.00  0.00     0.282 C 
ENDBRANCH   7   9
ENDBRANCH   1   7
BRANCH   6  11
ATOM     11  C   UNL     1     108.862  94.961 117.470  1.00  0.00     0.338 C 
ATOM     12  O   UNL     1     107.788  94.790 118.110  1.00  0.00    -0.246 OA
BRANCH  11  13
ATOM     13  O   UNL     1     109.055  96.126 116.720  1.00  0.00    -0.465 OA
ATOM     14  C   UNL     1     108.396  97.350 117.021  1.00  0.00     0.282 C 
ENDBRANCH  11  13
ENDBRANCH   6  11
TORSDOF 4
ENDMDL
MODEL 7
REMARK VINA RESULT:    -4.568      2.517      4.518
REMARK INTER + INTRA:          -5.967
REMARK INTER:                  -5.558
REMARK INTRA:                  -0.409
REMARK UNBOUND:                -0.331
REMARK SMILES COC(=O)c1ccccc1C(=O)OC
REMARK SMILES IDX 5 1 6 2 7 3 8 4 9 5 10 6 3 7 4 8 2 9 1 10 11 11 12 12 13 13
REMARK SMILES IDX 14 14
REMARK H PARENT
REMARK Flexibility Score: inf
ROOT
ATOM      1  C   UNL     1     109.229  93.364 117.200  1.00  0.00     0.074 A 
ATOM      2  C   UNL     1     107.900  93.803 117.334  1.00  0.00     0.016 A 
ATOM      3  C   UNL     1     106.925  92.971 117.885  1.00  0.00     0.001 A 
ATOM      4  C   UNL     1     107.260  91.688 118.310  1.00  0.00     0.001 A 
ATOM      5  C   UNL     1     108.577  91.239 118.207  1.00  0.00     0.016 A 
ATOM      6  C   UNL     1     109.581  92.069 117.676  1.00  0.00     0.074 A 
ENDROOT
BRANCH   1   7
ATOM      7  C   UNL     1     110.186  94.254 116.505  1.00  0.00     0.338 C 
ATOM      8  O   UNL     1     110.352  94.162 115.257  1.00  0.00    -0.246 OA
BRANCH   7   9
ATOM      9  O   UNL     1     110.862  95.241 117.231  1.00  0.00    -0.465 OA
ATOM     10  C   UNL     1     112.260  95.185 117.485  1.00  0.00     0.282 C 
ENDBRANCH   7   9
ENDBRANCH   1   7
BRANCH   6  11
ATOM     11  C   UNL     1     110.976  91.570 117.702  1.00  0.00     0.338 C 
ATOM     12  O   UNL     1     111.441  90.929 116.720  1.00  0.00    -0.246 OA
BRANCH  11  13
ATOM     13  O   UNL     1     111.794  91.867 118.797  1.00  0.00    -0.465 OA
ATOM     14  C   UNL     1     113.210  91.760 118.748  1.00  0.00     0.282 C 
ENDBRANCH  11  13
ENDBRANCH   6  11
TORSDOF 4
ENDMDL
MODEL 8
REMARK VINA RESULT:    -4.566      2.511      3.981
REMARK INTER + INTRA:          -5.965
REMARK INTER:                  -5.557
REMARK INTRA:                  -0.409
REMARK UNBOUND:                -0.331
REMARK SMILES COC(=O)c1ccccc1C(=O)OC
REMARK SMILES IDX 5 1 6 2 7 3 8 4 9 5 10 6 3 7 4 8 2 9 1 10 11 11 12 12 13 13
REMARK SMILES IDX 14 14
REMARK H PARENT
REMARK Flexibility Score: inf
ROOT
ATOM      1  C   UNL     1     109.575  92.025 117.701  1.00  0.00     0.074 A 
ATOM      2  C   UNL     1     108.606  91.150 118.226  1.00  0.00     0.016 A 
ATOM      3  C   UNL     1     107.272  91.545 118.336  1.00  0.00     0.001 A 
ATOM      4  C   UNL     1     106.885  92.818 117.924  1.00  0.00     0.001 A 
ATOM      5  C   UNL     1     107.824  93.693 117.380  1.00  0.00     0.016 A 
ATOM      6  C   UNL     1     109.169  93.309 117.238  1.00  0.00     0.074 A 
ENDROOT
BRANCH   1   7
ATOM      7  C   UNL     1     110.988  91.583 117.718  1.00  0.00     0.338 C 
ATOM      8  O   UNL     1     111.461  90.921 116.753  1.00  0.00    -0.246 OA
BRANCH   7   9
ATOM      9  O   UNL     1     111.814  91.955 118.784  1.00  0.00    -0.465 OA
ATOM     10  C   UNL     1     113.224  91.772 118.763  1.00  0.00     0.282 C 
ENDBRANCH   7   9
ENDBRANCH   1   7
BRANCH   6  11
ATOM     11  C   UNL     1     110.088  94.244 116.548  1.00  0.00     0.338 C 
ATOM     12  O   UNL     1     110.172  94.242 115.289  1.00  0.00    -0.246 OA
BRANCH  11  13
ATOM     13  O   UNL     1     110.818  95.171 117.299  1.00  0.00    -0.465 OA
ATOM     14  C   UNL     1     112.239  95.198 117.312  1.00  0.00     0.282 C 
ENDBRANCH  11  13
ENDBRANCH   6  11
TORSDOF 4
ENDMDL
MODEL 9
REMARK VINA RESULT:    -4.496      1.923      4.417
REMARK INTER + INTRA:          -5.879
REMARK INTER:                  -5.611
REMARK INTRA:                  -0.268
REMARK UNBOUND:                -0.331
REMARK SMILES COC(=O)c1ccccc1C(=O)OC
REMARK SMILES IDX 5 1 6 2 7 3 8 4 9 5 10 6 3 7 4 8 2 9 1 10 11 11 12 12 13 13
REMARK SMILES IDX 14 14
REMARK H PARENT
REMARK Flexibility Score: inf
ROOT
ATOM      1  C   UNL     1     109.173  94.047 117.634  1.00  0.00     0.074 A 
ATOM      2  C   UNL     1     108.093  94.840 118.063  1.00  0.00     0.016 A 
ATOM      3  C   UNL     1     106.780  94.387 117.935  1.00  0.00     0.001 A 
ATOM      4  C   UNL     1     106.523  93.138 117.376  1.00  0.00     0.001 A 
ATOM      5  C   UNL     1     107.580  92.325 116.964  1.00  0.00     0.016 A 
ATOM      6  C   UNL     1     108.913  92.751 117.105  1.00  0.00     0.074 A 
ENDROOT
BRANCH   1   7
ATOM      7  C   UNL     1     110.531  94.635 117.696  1.00  0.00     0.338 C 
ATOM      8  O   UNL     1     110.825  95.635 116.984  1.00  0.00    -0.246 OA
BRANCH   7   9
ATOM      9  O   UNL     1     111.468  94.113 118.593  1.00  0.00    -0.465 OA
ATOM     10  C   UNL     1     112.713  93.569 118.173  1.00  0.00     0.282 C 
ENDBRANCH   7   9
ENDBRANCH   1   7
BRANCH   6  11
ATOM     11  C   UNL     1     109.987  91.794 116.753  1.00  0.00     0.338 C 
ATOM     12  O   UNL     1     110.310  90.875 117.556  1.00  0.00    -0.246 OA
BRANCH  11  13
ATOM     13  O   UNL     1     110.600  91.877 115.498  1.00  0.00    -0.465 OA
ATOM     14  C   UNL     1     109.972  92.485 114.377  1.00  0.00     0.282 C 
ENDBRANCH  11  13
ENDBRANCH   6  11
TORSDOF 4
ENDMDL
