MODEL 1
REMARK VINA RESULT:    -4.911      0.000      0.000
REMARK INTER + INTRA:          -9.616
REMARK INTER:                  -8.643
REMARK INTRA:                  -0.973
REMARK UNBOUND:                -0.973
REMARK SMILES CCCCCCCCCCCCCCC(=O)[O-]
REMARK SMILES IDX 9 1 10 2 11 3 12 4 13 5 14 6 15 7 16 8 17 9 8 10 7 11 6 12
REMARK SMILES IDX 5 13 4 14 3 15 2 16 1 17
REMARK H PARENT
REMARK Flexibility Score: inf
ROOT
ATOM      1  C   UNL     1      41.084  55.912  17.151  1.00  0.00     0.000 C 
ENDROOT
BRANCH   1   2
ATOM      2  C   UNL     1      40.129  56.027  18.349  1.00  0.00     0.000 C 
BRANCH   2   3
ATOM      3  C   UNL     1      39.030  57.061  18.075  1.00  0.00     0.000 C 
BRANCH   3   4
ATOM      4  C   UNL     1      38.119  56.607  16.928  1.00  0.00     0.000 C 
BRANCH   4   5
ATOM      5  C   UNL     1      36.689  57.127  17.121  1.00  0.00     0.006 C 
BRANCH   5   6
ATOM      6  C   UNL     1      36.051  57.492  15.779  1.00  0.00     0.053 C 
BRANCH   6   7
ATOM      7  C   UNL     1      34.785  56.722  15.573  1.00  0.00     0.041 C 
ATOM      8  O   UNL     1      33.851  56.803  16.414  1.00  0.00    -0.550 OA
ATOM      9  O   UNL     1      34.616  55.955  14.428  1.00  0.00    -0.550 OA
ENDBRANCH   6   7
ENDBRANCH   5   6
ENDBRANCH   4   5
ENDBRANCH   3   4
ENDBRANCH   2   3
ENDBRANCH   1   2
BRANCH   1  10
ATOM     10  C   UNL     1      42.519  55.549  17.569  1.00  0.00     0.000 C 
BRANCH  10  11
ATOM     11  C   UNL     1      42.867  54.081  17.266  1.00  0.00    -0.000 C 
BRANCH  11  12
ATOM     12  C   UNL     1      42.770  53.739  15.767  1.00  0.00    -0.000 C 
BRANCH  12  13
ATOM     13  C   UNL     1      44.108  53.415  15.077  1.00  0.00    -0.000 C 
BRANCH  13  14
ATOM     14  C   UNL     1      44.877  54.673  14.640  1.00  0.00    -0.000 C 
BRANCH  14  15
ATOM     15  C   UNL     1      46.227  54.818  15.359  1.00  0.00    -0.000 C 
BRANCH  15  16
ATOM     16  C   UNL     1      46.142  55.715  16.603  1.00  0.00    -0.003 C 
ATOM     17  C   UNL     1      45.671  57.120  16.235  1.00  0.00     0.004 C 
ENDBRANCH  15  16
ENDBRANCH  14  15
ENDBRANCH  13  14
ENDBRANCH  12  13
ENDBRANCH  11  12
ENDBRANCH  10  11
ENDBRANCH   1  10
TORSDOF 13
ENDMDL
MODEL 2
REMARK VINA RESULT:    -4.896      1.153      1.853
REMARK INTER + INTRA:          -9.591
REMARK INTER:                  -8.810
REMARK INTRA:                  -0.781
REMARK UNBOUND:                -0.973
REMARK SMILES CCCCCCCCCCCCCCC(=O)[O-]
REMARK SMILES IDX 9 1 10 2 11 3 12 4 13 5 14 6 15 7 16 8 17 9 8 10 7 11 6 12
REMARK SMILES IDX 5 13 4 14 3 15 2 16 1 17
REMARK H PARENT
REMARK Flexibility Score: inf
ROOT
ATOM      1  C   UNL     1      42.655  55.486  17.538  1.00  0.00     0.000 C 
ENDROOT
BRANCH   1   2
ATOM      2  C   UNL     1      41.198  55.813  17.180  1.00  0.00     0.000 C 
BRANCH   2   3
ATOM      3  C   UNL     1      40.354  56.012  18.445  1.00  0.00     0.000 C 
BRANCH   3   4
ATOM      4  C   UNL     1      39.202  56.991  18.191  1.00  0.00     0.000 C 
BRANCH   4   5
ATOM      5  C   UNL     1      38.372  56.563  16.975  1.00  0.00     0.006 C 
BRANCH   5   6
ATOM      6  C   UNL     1      36.964  57.161  17.032  1.00  0.00     0.053 C 
BRANCH   6   7
ATOM      7  C   UNL     1      36.363  57.219  15.663  1.00  0.00     0.041 C 
ATOM      8  O   UNL     1      35.331  57.910  15.452  1.00  0.00    -0.550 OA
ATOM      9  O   UNL     1      36.971  56.550  14.609  1.00  0.00    -0.550 OA
ENDBRANCH   6   7
ENDBRANCH   5   6
ENDBRANCH   4   5
ENDBRANCH   3   4
ENDBRANCH   2   3
ENDBRANCH   1   2
BRANCH   1  10
ATOM     10  C   UNL     1      43.038  54.035  17.202  1.00  0.00     0.000 C 
BRANCH  10  11
ATOM     11  C   UNL     1      42.923  53.729  15.698  1.00  0.00    -0.000 C 
BRANCH  11  12
ATOM     12  C   UNL     1      44.291  53.510  15.024  1.00  0.00    -0.000 C 
BRANCH  12  13
ATOM     13  C   UNL     1      45.091  54.792  14.728  1.00  0.00    -0.000 C 
BRANCH  13  14
ATOM     14  C   UNL     1      46.491  54.786  15.365  1.00  0.00    -0.000 C 
BRANCH  14  15
ATOM     15  C   UNL     1      46.558  55.630  16.648  1.00  0.00    -0.000 C 
BRANCH  15  16
ATOM     16  C   UNL     1      48.000  55.926  17.087  1.00  0.00    -0.003 C 
ATOM     17  C   UNL     1      48.140  57.365  17.576  1.00  0.00     0.004 C 
ENDBRANCH  15  16
ENDBRANCH  14  15
ENDBRANCH  13  14
ENDBRANCH  12  13
ENDBRANCH  11  12
ENDBRANCH  10  11
ENDBRANCH   1  10
TORSDOF 13
ENDMDL
MODEL 3
REMARK VINA RESULT:    -4.887      4.718      9.299
REMARK INTER + INTRA:          -9.574
REMARK INTER:                  -9.070
REMARK INTRA:                  -0.504
REMARK UNBOUND:                -0.973
REMARK SMILES CCCCCCCCCCCCCCC(=O)[O-]
REMARK SMILES IDX 9 1 10 2 11 3 12 4 13 5 14 6 15 7 16 8 17 9 8 10 7 11 6 12
REMARK SMILES IDX 5 13 4 14 3 15 2 16 1 17
REMARK H PARENT
REMARK Flexibility Score: inf
ROOT
ATOM      1  C   UNL     1      41.132  55.980  17.216  1.00  0.00     0.000 C 
ENDROOT
BRANCH   1   2
ATOM      2  C   UNL     1      42.455  55.368  17.700  1.00  0.00     0.000 C 
BRANCH   2   3
ATOM      3  C   UNL     1      42.855  54.170  16.830  1.00  0.00     0.000 C 
BRANCH   3   4
ATOM      4  C   UNL     1      44.103  54.485  15.997  1.00  0.00     0.000 C 
BRANCH   4   5
ATOM      5  C   UNL     1      44.929  55.604  16.643  1.00  0.00     0.006 C 
BRANCH   5   6
ATOM      6  C   UNL     1      46.375  55.580  16.142  1.00  0.00     0.053 C 
BRANCH   6   7
ATOM      7  C   UNL     1      47.294  56.170  17.164  1.00  0.00     0.041 C 
ATOM      8  O   UNL     1      48.027  55.422  17.864  1.00  0.00    -0.550 OA
ATOM      9  O   UNL     1      47.379  57.549  17.309  1.00  0.00    -0.550 OA
ENDBRANCH   6   7
ENDBRANCH   5   6
ENDBRANCH   4   5
ENDBRANCH   3   4
ENDBRANCH   2   3
ENDBRANCH   1   2
BRANCH   1  10
ATOM     10  C   UNL     1      40.073  56.058  18.329  1.00  0.00     0.000 C 
BRANCH  10  11
ATOM     11  C   UNL     1      38.992  57.114  18.039  1.00  0.00    -0.000 C 
BRANCH  11  12
ATOM     12  C   UNL     1      38.037  56.699  16.903  1.00  0.00    -0.000 C 
BRANCH  12  13
ATOM     13  C   UNL     1      36.587  57.198  17.047  1.00  0.00    -0.000 C 
BRANCH  13  14
ATOM     14  C   UNL     1      36.043  57.840  15.760  1.00  0.00    -0.000 C 
BRANCH  14  15
ATOM     15  C   UNL     1      34.796  57.120  15.224  1.00  0.00    -0.000 C 
BRANCH  15  16
ATOM     16  C   UNL     1      34.146  56.202  16.271  1.00  0.00    -0.003 C 
ATOM     17  C   UNL     1      32.625  56.316  16.232  1.00  0.00     0.004 C 
ENDBRANCH  15  16
ENDBRANCH  14  15
ENDBRANCH  13  14
ENDBRANCH  12  13
ENDBRANCH  11  12
ENDBRANCH  10  11
ENDBRANCH   1  10
TORSDOF 13
ENDMDL
MODEL 4
REMARK VINA RESULT:    -4.849      3.703      9.335
REMARK INTER + INTRA:          -9.508
REMARK INTER:                  -8.827
REMARK INTRA:                  -0.680
REMARK UNBOUND:                -0.973
REMARK SMILES CCCCCCCCCCCCCCC(=O)[O-]
REMARK SMILES IDX 9 1 10 2 11 3 12 4 13 5 14 6 15 7 16 8 17 9 8 10 7 11 6 12
REMARK SMILES IDX 5 13 4 14 3 15 2 16 1 17
REMARK H PARENT
REMARK Flexibility Score: inf
ROOT
ATOM      1  C   UNL     1      36.444  57.077  16.880  1.00  0.00     0.000 C 
ENDROOT
BRANCH   1   2
ATOM      2  C   UNL     1      37.920  56.664  16.775  1.00  0.00     0.000 C 
BRANCH   2   3
ATOM      3  C   UNL     1      38.729  57.221  17.952  1.00  0.00     0.000 C 
BRANCH   3   4
ATOM      4  C   UNL     1      39.822  56.235  18.385  1.00  0.00     0.000 C 
BRANCH   4   5
ATOM      5  C   UNL     1      40.842  56.015  17.262  1.00  0.00     0.006 C 
BRANCH   5   6
ATOM      6  C   UNL     1      42.101  55.323  17.792  1.00  0.00     0.053 C 
BRANCH   6   7
ATOM      7  C   UNL     1      43.095  55.130  16.690  1.00  0.00     0.041 C 
ATOM      8  O   UNL     1      42.852  54.328  15.750  1.00  0.00    -0.550 OA
ATOM      9  O   UNL     1      44.268  55.874  16.674  1.00  0.00    -0.550 OA
ENDBRANCH   6   7
ENDBRANCH   5   6
ENDBRANCH   4   5
ENDBRANCH   3   4
ENDBRANCH   2   3
ENDBRANCH   1   2
BRANCH   1  10
ATOM     10  C   UNL     1      36.079  58.224  15.923  1.00  0.00     0.000 C 
BRANCH  10  11
ATOM     11  C   UNL     1      36.028  57.771  14.453  1.00  0.00    -0.000 C 
BRANCH  11  12
ATOM     12  C   UNL     1      35.219  56.475  14.252  1.00  0.00    -0.000 C 
BRANCH  12  13
ATOM     13  C   UNL     1      33.689  56.640  14.304  1.00  0.00    -0.000 C 
BRANCH  13  14
ATOM     14  C   UNL     1      33.064  56.039  15.574  1.00  0.00    -0.000 C 
BRANCH  14  15
ATOM     15  C   UNL     1      31.557  56.324  15.681  1.00  0.00    -0.000 C 
BRANCH  15  16
ATOM     16  C   UNL     1      31.154  56.862  17.062  1.00  0.00    -0.003 C 
ATOM     17  C   UNL     1      30.632  55.740  17.956  1.00  0.00     0.004 C 
ENDBRANCH  15  16
ENDBRANCH  14  15
ENDBRANCH  13  14
ENDBRANCH  12  13
ENDBRANCH  11  12
ENDBRANCH  10  11
ENDBRANCH   1  10
TORSDOF 13
ENDMDL
MODEL 5
REMARK VINA RESULT:    -4.766      1.184      2.346
REMARK INTER + INTRA:          -9.361
REMARK INTER:                  -8.880
REMARK INTRA:                  -0.481
REMARK UNBOUND:                -0.973
REMARK SMILES CCCCCCCCCCCCCCC(=O)[O-]
REMARK SMILES IDX 9 1 10 2 11 3 12 4 13 5 14 6 15 7 16 8 17 9 8 10 7 11 6 12
REMARK SMILES IDX 5 13 4 14 3 15 2 16 1 17
REMARK H PARENT
REMARK Flexibility Score: inf
ROOT
ATOM      1  C   UNL     1      38.979  57.112  18.024  1.00  0.00     0.000 C 
ENDROOT
BRANCH   1   2
ATOM      2  C   UNL     1      38.068  56.687  16.863  1.00  0.00     0.000 C 
BRANCH   2   3
ATOM      3  C   UNL     1      36.628  57.158  17.097  1.00  0.00     0.000 C 
BRANCH   3   4
ATOM      4  C   UNL     1      36.035  57.772  15.822  1.00  0.00     0.000 C 
BRANCH   4   5
ATOM      5  C   UNL     1      34.848  56.946  15.313  1.00  0.00     0.006 C 
BRANCH   5   6
ATOM      6  C   UNL     1      34.144  56.226  16.466  1.00  0.00     0.053 C 
BRANCH   6   7
ATOM      7  C   UNL     1      32.687  56.059  16.168  1.00  0.00     0.041 C 
ATOM      8  O   UNL     1      31.828  56.703  16.826  1.00  0.00    -0.550 OA
ATOM      9  O   UNL     1      32.281  55.230  15.130  1.00  0.00    -0.550 OA
ENDBRANCH   6   7
ENDBRANCH   5   6
ENDBRANCH   4   5
ENDBRANCH   3   4
ENDBRANCH   2   3
ENDBRANCH   1   2
BRANCH   1  10
ATOM     10  C   UNL     1      40.042  56.054  18.364  1.00  0.00     0.000 C 
BRANCH  10  11
ATOM     11  C   UNL     1      41.139  55.955  17.289  1.00  0.00    -0.000 C 
BRANCH  11  12
ATOM     12  C   UNL     1      42.428  55.290  17.807  1.00  0.00    -0.000 C 
BRANCH  12  13
ATOM     13  C   UNL     1      42.958  54.126  16.949  1.00  0.00    -0.000 C 
BRANCH  13  14
ATOM     14  C   UNL     1      44.101  54.545  16.010  1.00  0.00    -0.000 C 
BRANCH  14  15
ATOM     15  C   UNL     1      44.990  55.642  16.617  1.00  0.00    -0.000 C 
BRANCH  15  16
ATOM     16  C   UNL     1      46.458  55.524  16.181  1.00  0.00    -0.003 C 
ATOM     17  C   UNL     1      47.401  55.817  17.344  1.00  0.00     0.004 C 
ENDBRANCH  15  16
ENDBRANCH  14  15
ENDBRANCH  13  14
ENDBRANCH  12  13
ENDBRANCH  11  12
ENDBRANCH  10  11
ENDBRANCH   1  10
TORSDOF 13
ENDMDL
MODEL 6
REMARK VINA RESULT:    -4.764      1.599      3.608
REMARK INTER + INTRA:          -9.357
REMARK INTER:                  -8.654
REMARK INTRA:                  -0.703
REMARK UNBOUND:                -0.973
REMARK SMILES CCCCCCCCCCCCCCC(=O)[O-]
REMARK SMILES IDX 9 1 10 2 11 3 12 4 13 5 14 6 15 7 16 8 17 9 8 10 7 11 6 12
REMARK SMILES IDX 5 13 4 14 3 15 2 16 1 17
REMARK H PARENT
REMARK Flexibility Score: inf
ROOT
ATOM      1  C   UNL     1      37.869  56.763  16.764  1.00  0.00     0.000 C 
ENDROOT
BRANCH   1   2
ATOM      2  C   UNL     1      36.386  57.154  16.845  1.00  0.00     0.000 C 
BRANCH   2   3
ATOM      3  C   UNL     1      36.030  58.180  15.762  1.00  0.00     0.000 C 
BRANCH   3   4
ATOM      4  C   UNL     1      35.419  57.495  14.533  1.00  0.00     0.000 C 
BRANCH   4   5
ATOM      5  C   UNL     1      34.633  56.241  14.934  1.00  0.00     0.006 C 
BRANCH   5   6
ATOM      6  C   UNL     1      33.139  56.546  15.062  1.00  0.00     0.053 C 
BRANCH   6   7
ATOM      7  C   UNL     1      32.613  56.050  16.373  1.00  0.00     0.041 C 
ATOM      8  O   UNL     1      33.116  55.029  16.912  1.00  0.00    -0.550 OA
ATOM      9  O   UNL     1      31.603  56.745  17.024  1.00  0.00    -0.550 OA
ENDBRANCH   6   7
ENDBRANCH   5   6
ENDBRANCH   4   5
ENDBRANCH   3   4
ENDBRANCH   2   3
ENDBRANCH   1   2
BRANCH   1  10
ATOM     10  C   UNL     1      38.675  57.237  17.986  1.00  0.00     0.000 C 
BRANCH  10  11
ATOM     11  C   UNL     1      39.766  56.233  18.396  1.00  0.00    -0.000 C 
BRANCH  11  12
ATOM     12  C   UNL     1      40.847  56.046  17.315  1.00  0.00    -0.000 C 
BRANCH  12  13
ATOM     13  C   UNL     1      42.027  55.140  17.714  1.00  0.00    -0.000 C 
BRANCH  13  14
ATOM     14  C   UNL     1      43.362  55.586  17.093  1.00  0.00    -0.000 C 
BRANCH  14  15
ATOM     15  C   UNL     1      43.946  54.535  16.136  1.00  0.00    -0.000 C 
BRANCH  15  16
ATOM     16  C   UNL     1      42.971  53.382  15.855  1.00  0.00    -0.003 C 
ATOM     17  C   UNL     1      42.295  53.554  14.498  1.00  0.00     0.004 C 
ENDBRANCH  15  16
ENDBRANCH  14  15
ENDBRANCH  13  14
ENDBRANCH  12  13
ENDBRANCH  11  12
ENDBRANCH  10  11
ENDBRANCH   1  10
TORSDOF 13
ENDMDL
MODEL 7
REMARK VINA RESULT:    -4.717      4.139      8.569
REMARK INTER + INTRA:          -9.274
REMARK INTER:                  -8.481
REMARK INTRA:                  -0.794
REMARK UNBOUND:                -0.973
REMARK SMILES CCCCCCCCCCCCCCC(=O)[O-]
REMARK SMILES IDX 9 1 10 2 11 3 12 4 13 5 14 6 15 7 16 8 17 9 8 10 7 11 6 12
REMARK SMILES IDX 5 13 4 14 3 15 2 16 1 17
REMARK H PARENT
REMARK Flexibility Score: inf
ROOT
ATOM      1  C   UNL     1      40.998  55.952  17.187  1.00  0.00     0.000 C 
ENDROOT
BRANCH   1   2
ATOM      2  C   UNL     1      42.402  55.594  17.695  1.00  0.00     0.000 C 
BRANCH   2   3
ATOM      3  C   UNL     1      42.775  54.158  17.310  1.00  0.00     0.000 C 
BRANCH   3   4
ATOM      4  C   UNL     1      42.660  53.946  15.795  1.00  0.00     0.000 C 
BRANCH   4   5
ATOM      5  C   UNL     1      44.008  53.531  15.192  1.00  0.00     0.006 C 
BRANCH   5   6
ATOM      6  C   UNL     1      44.757  54.743  14.636  1.00  0.00     0.053 C 
BRANCH   6   7
ATOM      7  C   UNL     1      45.875  55.133  15.551  1.00  0.00     0.041 C 
ATOM      8  O   UNL     1      46.993  54.557  15.467  1.00  0.00    -0.550 OA
ATOM      9  O   UNL     1      45.700  56.167  16.462  1.00  0.00    -0.550 OA
ENDBRANCH   6   7
ENDBRANCH   5   6
ENDBRANCH   4   5
ENDBRANCH   3   4
ENDBRANCH   2   3
ENDBRANCH   1   2
BRANCH   1  10
ATOM     10  C   UNL     1      39.968  56.072  18.323  1.00  0.00     0.000 C 
BRANCH  10  11
ATOM     11  C   UNL     1      38.868  57.103  18.013  1.00  0.00    -0.000 C 
BRANCH  11  12
ATOM     12  C   UNL     1      37.945  56.667  16.860  1.00  0.00    -0.000 C 
BRANCH  12  13
ATOM     13  C   UNL     1      36.473  57.100  16.995  1.00  0.00    -0.000 C 
BRANCH  13  14
ATOM     14  C   UNL     1      36.032  58.076  15.892  1.00  0.00    -0.000 C 
BRANCH  14  15
ATOM     15  C   UNL     1      36.317  57.538  14.481  1.00  0.00    -0.000 C 
BRANCH  15  16
ATOM     16  C   UNL     1      35.382  56.384  14.087  1.00  0.00    -0.003 C 
ATOM     17  C   UNL     1      33.918  56.796  14.214  1.00  0.00     0.004 C 
ENDBRANCH  15  16
ENDBRANCH  14  15
ENDBRANCH  13  14
ENDBRANCH  12  13
ENDBRANCH  11  12
ENDBRANCH  10  11
ENDBRANCH   1  10
TORSDOF 13
ENDMDL
MODEL 8
REMARK VINA RESULT:    -4.716      4.463      9.359
REMARK INTER + INTRA:          -9.273
REMARK INTER:                  -8.779
REMARK INTRA:                  -0.494
REMARK UNBOUND:                -0.973
REMARK SMILES CCCCCCCCCCCCCCC(=O)[O-]
REMARK SMILES IDX 9 1 10 2 11 3 12 4 13 5 14 6 15 7 16 8 17 9 8 10 7 11 6 12
REMARK SMILES IDX 5 13 4 14 3 15 2 16 1 17
REMARK H PARENT
REMARK Flexibility Score: inf
ROOT
ATOM      1  C   UNL     1      40.061  56.124  18.397  1.00  0.00     0.000 C 
ENDROOT
BRANCH   1   2
ATOM      2  C   UNL     1      40.960  55.910  17.170  1.00  0.00     0.000 C 
BRANCH   2   3
ATOM      3  C   UNL     1      42.322  55.338  17.582  1.00  0.00     0.000 C 
BRANCH   3   4
ATOM      4  C   UNL     1      42.771  54.234  16.617  1.00  0.00     0.000 C 
BRANCH   4   5
ATOM      5  C   UNL     1      44.158  54.538  16.037  1.00  0.00     0.006 C 
BRANCH   5   6
ATOM      6  C   UNL     1      44.863  55.631  16.844  1.00  0.00     0.053 C 
BRANCH   6   7
ATOM      7  C   UNL     1      46.312  55.701  16.477  1.00  0.00     0.041 C 
ATOM      8  O   UNL     1      46.757  55.013  15.520  1.00  0.00    -0.550 OA
ATOM      9  O   UNL     1      47.160  56.564  17.157  1.00  0.00    -0.550 OA
ENDBRANCH   6   7
ENDBRANCH   5   6
ENDBRANCH   4   5
ENDBRANCH   3   4
ENDBRANCH   2   3
ENDBRANCH   1   2
BRANCH   1  10
ATOM     10  C   UNL     1      38.886  57.074  18.114  1.00  0.00     0.000 C 
BRANCH  10  11
ATOM     11  C   UNL     1      38.044  56.626  16.906  1.00  0.00    -0.000 C 
BRANCH  11  12
ATOM     12  C   UNL     1      36.577  57.089  16.992  1.00  0.00    -0.000 C 
BRANCH  12  13
ATOM     13  C   UNL     1      36.004  57.698  15.699  1.00  0.00    -0.000 C 
BRANCH  13  14
ATOM     14  C   UNL     1      34.742  56.972  15.203  1.00  0.00    -0.000 C 
BRANCH  14  15
ATOM     15  C   UNL     1      34.003  56.236  16.332  1.00  0.00    -0.000 C 
BRANCH  15  16
ATOM     16  C   UNL     1      32.577  55.825  15.938  1.00  0.00    -0.003 C 
ATOM     17  C   UNL     1      31.539  56.612  16.733  1.00  0.00     0.004 C 
ENDBRANCH  15  16
ENDBRANCH  14  15
ENDBRANCH  13  14
ENDBRANCH  12  13
ENDBRANCH  11  12
ENDBRANCH  10  11
ENDBRANCH   1  10
TORSDOF 13
ENDMDL
MODEL 9
REMARK VINA RESULT:    -4.556      4.438      8.393
REMARK INTER + INTRA:          -8.992
REMARK INTER:                  -7.653
REMARK INTRA:                  -1.339
REMARK UNBOUND:                -0.973
REMARK SMILES CCCCCCCCCCCCCCC(=O)[O-]
REMARK SMILES IDX 9 1 10 2 11 3 12 4 13 5 14 6 15 7 16 8 17 9 8 10 7 11 6 12
REMARK SMILES IDX 5 13 4 14 3 15 2 16 1 17
REMARK H PARENT
REMARK Flexibility Score: inf
ROOT
ATOM      1  C   UNL     1      47.053  53.184  14.088  1.00  0.00     0.000 C 
ENDROOT
BRANCH   1   2
ATOM      2  C   UNL     1      48.237  52.452  14.737  1.00  0.00     0.000 C 
BRANCH   2   3
ATOM      3  C   UNL     1      48.850  53.293  15.863  1.00  0.00     0.000 C 
BRANCH   3   4
ATOM      4  C   UNL     1      48.490  54.775  15.703  1.00  0.00     0.000 C 
BRANCH   4   5
ATOM      5  C   UNL     1      47.930  55.351  17.009  1.00  0.00     0.006 C 
BRANCH   5   6
ATOM      6  C   UNL     1      46.460  55.748  16.850  1.00  0.00     0.053 C 
BRANCH   6   7
ATOM      7  C   UNL     1      46.331  56.922  15.931  1.00  0.00     0.041 C 
ATOM      8  O   UNL     1      45.588  56.853  14.916  1.00  0.00    -0.550 OA
ATOM      9  O   UNL     1      46.991  58.109  16.222  1.00  0.00    -0.550 OA
ENDBRANCH   6   7
ENDBRANCH   5   6
ENDBRANCH   4   5
ENDBRANCH   3   4
ENDBRANCH   2   3
ENDBRANCH   1   2
BRANCH   1  10
ATOM     10  C   UNL     1      45.692  52.624  14.534  1.00  0.00     0.000 C 
BRANCH  10  11
ATOM     11  C   UNL     1      44.536  53.602  14.263  1.00  0.00    -0.000 C 
BRANCH  11  12
ATOM     12  C   UNL     1      43.243  53.225  15.012  1.00  0.00    -0.000 C 
BRANCH  12  13
ATOM     13  C   UNL     1      42.503  54.400  15.678  1.00  0.00    -0.000 C 
BRANCH  13  14
ATOM     14  C   UNL     1      42.851  54.560  17.168  1.00  0.00    -0.000 C 
BRANCH  14  15
ATOM     15  C   UNL     1      42.081  55.712  17.832  1.00  0.00    -0.000 C 
BRANCH  15  16
ATOM     16  C   UNL     1      40.747  56.014  17.132  1.00  0.00    -0.003 C 
ATOM     17  C   UNL     1      39.676  56.417  18.142  1.00  0.00     0.004 C 
ENDBRANCH  15  16
ENDBRANCH  14  15
ENDBRANCH  13  14
ENDBRANCH  12  13
ENDBRANCH  11  12
ENDBRANCH  10  11
ENDBRANCH   1  10
TORSDOF 13
ENDMDL
