MODEL 1
REMARK VINA RESULT:    -6.675      0.000      0.000
REMARK INTER + INTRA:          -9.134
REMARK INTER:                  -9.016
REMARK INTRA:                  -0.118
REMARK UNBOUND:                -0.118
REMARK SMILES CC[C@@H](CC[C@@H](C)[C@H]1CC[C@H]2[C@H]3CC(=O)C4=CC(=O)CC[C@]4(C)[C@H]3CC[C@]12C)C(C)C
REMARK SMILES IDX 4 1 3 2 2 3 1 4 29 5 30 6 31 7 5 8 6 9 7 10 8 11 9 12 27 13
REMARK SMILES IDX 10 14 11 15 26 16 28 17 12 18 25 19 24 20 13 21 22 22 14 23
REMARK SMILES IDX 16 24 21 25 23 26 15 27 17 28 20 29 18 30 19 31
REMARK H PARENT
REMARK Flexibility Score: inf
ROOT
ATOM      1  C   UNL     1       7.114  -1.624  29.715  1.00  0.00     0.004 C 
ENDROOT
BRANCH   1   2
ATOM      2  C   UNL     1       6.450  -3.027  29.865  1.00  0.00    -0.009 C 
BRANCH   2   3
ATOM      3  C   UNL     1       5.093  -3.127  29.091  1.00  0.00     0.000 C 
ATOM      4  C   UNL     1       4.991  -4.174  27.970  1.00  0.00     0.004 C 
ENDBRANCH   2   3
BRANCH   2   5
ATOM      5  C   UNL     1       6.428  -3.608  31.319  1.00  0.00    -0.014 C 
ATOM      6  C   UNL     1       6.875  -2.546  32.343  1.00  0.00     0.007 C 
ATOM      7  C   UNL     1       5.029  -4.101  31.737  1.00  0.00     0.007 C 
ENDBRANCH   2   5
ENDBRANCH   1   2
BRANCH   1   8
ATOM      8  C   UNL     1       6.988  -0.959  28.324  1.00  0.00     0.004 C 
BRANCH   8   9
ATOM      9  C   UNL     1       7.124   0.599  28.351  1.00  0.00    -0.011 C 
ATOM     10  C   UNL     1       6.934   1.130  26.916  1.00  0.00     0.008 C 
BRANCH   9  11
ATOM     11  C   UNL     1       6.097   1.254  29.347  1.00  0.00    -0.002 C 
ATOM     12  C   UNL     1       6.630   1.307  30.808  1.00  0.00     0.005 C 
ATOM     13  C   UNL     1       5.603   2.717  29.087  1.00  0.00    -0.026 C 
ATOM     14  C   UNL     1       5.997   2.527  31.491  1.00  0.00     0.005 C 
ATOM     15  C   UNL     1       4.996   3.031  30.465  1.00  0.00    -0.001 C 
ATOM     16  C   UNL     1       4.449   2.856  28.056  1.00  0.00     0.007 C 
ATOM     17  C   UNL     1       6.809   3.633  28.717  1.00  0.00     0.012 C 
ATOM     18  C   UNL     1       4.320   4.412  30.656  1.00  0.00     0.004 C 
ATOM     19  C   UNL     1       3.807   4.262  28.097  1.00  0.00     0.005 C 
ATOM     20  C   UNL     1       3.295   4.693  29.507  1.00  0.00     0.003 C 
ATOM     21  C   UNL     1       5.222   5.622  30.945  1.00  0.00     0.085 C 
ATOM     22  C   UNL     1       2.652   6.162  29.551  1.00  0.00    -0.000 C 
ATOM     23  C   UNL     1       4.350   6.741  31.427  1.00  0.00     0.159 C 
ATOM     24  C   UNL     1       2.984   6.891  30.863  1.00  0.00     0.005 C 
ATOM     25  C   UNL     1       1.105   6.015  29.398  1.00  0.00     0.020 C 
ATOM     26  C   UNL     1       3.190   7.075  28.415  1.00  0.00     0.017 C 
ATOM     27  O   UNL     1       4.791   7.547  32.294  1.00  0.00    -0.295 OA
ATOM     28  C   UNL     1       2.118   7.759  31.425  1.00  0.00     0.055 C 
ATOM     29  C   UNL     1       0.345   7.328  29.597  1.00  0.00     0.081 C 
ATOM     30  C   UNL     1       0.784   8.004  30.858  1.00  0.00     0.156 C 
ATOM     31  O   UNL     1       0.020   8.845  31.409  1.00  0.00    -0.295 OA
ENDBRANCH   9  11
ENDBRANCH   8   9
ENDBRANCH   1   8
TORSDOF 6
ENDMDL
MODEL 2
REMARK VINA RESULT:    -6.299     17.290     20.551
REMARK INTER + INTRA:          -8.627
REMARK INTER:                  -7.728
REMARK INTRA:                  -0.898
REMARK UNBOUND:                -0.118
REMARK SMILES CC[C@@H](CC[C@@H](C)[C@H]1CC[C@H]2[C@H]3CC(=O)C4=CC(=O)CC[C@]4(C)[C@H]3CC[C@]12C)C(C)C
REMARK SMILES IDX 4 1 3 2 2 3 1 4 29 5 30 6 31 7 5 8 6 9 7 10 8 11 9 12 27 13
REMARK SMILES IDX 10 14 11 15 26 16 28 17 12 18 25 19 24 20 13 21 22 22 14 23
REMARK SMILES IDX 16 24 21 25 23 26 15 27 17 28 20 29 18 30 19 31
REMARK H PARENT
REMARK Flexibility Score: inf
ROOT
ATOM      1  C   UNL     1      -1.500  -2.896  16.405  1.00  0.00     0.004 C 
ENDROOT
BRANCH   1   2
ATOM      2  C   UNL     1      -2.015  -2.292  15.062  1.00  0.00    -0.009 C 
BRANCH   2   3
ATOM      3  C   UNL     1      -0.846  -1.790  14.150  1.00  0.00     0.000 C 
ATOM      4  C   UNL     1       0.317  -1.051  14.831  1.00  0.00     0.004 C 
ENDBRANCH   2   3
BRANCH   2   5
ATOM      5  C   UNL     1      -3.226  -1.307  15.190  1.00  0.00    -0.014 C 
ATOM      6  C   UNL     1      -4.316  -1.636  14.151  1.00  0.00     0.007 C 
ATOM      7  C   UNL     1      -3.880  -1.353  16.585  1.00  0.00     0.007 C 
ENDBRANCH   2   5
ENDBRANCH   1   2
BRANCH   1   8
ATOM      8  C   UNL     1      -1.913  -4.358  16.694  1.00  0.00     0.004 C 
BRANCH   8   9
ATOM      9  C   UNL     1      -1.675  -5.335  15.495  1.00  0.00    -0.011 C 
ATOM     10  C   UNL     1      -0.861  -6.541  16.004  1.00  0.00     0.008 C 
BRANCH   9  11
ATOM     11  C   UNL     1      -3.032  -5.792  14.842  1.00  0.00    -0.002 C 
ATOM     12  C   UNL     1      -2.899  -7.131  14.061  1.00  0.00     0.005 C 
ATOM     13  C   UNL     1      -4.282  -6.027  15.756  1.00  0.00    -0.026 C 
ATOM     14  C   UNL     1      -4.258  -7.842  14.121  1.00  0.00     0.005 C 
ATOM     15  C   UNL     1      -5.168  -6.819  14.779  1.00  0.00    -0.001 C 
ATOM     16  C   UNL     1      -5.080  -4.748  16.134  1.00  0.00     0.007 C 
ATOM     17  C   UNL     1      -3.876  -6.839  17.023  1.00  0.00     0.012 C 
ATOM     18  C   UNL     1      -6.579  -7.235  15.264  1.00  0.00     0.004 C 
ATOM     19  C   UNL     1      -6.455  -5.088  16.750  1.00  0.00     0.005 C 
ATOM     20  C   UNL     1      -7.348  -6.008  15.859  1.00  0.00     0.003 C 
ATOM     21  C   UNL     1      -6.697  -8.486  16.149  1.00  0.00     0.085 C 
ATOM     22  C   UNL     1      -8.764  -6.380  16.513  1.00  0.00    -0.000 C 
ATOM     23  C   UNL     1      -8.142  -8.880  16.198  1.00  0.00     0.159 C 
ATOM     24  C   UNL     1      -9.184  -7.822  16.183  1.00  0.00     0.005 C 
ATOM     25  C   UNL     1      -9.826  -5.376  15.962  1.00  0.00     0.020 C 
ATOM     26  C   UNL     1      -8.740  -6.294  18.063  1.00  0.00     0.017 C 
ATOM     27  O   UNL     1      -8.453 -10.102  16.263  1.00  0.00    -0.295 OA
ATOM     28  C   UNL     1     -10.480  -8.159  16.021  1.00  0.00     0.055 C 
ATOM     29  C   UNL     1     -11.261  -5.722  16.368  1.00  0.00     0.081 C 
ATOM     30  C   UNL     1     -11.557  -7.160  16.080  1.00  0.00     0.156 C 
ATOM     31  O   UNL     1     -12.756  -7.532  15.947  1.00  0.00    -0.295 OA
ENDBRANCH   9  11
ENDBRANCH   8   9
ENDBRANCH   1   8
TORSDOF 6
ENDMDL
MODEL 3
REMARK VINA RESULT:    -6.261     16.932     19.422
REMARK INTER + INTRA:          -8.575
REMARK INTER:                  -7.702
REMARK INTRA:                  -0.874
REMARK UNBOUND:                -0.118
REMARK SMILES CC[C@@H](CC[C@@H](C)[C@H]1CC[C@H]2[C@H]3CC(=O)C4=CC(=O)CC[C@]4(C)[C@H]3CC[C@]12C)C(C)C
REMARK SMILES IDX 4 1 3 2 2 3 1 4 29 5 30 6 31 7 5 8 6 9 7 10 8 11 9 12 27 13
REMARK SMILES IDX 10 14 11 15 26 16 28 17 12 18 25 19 24 20 13 21 22 22 14 23
REMARK SMILES IDX 16 24 21 25 23 26 15 27 17 28 20 29 18 30 19 31
REMARK H PARENT
REMARK Flexibility Score: inf
ROOT
ATOM      1  C   UNL     1     -10.175  -6.254  18.495  1.00  0.00     0.004 C 
ENDROOT
BRANCH   1   2
ATOM      2  C   UNL     1     -10.131  -4.697  18.428  1.00  0.00    -0.009 C 
BRANCH   2   3
ATOM      3  C   UNL     1     -10.248  -4.162  16.962  1.00  0.00     0.000 C 
ATOM      4  C   UNL     1     -11.634  -4.212  16.298  1.00  0.00     0.004 C 
ENDBRANCH   2   3
BRANCH   2   5
ATOM      5  C   UNL     1      -9.015  -4.019  19.294  1.00  0.00    -0.014 C 
ATOM      6  C   UNL     1      -9.440  -2.602  19.729  1.00  0.00     0.007 C 
ATOM      7  C   UNL     1      -8.688  -4.821  20.569  1.00  0.00     0.007 C 
ENDBRANCH   2   5
ENDBRANCH   1   2
BRANCH   1   8
ATOM      8  C   UNL     1      -9.370  -7.003  17.407  1.00  0.00     0.004 C 
BRANCH   8   9
ATOM      9  C   UNL     1      -8.245  -7.930  17.975  1.00  0.00    -0.011 C 
ATOM     10  C   UNL     1      -7.986  -9.061  16.959  1.00  0.00     0.008 C 
BRANCH   9  11
ATOM     11  C   UNL     1      -6.930  -7.122  18.283  1.00  0.00    -0.002 C 
ATOM     12  C   UNL     1      -5.840  -7.994  18.970  1.00  0.00     0.005 C 
ATOM     13  C   UNL     1      -6.158  -6.435  17.106  1.00  0.00    -0.026 C 
ATOM     14  C   UNL     1      -4.470  -7.432  18.564  1.00  0.00     0.005 C 
ATOM     15  C   UNL     1      -4.816  -6.162  17.805  1.00  0.00    -0.001 C 
ATOM     16  C   UNL     1      -6.713  -5.053  16.664  1.00  0.00     0.007 C 
ATOM     17  C   UNL     1      -6.040  -7.414  15.898  1.00  0.00     0.012 C 
ATOM     18  C   UNL     1      -3.722  -5.420  16.998  1.00  0.00     0.004 C 
ATOM     19  C   UNL     1      -5.725  -4.304  15.742  1.00  0.00     0.005 C 
ATOM     20  C   UNL     1      -4.297  -4.118  16.346  1.00  0.00     0.003 C 
ATOM     21  C   UNL     1      -2.871  -6.240  16.015  1.00  0.00     0.085 C 
ATOM     22  C   UNL     1      -3.268  -3.363  15.376  1.00  0.00    -0.000 C 
ATOM     23  C   UNL     1      -1.687  -5.407  15.626  1.00  0.00     0.159 C 
ATOM     24  C   UNL     1      -1.845  -3.936  15.496  1.00  0.00     0.005 C 
ATOM     25  C   UNL     1      -3.267  -1.849  15.760  1.00  0.00     0.020 C 
ATOM     26  C   UNL     1      -3.653  -3.507  13.879  1.00  0.00     0.017 C 
ATOM     27  O   UNL     1      -0.578  -5.967  15.402  1.00  0.00    -0.295 OA
ATOM     28  C   UNL     1      -0.757  -3.154  15.349  1.00  0.00     0.055 C 
ATOM     29  C   UNL     1      -2.197  -1.035  15.029  1.00  0.00     0.081 C 
ATOM     30  C   UNL     1      -0.863  -1.704  15.136  1.00  0.00     0.156 C 
ATOM     31  O   UNL     1       0.188  -1.021  14.979  1.00  0.00    -0.295 OA
ENDBRANCH   9  11
ENDBRANCH   8   9
ENDBRANCH   1   8
TORSDOF 6
ENDMDL
MODEL 4
REMARK VINA RESULT:    -6.136     17.292     20.481
REMARK INTER + INTRA:          -8.406
REMARK INTER:                  -7.830
REMARK INTRA:                  -0.576
REMARK UNBOUND:                -0.118
REMARK SMILES CC[C@@H](CC[C@@H](C)[C@H]1CC[C@H]2[C@H]3CC(=O)C4=CC(=O)CC[C@]4(C)[C@H]3CC[C@]12C)C(C)C
REMARK SMILES IDX 4 1 3 2 2 3 1 4 29 5 30 6 31 7 5 8 6 9 7 10 8 11 9 12 27 13
REMARK SMILES IDX 10 14 11 15 26 16 28 17 12 18 25 19 24 20 13 21 22 22 14 23
REMARK SMILES IDX 16 24 21 25 23 26 15 27 17 28 20 29 18 30 19 31
REMARK H PARENT
REMARK Flexibility Score: inf
ROOT
ATOM      1  C   UNL     1     -10.892  -6.774  15.575  1.00  0.00     0.004 C 
ENDROOT
BRANCH   1   2
ATOM      2  C   UNL     1     -10.602  -5.541  16.483  1.00  0.00    -0.009 C 
BRANCH   2   3
ATOM      3  C   UNL     1     -11.286  -5.662  17.885  1.00  0.00     0.000 C 
ATOM      4  C   UNL     1     -12.655  -6.358  17.948  1.00  0.00     0.004 C 
ENDBRANCH   2   3
BRANCH   2   5
ATOM      5  C   UNL     1     -10.754  -4.145  15.789  1.00  0.00    -0.014 C 
ATOM      6  C   UNL     1     -11.569  -4.264  14.485  1.00  0.00     0.007 C 
ATOM      7  C   UNL     1     -11.461  -3.112  16.689  1.00  0.00     0.007 C 
ENDBRANCH   2   5
ENDBRANCH   1   2
BRANCH   1   8
ATOM      8  C   UNL     1      -9.733  -7.784  15.410  1.00  0.00     0.004 C 
BRANCH   8   9
ATOM      9  C   UNL     1      -9.188  -8.352  16.762  1.00  0.00    -0.011 C 
ATOM     10  C   UNL     1      -8.651  -9.776  16.512  1.00  0.00     0.008 C 
BRANCH   9  11
ATOM     11  C   UNL     1      -8.079  -7.420  17.377  1.00  0.00    -0.002 C 
ATOM     12  C   UNL     1      -7.298  -8.103  18.536  1.00  0.00     0.005 C 
ATOM     13  C   UNL     1      -6.943  -6.866  16.451  1.00  0.00    -0.026 C 
ATOM     14  C   UNL     1      -5.880  -7.516  18.552  1.00  0.00     0.005 C 
ATOM     15  C   UNL     1      -5.943  -6.400  17.523  1.00  0.00    -0.001 C 
ATOM     16  C   UNL     1      -7.317  -5.605  15.622  1.00  0.00     0.007 C 
ATOM     17  C   UNL     1      -6.391  -8.003  15.539  1.00  0.00     0.012 C 
ATOM     18  C   UNL     1      -4.641  -5.714  17.042  1.00  0.00     0.004 C 
ATOM     19  C   UNL     1      -6.072  -4.937  14.997  1.00  0.00     0.005 C 
ATOM     20  C   UNL     1      -4.958  -4.567  16.026  1.00  0.00     0.003 C 
ATOM     21  C   UNL     1      -3.485  -6.612  16.570  1.00  0.00     0.085 C 
ATOM     22  C   UNL     1      -3.656  -3.897  15.371  1.00  0.00    -0.000 C 
ATOM     23  C   UNL     1      -2.250  -5.769  16.492  1.00  0.00     0.159 C 
ATOM     24  C   UNL     1      -2.366  -4.347  16.076  1.00  0.00     0.005 C 
ATOM     25  C   UNL     1      -3.809  -2.346  15.477  1.00  0.00     0.020 C 
ATOM     26  C   UNL     1      -3.479  -4.289  13.878  1.00  0.00     0.017 C 
ATOM     27  O   UNL     1      -1.128  -6.278  16.767  1.00  0.00    -0.295 OA
ATOM     28  C   UNL     1      -1.305  -3.524  16.195  1.00  0.00     0.055 C 
ATOM     29  C   UNL     1      -2.556  -1.579  15.046  1.00  0.00     0.081 C 
ATOM     30  C   UNL     1      -1.342  -2.132  15.724  1.00  0.00     0.156 C 
ATOM     31  O   UNL     1      -0.311  -1.411  15.836  1.00  0.00    -0.295 OA
ENDBRANCH   9  11
ENDBRANCH   8   9
ENDBRANCH   1   8
TORSDOF 6
ENDMDL
MODEL 5
REMARK VINA RESULT:    -5.912     17.449     20.307
REMARK INTER + INTRA:          -8.103
REMARK INTER:                  -7.132
REMARK INTRA:                  -0.972
REMARK UNBOUND:                -0.118
REMARK SMILES CC[C@@H](CC[C@@H](C)[C@H]1CC[C@H]2[C@H]3CC(=O)C4=CC(=O)CC[C@]4(C)[C@H]3CC[C@]12C)C(C)C
REMARK SMILES IDX 4 1 3 2 2 3 1 4 29 5 30 6 31 7 5 8 6 9 7 10 8 11 9 12 27 13
REMARK SMILES IDX 10 14 11 15 26 16 28 17 12 18 25 19 24 20 13 21 22 22 14 23
REMARK SMILES IDX 16 24 21 25 23 26 15 27 17 28 20 29 18 30 19 31
REMARK H PARENT
REMARK Flexibility Score: inf
ROOT
ATOM      1  C   UNL     1       0.781  -6.467  15.331  1.00  0.00     0.004 C 
ENDROOT
BRANCH   1   2
ATOM      2  C   UNL     1       1.596  -7.495  14.488  1.00  0.00    -0.009 C 
BRANCH   2   3
ATOM      3  C   UNL     1       0.693  -8.630  13.902  1.00  0.00     0.000 C 
ATOM      4  C   UNL     1       1.207 -10.075  14.015  1.00  0.00     0.004 C 
ENDBRANCH   2   3
BRANCH   2   5
ATOM      5  C   UNL     1       2.936  -7.981  15.137  1.00  0.00    -0.014 C 
ATOM      6  C   UNL     1       4.091  -7.936  14.115  1.00  0.00     0.007 C 
ATOM      7  C   UNL     1       3.351  -7.125  16.349  1.00  0.00     0.007 C 
ENDBRANCH   2   5
ENDBRANCH   1   2
BRANCH   1   8
ATOM      8  C   UNL     1      -0.355  -5.727  14.585  1.00  0.00     0.004 C 
BRANCH   8   9
ATOM      9  C   UNL     1      -1.565  -5.338  15.496  1.00  0.00    -0.011 C 
ATOM     10  C   UNL     1      -1.527  -3.815  15.734  1.00  0.00     0.008 C 
BRANCH   9  11
ATOM     11  C   UNL     1      -2.934  -5.787  14.864  1.00  0.00    -0.002 C 
ATOM     12  C   UNL     1      -2.839  -7.163  14.145  1.00  0.00     0.005 C 
ATOM     13  C   UNL     1      -4.190  -5.945  15.787  1.00  0.00    -0.026 C 
ATOM     14  C   UNL     1      -4.217  -7.834  14.237  1.00  0.00     0.005 C 
ATOM     15  C   UNL     1      -5.098  -6.757  14.847  1.00  0.00    -0.001 C 
ATOM     16  C   UNL     1      -4.952  -4.628  16.105  1.00  0.00     0.007 C 
ATOM     17  C   UNL     1      -3.806  -6.709  17.090  1.00  0.00     0.012 C 
ATOM     18  C   UNL     1      -6.520  -7.111  15.349  1.00  0.00     0.004 C 
ATOM     19  C   UNL     1      -6.336  -4.902  16.736  1.00  0.00     0.005 C 
ATOM     20  C   UNL     1      -7.254  -5.838  15.887  1.00  0.00     0.003 C 
ATOM     21  C   UNL     1      -6.672  -8.317  16.291  1.00  0.00     0.085 C 
ATOM     22  C   UNL     1      -8.680  -6.140  16.556  1.00  0.00    -0.000 C 
ATOM     23  C   UNL     1      -8.127  -8.668  16.357  1.00  0.00     0.159 C 
ATOM     24  C   UNL     1      -9.140  -7.583  16.293  1.00  0.00     0.005 C 
ATOM     25  C   UNL     1      -9.714  -5.133  15.959  1.00  0.00     0.020 C 
ATOM     26  C   UNL     1      -8.652  -5.983  18.101  1.00  0.00     0.017 C 
ATOM     27  O   UNL     1      -8.472  -9.877  16.478  1.00  0.00    -0.295 OA
ATOM     28  C   UNL     1     -10.444  -7.891  16.146  1.00  0.00     0.055 C 
ATOM     29  C   UNL     1     -11.158  -5.420  16.380  1.00  0.00     0.081 C 
ATOM     30  C   UNL     1     -11.493  -6.861  16.158  1.00  0.00     0.156 C 
ATOM     31  O   UNL     1     -12.703  -7.206  16.041  1.00  0.00    -0.295 OA
ENDBRANCH   9  11
ENDBRANCH   8   9
ENDBRANCH   1   8
TORSDOF 6
ENDMDL
MODEL 6
REMARK VINA RESULT:    -5.730     17.640     20.863
REMARK INTER + INTRA:          -7.858
REMARK INTER:                  -6.371
REMARK INTRA:                  -1.487
REMARK UNBOUND:                -0.118
REMARK SMILES CC[C@@H](CC[C@@H](C)[C@H]1CC[C@H]2[C@H]3CC(=O)C4=CC(=O)CC[C@]4(C)[C@H]3CC[C@]12C)C(C)C
REMARK SMILES IDX 4 1 3 2 2 3 1 4 29 5 30 6 31 7 5 8 6 9 7 10 8 11 9 12 27 13
REMARK SMILES IDX 10 14 11 15 26 16 28 17 12 18 25 19 24 20 13 21 22 22 14 23
REMARK SMILES IDX 16 24 21 25 23 26 15 27 17 28 20 29 18 30 19 31
REMARK H PARENT
REMARK Flexibility Score: inf
ROOT
ATOM      1  C   UNL     1      -9.778  -7.868  16.303  1.00  0.00     0.004 C 
ENDROOT
BRANCH   1   2
ATOM      2  C   UNL     1     -11.085  -7.018  16.253  1.00  0.00    -0.009 C 
BRANCH   2   3
ATOM      3  C   UNL     1     -11.729  -7.004  14.827  1.00  0.00     0.000 C 
ATOM      4  C   UNL     1     -12.296  -5.668  14.319  1.00  0.00     0.004 C 
ENDBRANCH   2   3
BRANCH   2   5
ATOM      5  C   UNL     1     -11.005  -5.622  16.959  1.00  0.00    -0.014 C 
ATOM      6  C   UNL     1     -11.644  -5.676  18.361  1.00  0.00     0.007 C 
ATOM      7  C   UNL     1      -9.555  -5.126  17.125  1.00  0.00     0.007 C 
ENDBRANCH   2   5
ENDBRANCH   1   2
BRANCH   1   8
ATOM      8  C   UNL     1      -9.444  -8.675  15.027  1.00  0.00     0.004 C 
BRANCH   8   9
ATOM      9  C   UNL     1      -7.913  -8.895  14.796  1.00  0.00    -0.011 C 
ATOM     10  C   UNL     1      -7.728 -10.121  13.880  1.00  0.00     0.008 C 
BRANCH   9  11
ATOM     11  C   UNL     1      -7.229  -7.615  14.188  1.00  0.00    -0.002 C 
ATOM     12  C   UNL     1      -8.226  -6.436  14.000  1.00  0.00     0.005 C 
ATOM     13  C   UNL     1      -6.025  -6.956  14.944  1.00  0.00    -0.026 C 
ATOM     14  C   UNL     1      -7.433  -5.128  14.141  1.00  0.00     0.005 C 
ATOM     15  C   UNL     1      -5.990  -5.593  14.231  1.00  0.00    -0.001 C 
ATOM     16  C   UNL     1      -4.641  -7.618  14.695  1.00  0.00     0.007 C 
ATOM     17  C   UNL     1      -6.341  -6.851  16.467  1.00  0.00     0.012 C 
ATOM     18  C   UNL     1      -4.879  -4.596  14.641  1.00  0.00     0.004 C 
ATOM     19  C   UNL     1      -3.480  -6.733  15.202  1.00  0.00     0.005 C 
ATOM     20  C   UNL     1      -3.474  -5.286  14.615  1.00  0.00     0.003 C 
ATOM     21  C   UNL     1      -5.096  -3.756  15.910  1.00  0.00     0.085 C 
ATOM     22  C   UNL     1      -2.283  -4.362  15.162  1.00  0.00    -0.000 C 
ATOM     23  C   UNL     1      -4.086  -2.650  15.909  1.00  0.00     0.159 C 
ATOM     24  C   UNL     1      -2.732  -2.903  15.351  1.00  0.00     0.005 C 
ATOM     25  C   UNL     1      -1.110  -4.429  14.132  1.00  0.00     0.020 C 
ATOM     26  C   UNL     1      -1.766  -4.826  16.551  1.00  0.00     0.017 C 
ATOM     27  O   UNL     1      -4.393  -1.524  16.390  1.00  0.00    -0.295 OA
ATOM     28  C   UNL     1      -1.883  -1.874  15.155  1.00  0.00     0.055 C 
ATOM     29  C   UNL     1       0.029  -3.455  14.441  1.00  0.00     0.081 C 
ATOM     30  C   UNL     1      -0.507  -2.079  14.683  1.00  0.00     0.156 C 
ATOM     31  O   UNL     1       0.255  -1.082  14.540  1.00  0.00    -0.295 OA
ENDBRANCH   9  11
ENDBRANCH   8   9
ENDBRANCH   1   8
TORSDOF 6
ENDMDL
MODEL 7
REMARK VINA RESULT:    -5.728     16.788     20.101
REMARK INTER + INTRA:          -7.855
REMARK INTER:                  -7.601
REMARK INTRA:                  -0.253
REMARK UNBOUND:                -0.118
REMARK SMILES CC[C@@H](CC[C@@H](C)[C@H]1CC[C@H]2[C@H]3CC(=O)C4=CC(=O)CC[C@]4(C)[C@H]3CC[C@]12C)C(C)C
REMARK SMILES IDX 4 1 3 2 2 3 1 4 29 5 30 6 31 7 5 8 6 9 7 10 8 11 9 12 27 13
REMARK SMILES IDX 10 14 11 15 26 16 28 17 12 18 25 19 24 20 13 21 22 22 14 23
REMARK SMILES IDX 16 24 21 25 23 26 15 27 17 28 20 29 18 30 19 31
REMARK H PARENT
REMARK Flexibility Score: inf
ROOT
ATOM      1  C   UNL     1      -9.941  -5.284  19.518  1.00  0.00     0.004 C 
ENDROOT
BRANCH   1   2
ATOM      2  C   UNL     1      -9.476  -4.090  20.407  1.00  0.00    -0.009 C 
BRANCH   2   3
ATOM      3  C   UNL     1     -10.016  -4.196  21.872  1.00  0.00     0.000 C 
ATOM      4  C   UNL     1      -9.350  -3.312  22.939  1.00  0.00     0.004 C 
ENDBRANCH   2   3
BRANCH   2   5
ATOM      5  C   UNL     1      -9.610  -2.674  19.752  1.00  0.00    -0.014 C 
ATOM      6  C   UNL     1      -8.222  -2.040  19.524  1.00  0.00     0.007 C 
ATOM      7  C   UNL     1     -10.334  -2.717  18.392  1.00  0.00     0.007 C 
ENDBRANCH   2   5
ENDBRANCH   1   2
BRANCH   1   8
ATOM      8  C   UNL     1      -8.823  -6.056  18.779  1.00  0.00     0.004 C 
BRANCH   8   9
ATOM      9  C   UNL     1      -9.311  -6.814  17.502  1.00  0.00    -0.011 C 
ATOM     10  C   UNL     1     -10.622  -6.161  17.018  1.00  0.00     0.008 C 
BRANCH   9  11
ATOM     11  C   UNL     1      -8.216  -6.811  16.372  1.00  0.00    -0.002 C 
ATOM     12  C   UNL     1      -8.627  -5.950  15.143  1.00  0.00     0.005 C 
ATOM     13  C   UNL     1      -6.772  -6.303  16.705  1.00  0.00    -0.026 C 
ATOM     14  C   UNL     1      -7.341  -5.403  14.506  1.00  0.00     0.005 C 
ATOM     15  C   UNL     1      -6.235  -6.104  15.278  1.00  0.00    -0.001 C 
ATOM     16  C   UNL     1      -5.841  -7.347  17.383  1.00  0.00     0.007 C 
ATOM     17  C   UNL     1      -6.845  -4.983  17.531  1.00  0.00     0.012 C 
ATOM     18  C   UNL     1      -4.766  -5.638  15.121  1.00  0.00     0.004 C 
ATOM     19  C   UNL     1      -4.365  -6.887  17.382  1.00  0.00     0.005 C 
ATOM     20  C   UNL     1      -3.804  -6.536  15.968  1.00  0.00     0.003 C 
ATOM     21  C   UNL     1      -4.464  -4.140  15.282  1.00  0.00     0.085 C 
ATOM     22  C   UNL     1      -2.280  -6.036  15.973  1.00  0.00    -0.000 C 
ATOM     23  C   UNL     1      -3.084  -3.889  14.754  1.00  0.00     0.159 C 
ATOM     24  C   UNL     1      -2.039  -4.929  14.932  1.00  0.00     0.005 C 
ATOM     25  C   UNL     1      -1.369  -7.266  15.665  1.00  0.00     0.020 C 
ATOM     26  C   UNL     1      -1.864  -5.425  17.339  1.00  0.00     0.017 C 
ATOM     27  O   UNL     1      -2.825  -2.796  14.178  1.00  0.00    -0.295 OA
ATOM     28  C   UNL     1      -0.858  -4.811  14.292  1.00  0.00     0.055 C 
ATOM     29  C   UNL     1       0.104  -6.900  15.466  1.00  0.00     0.081 C 
ATOM     30  C   UNL     1       0.238  -5.769  14.496  1.00  0.00     0.156 C 
ATOM     31  O   UNL     1       1.333  -5.598  13.890  1.00  0.00    -0.295 OA
ENDBRANCH   9  11
ENDBRANCH   8   9
ENDBRANCH   1   8
TORSDOF 6
ENDMDL
MODEL 8
REMARK VINA RESULT:    -5.667     16.982     20.215
REMARK INTER + INTRA:          -7.772
REMARK INTER:                  -6.997
REMARK INTRA:                  -0.775
REMARK UNBOUND:                -0.118
REMARK SMILES CC[C@@H](CC[C@@H](C)[C@H]1CC[C@H]2[C@H]3CC(=O)C4=CC(=O)CC[C@]4(C)[C@H]3CC[C@]12C)C(C)C
REMARK SMILES IDX 4 1 3 2 2 3 1 4 29 5 30 6 31 7 5 8 6 9 7 10 8 11 9 12 27 13
REMARK SMILES IDX 10 14 11 15 26 16 28 17 12 18 25 19 24 20 13 21 22 22 14 23
REMARK SMILES IDX 16 24 21 25 23 26 15 27 17 28 20 29 18 30 19 31
REMARK H PARENT
REMARK Flexibility Score: inf
ROOT
ATOM      1  C   UNL     1      -9.656  -5.001  20.157  1.00  0.00     0.004 C 
ENDROOT
BRANCH   1   2
ATOM      2  C   UNL     1      -9.697  -3.567  20.767  1.00  0.00    -0.009 C 
BRANCH   2   3
ATOM      3  C   UNL     1      -8.456  -2.709  20.351  1.00  0.00     0.000 C 
ATOM      4  C   UNL     1      -8.551  -1.917  19.037  1.00  0.00     0.004 C 
ENDBRANCH   2   3
BRANCH   2   5
ATOM      5  C   UNL     1     -10.074  -3.493  22.286  1.00  0.00    -0.014 C 
ATOM      6  C   UNL     1     -10.521  -4.873  22.810  1.00  0.00     0.007 C 
ATOM      7  C   UNL     1      -8.900  -3.018  23.164  1.00  0.00     0.007 C 
ENDBRANCH   2   5
ENDBRANCH   1   2
BRANCH   1   8
ATOM      8  C   UNL     1     -10.685  -5.293  19.040  1.00  0.00     0.004 C 
BRANCH   8   9
ATOM      9  C   UNL     1     -10.041  -5.677  17.667  1.00  0.00    -0.011 C 
ATOM     10  C   UNL     1     -10.135  -4.459  16.726  1.00  0.00     0.008 C 
BRANCH   9  11
ATOM     11  C   UNL     1      -8.552  -6.156  17.840  1.00  0.00    -0.002 C 
ATOM     12  C   UNL     1      -8.432  -7.701  17.977  1.00  0.00     0.005 C 
ATOM     13  C   UNL     1      -7.501  -5.807  16.732  1.00  0.00    -0.026 C 
ATOM     14  C   UNL     1      -7.069  -8.115  17.405  1.00  0.00     0.005 C 
ATOM     15  C   UNL     1      -6.383  -6.790  17.121  1.00  0.00    -0.001 C 
ATOM     16  C   UNL     1      -6.885  -4.383  16.825  1.00  0.00     0.007 C 
ATOM     17  C   UNL     1      -8.100  -6.077  15.319  1.00  0.00     0.012 C 
ATOM     18  C   UNL     1      -5.075  -6.756  16.292  1.00  0.00     0.004 C 
ATOM     19  C   UNL     1      -5.644  -4.232  15.917  1.00  0.00     0.005 C 
ATOM     20  C   UNL     1      -4.528  -5.295  16.173  1.00  0.00     0.003 C 
ATOM     21  C   UNL     1      -5.055  -7.501  14.947  1.00  0.00     0.085 C 
ATOM     22  C   UNL     1      -3.253  -5.151  15.212  1.00  0.00    -0.000 C 
ATOM     23  C   UNL     1      -3.628  -7.621  14.509  1.00  0.00     0.159 C 
ATOM     24  C   UNL     1      -2.678  -6.521  14.817  1.00  0.00     0.005 C 
ATOM     25  C   UNL     1      -2.172  -4.317  15.970  1.00  0.00     0.020 C 
ATOM     26  C   UNL     1      -3.598  -4.439  13.875  1.00  0.00     0.017 C 
ATOM     27  O   UNL     1      -3.254  -8.647  13.875  1.00  0.00    -0.295 OA
ATOM     28  C   UNL     1      -1.357  -6.699  14.615  1.00  0.00     0.055 C 
ATOM     29  C   UNL     1      -0.829  -4.249  15.237  1.00  0.00     0.081 C 
ATOM     30  C   UNL     1      -0.384  -5.617  14.827  1.00  0.00     0.156 C 
ATOM     31  O   UNL     1       0.840  -5.829  14.598  1.00  0.00    -0.295 OA
ENDBRANCH   9  11
ENDBRANCH   8   9
ENDBRANCH   1   8
TORSDOF 6
ENDMDL
