MODEL 1
REMARK VINA RESULT:    -5.336      0.000      0.000
REMARK INTER + INTRA:          -6.003
REMARK INTER:                  -5.804
REMARK INTRA:                  -0.199
REMARK UNBOUND:                -0.199
REMARK SMILES Cc1ccc(C(C)C)c(O)c1
REMARK SMILES IDX 1 1 2 2 11 3 9 4 5 5 4 6 3 7 10 8 6 10 7 11 8 12
REMARK H PARENT 10 9
REMARK Flexibility Score: inf
ROOT
ATOM      1  C   UNL     1      -1.902 -28.060 -23.243  1.00  0.00     0.044 C 
ATOM      2  C   UNL     1      -3.258 -28.695 -23.335  1.00  0.00    -0.047 A 
ATOM      3  C   UNL     1      -3.508 -29.687 -24.293  1.00  0.00     0.049 A 
ATOM      4  C   UNL     1      -4.782 -30.261 -24.413  1.00  0.00     0.119 A 
ATOM      5  C   UNL     1      -5.832 -29.832 -23.570  1.00  0.00    -0.004 A 
ATOM      6  C   UNL     1      -5.574 -28.820 -22.624  1.00  0.00     0.008 A 
ATOM      7  C   UNL     1      -4.302 -28.255 -22.513  1.00  0.00     0.004 A 
ENDROOT
BRANCH   4   8
ATOM      8  O   UNL     1      -5.002 -31.252 -25.368  1.00  0.00    -0.508 OA
ATOM      9  H   UNL     1      -5.226 -31.025 -26.331  1.00  0.00     0.293 HD
ENDBRANCH   4   8
BRANCH   5  10
ATOM     10  C   UNL     1      -7.224 -30.439 -23.679  1.00  0.00     0.017 C 
ATOM     11  C   UNL     1      -8.307 -29.380 -23.440  1.00  0.00     0.012 C 
ATOM     12  C   UNL     1      -7.388 -31.623 -22.718  1.00  0.00     0.012 C 
ENDBRANCH   5  10
TORSDOF 2
ENDMDL
MODEL 2
REMARK VINA RESULT:    -5.319      1.933      4.501
REMARK INTER + INTRA:          -5.984
REMARK INTER:                  -5.785
REMARK INTRA:                  -0.199
REMARK UNBOUND:                -0.199
REMARK SMILES Cc1ccc(C(C)C)c(O)c1
REMARK SMILES IDX 1 1 2 2 11 3 9 4 5 5 4 6 3 7 10 8 6 10 7 11 8 12
REMARK H PARENT 10 9
REMARK Flexibility Score: inf
ROOT
ATOM      1  C   UNL     1      -8.204 -29.445 -23.520  1.00  0.00     0.044 C 
ATOM      2  C   UNL     1      -6.709 -29.400 -23.420  1.00  0.00    -0.047 A 
ATOM      3  C   UNL     1      -6.089 -28.539 -22.503  1.00  0.00     0.049 A 
ATOM      4  C   UNL     1      -4.690 -28.462 -22.428  1.00  0.00     0.119 A 
ATOM      5  C   UNL     1      -3.891 -29.248 -23.289  1.00  0.00    -0.004 A 
ATOM      6  C   UNL     1      -4.526 -30.094 -24.220  1.00  0.00     0.008 A 
ATOM      7  C   UNL     1      -5.919 -30.164 -24.287  1.00  0.00     0.004 A 
ENDROOT
BRANCH   4   8
ATOM      8  O   UNL     1      -4.099 -27.604 -21.501  1.00  0.00    -0.508 OA
ATOM      9  H   UNL     1      -3.203 -27.164 -21.678  1.00  0.00     0.293 HD
ENDBRANCH   4   8
BRANCH   5  10
ATOM     10  C   UNL     1      -2.372 -29.183 -23.227  1.00  0.00     0.017 C 
ATOM     11  C   UNL     1      -1.805 -28.385 -24.408  1.00  0.00     0.012 C 
ATOM     12  C   UNL     1      -1.760 -30.588 -23.167  1.00  0.00     0.012 C 
ENDBRANCH   5  10
TORSDOF 2
ENDMDL
MODEL 3
REMARK VINA RESULT:    -5.239     10.000     10.915
REMARK INTER + INTRA:          -5.897
REMARK INTER:                  -5.697
REMARK INTRA:                  -0.200
REMARK UNBOUND:                -0.199
REMARK SMILES Cc1ccc(C(C)C)c(O)c1
REMARK SMILES IDX 1 1 2 2 11 3 9 4 5 5 4 6 3 7 10 8 6 10 7 11 8 12
REMARK H PARENT 10 9
REMARK Flexibility Score: inf
ROOT
ATOM      1  C   UNL     1      -6.182 -28.970 -36.970  1.00  0.00     0.044 C 
ATOM      2  C   UNL     1      -6.514 -29.755 -35.736  1.00  0.00    -0.047 A 
ATOM      3  C   UNL     1      -5.904 -30.995 -35.504  1.00  0.00     0.049 A 
ATOM      4  C   UNL     1      -6.234 -31.754 -34.371  1.00  0.00     0.119 A 
ATOM      5  C   UNL     1      -7.199 -31.275 -33.456  1.00  0.00    -0.004 A 
ATOM      6  C   UNL     1      -7.819 -30.035 -33.710  1.00  0.00     0.008 A 
ATOM      7  C   UNL     1      -7.484 -29.288 -34.841  1.00  0.00     0.004 A 
ENDROOT
BRANCH   4   8
ATOM      8  O   UNL     1      -5.607 -32.981 -34.159  1.00  0.00    -0.508 OA
ATOM      9  H   UNL     1      -4.632 -33.041 -33.888  1.00  0.00     0.293 HD
ENDBRANCH   4   8
BRANCH   5  10
ATOM     10  C   UNL     1      -7.575 -32.078 -32.219  1.00  0.00     0.017 C 
ATOM     11  C   UNL     1      -9.095 -32.106 -32.021  1.00  0.00     0.012 C 
ATOM     12  C   UNL     1      -6.866 -31.537 -30.971  1.00  0.00     0.012 C 
ENDBRANCH   5  10
TORSDOF 2
ENDMDL
MODEL 4
REMARK VINA RESULT:    -5.231      1.692      2.435
REMARK INTER + INTRA:          -5.889
REMARK INTER:                  -5.691
REMARK INTRA:                  -0.198
REMARK UNBOUND:                -0.199
REMARK SMILES Cc1ccc(C(C)C)c(O)c1
REMARK SMILES IDX 1 1 2 2 11 3 9 4 5 5 4 6 3 7 10 8 6 10 7 11 8 12
REMARK H PARENT 10 9
REMARK Flexibility Score: inf
ROOT
ATOM      1  C   UNL     1      -1.819 -28.382 -24.662  1.00  0.00     0.044 C 
ATOM      2  C   UNL     1      -3.197 -28.770 -24.215  1.00  0.00    -0.047 A 
ATOM      3  C   UNL     1      -3.668 -28.371 -22.957  1.00  0.00     0.049 A 
ATOM      4  C   UNL     1      -4.941 -28.759 -22.514  1.00  0.00     0.119 A 
ATOM      5  C   UNL     1      -5.758 -29.571 -23.333  1.00  0.00    -0.004 A 
ATOM      6  C   UNL     1      -5.265 -29.982 -24.587  1.00  0.00     0.008 A 
ATOM      7  C   UNL     1      -3.997 -29.590 -25.020  1.00  0.00     0.004 A 
ENDROOT
BRANCH   4   8
ATOM      8  O   UNL     1      -5.390 -28.341 -21.261  1.00  0.00    -0.508 OA
ATOM      9  H   UNL     1      -4.765 -27.914 -20.586  1.00  0.00     0.293 HD
ENDBRANCH   4   8
BRANCH   5  10
ATOM     10  C   UNL     1      -7.143 -30.005 -22.876  1.00  0.00     0.017 C 
ATOM     11  C   UNL     1      -7.317 -31.523 -23.012  1.00  0.00     0.012 C 
ATOM     12  C   UNL     1      -8.239 -29.255 -23.641  1.00  0.00     0.012 C 
ENDBRANCH   5  10
TORSDOF 2
ENDMDL
MODEL 5
REMARK VINA RESULT:    -5.215      1.014      4.016
REMARK INTER + INTRA:          -5.872
REMARK INTER:                  -5.672
REMARK INTRA:                  -0.200
REMARK UNBOUND:                -0.199
REMARK SMILES Cc1ccc(C(C)C)c(O)c1
REMARK SMILES IDX 1 1 2 2 11 3 9 4 5 5 4 6 3 7 10 8 6 10 7 11 8 12
REMARK H PARENT 10 9
REMARK Flexibility Score: inf
ROOT
ATOM      1  C   UNL     1      -8.571 -29.146 -23.130  1.00  0.00     0.044 C 
ATOM      2  C   UNL     1      -7.092 -29.259 -23.353  1.00  0.00    -0.047 A 
ATOM      3  C   UNL     1      -6.585 -30.202 -24.257  1.00  0.00     0.049 A 
ATOM      4  C   UNL     1      -5.202 -30.340 -24.445  1.00  0.00     0.119 A 
ATOM      5  C   UNL     1      -4.304 -29.534 -23.711  1.00  0.00    -0.004 A 
ATOM      6  C   UNL     1      -4.825 -28.603 -22.790  1.00  0.00     0.008 A 
ATOM      7  C   UNL     1      -6.204 -28.472 -22.610  1.00  0.00     0.004 A 
ENDROOT
BRANCH   4   8
ATOM      8  O   UNL     1      -4.724 -31.280 -25.358  1.00  0.00    -0.508 OA
ATOM      9  H   UNL     1      -4.199 -31.006 -26.181  1.00  0.00     0.293 HD
ENDBRANCH   4   8
BRANCH   5  10
ATOM     10  C   UNL     1      -2.800 -29.664 -23.897  1.00  0.00     0.017 C 
ATOM     11  C   UNL     1      -2.171 -30.474 -22.756  1.00  0.00     0.012 C 
ATOM     12  C   UNL     1      -2.136 -28.288 -24.027  1.00  0.00     0.012 C 
ENDBRANCH   5  10
TORSDOF 2
ENDMDL
MODEL 6
REMARK VINA RESULT:    -4.847      6.921      7.749
REMARK INTER + INTRA:          -5.471
REMARK INTER:                  -5.271
REMARK INTRA:                  -0.200
REMARK UNBOUND:                -0.199
REMARK SMILES Cc1ccc(C(C)C)c(O)c1
REMARK SMILES IDX 1 1 2 2 11 3 9 4 5 5 4 6 3 7 10 8 6 10 7 11 8 12
REMARK H PARENT 10 9
REMARK Flexibility Score: inf
ROOT
ATOM      1  C   UNL     1      -2.562 -23.385 -23.886  1.00  0.00     0.044 C 
ATOM      2  C   UNL     1      -3.962 -22.963 -23.553  1.00  0.00    -0.047 A 
ATOM      3  C   UNL     1      -4.571 -21.918 -24.260  1.00  0.00     0.049 A 
ATOM      4  C   UNL     1      -5.867 -21.492 -23.931  1.00  0.00     0.119 A 
ATOM      5  C   UNL     1      -6.566 -22.109 -22.870  1.00  0.00    -0.004 A 
ATOM      6  C   UNL     1      -5.935 -23.146 -22.154  1.00  0.00     0.008 A 
ATOM      7  C   UNL     1      -4.646 -23.563 -22.488  1.00  0.00     0.004 A 
ENDROOT
BRANCH   4   8
ATOM      8  O   UNL     1      -6.453 -20.455 -24.656  1.00  0.00    -0.508 OA
ATOM      9  H   UNL     1      -5.977 -19.573 -24.806  1.00  0.00     0.293 HD
ENDBRANCH   4   8
BRANCH   5  10
ATOM     10  C   UNL     1      -7.972 -21.666 -22.494  1.00  0.00     0.017 C 
ATOM     11  C   UNL     1      -8.167 -21.681 -20.972  1.00  0.00     0.012 C 
ATOM     12  C   UNL     1      -9.030 -22.528 -23.193  1.00  0.00     0.012 C 
ENDBRANCH   5  10
TORSDOF 2
ENDMDL
MODEL 7
REMARK VINA RESULT:    -4.807      7.195      8.140
REMARK INTER + INTRA:          -5.428
REMARK INTER:                  -5.229
REMARK INTRA:                  -0.199
REMARK UNBOUND:                -0.199
REMARK SMILES Cc1ccc(C(C)C)c(O)c1
REMARK SMILES IDX 1 1 2 2 11 3 9 4 5 5 4 6 3 7 10 8 6 10 7 11 8 12
REMARK H PARENT 10 9
REMARK Flexibility Score: inf
ROOT
ATOM      1  C   UNL     1      -6.505 -23.629 -17.876  1.00  0.00     0.044 C 
ATOM      2  C   UNL     1      -6.760 -23.229 -19.299  1.00  0.00    -0.047 A 
ATOM      3  C   UNL     1      -5.804 -23.493 -20.288  1.00  0.00     0.049 A 
ATOM      4  C   UNL     1      -6.017 -23.090 -21.615  1.00  0.00     0.119 A 
ATOM      5  C   UNL     1      -7.199 -22.399 -21.962  1.00  0.00    -0.004 A 
ATOM      6  C   UNL     1      -8.144 -22.121 -20.955  1.00  0.00     0.008 A 
ATOM      7  C   UNL     1      -7.923 -22.526 -19.637  1.00  0.00     0.004 A 
ENDROOT
BRANCH   4   8
ATOM      8  O   UNL     1      -5.053 -23.373 -22.582  1.00  0.00    -0.508 OA
ATOM      9  H   UNL     1      -5.288 -23.438 -23.566  1.00  0.00     0.293 HD
ENDBRANCH   4   8
BRANCH   5  10
ATOM     10  C   UNL     1      -7.454 -21.950 -23.394  1.00  0.00     0.017 C 
ATOM     11  C   UNL     1      -7.264 -20.435 -23.540  1.00  0.00     0.012 C 
ATOM     12  C   UNL     1      -8.848 -22.379 -23.869  1.00  0.00     0.012 C 
ENDBRANCH   5  10
TORSDOF 2
ENDMDL
MODEL 8
REMARK VINA RESULT:    -4.645      7.795      8.921
REMARK INTER + INTRA:          -5.252
REMARK INTER:                  -5.053
REMARK INTRA:                  -0.198
REMARK UNBOUND:                -0.199
REMARK SMILES Cc1ccc(C(C)C)c(O)c1
REMARK SMILES IDX 1 1 2 2 11 3 9 4 5 5 4 6 3 7 10 8 6 10 7 11 8 12
REMARK H PARENT 10 9
REMARK Flexibility Score: inf
ROOT
ATOM      1  C   UNL     1      -5.095 -23.398 -17.903  1.00  0.00     0.044 C 
ATOM      2  C   UNL     1      -5.826 -22.862 -19.098  1.00  0.00    -0.047 A 
ATOM      3  C   UNL     1      -6.746 -21.815 -18.950  1.00  0.00     0.049 A 
ATOM      4  C   UNL     1      -7.463 -21.332 -20.055  1.00  0.00     0.119 A 
ATOM      5  C   UNL     1      -7.269 -21.909 -21.330  1.00  0.00    -0.004 A 
ATOM      6  C   UNL     1      -6.356 -22.974 -21.462  1.00  0.00     0.008 A 
ATOM      7  C   UNL     1      -5.648 -23.448 -20.357  1.00  0.00     0.004 A 
ENDROOT
BRANCH   4   8
ATOM      8  O   UNL     1      -8.366 -20.284 -19.883  1.00  0.00    -0.508 OA
ATOM      9  H   UNL     1      -8.055 -19.329 -19.745  1.00  0.00     0.293 HD
ENDBRANCH   4   8
BRANCH   5  10
ATOM     10  C   UNL     1      -8.034 -21.402 -22.545  1.00  0.00     0.017 C 
ATOM     11  C   UNL     1      -8.721 -22.557 -23.285  1.00  0.00     0.012 C 
ATOM     12  C   UNL     1      -7.117 -20.613 -23.487  1.00  0.00     0.012 C 
ENDBRANCH   5  10
TORSDOF 2
ENDMDL
MODEL 9
REMARK VINA RESULT:    -4.472      7.206      8.530
REMARK INTER + INTRA:          -5.063
REMARK INTER:                  -4.863
REMARK INTRA:                  -0.201
REMARK UNBOUND:                -0.199
REMARK SMILES Cc1ccc(C(C)C)c(O)c1
REMARK SMILES IDX 1 1 2 2 11 3 9 4 5 5 4 6 3 7 10 8 6 10 7 11 8 12
REMARK H PARENT 10 9
REMARK Flexibility Score: inf
ROOT
ATOM      1  C   UNL     1      -8.698 -22.246 -23.615  1.00  0.00     0.044 C 
ATOM      2  C   UNL     1      -7.881 -22.351 -22.362  1.00  0.00    -0.047 A 
ATOM      3  C   UNL     1      -6.628 -22.980 -22.387  1.00  0.00     0.049 A 
ATOM      4  C   UNL     1      -5.872 -23.116 -21.213  1.00  0.00     0.119 A 
ATOM      5  C   UNL     1      -6.376 -22.627 -19.987  1.00  0.00    -0.004 A 
ATOM      6  C   UNL     1      -7.645 -22.015 -19.971  1.00  0.00     0.008 A 
ATOM      7  C   UNL     1      -8.390 -21.884 -21.144  1.00  0.00     0.004 A 
ENDROOT
BRANCH   4   8
ATOM      8  O   UNL     1      -4.626 -23.738 -21.268  1.00  0.00    -0.508 OA
ATOM      9  H   UNL     1      -4.455 -24.540 -21.864  1.00  0.00     0.293 HD
ENDBRANCH   4   8
BRANCH   5  10
ATOM     10  C   UNL     1      -5.576 -22.762 -18.700  1.00  0.00     0.017 C 
ATOM     11  C   UNL     1      -6.056 -23.963 -17.875  1.00  0.00     0.012 C 
ATOM     12  C   UNL     1      -5.632 -21.470 -17.876  1.00  0.00     0.012 C 
ENDBRANCH   5  10
TORSDOF 2
ENDMDL
