MODEL 1
REMARK VINA RESULT:    11.885      0.000      0.000
REMARK INTER + INTRA:          12.927
REMARK INTER:                  12.927
REMARK INTRA:                   0.000
REMARK UNBOUND:                 0.000
REMARK SMILES Cc1cc(O)c2c(c1)C(=O)c1cc(O)cc(O)c1C2=O
REMARK SMILES IDX 1 1 2 2 8 3 7 4 6 5 4 6 3 7 19 8 20 9 18 10 11 11 9 12 10 13
REMARK SMILES IDX 12 14 13 15 15 16 16 17 5 18 17 20 14 22
REMARK H PARENT 5 19 17 21 14 23
REMARK Flexibility Score: inf
ROOT
ATOM      1  C   UNL     1     -16.621 -13.842 -15.122  1.00  0.00     0.044 C 
ATOM      2  C   UNL     1     -17.598 -12.875 -14.521  1.00  0.00    -0.047 A 
ATOM      3  C   UNL     1     -18.860 -13.315 -14.104  1.00  0.00     0.016 A 
ATOM      4  C   UNL     1     -19.771 -12.424 -13.509  1.00  0.00     0.038 A 
ATOM      5  C   UNL     1     -19.405 -11.076 -13.312  1.00  0.00     0.076 A 
ATOM      6  C   UNL     1     -18.126 -10.637 -13.723  1.00  0.00     0.127 A 
ATOM      7  C   UNL     1     -17.233 -11.540 -14.315  1.00  0.00     0.050 A 
ATOM      8  C   UNL     1     -20.366 -10.157 -12.646  1.00  0.00     0.201 C 
ATOM      9  O   UNL     1     -19.945  -9.081 -12.142  1.00  0.00    -0.288 OA
ATOM     10  C   UNL     1     -21.790 -10.557 -12.474  1.00  0.00     0.076 A 
ATOM     11  C   UNL     1     -22.125 -11.925 -12.615  1.00  0.00     0.041 A 
ATOM     12  C   UNL     1     -21.108 -12.896 -13.086  1.00  0.00     0.194 C 
ATOM     13  O   UNL     1     -21.390 -14.125 -13.142  1.00  0.00    -0.289 OA
ATOM     14  C   UNL     1     -23.427 -12.361 -12.317  1.00  0.00     0.059 A 
ATOM     15  C   UNL     1     -24.402 -11.453 -11.897  1.00  0.00     0.120 A 
ATOM     16  C   UNL     1     -24.091 -10.098 -11.804  1.00  0.00     0.093 A 
ATOM     17  C   UNL     1     -22.811  -9.633 -12.119  1.00  0.00     0.131 A 
ENDROOT
BRANCH   6  18
ATOM     18  O   UNL     1     -17.741  -9.307 -13.553  1.00  0.00    -0.507 OA
ATOM     19  H   UNL     1     -17.155  -9.017 -12.778  1.00  0.00     0.293 HD
ENDBRANCH   6  18
BRANCH  17  20
ATOM     20  O   UNL     1     -22.612  -8.250 -12.103  1.00  0.00    -0.507 OA
ATOM     21  H   UNL     1     -23.346  -7.576 -12.265  1.00  0.00     0.293 HD
ENDBRANCH  17  20
BRANCH  15  22
ATOM     22  O   UNL     1     -25.689 -11.885 -11.585  1.00  0.00    -0.508 OA
ATOM     23  H   UNL     1     -26.201 -12.512 -12.195  1.00  0.00     0.293 HD
ENDBRANCH  15  22
TORSDOF 3
ENDMDL
