MODEL 1
REMARK VINA RESULT:    -5.671      0.000      0.000
REMARK INTER + INTRA:          -5.671
REMARK INTER:                  -5.671
REMARK INTRA:                   0.000
REMARK UNBOUND:                 0.000
REMARK SMILES C=C1CCC[C@]2(C)CC(=O)C(=C(C)C)C[C@H]12
REMARK SMILES IDX 13 1 12 2 11 3 15 4 16 5 2 6 1 7 3 8 4 9 5 10 6 11 8 12 9 13
REMARK SMILES IDX 10 14 7 15 14 16
REMARK H PARENT
REMARK Flexibility Score: inf
ROOT
ATOM      1  C   UNL     1      -5.504   3.884  57.231  1.00  0.00     0.039 C 
ATOM      2  C   UNL     1      -6.353   4.853  56.441  1.00  0.00    -0.070 C 
ATOM      3  C   UNL     1      -6.666   4.626  55.134  1.00  0.00    -0.006 C 
ATOM      4  C   UNL     1      -7.435   5.635  54.297  1.00  0.00     0.047 C 
ATOM      5  C   UNL     1      -8.273   4.920  53.202  1.00  0.00     0.025 C 
ATOM      6  C   UNL     1      -9.443   4.076  53.747  1.00  0.00    -0.073 C 
ATOM      7  C   UNL     1      -9.886   4.146  55.018  1.00  0.00     0.008 C 
ATOM      8  C   UNL     1     -10.234   3.206  52.793  1.00  0.00     0.031 C 
ATOM      9  C   UNL     1      -9.563   3.087  51.426  1.00  0.00     0.005 C 
ATOM     10  C   UNL     1      -8.064   2.853  51.608  1.00  0.00     0.008 C 
ATOM     11  C   UNL     1      -7.339   4.105  52.201  1.00  0.00    -0.018 C 
ATOM     12  C   UNL     1      -6.013   3.621  52.883  1.00  0.00     0.088 C 
ATOM     13  C   UNL     1      -6.169   3.458  54.364  1.00  0.00     0.159 C 
ATOM     14  O   UNL     1      -5.917   2.349  54.907  1.00  0.00    -0.295 OA
ATOM     15  C   UNL     1      -6.948   5.033  51.022  1.00  0.00     0.012 C 
ATOM     16  C   UNL     1      -6.805   6.115  57.140  1.00  0.00     0.039 C 
ENDROOT
TORSDOF 0
ENDMDL
MODEL 2
REMARK VINA RESULT:    -5.466      9.972     11.821
REMARK INTER + INTRA:          -5.466
REMARK INTER:                  -5.466
REMARK INTRA:                   0.000
REMARK UNBOUND:                 0.000
REMARK SMILES C=C1CCC[C@]2(C)CC(=O)C(=C(C)C)C[C@H]12
REMARK SMILES IDX 13 1 12 2 11 3 15 4 16 5 2 6 1 7 3 8 4 9 5 10 6 11 8 12 9 13
REMARK SMILES IDX 10 14 7 15 14 16
REMARK H PARENT
REMARK Flexibility Score: inf
ROOT
ATOM      1  C   UNL     1       1.200   1.514  56.109  1.00  0.00     0.039 C 
ATOM      2  C   UNL     1       1.884   0.755  54.995  1.00  0.00    -0.070 C 
ATOM      3  C   UNL     1       2.176  -0.572  55.110  1.00  0.00    -0.006 C 
ATOM      4  C   UNL     1       2.950  -1.327  54.043  1.00  0.00     0.047 C 
ATOM      5  C   UNL     1       2.528  -2.822  54.008  1.00  0.00     0.025 C 
ATOM      6  C   UNL     1       1.087  -3.064  53.517  1.00  0.00    -0.073 C 
ATOM      7  C   UNL     1       0.333  -2.122  52.916  1.00  0.00     0.008 C 
ATOM      8  C   UNL     1       0.506  -4.461  53.590  1.00  0.00     0.031 C 
ATOM      9  C   UNL     1       1.376  -5.407  54.414  1.00  0.00     0.005 C 
ATOM     10  C   UNL     1       1.834  -4.704  55.692  1.00  0.00     0.008 C 
ATOM     11  C   UNL     1       2.835  -3.540  55.398  1.00  0.00    -0.018 C 
ATOM     12  C   UNL     1       2.790  -2.542  56.607  1.00  0.00     0.088 C 
ATOM     13  C   UNL     1       1.903  -1.367  56.334  1.00  0.00     0.159 C 
ATOM     14  O   UNL     1       0.945  -1.106  57.110  1.00  0.00    -0.295 OA
ATOM     15  C   UNL     1       4.262  -4.142  55.339  1.00  0.00     0.012 C 
ATOM     16  C   UNL     1       2.281   1.533  53.762  1.00  0.00     0.039 C 
ENDROOT
TORSDOF 0
ENDMDL
MODEL 3
REMARK VINA RESULT:    -5.366      2.135      4.548
REMARK INTER + INTRA:          -5.366
REMARK INTER:                  -5.366
REMARK INTRA:                   0.000
REMARK UNBOUND:                 0.000
REMARK SMILES C=C1CCC[C@]2(C)CC(=O)C(=C(C)C)C[C@H]12
REMARK SMILES IDX 13 1 12 2 11 3 15 4 16 5 2 6 1 7 3 8 4 9 5 10 6 11 8 12 9 13
REMARK SMILES IDX 10 14 7 15 14 16
REMARK H PARENT
REMARK Flexibility Score: inf
ROOT
ATOM      1  C   UNL     1     -10.713   6.129  50.779  1.00  0.00     0.039 C 
ATOM      2  C   UNL     1     -10.741   5.318  52.054  1.00  0.00    -0.070 C 
ATOM      3  C   UNL     1      -9.661   4.593  52.462  1.00  0.00    -0.006 C 
ATOM      4  C   UNL     1      -9.703   3.695  53.687  1.00  0.00     0.047 C 
ATOM      5  C   UNL     1      -8.300   3.595  54.347  1.00  0.00     0.025 C 
ATOM      6  C   UNL     1      -7.805   4.907  54.991  1.00  0.00    -0.073 C 
ATOM      7  C   UNL     1      -8.596   5.975  55.212  1.00  0.00     0.008 C 
ATOM      8  C   UNL     1      -6.390   4.980  55.523  1.00  0.00     0.031 C 
ATOM      9  C   UNL     1      -5.546   3.783  55.091  1.00  0.00     0.005 C 
ATOM     10  C   UNL     1      -5.790   3.489  53.611  1.00  0.00     0.008 C 
ATOM     11  C   UNL     1      -7.236   2.960  53.345  1.00  0.00    -0.018 C 
ATOM     12  C   UNL     1      -7.589   3.242  51.843  1.00  0.00     0.088 C 
ATOM     13  C   UNL     1      -8.402   4.489  51.681  1.00  0.00     0.159 C 
ATOM     14  O   UNL     1      -7.993   5.416  50.932  1.00  0.00    -0.295 OA
ATOM     15  C   UNL     1      -7.226   1.423  53.544  1.00  0.00     0.012 C 
ATOM     16  C   UNL     1     -12.031   5.301  52.842  1.00  0.00     0.039 C 
ENDROOT
TORSDOF 0
ENDMDL
MODEL 4
REMARK VINA RESULT:    -5.262      3.288      5.347
REMARK INTER + INTRA:          -5.262
REMARK INTER:                  -5.262
REMARK INTRA:                   0.000
REMARK UNBOUND:                 0.000
REMARK SMILES C=C1CCC[C@]2(C)CC(=O)C(=C(C)C)C[C@H]12
REMARK SMILES IDX 13 1 12 2 11 3 15 4 16 5 2 6 1 7 3 8 4 9 5 10 6 11 8 12 9 13
REMARK SMILES IDX 10 14 7 15 14 16
REMARK H PARENT
REMARK Flexibility Score: inf
ROOT
ATOM      1  C   UNL     1      -8.997   4.623  61.499  1.00  0.00     0.039 C 
ATOM      2  C   UNL     1      -7.779   5.271  60.883  1.00  0.00    -0.070 C 
ATOM      3  C   UNL     1      -7.050   4.645  59.916  1.00  0.00    -0.006 C 
ATOM      4  C   UNL     1      -5.768   5.238  59.355  1.00  0.00     0.047 C 
ATOM      5  C   UNL     1      -5.555   4.798  57.881  1.00  0.00     0.025 C 
ATOM      6  C   UNL     1      -6.579   5.385  56.888  1.00  0.00    -0.073 C 
ATOM      7  C   UNL     1      -7.423   6.392  57.192  1.00  0.00     0.008 C 
ATOM      8  C   UNL     1      -6.574   4.905  55.452  1.00  0.00     0.031 C 
ATOM      9  C   UNL     1      -5.693   3.674  55.255  1.00  0.00     0.005 C 
ATOM     10  C   UNL     1      -5.939   2.680  56.390  1.00  0.00     0.008 C 
ATOM     11  C   UNL     1      -5.421   3.214  57.765  1.00  0.00    -0.018 C 
ATOM     12  C   UNL     1      -6.199   2.466  58.902  1.00  0.00     0.088 C 
ATOM     13  C   UNL     1      -7.345   3.274  59.427  1.00  0.00     0.159 C 
ATOM     14  O   UNL     1      -8.513   2.801  59.408  1.00  0.00    -0.295 OA
ATOM     15  C   UNL     1      -3.924   2.834  57.892  1.00  0.00     0.012 C 
ATOM     16  C   UNL     1      -7.367   6.625  61.412  1.00  0.00     0.039 C 
ENDROOT
TORSDOF 0
ENDMDL
MODEL 5
REMARK VINA RESULT:    -5.240      9.517     10.960
REMARK INTER + INTRA:          -5.240
REMARK INTER:                  -5.240
REMARK INTRA:                   0.000
REMARK UNBOUND:                 0.000
REMARK SMILES C=C1CCC[C@]2(C)CC(=O)C(=C(C)C)C[C@H]12
REMARK SMILES IDX 13 1 12 2 11 3 15 4 16 5 2 6 1 7 3 8 4 9 5 10 6 11 8 12 9 13
REMARK SMILES IDX 10 14 7 15 14 16
REMARK H PARENT
REMARK Flexibility Score: inf
ROOT
ATOM      1  C   UNL     1      -1.318  -1.143  58.746  1.00  0.00     0.039 C 
ATOM      2  C   UNL     1       0.058  -0.522  58.665  1.00  0.00    -0.070 C 
ATOM      3  C   UNL     1       0.910  -0.807  57.640  1.00  0.00    -0.006 C 
ATOM      4  C   UNL     1       2.330  -0.269  57.594  1.00  0.00     0.047 C 
ATOM      5  C   UNL     1       2.804  -0.085  56.125  1.00  0.00     0.025 C 
ATOM      6  C   UNL     1       2.069   1.031  55.356  1.00  0.00    -0.073 C 
ATOM      7  C   UNL     1       1.280   1.951  55.946  1.00  0.00     0.008 C 
ATOM      8  C   UNL     1       2.328   1.200  53.873  1.00  0.00     0.031 C 
ATOM      9  C   UNL     1       3.110   0.028  53.285  1.00  0.00     0.005 C 
ATOM     10  C   UNL     1       2.541  -1.288  53.814  1.00  0.00     0.008 C 
ATOM     11  C   UNL     1       2.808  -1.474  55.343  1.00  0.00    -0.018 C 
ATOM     12  C   UNL     1       1.744  -2.479  55.905  1.00  0.00     0.088 C 
ATOM     13  C   UNL     1       0.595  -1.774  56.559  1.00  0.00     0.159 C 
ATOM     14  O   UNL     1      -0.582  -1.983  56.161  1.00  0.00    -0.295 OA
ATOM     15  C   UNL     1       4.204  -2.129  55.507  1.00  0.00     0.012 C 
ATOM     16  C   UNL     1       0.477   0.394  59.792  1.00  0.00     0.039 C 
ENDROOT
TORSDOF 0
ENDMDL
MODEL 6
REMARK VINA RESULT:    -5.224      1.766      2.610
REMARK INTER + INTRA:          -5.224
REMARK INTER:                  -5.224
REMARK INTRA:                   0.000
REMARK UNBOUND:                 0.000
REMARK SMILES C=C1CCC[C@]2(C)CC(=O)C(=C(C)C)C[C@H]12
REMARK SMILES IDX 13 1 12 2 11 3 15 4 16 5 2 6 1 7 3 8 4 9 5 10 6 11 8 12 9 13
REMARK SMILES IDX 10 14 7 15 14 16
REMARK H PARENT
REMARK Flexibility Score: inf
ROOT
ATOM      1  C   UNL     1      -6.787   0.343  55.261  1.00  0.00     0.039 C 
ATOM      2  C   UNL     1      -6.306   1.767  55.103  1.00  0.00    -0.070 C 
ATOM      3  C   UNL     1      -6.764   2.567  54.100  1.00  0.00    -0.006 C 
ATOM      4  C   UNL     1      -6.220   3.967  53.866  1.00  0.00     0.047 C 
ATOM      5  C   UNL     1      -7.308   4.887  53.247  1.00  0.00     0.025 C 
ATOM      6  C   UNL     1      -8.482   5.209  54.193  1.00  0.00    -0.073 C 
ATOM      7  C   UNL     1      -8.466   4.956  55.517  1.00  0.00     0.008 C 
ATOM      8  C   UNL     1      -9.680   5.962  53.654  1.00  0.00     0.031 C 
ATOM      9  C   UNL     1      -9.662   6.065  52.131  1.00  0.00     0.005 C 
ATOM     10  C   UNL     1      -9.276   4.714  51.529  1.00  0.00     0.008 C 
ATOM     11  C   UNL     1      -7.790   4.336  51.831  1.00  0.00    -0.018 C 
ATOM     12  C   UNL     1      -7.652   2.778  51.718  1.00  0.00     0.088 C 
ATOM     13  C   UNL     1      -7.717   2.109  53.057  1.00  0.00     0.159 C 
ATOM     14  O   UNL     1      -8.582   1.220  53.276  1.00  0.00    -0.295 OA
ATOM     15  C   UNL     1      -6.904   4.967  50.727  1.00  0.00     0.012 C 
ATOM     16  C   UNL     1      -5.258   2.260  56.074  1.00  0.00     0.039 C 
ENDROOT
TORSDOF 0
ENDMDL
MODEL 7
REMARK VINA RESULT:    -5.208      1.754      3.190
REMARK INTER + INTRA:          -5.208
REMARK INTER:                  -5.208
REMARK INTRA:                   0.000
REMARK UNBOUND:                 0.000
REMARK SMILES C=C1CCC[C@]2(C)CC(=O)C(=C(C)C)C[C@H]12
REMARK SMILES IDX 13 1 12 2 11 3 15 4 16 5 2 6 1 7 3 8 4 9 5 10 6 11 8 12 9 13
REMARK SMILES IDX 10 14 7 15 14 16
REMARK H PARENT
REMARK Flexibility Score: inf
ROOT
ATOM      1  C   UNL     1      -6.041   5.278  57.787  1.00  0.00     0.039 C 
ATOM      2  C   UNL     1      -6.532   4.168  56.887  1.00  0.00    -0.070 C 
ATOM      3  C   UNL     1      -7.400   4.411  55.864  1.00  0.00    -0.006 C 
ATOM      4  C   UNL     1      -7.980   3.295  55.011  1.00  0.00     0.047 C 
ATOM      5  C   UNL     1      -8.283   3.799  53.573  1.00  0.00     0.025 C 
ATOM      6  C   UNL     1      -7.031   4.147  52.744  1.00  0.00    -0.073 C 
ATOM      7  C   UNL     1      -5.777   3.806  53.104  1.00  0.00     0.008 C 
ATOM      8  C   UNL     1      -7.200   4.799  51.388  1.00  0.00     0.031 C 
ATOM      9  C   UNL     1      -8.632   5.271  51.147  1.00  0.00     0.005 C 
ATOM     10  C   UNL     1      -9.161   5.969  52.400  1.00  0.00     0.008 C 
ATOM     11  C   UNL     1      -9.359   4.975  53.590  1.00  0.00    -0.018 C 
ATOM     12  C   UNL     1      -9.321   5.799  54.924  1.00  0.00     0.088 C 
ATOM     13  C   UNL     1      -7.974   5.750  55.577  1.00  0.00     0.159 C 
ATOM     14  O   UNL     1      -7.356   6.818  55.830  1.00  0.00    -0.295 OA
ATOM     15  C   UNL     1     -10.773   4.354  53.462  1.00  0.00     0.012 C 
ATOM     16  C   UNL     1      -6.062   2.764  57.191  1.00  0.00     0.039 C 
ENDROOT
TORSDOF 0
ENDMDL
MODEL 8
REMARK VINA RESULT:    -5.076      2.256      5.667
REMARK INTER + INTRA:          -5.076
REMARK INTER:                  -5.076
REMARK INTRA:                   0.000
REMARK UNBOUND:                 0.000
REMARK SMILES C=C1CCC[C@]2(C)CC(=O)C(=C(C)C)C[C@H]12
REMARK SMILES IDX 13 1 12 2 11 3 15 4 16 5 2 6 1 7 3 8 4 9 5 10 6 11 8 12 9 13
REMARK SMILES IDX 10 14 7 15 14 16
REMARK H PARENT
REMARK Flexibility Score: inf
ROOT
ATOM      1  C   UNL     1      -8.109   5.075  53.533  1.00  0.00     0.039 C 
ATOM      2  C   UNL     1      -6.959   4.411  54.255  1.00  0.00    -0.070 C 
ATOM      3  C   UNL     1      -6.756   4.590  55.591  1.00  0.00    -0.006 C 
ATOM      4  C   UNL     1      -5.550   4.012  56.313  1.00  0.00     0.047 C 
ATOM      5  C   UNL     1      -5.892   3.700  57.796  1.00  0.00     0.025 C 
ATOM      6  C   UNL     1      -6.899   2.547  57.987  1.00  0.00    -0.073 C 
ATOM      7  C   UNL     1      -7.260   1.699  57.004  1.00  0.00     0.008 C 
ATOM      8  C   UNL     1      -7.432   2.255  59.374  1.00  0.00     0.031 C 
ATOM      9  C   UNL     1      -7.081   3.354  60.374  1.00  0.00     0.005 C 
ATOM     10  C   UNL     1      -7.320   4.723  59.737  1.00  0.00     0.008 C 
ATOM     11  C   UNL     1      -6.311   5.021  58.582  1.00  0.00    -0.018 C 
ATOM     12  C   UNL     1      -6.955   6.097  57.639  1.00  0.00     0.088 C 
ATOM     13  C   UNL     1      -7.596   5.478  56.435  1.00  0.00     0.159 C 
ATOM     14  O   UNL     1      -8.814   5.688  56.190  1.00  0.00    -0.295 OA
ATOM     15  C   UNL     1      -5.039   5.648  59.208  1.00  0.00     0.012 C 
ATOM     16  C   UNL     1      -6.007   3.576  53.430  1.00  0.00     0.039 C 
ENDROOT
TORSDOF 0
ENDMDL
MODEL 9
REMARK VINA RESULT:    -5.040      7.706     10.566
REMARK INTER + INTRA:          -5.040
REMARK INTER:                  -5.040
REMARK INTRA:                   0.000
REMARK UNBOUND:                 0.000
REMARK SMILES C=C1CCC[C@]2(C)CC(=O)C(=C(C)C)C[C@H]12
REMARK SMILES IDX 13 1 12 2 11 3 15 4 16 5 2 6 1 7 3 8 4 9 5 10 6 11 8 12 9 13
REMARK SMILES IDX 10 14 7 15 14 16
REMARK H PARENT
REMARK Flexibility Score: inf
ROOT
ATOM      1  C   UNL     1       1.908  -2.090  53.679  1.00  0.00     0.039 C 
ATOM      2  C   UNL     1       2.002  -0.761  54.393  1.00  0.00    -0.070 C 
ATOM      3  C   UNL     1       1.103  -0.402  55.352  1.00  0.00    -0.006 C 
ATOM      4  C   UNL     1       1.123   0.968  56.010  1.00  0.00     0.047 C 
ATOM      5  C   UNL     1       0.579   0.892  57.463  1.00  0.00     0.025 C 
ATOM      6  C   UNL     1       1.482   0.111  58.440  1.00  0.00    -0.073 C 
ATOM      7  C   UNL     1       2.750  -0.250  58.159  1.00  0.00     0.008 C 
ATOM      8  C   UNL     1       0.984  -0.170  59.842  1.00  0.00     0.031 C 
ATOM      9  C   UNL     1      -0.501   0.146  60.004  1.00  0.00     0.005 C 
ATOM     10  C   UNL     1      -1.274  -0.388  58.799  1.00  0.00     0.008 C 
ATOM     11  C   UNL     1      -0.934   0.389  57.487  1.00  0.00    -0.018 C 
ATOM     12  C   UNL     1      -1.273  -0.538  56.269  1.00  0.00     0.088 C 
ATOM     13  C   UNL     1      -0.059  -1.240  55.741  1.00  0.00     0.159 C 
ATOM     14  O   UNL     1      -0.037  -2.498  55.674  1.00  0.00    -0.295 OA
ATOM     15  C   UNL     1      -1.866   1.625  57.408  1.00  0.00     0.012 C 
ATOM     16  C   UNL     1       3.104   0.182  53.969  1.00  0.00     0.039 C 
ENDROOT
TORSDOF 0
ENDMDL
