MODEL 1
REMARK VINA RESULT:    -4.515      0.000      0.000
REMARK INTER + INTRA:          -5.282
REMARK INTER:                  -5.174
REMARK INTRA:                  -0.108
REMARK UNBOUND:                -0.108
REMARK SMILES COc1cc(C(C)=O)ccc1O
REMARK SMILES IDX 5 1 4 2 3 3 11 4 10 5 9 6 6 7 7 8 8 9 2 10 1 11 12 12
REMARK H PARENT 12 13
REMARK Flexibility Score: inf
ROOT
ATOM      1  C   UNL     1      -5.885  21.155  -9.248  1.00  0.00     0.021 A 
ATOM      2  C   UNL     1      -7.122  20.900  -8.621  1.00  0.00     0.062 A 
ATOM      3  C   UNL     1      -8.316  21.459  -9.121  1.00  0.00     0.161 A 
ATOM      4  C   UNL     1      -8.266  22.282 -10.260  1.00  0.00     0.157 A 
ATOM      5  C   UNL     1      -7.043  22.537 -10.884  1.00  0.00     0.051 A 
ATOM      6  C   UNL     1      -5.863  21.980 -10.387  1.00  0.00     0.016 A 
ENDROOT
BRANCH   1   7
ATOM      7  C   UNL     1      -4.618  20.569  -8.731  1.00  0.00     0.159 C 
ATOM      8  C   UNL     1      -4.403  19.088  -8.649  1.00  0.00     0.093 C 
ATOM      9  O   UNL     1      -3.689  21.330  -8.346  1.00  0.00    -0.295 OA
ENDBRANCH   1   7
BRANCH   3  10
ATOM     10  O   UNL     1      -9.560  21.222  -8.514  1.00  0.00    -0.493 OA
ATOM     11  C   UNL     1      -9.918  21.654  -7.205  1.00  0.00     0.278 C 
ENDBRANCH   3  10
BRANCH   4  12
ATOM     12  O   UNL     1      -9.422  22.855 -10.787  1.00  0.00    -0.504 OA
ATOM     13  H   UNL     1      -9.392  23.614 -11.458  1.00  0.00     0.293 HD
ENDBRANCH   4  12
TORSDOF 3
ENDMDL
MODEL 2
REMARK VINA RESULT:    -4.426      2.366      4.025
REMARK INTER + INTRA:          -5.181
REMARK INTER:                  -5.054
REMARK INTRA:                  -0.127
REMARK UNBOUND:                -0.108
REMARK SMILES COc1cc(C(C)=O)ccc1O
REMARK SMILES IDX 5 1 4 2 3 3 11 4 10 5 9 6 6 7 7 8 8 9 2 10 1 11 12 12
REMARK H PARENT 12 13
REMARK Flexibility Score: inf
ROOT
ATOM      1  C   UNL     1      -8.896  21.847  -7.636  1.00  0.00     0.021 A 
ATOM      2  C   UNL     1      -7.768  21.815  -8.481  1.00  0.00     0.062 A 
ATOM      3  C   UNL     1      -7.892  22.070  -9.863  1.00  0.00     0.161 A 
ATOM      4  C   UNL     1      -9.160  22.357 -10.398  1.00  0.00     0.157 A 
ATOM      5  C   UNL     1     -10.279  22.389  -9.564  1.00  0.00     0.051 A 
ATOM      6  C   UNL     1     -10.152  22.138  -8.197  1.00  0.00     0.016 A 
ENDROOT
BRANCH   1   7
ATOM      7  C   UNL     1      -8.779  21.581  -6.176  1.00  0.00     0.159 C 
ATOM      8  C   UNL     1      -9.858  21.968  -5.209  1.00  0.00     0.093 C 
ATOM      9  O   UNL     1      -7.746  21.016  -5.724  1.00  0.00    -0.295 OA
ENDBRANCH   1   7
BRANCH   3  10
ATOM     10  O   UNL     1      -6.785  22.044 -10.726  1.00  0.00    -0.493 OA
ATOM     11  C   UNL     1      -5.607  22.825 -10.556  1.00  0.00     0.278 C 
ENDBRANCH   3  10
BRANCH   4  12
ATOM     12  O   UNL     1      -9.327  22.615 -11.759  1.00  0.00    -0.504 OA
ATOM     13  H   UNL     1      -9.289  21.880 -12.456  1.00  0.00     0.293 HD
ENDBRANCH   4  12
TORSDOF 3
ENDMDL
MODEL 3
REMARK VINA RESULT:    -4.191      1.294      2.447
REMARK INTER + INTRA:          -4.911
REMARK INTER:                  -4.777
REMARK INTRA:                  -0.134
REMARK UNBOUND:                -0.108
REMARK SMILES COc1cc(C(C)=O)ccc1O
REMARK SMILES IDX 5 1 4 2 3 3 11 4 10 5 9 6 6 7 7 8 8 9 2 10 1 11 12 12
REMARK H PARENT 12 13
REMARK Flexibility Score: inf
ROOT
ATOM      1  C   UNL     1      -6.330  21.588  -9.303  1.00  0.00     0.021 A 
ATOM      2  C   UNL     1      -6.766  22.722 -10.018  1.00  0.00     0.062 A 
ATOM      3  C   UNL     1      -8.137  22.930 -10.278  1.00  0.00     0.161 A 
ATOM      4  C   UNL     1      -9.075  21.991  -9.817  1.00  0.00     0.157 A 
ATOM      5  C   UNL     1      -8.646  20.866  -9.108  1.00  0.00     0.051 A 
ATOM      6  C   UNL     1      -7.290  20.664  -8.852  1.00  0.00     0.016 A 
ENDROOT
BRANCH   1   7
ATOM      7  C   UNL     1      -4.887  21.357  -9.020  1.00  0.00     0.159 C 
ATOM      8  C   UNL     1      -4.358  20.006  -8.641  1.00  0.00     0.093 C 
ATOM      9  O   UNL     1      -4.073  22.317  -9.097  1.00  0.00    -0.295 OA
ENDBRANCH   1   7
BRANCH   3  10
ATOM     10  O   UNL     1      -8.597  24.051 -10.988  1.00  0.00    -0.493 OA
ATOM     11  C   UNL     1      -8.582  25.386 -10.491  1.00  0.00     0.278 C 
ENDBRANCH   3  10
BRANCH   4  12
ATOM     12  O   UNL     1     -10.439  22.158 -10.052  1.00  0.00    -0.504 OA
ATOM     13  H   UNL     1     -10.907  21.732 -10.845  1.00  0.00     0.293 HD
ENDBRANCH   4  12
TORSDOF 3
ENDMDL
MODEL 4
REMARK VINA RESULT:    -4.086      2.365      3.683
REMARK INTER + INTRA:          -4.791
REMARK INTER:                  -4.693
REMARK INTRA:                  -0.099
REMARK UNBOUND:                -0.108
REMARK SMILES COc1cc(C(C)=O)ccc1O
REMARK SMILES IDX 5 1 4 2 3 3 11 4 10 5 9 6 6 7 7 8 8 9 2 10 1 11 12 12
REMARK H PARENT 12 13
REMARK Flexibility Score: inf
ROOT
ATOM      1  C   UNL     1      -7.823  21.154  -8.494  1.00  0.00     0.021 A 
ATOM      2  C   UNL     1      -7.437  21.259  -7.142  1.00  0.00     0.062 A 
ATOM      3  C   UNL     1      -8.383  21.564  -6.141  1.00  0.00     0.161 A 
ATOM      4  C   UNL     1      -9.727  21.766  -6.503  1.00  0.00     0.157 A 
ATOM      5  C   UNL     1     -10.112  21.663  -7.841  1.00  0.00     0.051 A 
ATOM      6  C   UNL     1      -9.174  21.360  -8.828  1.00  0.00     0.016 A 
ENDROOT
BRANCH   1   7
ATOM      7  C   UNL     1      -6.835  20.832  -9.560  1.00  0.00     0.159 C 
ATOM      8  C   UNL     1      -6.405  21.845 -10.577  1.00  0.00     0.093 C 
ATOM      9  O   UNL     1      -6.337  19.675  -9.621  1.00  0.00    -0.295 OA
ENDBRANCH   1   7
BRANCH   3  10
ATOM     10  O   UNL     1      -8.025  21.675  -4.788  1.00  0.00    -0.493 OA
ATOM     11  C   UNL     1      -6.686  21.748  -4.308  1.00  0.00     0.278 C 
ENDBRANCH   3  10
BRANCH   4  12
ATOM     12  O   UNL     1     -10.694  22.069  -5.546  1.00  0.00    -0.504 OA
ATOM     13  H   UNL     1     -10.924  23.024  -5.293  1.00  0.00     0.293 HD
ENDBRANCH   4  12
TORSDOF 3
ENDMDL
MODEL 5
REMARK VINA RESULT:    -4.015      1.740      4.666
REMARK INTER + INTRA:          -4.709
REMARK INTER:                  -4.596
REMARK INTRA:                  -0.114
REMARK UNBOUND:                -0.108
REMARK SMILES COc1cc(C(C)=O)ccc1O
REMARK SMILES IDX 5 1 4 2 3 3 11 4 10 5 9 6 6 7 7 8 8 9 2 10 1 11 12 12
REMARK H PARENT 12 13
REMARK Flexibility Score: inf
ROOT
ATOM      1  C   UNL     1      -7.688  21.092  -8.346  1.00  0.00     0.021 A 
ATOM      2  C   UNL     1      -6.968  21.470  -7.194  1.00  0.00     0.062 A 
ATOM      3  C   UNL     1      -5.592  21.183  -7.075  1.00  0.00     0.161 A 
ATOM      4  C   UNL     1      -4.936  20.511  -8.120  1.00  0.00     0.157 A 
ATOM      5  C   UNL     1      -5.647  20.134  -9.263  1.00  0.00     0.051 A 
ATOM      6  C   UNL     1      -7.007  20.421  -9.378  1.00  0.00     0.016 A 
ENDROOT
BRANCH   1   7
ATOM      7  C   UNL     1      -9.140  21.391  -8.485  1.00  0.00     0.159 C 
ATOM      8  C   UNL     1     -10.012  21.660  -7.296  1.00  0.00     0.093 C 
ATOM      9  O   UNL     1      -9.665  21.419  -9.631  1.00  0.00    -0.295 OA
ENDBRANCH   1   7
BRANCH   3  10
ATOM     10  O   UNL     1      -4.852  21.548  -5.938  1.00  0.00    -0.493 OA
ATOM     11  C   UNL     1      -4.792  20.791  -4.733  1.00  0.00     0.278 C 
ENDBRANCH   3  10
BRANCH   4  12
ATOM     12  O   UNL     1      -3.577  20.207  -8.043  1.00  0.00    -0.504 OA
ATOM     13  H   UNL     1      -2.892  20.876  -7.713  1.00  0.00     0.293 HD
ENDBRANCH   4  12
TORSDOF 3
ENDMDL
MODEL 6
REMARK VINA RESULT:    -3.990      2.837      4.564
REMARK INTER + INTRA:          -4.681
REMARK INTER:                  -4.542
REMARK INTRA:                  -0.139
REMARK UNBOUND:                -0.108
REMARK SMILES COc1cc(C(C)=O)ccc1O
REMARK SMILES IDX 5 1 4 2 3 3 11 4 10 5 9 6 6 7 7 8 8 9 2 10 1 11 12 12
REMARK H PARENT 12 13
REMARK Flexibility Score: inf
ROOT
ATOM      1  C   UNL     1      -8.946  24.293  -9.778  1.00  0.00     0.021 A 
ATOM      2  C   UNL     1      -9.688  23.701  -8.736  1.00  0.00     0.062 A 
ATOM      3  C   UNL     1      -9.576  22.321  -8.462  1.00  0.00     0.161 A 
ATOM      4  C   UNL     1      -8.713  21.533  -9.243  1.00  0.00     0.157 A 
ATOM      5  C   UNL     1      -7.977  22.118 -10.276  1.00  0.00     0.051 A 
ATOM      6  C   UNL     1      -8.089  23.483 -10.543  1.00  0.00     0.016 A 
ENDROOT
BRANCH   1   7
ATOM      7  C   UNL     1      -9.055  25.748 -10.076  1.00  0.00     0.159 C 
ATOM      8  C   UNL     1      -8.140  26.429 -11.050  1.00  0.00     0.093 C 
ATOM      9  O   UNL     1      -9.936  26.441  -9.499  1.00  0.00    -0.295 OA
ENDBRANCH   1   7
BRANCH   3  10
ATOM     10  O   UNL     1     -10.304  21.706  -7.431  1.00  0.00    -0.493 OA
ATOM     11  C   UNL     1      -9.936  21.730  -6.055  1.00  0.00     0.278 C 
ENDBRANCH   3  10
BRANCH   4  12
ATOM     12  O   UNL     1      -8.572  20.166  -9.006  1.00  0.00    -0.504 OA
ATOM     13  H   UNL     1      -8.223  19.529  -9.713  1.00  0.00     0.293 HD
ENDBRANCH   4  12
TORSDOF 3
ENDMDL
MODEL 7
REMARK VINA RESULT:    -3.985      1.498      4.962
REMARK INTER + INTRA:          -4.675
REMARK INTER:                  -4.567
REMARK INTRA:                  -0.108
REMARK UNBOUND:                -0.108
REMARK SMILES COc1cc(C(C)=O)ccc1O
REMARK SMILES IDX 5 1 4 2 3 3 11 4 10 5 9 6 6 7 7 8 8 9 2 10 1 11 12 12
REMARK H PARENT 12 13
REMARK Flexibility Score: inf
ROOT
ATOM      1  C   UNL     1      -7.161  21.594  -9.598  1.00  0.00     0.021 A 
ATOM      2  C   UNL     1      -6.090  22.472  -9.333  1.00  0.00     0.062 A 
ATOM      3  C   UNL     1      -4.827  21.975  -8.948  1.00  0.00     0.161 A 
ATOM      4  C   UNL     1      -4.641  20.588  -8.827  1.00  0.00     0.157 A 
ATOM      5  C   UNL     1      -5.700  19.715  -9.088  1.00  0.00     0.051 A 
ATOM      6  C   UNL     1      -6.948  20.210  -9.470  1.00  0.00     0.016 A 
ENDROOT
BRANCH   1   7
ATOM      7  C   UNL     1      -8.499  22.105 -10.007  1.00  0.00     0.159 C 
ATOM      8  C   UNL     1      -8.655  23.332 -10.854  1.00  0.00     0.093 C 
ATOM      9  O   UNL     1      -9.540  21.499  -9.634  1.00  0.00    -0.295 OA
ENDBRANCH   1   7
BRANCH   3  10
ATOM     10  O   UNL     1      -3.743  22.827  -8.678  1.00  0.00    -0.493 OA
ATOM     11  C   UNL     1      -2.833  23.314  -9.659  1.00  0.00     0.278 C 
ENDBRANCH   3  10
BRANCH   4  12
ATOM     12  O   UNL     1      -3.409  20.055  -8.449  1.00  0.00    -0.504 OA
ATOM     13  H   UNL     1      -2.985  19.274  -8.936  1.00  0.00     0.293 HD
ENDBRANCH   4  12
TORSDOF 3
ENDMDL
MODEL 8
REMARK VINA RESULT:    -3.956      2.046      3.927
REMARK INTER + INTRA:          -4.642
REMARK INTER:                  -4.514
REMARK INTRA:                  -0.127
REMARK UNBOUND:                -0.108
REMARK SMILES COc1cc(C(C)=O)ccc1O
REMARK SMILES IDX 5 1 4 2 3 3 11 4 10 5 9 6 6 7 7 8 8 9 2 10 1 11 12 12
REMARK H PARENT 12 13
REMARK Flexibility Score: inf
ROOT
ATOM      1  C   UNL     1      -7.559  23.835 -10.181  1.00  0.00     0.021 A 
ATOM      2  C   UNL     1      -8.600  23.238  -9.440  1.00  0.00     0.062 A 
ATOM      3  C   UNL     1      -8.544  21.874  -9.084  1.00  0.00     0.161 A 
ATOM      4  C   UNL     1      -7.435  21.106  -9.477  1.00  0.00     0.157 A 
ATOM      5  C   UNL     1      -6.402  21.694 -10.211  1.00  0.00     0.051 A 
ATOM      6  C   UNL     1      -6.460  23.044 -10.560  1.00  0.00     0.016 A 
ENDROOT
BRANCH   1   7
ATOM      7  C   UNL     1      -7.604  25.274 -10.561  1.00  0.00     0.159 C 
ATOM      8  C   UNL     1      -6.373  26.129 -10.581  1.00  0.00     0.093 C 
ATOM      9  O   UNL     1      -8.705  25.802 -10.878  1.00  0.00    -0.295 OA
ENDBRANCH   1   7
BRANCH   3  10
ATOM     10  O   UNL     1      -9.567  21.256  -8.348  1.00  0.00    -0.493 OA
ATOM     11  C   UNL     1      -9.917  21.591  -7.008  1.00  0.00     0.278 C 
ENDBRANCH   3  10
BRANCH   4  12
ATOM     12  O   UNL     1      -7.340  19.754  -9.147  1.00  0.00    -0.504 OA
ATOM     13  H   UNL     1      -6.467  19.329  -8.855  1.00  0.00     0.293 HD
ENDBRANCH   4  12
TORSDOF 3
ENDMDL
MODEL 9
REMARK VINA RESULT:    -3.928      2.014      4.590
REMARK INTER + INTRA:          -4.610
REMARK INTER:                  -4.486
REMARK INTRA:                  -0.124
REMARK UNBOUND:                -0.108
REMARK SMILES COc1cc(C(C)=O)ccc1O
REMARK SMILES IDX 5 1 4 2 3 3 11 4 10 5 9 6 6 7 7 8 8 9 2 10 1 11 12 12
REMARK H PARENT 12 13
REMARK Flexibility Score: inf
ROOT
ATOM      1  C   UNL     1      -9.513  22.729  -7.068  1.00  0.00     0.021 A 
ATOM      2  C   UNL     1      -8.788  21.604  -7.513  1.00  0.00     0.062 A 
ATOM      3  C   UNL     1      -8.454  21.452  -8.875  1.00  0.00     0.161 A 
ATOM      4  C   UNL     1      -8.852  22.437  -9.795  1.00  0.00     0.157 A 
ATOM      5  C   UNL     1      -9.571  23.552  -9.358  1.00  0.00     0.051 A 
ATOM      6  C   UNL     1      -9.899  23.700  -8.009  1.00  0.00     0.016 A 
ENDROOT
BRANCH   1   7
ATOM      7  C   UNL     1      -9.871  22.902  -5.633  1.00  0.00     0.159 C 
ATOM      8  C   UNL     1      -9.997  24.258  -5.005  1.00  0.00     0.093 C 
ATOM      9  O   UNL     1     -10.075  21.888  -4.913  1.00  0.00    -0.295 OA
ENDBRANCH   1   7
BRANCH   3  10
ATOM     10  O   UNL     1      -7.733  20.342  -9.344  1.00  0.00    -0.493 OA
ATOM     11  C   UNL     1      -6.312  20.268  -9.409  1.00  0.00     0.278 C 
ENDBRANCH   3  10
BRANCH   4  12
ATOM     12  O   UNL     1      -8.543  22.325 -11.150  1.00  0.00    -0.504 OA
ATOM     13  H   UNL     1      -9.099  22.773 -11.870  1.00  0.00     0.293 HD
ENDBRANCH   4  12
TORSDOF 3
ENDMDL
