MODEL 1
REMARK VINA RESULT:    -5.082      0.000      0.000
REMARK INTER + INTRA:          -5.230
REMARK INTER:                  -5.230
REMARK INTRA:                   0.000
REMARK UNBOUND:                 0.000
REMARK SMILES Nc1ncnc2nc[nH]c12
REMARK SMILES IDX 8 1 7 2 6 3 5 4 4 5 3 6 2 7 10 8 9 9 1 11
REMARK H PARENT 9 10 1 12 1 13
REMARK Flexibility Score: inf
ROOT
ATOM      1  C   UNL     1      20.067  31.111  34.033  1.00  0.00     0.199 A 
ATOM      2  N   UNL     1      21.272  30.591  33.670  1.00  0.00    -0.217 NA
ATOM      3  C   UNL     1      21.043  29.269  33.737  1.00  0.00     0.182 A 
ATOM      4  N   UNL     1      21.930  28.281  33.468  1.00  0.00    -0.215 NA
ATOM      5  C   UNL     1      21.511  26.986  33.594  1.00  0.00     0.226 A 
ATOM      6  N   UNL     1      20.225  26.705  33.981  1.00  0.00    -0.217 NA
ATOM      7  C   UNL     1      19.329  27.700  34.252  1.00  0.00     0.152 A 
ATOM      8  C   UNL     1      19.771  29.013  34.121  1.00  0.00     0.127 A 
ATOM      9  N   UNL     1      19.130  30.172  34.315  1.00  0.00    -0.340 N 
ATOM     10  H   UNL     1      18.141  30.329  34.613  1.00  0.00     0.168 HD
ENDROOT
BRANCH   7  11
ATOM     11  N   UNL     1      17.996  27.384  34.654  1.00  0.00    -0.382 N 
ATOM     12  H   UNL     1      17.184  27.800  34.145  1.00  0.00     0.158 HD
ATOM     13  H   UNL     1      17.807  26.739  35.453  1.00  0.00     0.158 HD
ENDBRANCH   7  11
TORSDOF 1
ENDMDL
MODEL 2
REMARK VINA RESULT:    -4.986      1.465      4.016
REMARK INTER + INTRA:          -5.132
REMARK INTER:                  -5.132
REMARK INTRA:                   0.000
REMARK UNBOUND:                 0.000
REMARK SMILES Nc1ncnc2nc[nH]c12
REMARK SMILES IDX 8 1 7 2 6 3 5 4 4 5 3 6 2 7 10 8 9 9 1 11
REMARK H PARENT 9 10 1 12 1 13
REMARK Flexibility Score: inf
ROOT
ATOM      1  C   UNL     1      20.842  26.096  33.397  1.00  0.00     0.199 A 
ATOM      2  N   UNL     1      19.894  27.066  33.511  1.00  0.00    -0.217 NA
ATOM      3  C   UNL     1      20.637  28.175  33.653  1.00  0.00     0.182 A 
ATOM      4  N   UNL     1      20.180  29.441  33.806  1.00  0.00    -0.215 NA
ATOM      5  C   UNL     1      21.096  30.448  33.937  1.00  0.00     0.226 A 
ATOM      6  N   UNL     1      22.441  30.173  33.911  1.00  0.00    -0.217 NA
ATOM      7  C   UNL     1      22.904  28.897  33.757  1.00  0.00     0.152 A 
ATOM      8  C   UNL     1      21.959  27.884  33.626  1.00  0.00     0.127 A 
ATOM      9  N   UNL     1      22.114  26.564  33.463  1.00  0.00    -0.340 N 
ATOM     10  H   UNL     1      22.998  26.013  33.400  1.00  0.00     0.168 HD
ENDROOT
BRANCH   7  11
ATOM     11  N   UNL     1      24.308  28.635  33.734  1.00  0.00    -0.382 N 
ATOM     12  H   UNL     1      24.924  29.149  33.065  1.00  0.00     0.158 HD
ATOM     13  H   UNL     1      24.741  27.935  34.375  1.00  0.00     0.158 HD
ENDBRANCH   7  11
TORSDOF 1
ENDMDL
MODEL 3
REMARK VINA RESULT:    -4.924      1.006      2.953
REMARK INTER + INTRA:          -5.068
REMARK INTER:                  -5.068
REMARK INTRA:                   0.000
REMARK UNBOUND:                 0.000
REMARK SMILES Nc1ncnc2nc[nH]c12
REMARK SMILES IDX 8 1 7 2 6 3 5 4 4 5 3 6 2 7 10 8 9 9 1 11
REMARK H PARENT 9 10 1 12 1 13
REMARK Flexibility Score: inf
ROOT
ATOM      1  C   UNL     1      18.653  27.249  34.259  1.00  0.00     0.199 A 
ATOM      2  N   UNL     1      19.885  26.749  33.967  1.00  0.00    -0.217 NA
ATOM      3  C   UNL     1      20.634  27.862  33.896  1.00  0.00     0.182 A 
ATOM      4  N   UNL     1      21.961  27.928  33.627  1.00  0.00    -0.215 NA
ATOM      5  C   UNL     1      22.552  29.161  33.595  1.00  0.00     0.226 A 
ATOM      6  N   UNL     1      21.815  30.293  33.832  1.00  0.00    -0.217 NA
ATOM      7  C   UNL     1      20.477  30.228  34.103  1.00  0.00     0.152 A 
ATOM      8  C   UNL     1      19.889  28.968  34.131  1.00  0.00     0.127 A 
ATOM      9  N   UNL     1      18.623  28.601  34.365  1.00  0.00    -0.340 N 
ATOM     10  H   UNL     1      17.799  29.204  34.580  1.00  0.00     0.168 HD
ENDROOT
BRANCH   7  11
ATOM     11  N   UNL     1      19.729  31.421  34.345  1.00  0.00    -0.382 N 
ATOM     12  H   UNL     1      18.870  31.621  33.786  1.00  0.00     0.158 HD
ATOM     13  H   UNL     1      20.021  32.107  35.075  1.00  0.00     0.158 HD
ENDBRANCH   7  11
TORSDOF 1
ENDMDL
MODEL 4
REMARK VINA RESULT:    -4.801      2.062      4.522
REMARK INTER + INTRA:          -4.942
REMARK INTER:                  -4.942
REMARK INTRA:                   0.000
REMARK UNBOUND:                 0.000
REMARK SMILES Nc1ncnc2nc[nH]c12
REMARK SMILES IDX 8 1 7 2 6 3 5 4 4 5 3 6 2 7 10 8 9 9 1 11
REMARK H PARENT 9 10 1 12 1 13
REMARK Flexibility Score: inf
ROOT
ATOM      1  C   UNL     1      23.886  25.969  34.431  1.00  0.00     0.199 A 
ATOM      2  N   UNL     1      22.542  25.879  34.232  1.00  0.00    -0.217 NA
ATOM      3  C   UNL     1      22.202  27.160  34.010  1.00  0.00     0.182 A 
ATOM      4  N   UNL     1      20.959  27.633  33.752  1.00  0.00    -0.215 NA
ATOM      5  C   UNL     1      20.808  28.977  33.552  1.00  0.00     0.226 A 
ATOM      6  N   UNL     1      21.893  29.816  33.611  1.00  0.00    -0.217 NA
ATOM      7  C   UNL     1      23.147  29.340  33.871  1.00  0.00     0.152 A 
ATOM      8  C   UNL     1      23.284  27.970  34.073  1.00  0.00     0.127 A 
ATOM      9  N   UNL     1      24.369  27.233  34.340  1.00  0.00    -0.340 N 
ATOM     10  H   UNL     1      25.359  27.546  34.454  1.00  0.00     0.168 HD
ENDROOT
BRANCH   7  11
ATOM     11  N   UNL     1      24.262  30.232  33.928  1.00  0.00    -0.382 N 
ATOM     12  H   UNL     1      25.217  29.890  33.682  1.00  0.00     0.158 HD
ATOM     13  H   UNL     1      24.146  31.229  34.213  1.00  0.00     0.158 HD
ENDBRANCH   7  11
TORSDOF 1
ENDMDL
MODEL 5
REMARK VINA RESULT:    -4.592      1.865      3.298
REMARK INTER + INTRA:          -4.726
REMARK INTER:                  -4.726
REMARK INTRA:                   0.000
REMARK UNBOUND:                 0.000
REMARK SMILES Nc1ncnc2nc[nH]c12
REMARK SMILES IDX 8 1 7 2 6 3 5 4 4 5 3 6 2 7 10 8 9 9 1 11
REMARK H PARENT 9 10 1 12 1 13
REMARK Flexibility Score: inf
ROOT
ATOM      1  C   UNL     1      24.229  29.116  33.835  1.00  0.00     0.199 A 
ATOM      2  N   UNL     1      23.041  29.753  33.648  1.00  0.00    -0.217 NA
ATOM      3  C   UNL     1      22.157  28.750  33.772  1.00  0.00     0.182 A 
ATOM      4  N   UNL     1      20.809  28.842  33.671  1.00  0.00    -0.215 NA
ATOM      5  C   UNL     1      20.070  27.702  33.828  1.00  0.00     0.226 A 
ATOM      6  N   UNL     1      20.686  26.502  34.080  1.00  0.00    -0.217 NA
ATOM      7  C   UNL     1      22.046  26.407  34.181  1.00  0.00     0.152 A 
ATOM      8  C   UNL     1      22.783  27.576  34.019  1.00  0.00     0.127 A 
ATOM      9  N   UNL     1      24.105  27.785  34.065  1.00  0.00    -0.340 N 
ATOM     10  H   UNL     1      24.870  27.095  34.235  1.00  0.00     0.168 HD
ENDROOT
BRANCH   7  11
ATOM     11  N   UNL     1      22.665  25.147  34.444  1.00  0.00    -0.382 N 
ATOM     12  H   UNL     1      23.687  25.102  34.654  1.00  0.00     0.158 HD
ATOM     13  H   UNL     1      22.118  24.259  34.432  1.00  0.00     0.158 HD
ENDBRANCH   7  11
TORSDOF 1
ENDMDL
MODEL 6
REMARK VINA RESULT:    -4.544      1.122      2.742
REMARK INTER + INTRA:          -4.677
REMARK INTER:                  -4.677
REMARK INTRA:                   0.000
REMARK UNBOUND:                 0.000
REMARK SMILES Nc1ncnc2nc[nH]c12
REMARK SMILES IDX 8 1 7 2 6 3 5 4 4 5 3 6 2 7 10 8 9 9 1 11
REMARK H PARENT 9 10 1 12 1 13
REMARK Flexibility Score: inf
ROOT
ATOM      1  C   UNL     1      20.418  31.007  33.748  1.00  0.00     0.199 A 
ATOM      2  N   UNL     1      19.532  29.989  33.928  1.00  0.00    -0.217 NA
ATOM      3  C   UNL     1      20.337  28.913  33.954  1.00  0.00     0.182 A 
ATOM      4  N   UNL     1      19.957  27.623  34.112  1.00  0.00    -0.215 NA
ATOM      5  C   UNL     1      20.927  26.659  34.110  1.00  0.00     0.226 A 
ATOM      6  N   UNL     1      22.247  27.000  33.953  1.00  0.00    -0.217 NA
ATOM      7  C   UNL     1      22.632  28.302  33.793  1.00  0.00     0.152 A 
ATOM      8  C   UNL     1      21.633  29.270  33.796  1.00  0.00     0.127 A 
ATOM      9  N   UNL     1      21.709  30.600  33.663  1.00  0.00    -0.340 N 
ATOM     10  H   UNL     1      22.556  31.195  33.527  1.00  0.00     0.168 HD
ENDROOT
BRANCH   7  11
ATOM     11  N   UNL     1      24.012  28.633  33.630  1.00  0.00    -0.382 N 
ATOM     12  H   UNL     1      24.486  29.250  34.326  1.00  0.00     0.158 HD
ATOM     13  H   UNL     1      24.566  28.271  32.824  1.00  0.00     0.158 HD
ENDBRANCH   7  11
TORSDOF 1
ENDMDL
MODEL 7
REMARK VINA RESULT:    -4.478      2.019      4.001
REMARK INTER + INTRA:          -4.609
REMARK INTER:                  -4.609
REMARK INTRA:                   0.000
REMARK UNBOUND:                 0.000
REMARK SMILES Nc1ncnc2nc[nH]c12
REMARK SMILES IDX 8 1 7 2 6 3 5 4 4 5 3 6 2 7 10 8 9 9 1 11
REMARK H PARENT 9 10 1 12 1 13
REMARK Flexibility Score: inf
ROOT
ATOM      1  C   UNL     1      23.514  25.024  34.932  1.00  0.00     0.199 A 
ATOM      2  N   UNL     1      24.308  26.119  34.779  1.00  0.00    -0.217 NA
ATOM      3  C   UNL     1      23.436  27.044  34.344  1.00  0.00     0.182 A 
ATOM      4  N   UNL     1      23.712  28.333  34.033  1.00  0.00    -0.215 NA
ATOM      5  C   UNL     1      22.686  29.128  33.604  1.00  0.00     0.226 A 
ATOM      6  N   UNL     1      21.414  28.625  33.496  1.00  0.00    -0.217 NA
ATOM      7  C   UNL     1      21.133  27.325  33.809  1.00  0.00     0.152 A 
ATOM      8  C   UNL     1      22.188  26.528  34.243  1.00  0.00     0.127 A 
ATOM      9  N   UNL     1      22.214  25.242  34.613  1.00  0.00    -0.340 N 
ATOM     10  H   UNL     1      21.426  24.558  34.652  1.00  0.00     0.168 HD
ENDROOT
BRANCH   7  11
ATOM     11  N   UNL     1      19.802  26.823  33.687  1.00  0.00    -0.382 N 
ATOM     12  H   UNL     1      19.350  26.763  32.747  1.00  0.00     0.158 HD
ATOM     13  H   UNL     1      19.260  26.510  34.522  1.00  0.00     0.158 HD
ENDBRANCH   7  11
TORSDOF 1
ENDMDL
MODEL 8
REMARK VINA RESULT:    -4.471      2.884      4.604
REMARK INTER + INTRA:          -4.601
REMARK INTER:                  -4.601
REMARK INTRA:                   0.000
REMARK UNBOUND:                 0.000
REMARK SMILES Nc1ncnc2nc[nH]c12
REMARK SMILES IDX 8 1 7 2 6 3 5 4 4 5 3 6 2 7 10 8 9 9 1 11
REMARK H PARENT 9 10 1 12 1 13
REMARK Flexibility Score: inf
ROOT
ATOM      1  C   UNL     1      22.921  28.707  33.696  1.00  0.00     0.199 A 
ATOM      2  N   UNL     1      21.828  27.942  33.968  1.00  0.00    -0.217 NA
ATOM      3  C   UNL     1      22.383  26.787  34.371  1.00  0.00     0.182 A 
ATOM      4  N   UNL     1      21.726  25.669  34.765  1.00  0.00    -0.215 NA
ATOM      5  C   UNL     1      22.468  24.584  35.142  1.00  0.00     0.226 A 
ATOM      6  N   UNL     1      23.839  24.636  35.120  1.00  0.00    -0.217 NA
ATOM      7  C   UNL     1      24.502  25.763  34.723  1.00  0.00     0.152 A 
ATOM      8  C   UNL     1      23.734  26.858  34.341  1.00  0.00     0.127 A 
ATOM      9  N   UNL     1      24.100  28.073  33.915  1.00  0.00    -0.340 N 
ATOM     10  H   UNL     1      25.063  28.454  33.779  1.00  0.00     0.168 HD
ENDROOT
BRANCH   7  11
ATOM     11  N   UNL     1      25.930  25.793  34.707  1.00  0.00    -0.382 N 
ATOM     12  H   UNL     1      26.434  26.702  34.817  1.00  0.00     0.158 HD
ATOM     13  H   UNL     1      26.492  24.922  34.587  1.00  0.00     0.158 HD
ENDBRANCH   7  11
TORSDOF 1
ENDMDL
MODEL 9
REMARK VINA RESULT:    -4.237      1.720      2.091
REMARK INTER + INTRA:          -4.361
REMARK INTER:                  -4.361
REMARK INTRA:                   0.000
REMARK UNBOUND:                 0.000
REMARK SMILES Nc1ncnc2nc[nH]c12
REMARK SMILES IDX 8 1 7 2 6 3 5 4 4 5 3 6 2 7 10 8 9 9 1 11
REMARK H PARENT 9 10 1 12 1 13
REMARK Flexibility Score: inf
ROOT
ATOM      1  C   UNL     1      21.917  30.073  33.661  1.00  0.00     0.199 A 
ATOM      2  N   UNL     1      23.088  29.479  34.020  1.00  0.00    -0.217 NA
ATOM      3  C   UNL     1      22.759  28.176  34.016  1.00  0.00     0.182 A 
ATOM      4  N   UNL     1      23.575  27.135  34.308  1.00  0.00    -0.215 NA
ATOM      5  C   UNL     1      23.056  25.871  34.249  1.00  0.00     0.226 A 
ATOM      6  N   UNL     1      21.743  25.673  33.902  1.00  0.00    -0.217 NA
ATOM      7  C   UNL     1      20.919  26.722  33.608  1.00  0.00     0.152 A 
ATOM      8  C   UNL     1      21.461  28.002  33.672  1.00  0.00     0.127 A 
ATOM      9  N   UNL     1      20.905  29.197  33.441  1.00  0.00    -0.340 N 
ATOM     10  H   UNL     1      19.924  29.416  33.157  1.00  0.00     0.168 HD
ENDROOT
BRANCH   7  11
ATOM     11  N   UNL     1      19.555  26.492  33.250  1.00  0.00    -0.382 N 
ATOM     12  H   UNL     1      18.799  26.630  33.957  1.00  0.00     0.158 HD
ATOM     13  H   UNL     1      19.290  26.186  32.289  1.00  0.00     0.158 HD
ENDBRANCH   7  11
TORSDOF 1
ENDMDL
