MODEL 1
REMARK VINA RESULT:    -5.844      0.000      0.000
REMARK INTER + INTRA:          -6.764
REMARK INTER:                  -6.527
REMARK INTRA:                  -0.237
REMARK UNBOUND:                -0.237
REMARK SMILES C=CCc1ccc2c(c1)OCO2
REMARK SMILES IDX 3 1 2 2 1 3 4 4 9 5 5 6 8 7 6 8 7 9 10 10 12 11 11 12
REMARK H PARENT
REMARK Flexibility Score: inf
ROOT
ATOM      1  C   UNL     1      10.632  19.921  -1.771  1.00  0.00     0.062 C 
ENDROOT
BRANCH   1   2
ATOM      2  C   UNL     1       9.573  19.875  -2.836  1.00  0.00    -0.030 C 
ATOM      3  C   UNL     1       9.877  19.967  -4.134  1.00  0.00     0.004 C 
ENDBRANCH   1   2
BRANCH   1   4
ATOM      4  C   UNL     1      11.073  21.338  -1.518  1.00  0.00    -0.040 A 
ATOM      5  C   UNL     1      12.389  21.737  -1.843  1.00  0.00     0.054 A 
ATOM      6  C   UNL     1      10.160  22.289  -0.994  1.00  0.00     0.008 A 
ATOM      7  C   UNL     1      12.743  23.064  -1.619  1.00  0.00     0.166 A 
ATOM      8  C   UNL     1      10.560  23.621  -0.782  1.00  0.00     0.051 A 
ATOM      9  C   UNL     1      11.867  23.967  -1.109  1.00  0.00     0.165 A 
ATOM     10  O   UNL     1      13.958  23.681  -1.851  1.00  0.00    -0.454 OA
ATOM     11  O   UNL     1      12.487  25.196  -0.995  1.00  0.00    -0.454 OA
ATOM     12  C   UNL     1      13.836  25.058  -1.463  1.00  0.00     0.468 C 
ENDBRANCH   1   4
TORSDOF 2
ENDMDL
MODEL 2
REMARK VINA RESULT:    -5.460      2.447      4.655
REMARK INTER + INTRA:          -6.335
REMARK INTER:                  -6.165
REMARK INTRA:                  -0.170
REMARK UNBOUND:                -0.237
REMARK SMILES C=CCc1ccc2c(c1)OCO2
REMARK SMILES IDX 3 1 2 2 1 3 4 4 9 5 5 6 8 7 6 8 7 9 10 10 12 11 11 12
REMARK H PARENT
REMARK Flexibility Score: inf
ROOT
ATOM      1  C   UNL     1      13.364  22.943  -0.656  1.00  0.00     0.062 C 
ENDROOT
BRANCH   1   2
ATOM      2  C   UNL     1      13.978  24.018  -1.509  1.00  0.00    -0.030 C 
ATOM      3  C   UNL     1      13.637  25.303  -1.373  1.00  0.00     0.004 C 
ENDBRANCH   1   2
BRANCH   1   4
ATOM      4  C   UNL     1      12.354  22.150  -1.442  1.00  0.00    -0.040 A 
ATOM      5  C   UNL     1      12.408  22.142  -2.854  1.00  0.00     0.054 A 
ATOM      6  C   UNL     1      11.374  21.374  -0.771  1.00  0.00     0.008 A 
ATOM      7  C   UNL     1      11.472  21.371  -3.538  1.00  0.00     0.166 A 
ATOM      8  C   UNL     1      10.447  20.610  -1.502  1.00  0.00     0.051 A 
ATOM      9  C   UNL     1      10.531  20.638  -2.891  1.00  0.00     0.165 A 
ATOM     10  O   UNL     1      11.323  21.210  -4.903  1.00  0.00    -0.454 OA
ATOM     11  O   UNL     1       9.745  19.979  -3.815  1.00  0.00    -0.454 OA
ATOM     12  C   UNL     1      10.221  20.318  -5.125  1.00  0.00     0.468 C 
ENDBRANCH   1   4
TORSDOF 2
ENDMDL
MODEL 3
REMARK VINA RESULT:    -4.619      2.648      4.543
REMARK INTER + INTRA:          -5.395
REMARK INTER:                  -5.408
REMARK INTRA:                   0.013
REMARK UNBOUND:                -0.237
REMARK SMILES C=CCc1ccc2c(c1)OCO2
REMARK SMILES IDX 3 1 2 2 1 3 4 4 9 5 5 6 8 7 6 8 7 9 10 10 12 11 11 12
REMARK H PARENT
REMARK Flexibility Score: inf
ROOT
ATOM      1  C   UNL     1      11.744  22.436   0.316  1.00  0.00     0.062 C 
ENDROOT
BRANCH   1   2
ATOM      2  C   UNL     1      10.986  23.718   0.518  1.00  0.00    -0.030 C 
ATOM      3  C   UNL     1       9.894  24.008  -0.195  1.00  0.00     0.004 C 
ENDBRANCH   1   2
BRANCH   1   4
ATOM      4  C   UNL     1      11.685  22.002  -1.124  1.00  0.00    -0.040 A 
ATOM      5  C   UNL     1      10.672  21.115  -1.553  1.00  0.00     0.054 A 
ATOM      6  C   UNL     1      12.616  22.514  -2.064  1.00  0.00     0.008 A 
ATOM      7  C   UNL     1      10.640  20.764  -2.900  1.00  0.00     0.166 A 
ATOM      8  C   UNL     1      12.547  22.133  -3.416  1.00  0.00     0.051 A 
ATOM      9  C   UNL     1      11.539  21.251  -3.793  1.00  0.00     0.165 A 
ATOM     10  O   UNL     1       9.759  19.920  -3.548  1.00  0.00    -0.454 OA
ATOM     11  O   UNL     1      11.268  20.737  -5.046  1.00  0.00    -0.454 OA
ATOM     12  C   UNL     1      10.127  19.875  -4.934  1.00  0.00     0.468 C 
ENDBRANCH   1   4
TORSDOF 2
ENDMDL
MODEL 4
REMARK VINA RESULT:    -3.912      2.641      4.369
REMARK INTER + INTRA:          -4.606
REMARK INTER:                  -4.450
REMARK INTRA:                  -0.155
REMARK UNBOUND:                -0.237
REMARK SMILES C=CCc1ccc2c(c1)OCO2
REMARK SMILES IDX 3 1 2 2 1 3 4 4 9 5 5 6 8 7 6 8 7 9 10 10 12 11 11 12
REMARK H PARENT
REMARK Flexibility Score: inf
ROOT
ATOM      1  C   UNL     1      12.508  25.365  -2.950  1.00  0.00     0.062 C 
ENDROOT
BRANCH   1   2
ATOM      2  C   UNL     1      12.289  25.133  -4.419  1.00  0.00    -0.030 C 
ATOM      3  C   UNL     1      11.424  25.868  -5.125  1.00  0.00     0.004 C 
ENDBRANCH   1   2
BRANCH   1   4
ATOM      4  C   UNL     1      12.276  24.099  -2.170  1.00  0.00    -0.040 A 
ATOM      5  C   UNL     1      11.428  23.095  -2.689  1.00  0.00     0.054 A 
ATOM      6  C   UNL     1      12.940  23.888  -0.933  1.00  0.00     0.008 A 
ATOM      7  C   UNL     1      11.266  21.929  -1.946  1.00  0.00     0.166 A 
ATOM      8  C   UNL     1      12.747  22.695  -0.214  1.00  0.00     0.051 A 
ATOM      9  C   UNL     1      11.897  21.738  -0.759  1.00  0.00     0.165 A 
ATOM     10  O   UNL     1      10.495  20.821  -2.241  1.00  0.00    -0.454 OA
ATOM     11  O   UNL     1      11.554  20.501  -0.250  1.00  0.00    -0.454 OA
ATOM     12  C   UNL     1      10.652  19.875  -1.174  1.00  0.00     0.468 C 
ENDBRANCH   1   4
TORSDOF 2
ENDMDL
MODEL 5
REMARK VINA RESULT:    -3.879      2.459      4.915
REMARK INTER + INTRA:          -4.570
REMARK INTER:                  -4.412
REMARK INTRA:                  -0.158
REMARK UNBOUND:                -0.237
REMARK SMILES C=CCc1ccc2c(c1)OCO2
REMARK SMILES IDX 3 1 2 2 1 3 4 4 9 5 5 6 8 7 6 8 7 9 10 10 12 11 11 12
REMARK H PARENT
REMARK Flexibility Score: inf
ROOT
ATOM      1  C   UNL     1      12.740  24.988  -1.572  1.00  0.00     0.062 C 
ENDROOT
BRANCH   1   2
ATOM      2  C   UNL     1      14.164  24.761  -1.146  1.00  0.00    -0.030 C 
ATOM      3  C   UNL     1      14.484  23.842  -0.230  1.00  0.00     0.004 C 
ENDBRANCH   1   2
BRANCH   1   4
ATOM      4  C   UNL     1      12.151  23.733  -2.157  1.00  0.00    -0.040 A 
ATOM      5  C   UNL     1      11.283  22.932  -1.380  1.00  0.00     0.054 A 
ATOM      6  C   UNL     1      12.428  23.370  -3.501  1.00  0.00     0.008 A 
ATOM      7  C   UNL     1      10.739  21.795  -1.973  1.00  0.00     0.166 A 
ATOM      8  C   UNL     1      11.857  22.212  -4.059  1.00  0.00     0.051 A 
ATOM      9  C   UNL     1      11.015  21.450  -3.256  1.00  0.00     0.165 A 
ATOM     10  O   UNL     1       9.879  20.865  -1.420  1.00  0.00    -0.454 OA
ATOM     11  O   UNL     1      10.343  20.286  -3.574  1.00  0.00    -0.454 OA
ATOM     12  C   UNL     1       9.597  19.875  -2.419  1.00  0.00     0.468 C 
ENDBRANCH   1   4
TORSDOF 2
ENDMDL
MODEL 6
REMARK VINA RESULT:    -3.816      1.450      2.319
REMARK INTER + INTRA:          -4.499
REMARK INTER:                  -4.302
REMARK INTRA:                  -0.197
REMARK UNBOUND:                -0.237
REMARK SMILES C=CCc1ccc2c(c1)OCO2
REMARK SMILES IDX 3 1 2 2 1 3 4 4 9 5 5 6 8 7 6 8 7 9 10 10 12 11 11 12
REMARK H PARENT
REMARK Flexibility Score: inf
ROOT
ATOM      1  C   UNL     1      11.158  21.295  -4.156  1.00  0.00     0.062 C 
ENDROOT
BRANCH   1   2
ATOM      2  C   UNL     1      10.598  20.105  -3.427  1.00  0.00    -0.030 C 
ATOM      3  C   UNL     1       9.886  20.240  -2.304  1.00  0.00     0.004 C 
ENDBRANCH   1   2
BRANCH   1   4
ATOM      4  C   UNL     1      12.050  22.102  -3.252  1.00  0.00    -0.040 A 
ATOM      5  C   UNL     1      11.727  23.446  -2.957  1.00  0.00     0.054 A 
ATOM      6  C   UNL     1      13.193  21.508  -2.657  1.00  0.00     0.008 A 
ATOM      7  C   UNL     1      12.566  24.145  -2.093  1.00  0.00     0.166 A 
ATOM      8  C   UNL     1      14.014  22.251  -1.790  1.00  0.00     0.051 A 
ATOM      9  C   UNL     1      13.662  23.573  -1.535  1.00  0.00     0.165 A 
ATOM     10  O   UNL     1      12.460  25.454  -1.664  1.00  0.00    -0.454 OA
ATOM     11  O   UNL     1      14.301  24.493  -0.727  1.00  0.00    -0.454 OA
ATOM     12  C   UNL     1      13.559  25.720  -0.780  1.00  0.00     0.468 C 
ENDBRANCH   1   4
TORSDOF 2
ENDMDL
MODEL 7
REMARK VINA RESULT:    -3.672     12.683     14.454
REMARK INTER + INTRA:          -4.338
REMARK INTER:                  -4.163
REMARK INTRA:                  -0.175
REMARK UNBOUND:                -0.237
REMARK SMILES C=CCc1ccc2c(c1)OCO2
REMARK SMILES IDX 3 1 2 2 1 3 4 4 9 5 5 6 8 7 6 8 7 9 10 10 12 11 11 12
REMARK H PARENT
REMARK Flexibility Score: inf
ROOT
ATOM      1  C   UNL     1       5.443  37.078  -5.123  1.00  0.00     0.062 C 
ENDROOT
BRANCH   1   2
ATOM      2  C   UNL     1       6.280  38.153  -4.485  1.00  0.00    -0.030 C 
ATOM      3  C   UNL     1       6.125  39.442  -4.799  1.00  0.00     0.004 C 
ENDBRANCH   1   2
BRANCH   1   4
ATOM      4  C   UNL     1       6.162  35.756  -5.096  1.00  0.00    -0.040 A 
ATOM      5  C   UNL     1       5.425  34.551  -5.111  1.00  0.00     0.054 A 
ATOM      6  C   UNL     1       7.581  35.712  -5.098  1.00  0.00     0.008 A 
ATOM      7  C   UNL     1       6.133  33.352  -5.114  1.00  0.00     0.166 A 
ATOM      8  C   UNL     1       8.256  34.478  -5.101  1.00  0.00     0.051 A 
ATOM      9  C   UNL     1       7.490  33.317  -5.108  1.00  0.00     0.165 A 
ATOM     10  O   UNL     1       5.639  32.062  -5.124  1.00  0.00    -0.454 OA
ATOM     11  O   UNL     1       7.916  32.004  -5.113  1.00  0.00    -0.454 OA
ATOM     12  C   UNL     1       6.756  31.161  -5.125  1.00  0.00     0.468 C 
ENDBRANCH   1   4
TORSDOF 2
ENDMDL
MODEL 8
REMARK VINA RESULT:    -3.591     15.256     16.695
REMARK INTER + INTRA:          -4.247
REMARK INTER:                  -4.071
REMARK INTRA:                  -0.176
REMARK UNBOUND:                -0.237
REMARK SMILES C=CCc1ccc2c(c1)OCO2
REMARK SMILES IDX 3 1 2 2 1 3 4 4 9 5 5 6 8 7 6 8 7 9 10 10 12 11 11 12
REMARK H PARENT
REMARK Flexibility Score: inf
ROOT
ATOM      1  C   UNL     1      19.782  23.958   9.438  1.00  0.00     0.062 C 
ENDROOT
BRANCH   1   2
ATOM      2  C   UNL     1      21.022  24.332   8.674  1.00  0.00    -0.030 C 
ATOM      3  C   UNL     1      21.120  25.493   8.018  1.00  0.00     0.004 C 
ENDBRANCH   1   2
BRANCH   1   4
ATOM      4  C   UNL     1      20.123  23.579  10.854  1.00  0.00    -0.040 A 
ATOM      5  C   UNL     1      20.195  22.217  11.222  1.00  0.00     0.054 A 
ATOM      6  C   UNL     1      20.415  24.583  11.813  1.00  0.00     0.008 A 
ATOM      7  C   UNL     1      20.542  21.913  12.536  1.00  0.00     0.166 A 
ATOM      8  C   UNL     1      20.761  24.231  13.131  1.00  0.00     0.051 A 
ATOM      9  C   UNL     1      20.812  22.878  13.450  1.00  0.00     0.165 A 
ATOM     10  O   UNL     1      20.671  20.670  13.126  1.00  0.00    -0.454 OA
ATOM     11  O   UNL     1      21.124  22.291  14.661  1.00  0.00    -0.454 OA
ATOM     12  C   UNL     1      21.047  20.868  14.496  1.00  0.00     0.468 C 
ENDBRANCH   1   4
TORSDOF 2
ENDMDL
