MODEL 1
REMARK VINA RESULT:    -8.340      0.000      0.000
REMARK INTER + INTRA:         -10.657
REMARK INTER:                 -10.290
REMARK INTRA:                  -0.367
REMARK UNBOUND:                -0.367
REMARK SMILES COc1cc(-c2oc3cc(O)cc(O)c3c(=O)c2O)ccc1O
REMARK SMILES IDX 6 1 18 2 16 3 17 4 15 5 13 6 12 7 10 8 9 9 8 10 7 11 5 12
REMARK SMILES IDX 3 13 22 14 4 15 21 16 20 17 2 18 1 19 23 20 19 22 14 24
REMARK SMILES IDX 11 26
REMARK H PARENT 23 21 19 23 14 25 11 27
REMARK Flexibility Score: inf
ROOT
ATOM      1  C   UNL     1     -31.330  16.939  56.488  1.00  0.00     0.180 A 
ATOM      2  C   UNL     1     -31.314  17.570  57.744  1.00  0.00     0.208 A 
ATOM      3  C   UNL     1     -30.495  18.695  57.932  1.00  0.00     0.238 A 
ATOM      4  O   UNL     1     -30.445  19.222  59.073  1.00  0.00    -0.285 OA
ATOM      5  C   UNL     1     -29.714  19.183  56.856  1.00  0.00     0.111 A 
ATOM      6  C   UNL     1     -28.879  20.339  56.922  1.00  0.00     0.134 A 
ATOM      7  C   UNL     1     -28.050  20.655  55.837  1.00  0.00     0.093 A 
ATOM      8  C   UNL     1     -28.076  19.895  54.666  1.00  0.00     0.123 A 
ATOM      9  C   UNL     1     -28.933  18.800  54.571  1.00  0.00     0.094 A 
ATOM     10  C   UNL     1     -29.744  18.438  55.649  1.00  0.00     0.146 A 
ATOM     11  O   UNL     1     -30.537  17.381  55.519  1.00  0.00    -0.452 OA
ENDROOT
BRANCH   1  12
ATOM     12  C   UNL     1     -32.187  15.764  56.207  1.00  0.00     0.025 A 
ATOM     13  C   UNL     1     -32.516  13.347  56.038  1.00  0.00     0.161 A 
ATOM     14  C   UNL     1     -33.865  13.560  55.720  1.00  0.00     0.157 A 
ATOM     15  C   UNL     1     -31.682  14.453  56.289  1.00  0.00     0.062 A 
ATOM     16  C   UNL     1     -34.374  14.863  55.660  1.00  0.00     0.051 A 
ATOM     17  C   UNL     1     -33.544  15.956  55.908  1.00  0.00     0.016 A 
BRANCH  13  18
ATOM     18  O   UNL     1     -32.045  12.025  56.101  1.00  0.00    -0.493 OA
ATOM     19  C   UNL     1     -30.693  11.639  55.877  1.00  0.00     0.278 C 
ENDBRANCH  13  18
BRANCH  14  20
ATOM     20  O   UNL     1     -34.695  12.468  55.469  1.00  0.00    -0.504 OA
ATOM     21  H   UNL     1     -34.837  11.741  56.160  1.00  0.00     0.293 HD
ENDBRANCH  14  20
ENDBRANCH   1  12
BRANCH   2  22
ATOM     22  O   UNL     1     -32.076  17.057  58.798  1.00  0.00    -0.502 OA
ATOM     23  H   UNL     1     -32.348  16.083  58.849  1.00  0.00     0.293 HD
ENDBRANCH   2  22
BRANCH   6  24
ATOM     24  O   UNL     1     -28.845  21.218  58.009  1.00  0.00    -0.507 OA
ATOM     25  H   UNL     1     -28.485  20.987  58.923  1.00  0.00     0.293 HD
ENDBRANCH   6  24
BRANCH   8  26
ATOM     26  O   UNL     1     -27.261  20.226  53.586  1.00  0.00    -0.508 OA
ATOM     27  H   UNL     1     -26.422  19.698  53.375  1.00  0.00     0.293 HD
ENDBRANCH   8  26
TORSDOF 6
ENDMDL
MODEL 2
REMARK VINA RESULT:    -8.245      2.353      2.974
REMARK INTER + INTRA:         -10.539
REMARK INTER:                 -10.226
REMARK INTRA:                  -0.313
REMARK UNBOUND:                -0.367
REMARK SMILES COc1cc(-c2oc3cc(O)cc(O)c3c(=O)c2O)ccc1O
REMARK SMILES IDX 6 1 18 2 16 3 17 4 15 5 13 6 12 7 10 8 9 9 8 10 7 11 5 12
REMARK SMILES IDX 3 13 22 14 4 15 21 16 20 17 2 18 1 19 23 20 19 22 14 24
REMARK SMILES IDX 11 26
REMARK H PARENT 23 21 19 23 14 25 11 27
REMARK Flexibility Score: inf
ROOT
ATOM      1  C   UNL     1     -31.437  16.847  57.098  1.00  0.00     0.180 A 
ATOM      2  C   UNL     1     -30.174  16.234  57.011  1.00  0.00     0.208 A 
ATOM      3  C   UNL     1     -29.023  17.011  57.216  1.00  0.00     0.238 A 
ATOM      4  O   UNL     1     -27.896  16.468  57.084  1.00  0.00    -0.285 OA
ATOM      5  C   UNL     1     -29.150  18.388  57.522  1.00  0.00     0.111 A 
ATOM      6  C   UNL     1     -28.053  19.262  57.789  1.00  0.00     0.134 A 
ATOM      7  C   UNL     1     -28.286  20.634  57.951  1.00  0.00     0.093 A 
ATOM      8  C   UNL     1     -29.583  21.151  57.921  1.00  0.00     0.123 A 
ATOM      9  C   UNL     1     -30.665  20.297  57.721  1.00  0.00     0.094 A 
ATOM     10  C   UNL     1     -30.461  18.930  57.519  1.00  0.00     0.146 A 
ATOM     11  O   UNL     1     -31.519  18.153  57.321  1.00  0.00    -0.452 OA
ENDROOT
BRANCH   1  12
ATOM     12  C   UNL     1     -32.695  16.087  56.918  1.00  0.00     0.025 A 
ATOM     13  C   UNL     1     -34.465  14.642  57.789  1.00  0.00     0.161 A 
ATOM     14  C   UNL     1     -35.116  14.704  56.549  1.00  0.00     0.157 A 
ATOM     15  C   UNL     1     -33.257  15.342  57.971  1.00  0.00     0.062 A 
ATOM     16  C   UNL     1     -34.569  15.463  55.507  1.00  0.00     0.051 A 
ATOM     17  C   UNL     1     -33.372  16.155  55.691  1.00  0.00     0.016 A 
BRANCH  13  18
ATOM     18  O   UNL     1     -35.050  13.880  58.813  1.00  0.00    -0.493 OA
ATOM     19  C   UNL     1     -34.919  12.468  58.944  1.00  0.00     0.278 C 
ENDBRANCH  13  18
BRANCH  14  20
ATOM     20  O   UNL     1     -36.311  14.011  56.362  1.00  0.00    -0.504 OA
ATOM     21  H   UNL     1     -37.008  13.950  57.094  1.00  0.00     0.293 HD
ENDBRANCH  14  20
ENDBRANCH   1  12
BRANCH   2  22
ATOM     22  O   UNL     1     -30.072  14.878  56.686  1.00  0.00    -0.502 OA
ATOM     23  H   UNL     1     -29.615  14.553  55.843  1.00  0.00     0.293 HD
ENDBRANCH   2  22
BRANCH   6  24
ATOM     24  O   UNL     1     -26.730  18.833  57.930  1.00  0.00    -0.507 OA
ATOM     25  H   UNL     1     -26.447  17.991  58.407  1.00  0.00     0.293 HD
ENDBRANCH   6  24
BRANCH   8  26
ATOM     26  O   UNL     1     -29.809  22.515  58.099  1.00  0.00    -0.508 OA
ATOM     27  H   UNL     1     -29.480  23.198  57.427  1.00  0.00     0.293 HD
ENDBRANCH   8  26
TORSDOF 6
ENDMDL
MODEL 3
REMARK VINA RESULT:    -8.064      2.536      7.792
REMARK INTER + INTRA:         -10.317
REMARK INTER:                  -9.926
REMARK INTRA:                  -0.390
REMARK UNBOUND:                -0.367
REMARK SMILES COc1cc(-c2oc3cc(O)cc(O)c3c(=O)c2O)ccc1O
REMARK SMILES IDX 6 1 18 2 16 3 17 4 15 5 13 6 12 7 10 8 9 9 8 10 7 11 5 12
REMARK SMILES IDX 3 13 22 14 4 15 21 16 20 17 2 18 1 19 23 20 19 22 14 24
REMARK SMILES IDX 11 26
REMARK H PARENT 23 21 19 23 14 25 11 27
REMARK Flexibility Score: inf
ROOT
ATOM      1  C   UNL     1     -32.609  16.099  57.181  1.00  0.00     0.180 A 
ATOM      2  C   UNL     1     -33.293  16.093  55.953  1.00  0.00     0.208 A 
ATOM      3  C   UNL     1     -34.484  15.357  55.840  1.00  0.00     0.238 A 
ATOM      4  O   UNL     1     -35.063  15.312  54.724  1.00  0.00    -0.285 OA
ATOM      5  C   UNL     1     -34.983  14.650  56.960  1.00  0.00     0.111 A 
ATOM      6  C   UNL     1     -36.200  13.905  56.971  1.00  0.00     0.134 A 
ATOM      7  C   UNL     1     -36.531  13.138  58.096  1.00  0.00     0.093 A 
ATOM      8  C   UNL     1     -35.720  13.142  59.233  1.00  0.00     0.123 A 
ATOM      9  C   UNL     1     -34.561  13.914  59.254  1.00  0.00     0.094 A 
ATOM     10  C   UNL     1     -34.186  14.661  58.135  1.00  0.00     0.146 A 
ATOM     11  O   UNL     1     -33.067  15.374  58.194  1.00  0.00    -0.452 OA
ENDROOT
BRANCH   1  12
ATOM     12  C   UNL     1     -31.361  16.872  57.383  1.00  0.00     0.025 A 
ATOM     13  C   UNL     1     -30.188  18.887  58.119  1.00  0.00     0.161 A 
ATOM     14  C   UNL     1     -28.964  18.281  57.802  1.00  0.00     0.157 A 
ATOM     15  C   UNL     1     -31.385  18.174  57.914  1.00  0.00     0.062 A 
ATOM     16  C   UNL     1     -28.937  16.977  57.293  1.00  0.00     0.051 A 
ATOM     17  C   UNL     1     -30.126  16.275  57.092  1.00  0.00     0.016 A 
BRANCH  13  18
ATOM     18  O   UNL     1     -30.173  20.192  58.637  1.00  0.00    -0.493 OA
ATOM     19  C   UNL     1     -30.356  21.371  57.860  1.00  0.00     0.278 C 
ENDBRANCH  13  18
BRANCH  14  20
ATOM     20  O   UNL     1     -27.776  18.983  58.000  1.00  0.00    -0.504 OA
ATOM     21  H   UNL     1     -27.187  18.811  58.806  1.00  0.00     0.293 HD
ENDBRANCH  14  20
ENDBRANCH   1  12
BRANCH   2  22
ATOM     22  O   UNL     1     -32.771  16.780  54.853  1.00  0.00    -0.502 OA
ATOM     23  H   UNL     1     -32.460  16.307  54.013  1.00  0.00     0.293 HD
ENDBRANCH   2  22
BRANCH   6  24
ATOM     24  O   UNL     1     -37.125  13.905  55.923  1.00  0.00    -0.507 OA
ATOM     25  H   UNL     1     -37.483  13.077  55.472  1.00  0.00     0.293 HD
ENDBRANCH   6  24
BRANCH   8  26
ATOM     26  O   UNL     1     -36.064  12.389  60.354  1.00  0.00    -0.508 OA
ATOM     27  H   UNL     1     -35.746  11.433  60.468  1.00  0.00     0.293 HD
ENDBRANCH   8  26
TORSDOF 6
ENDMDL
MODEL 4
REMARK VINA RESULT:    -8.023      2.188      2.922
REMARK INTER + INTRA:         -10.265
REMARK INTER:                  -9.942
REMARK INTRA:                  -0.323
REMARK UNBOUND:                -0.367
REMARK SMILES COc1cc(-c2oc3cc(O)cc(O)c3c(=O)c2O)ccc1O
REMARK SMILES IDX 6 1 18 2 16 3 17 4 15 5 13 6 12 7 10 8 9 9 8 10 7 11 5 12
REMARK SMILES IDX 3 13 22 14 4 15 21 16 20 17 2 18 1 19 23 20 19 22 14 24
REMARK SMILES IDX 11 26
REMARK H PARENT 23 21 19 23 14 25 11 27
REMARK Flexibility Score: inf
ROOT
ATOM      1  C   UNL     1     -31.027  16.459  57.212  1.00  0.00     0.180 A 
ATOM      2  C   UNL     1     -31.264  17.278  56.094  1.00  0.00     0.208 A 
ATOM      3  C   UNL     1     -30.305  18.242  55.741  1.00  0.00     0.238 A 
ATOM      4  O   UNL     1     -30.547  19.008  54.773  1.00  0.00    -0.285 OA
ATOM      5  C   UNL     1     -29.115  18.362  56.499  1.00  0.00     0.111 A 
ATOM      6  C   UNL     1     -28.057  19.275  56.207  1.00  0.00     0.134 A 
ATOM      7  C   UNL     1     -26.986  19.399  57.101  1.00  0.00     0.093 A 
ATOM      8  C   UNL     1     -26.902  18.596  58.240  1.00  0.00     0.123 A 
ATOM      9  C   UNL     1     -27.899  17.658  58.501  1.00  0.00     0.094 A 
ATOM     10  C   UNL     1     -28.999  17.537  57.649  1.00  0.00     0.146 A 
ATOM     11  O   UNL     1     -29.933  16.640  57.941  1.00  0.00    -0.452 OA
ENDROOT
BRANCH   1  12
ATOM     12  C   UNL     1     -31.980  15.405  57.630  1.00  0.00     0.025 A 
ATOM     13  C   UNL     1     -32.923  13.160  57.403  1.00  0.00     0.161 A 
ATOM     14  C   UNL     1     -33.766  13.412  58.495  1.00  0.00     0.157 A 
ATOM     15  C   UNL     1     -32.024  14.158  56.979  1.00  0.00     0.062 A 
ATOM     16  C   UNL     1     -33.708  14.644  59.157  1.00  0.00     0.051 A 
ATOM     17  C   UNL     1     -32.817  15.631  58.733  1.00  0.00     0.016 A 
BRANCH  13  18
ATOM     18  O   UNL     1     -33.003  11.908  56.772  1.00  0.00    -0.493 OA
ATOM     19  C   UNL     1     -33.941  11.577  55.753  1.00  0.00     0.278 C 
ENDBRANCH  13  18
BRANCH  14  20
ATOM     20  O   UNL     1     -34.659  12.428  58.917  1.00  0.00    -0.504 OA
ATOM     21  H   UNL     1     -34.368  11.466  59.040  1.00  0.00     0.293 HD
ENDBRANCH  14  20
ENDBRANCH   1  12
BRANCH   2  22
ATOM     22  O   UNL     1     -32.455  17.158  55.373  1.00  0.00    -0.502 OA
ATOM     23  H   UNL     1     -33.143  17.900  55.331  1.00  0.00     0.293 HD
ENDBRANCH   2  22
BRANCH   6  24
ATOM     24  O   UNL     1     -27.999  20.058  55.050  1.00  0.00    -0.507 OA
ATOM     25  H   UNL     1     -28.289  21.022  54.994  1.00  0.00     0.293 HD
ENDBRANCH   6  24
BRANCH   8  26
ATOM     26  O   UNL     1     -25.824  18.713  59.115  1.00  0.00    -0.508 OA
ATOM     27  H   UNL     1     -25.489  19.618  59.423  1.00  0.00     0.293 HD
ENDBRANCH   8  26
TORSDOF 6
ENDMDL
MODEL 5
REMARK VINA RESULT:    -7.987      2.265      7.032
REMARK INTER + INTRA:         -10.221
REMARK INTER:                  -9.830
REMARK INTRA:                  -0.390
REMARK UNBOUND:                -0.367
REMARK SMILES COc1cc(-c2oc3cc(O)cc(O)c3c(=O)c2O)ccc1O
REMARK SMILES IDX 6 1 18 2 16 3 17 4 15 5 13 6 12 7 10 8 9 9 8 10 7 11 5 12
REMARK SMILES IDX 3 13 22 14 4 15 21 16 20 17 2 18 1 19 23 20 19 22 14 24
REMARK SMILES IDX 11 26
REMARK H PARENT 23 21 19 23 14 25 11 27
REMARK Flexibility Score: inf
ROOT
ATOM      1  C   UNL     1     -31.623  15.786  57.208  1.00  0.00     0.180 A 
ATOM      2  C   UNL     1     -32.381  15.925  58.383  1.00  0.00     0.208 A 
ATOM      3  C   UNL     1     -33.357  14.961  58.683  1.00  0.00     0.238 A 
ATOM      4  O   UNL     1     -34.069  15.119  59.708  1.00  0.00    -0.285 OA
ATOM      5  C   UNL     1     -33.551  13.861  57.812  1.00  0.00     0.111 A 
ATOM      6  C   UNL     1     -34.483  12.803  58.037  1.00  0.00     0.134 A 
ATOM      7  C   UNL     1     -34.682  11.836  57.045  1.00  0.00     0.093 A 
ATOM      8  C   UNL     1     -33.937  11.851  55.864  1.00  0.00     0.123 A 
ATOM      9  C   UNL     1     -32.982  12.845  55.661  1.00  0.00     0.094 A 
ATOM     10  C   UNL     1     -32.785  13.845  56.617  1.00  0.00     0.146 A 
ATOM     11  O   UNL     1     -31.873  14.780  56.378  1.00  0.00    -0.452 OA
ENDROOT
BRANCH   1  12
ATOM     12  C   UNL     1     -30.560  16.748  56.838  1.00  0.00     0.025 A 
ATOM     13  C   UNL     1     -28.265  17.574  57.015  1.00  0.00     0.161 A 
ATOM     14  C   UNL     1     -28.555  18.564  56.065  1.00  0.00     0.157 A 
ATOM     15  C   UNL     1     -29.270  16.663  57.393  1.00  0.00     0.062 A 
ATOM     16  C   UNL     1     -29.833  18.637  55.496  1.00  0.00     0.051 A 
ATOM     17  C   UNL     1     -30.825  17.732  55.874  1.00  0.00     0.016 A 
BRANCH  13  18
ATOM     18  O   UNL     1     -26.969  17.526  57.555  1.00  0.00    -0.493 OA
ATOM     19  C   UNL     1     -26.619  17.992  58.855  1.00  0.00     0.278 C 
ENDBRANCH  13  18
BRANCH  14  20
ATOM     20  O   UNL     1     -27.566  19.471  55.690  1.00  0.00    -0.504 OA
ATOM     21  H   UNL     1     -27.258  19.550  54.728  1.00  0.00     0.293 HD
ENDBRANCH  14  20
ENDBRANCH   1  12
BRANCH   2  22
ATOM     22  O   UNL     1     -32.189  17.030  59.218  1.00  0.00    -0.502 OA
ATOM     23  H   UNL     1     -31.372  17.131  59.807  1.00  0.00     0.293 HD
ENDBRANCH   2  22
BRANCH   6  24
ATOM     24  O   UNL     1     -35.211  12.644  59.220  1.00  0.00    -0.507 OA
ATOM     25  H   UNL     1     -35.565  13.403  59.783  1.00  0.00     0.293 HD
ENDBRANCH   6  24
BRANCH   8  26
ATOM     26  O   UNL     1     -34.130  10.875  54.888  1.00  0.00    -0.508 OA
ATOM     27  H   UNL     1     -34.927  10.250  54.915  1.00  0.00     0.293 HD
ENDBRANCH   8  26
TORSDOF 6
ENDMDL
MODEL 6
REMARK VINA RESULT:    -7.841      2.435      7.434
REMARK INTER + INTRA:         -10.041
REMARK INTER:                  -9.709
REMARK INTRA:                  -0.332
REMARK UNBOUND:                -0.367
REMARK SMILES COc1cc(-c2oc3cc(O)cc(O)c3c(=O)c2O)ccc1O
REMARK SMILES IDX 6 1 18 2 16 3 17 4 15 5 13 6 12 7 10 8 9 9 8 10 7 11 5 12
REMARK SMILES IDX 3 13 22 14 4 15 21 16 20 17 2 18 1 19 23 20 19 22 14 24
REMARK SMILES IDX 11 26
REMARK H PARENT 23 21 19 23 14 25 11 27
REMARK Flexibility Score: inf
ROOT
ATOM      1  C   UNL     1     -31.709  16.590  57.567  1.00  0.00     0.180 A 
ATOM      2  C   UNL     1     -31.831  16.001  56.297  1.00  0.00     0.208 A 
ATOM      3  C   UNL     1     -32.812  15.018  56.092  1.00  0.00     0.238 A 
ATOM      4  O   UNL     1     -32.880  14.457  54.969  1.00  0.00    -0.285 OA
ATOM      5  C   UNL     1     -33.669  14.648  57.157  1.00  0.00     0.111 A 
ATOM      6  C   UNL     1     -34.725  13.693  57.052  1.00  0.00     0.134 A 
ATOM      7  C   UNL     1     -35.426  13.309  58.202  1.00  0.00     0.093 A 
ATOM      8  C   UNL     1     -35.153  13.894  59.440  1.00  0.00     0.123 A 
ATOM      9  C   UNL     1     -34.165  14.871  59.541  1.00  0.00     0.094 A 
ATOM     10  C   UNL     1     -33.424  15.249  58.419  1.00  0.00     0.146 A 
ATOM     11  O   UNL     1     -32.484  16.176  58.562  1.00  0.00    -0.452 OA
ENDROOT
BRANCH   1  12
ATOM     12  C   UNL     1     -30.715  17.651  57.852  1.00  0.00     0.025 A 
ATOM     13  C   UNL     1     -28.416  18.373  58.271  1.00  0.00     0.161 A 
ATOM     14  C   UNL     1     -28.854  19.704  58.335  1.00  0.00     0.157 A 
ATOM     15  C   UNL     1     -29.351  17.350  58.021  1.00  0.00     0.062 A 
ATOM     16  C   UNL     1     -30.207  20.007  58.146  1.00  0.00     0.051 A 
ATOM     17  C   UNL     1     -31.130  18.990  57.899  1.00  0.00     0.016 A 
BRANCH  13  18
ATOM     18  O   UNL     1     -27.049  18.110  58.454  1.00  0.00    -0.493 OA
ATOM     19  C   UNL     1     -26.339  17.051  57.819  1.00  0.00     0.278 C 
ENDBRANCH  13  18
BRANCH  14  20
ATOM     20  O   UNL     1     -27.934  20.720  58.585  1.00  0.00    -0.504 OA
ATOM     21  H   UNL     1     -28.219  21.690  58.645  1.00  0.00     0.293 HD
ENDBRANCH  14  20
ENDBRANCH   1  12
BRANCH   2  22
ATOM     22  O   UNL     1     -30.959  16.365  55.266  1.00  0.00    -0.502 OA
ATOM     23  H   UNL     1     -31.202  17.054  54.565  1.00  0.00     0.293 HD
ENDBRANCH   2  22
BRANCH   6  24
ATOM     24  O   UNL     1     -35.139  13.117  55.847  1.00  0.00    -0.507 OA
ATOM     25  H   UNL     1     -34.969  12.159  55.581  1.00  0.00     0.293 HD
ENDBRANCH   6  24
BRANCH   8  26
ATOM     26  O   UNL     1     -35.866  13.518  60.577  1.00  0.00    -0.508 OA
ATOM     27  H   UNL     1     -36.609  12.830  60.533  1.00  0.00     0.293 HD
ENDBRANCH   8  26
TORSDOF 6
ENDMDL
MODEL 7
REMARK VINA RESULT:    -7.698      1.614      7.259
REMARK INTER + INTRA:          -9.865
REMARK INTER:                  -9.487
REMARK INTRA:                  -0.378
REMARK UNBOUND:                -0.367
REMARK SMILES COc1cc(-c2oc3cc(O)cc(O)c3c(=O)c2O)ccc1O
REMARK SMILES IDX 6 1 18 2 16 3 17 4 15 5 13 6 12 7 10 8 9 9 8 10 7 11 5 12
REMARK SMILES IDX 3 13 22 14 4 15 21 16 20 17 2 18 1 19 23 20 19 22 14 24
REMARK SMILES IDX 11 26
REMARK H PARENT 23 21 19 23 14 25 11 27
REMARK Flexibility Score: inf
ROOT
ATOM      1  C   UNL     1     -31.756  16.289  56.306  1.00  0.00     0.180 A 
ATOM      2  C   UNL     1     -31.099  15.077  56.583  1.00  0.00     0.208 A 
ATOM      3  C   UNL     1     -31.779  13.868  56.363  1.00  0.00     0.238 A 
ATOM      4  O   UNL     1     -31.206  12.789  56.663  1.00  0.00    -0.285 OA
ATOM      5  C   UNL     1     -33.100  13.887  55.854  1.00  0.00     0.111 A 
ATOM      6  C   UNL     1     -33.870  12.721  55.555  1.00  0.00     0.134 A 
ATOM      7  C   UNL     1     -35.212  12.858  55.179  1.00  0.00     0.093 A 
ATOM      8  C   UNL     1     -35.793  14.119  55.029  1.00  0.00     0.123 A 
ATOM      9  C   UNL     1     -35.033  15.263  55.260  1.00  0.00     0.094 A 
ATOM     10  C   UNL     1     -33.702  15.159  55.671  1.00  0.00     0.146 A 
ATOM     11  O   UNL     1     -33.017  16.275  55.892  1.00  0.00    -0.452 OA
ENDROOT
BRANCH   1  12
ATOM     12  C   UNL     1     -31.095  17.602  56.489  1.00  0.00     0.025 A 
ATOM     13  C   UNL     1     -29.884  19.531  55.598  1.00  0.00     0.161 A 
ATOM     14  C   UNL     1     -29.900  20.119  56.871  1.00  0.00     0.157 A 
ATOM     15  C   UNL     1     -30.490  18.273  55.411  1.00  0.00     0.062 A 
ATOM     16  C   UNL     1     -30.520  19.461  57.940  1.00  0.00     0.051 A 
ATOM     17  C   UNL     1     -31.119  18.216  57.750  1.00  0.00     0.016 A 
BRANCH  13  18
ATOM     18  O   UNL     1     -29.262  20.226  54.548  1.00  0.00    -0.493 OA
ATOM     19  C   UNL     1     -28.378  19.635  53.601  1.00  0.00     0.278 C 
ENDBRANCH  13  18
BRANCH  14  20
ATOM     20  O   UNL     1     -29.299  21.362  57.063  1.00  0.00    -0.504 OA
ATOM     21  H   UNL     1     -29.749  22.220  56.767  1.00  0.00     0.293 HD
ENDBRANCH  14  20
ENDBRANCH   1  12
BRANCH   2  22
ATOM     22  O   UNL     1     -29.803  15.083  57.106  1.00  0.00    -0.502 OA
ATOM     23  H   UNL     1     -29.610  15.285  58.079  1.00  0.00     0.293 HD
ENDBRANCH   2  22
BRANCH   6  24
ATOM     24  O   UNL     1     -33.359  11.420  55.585  1.00  0.00    -0.507 OA
ATOM     25  H   UNL     1     -32.514  11.146  56.063  1.00  0.00     0.293 HD
ENDBRANCH   6  24
BRANCH   8  26
ATOM     26  O   UNL     1     -37.125  14.246  54.639  1.00  0.00    -0.508 OA
ATOM     27  H   UNL     1     -37.710  14.994  54.991  1.00  0.00     0.293 HD
ENDBRANCH   8  26
TORSDOF 6
ENDMDL
MODEL 8
REMARK VINA RESULT:    -7.552      1.717      7.239
REMARK INTER + INTRA:          -9.684
REMARK INTER:                  -9.337
REMARK INTRA:                  -0.347
REMARK UNBOUND:                -0.367
REMARK SMILES COc1cc(-c2oc3cc(O)cc(O)c3c(=O)c2O)ccc1O
REMARK SMILES IDX 6 1 18 2 16 3 17 4 15 5 13 6 12 7 10 8 9 9 8 10 7 11 5 12
REMARK SMILES IDX 3 13 22 14 4 15 21 16 20 17 2 18 1 19 23 20 19 22 14 24
REMARK SMILES IDX 11 26
REMARK H PARENT 23 21 19 23 14 25 11 27
REMARK Flexibility Score: inf
ROOT
ATOM      1  C   UNL     1     -31.831  16.647  56.427  1.00  0.00     0.180 A 
ATOM      2  C   UNL     1     -31.474  15.646  57.348  1.00  0.00     0.208 A 
ATOM      3  C   UNL     1     -32.281  14.502  57.457  1.00  0.00     0.238 A 
ATOM      4  O   UNL     1     -31.987  13.635  58.320  1.00  0.00    -0.285 OA
ATOM      5  C   UNL     1     -33.425  14.366  56.633  1.00  0.00     0.111 A 
ATOM      6  C   UNL     1     -34.291  13.231  56.630  1.00  0.00     0.134 A 
ATOM      7  C   UNL     1     -35.466  13.261  55.868  1.00  0.00     0.093 A 
ATOM      8  C   UNL     1     -35.771  14.357  55.059  1.00  0.00     0.123 A 
ATOM      9  C   UNL     1     -34.901  15.444  55.008  1.00  0.00     0.094 A 
ATOM     10  C   UNL     1     -33.740  15.460  55.785  1.00  0.00     0.146 A 
ATOM     11  O   UNL     1     -32.945  16.520  55.716  1.00  0.00    -0.452 OA
ENDROOT
BRANCH   1  12
ATOM     12  C   UNL     1     -31.016  17.869  56.238  1.00  0.00     0.025 A 
ATOM     13  C   UNL     1     -30.274  20.081  56.971  1.00  0.00     0.161 A 
ATOM     14  C   UNL     1     -29.409  20.148  55.870  1.00  0.00     0.157 A 
ATOM     15  C   UNL     1     -31.071  18.934  57.156  1.00  0.00     0.062 A 
ATOM     16  C   UNL     1     -29.338  19.080  54.968  1.00  0.00     0.051 A 
ATOM     17  C   UNL     1     -30.129  17.946  55.154  1.00  0.00     0.016 A 
BRANCH  13  18
ATOM     18  O   UNL     1     -30.309  21.168  57.860  1.00  0.00    -0.493 OA
ATOM     19  C   UNL     1     -30.313  21.050  59.279  1.00  0.00     0.278 C 
ENDBRANCH  13  18
BRANCH  14  20
ATOM     20  O   UNL     1     -28.620  21.282  55.681  1.00  0.00    -0.504 OA
ATOM     21  H   UNL     1     -28.440  21.933  56.435  1.00  0.00     0.293 HD
ENDBRANCH  14  20
ENDBRANCH   1  12
BRANCH   2  22
ATOM     22  O   UNL     1     -30.354  15.811  58.167  1.00  0.00    -0.502 OA
ATOM     23  H   UNL     1     -29.918  15.038  58.656  1.00  0.00     0.293 HD
ENDBRANCH   2  22
BRANCH   6  24
ATOM     24  O   UNL     1     -34.032  12.050  57.332  1.00  0.00    -0.507 OA
ATOM     25  H   UNL     1     -34.710  11.550  57.886  1.00  0.00     0.293 HD
ENDBRANCH   6  24
BRANCH   8  26
ATOM     26  O   UNL     1     -36.934  14.372  54.291  1.00  0.00    -0.508 OA
ATOM     27  H   UNL     1     -37.287  15.229  53.881  1.00  0.00     0.293 HD
ENDBRANCH   8  26
TORSDOF 6
ENDMDL
MODEL 9
REMARK VINA RESULT:    -7.395      2.351      7.569
REMARK INTER + INTRA:          -9.491
REMARK INTER:                  -9.367
REMARK INTRA:                  -0.124
REMARK UNBOUND:                -0.367
REMARK SMILES COc1cc(-c2oc3cc(O)cc(O)c3c(=O)c2O)ccc1O
REMARK SMILES IDX 6 1 18 2 16 3 17 4 15 5 13 6 12 7 10 8 9 9 8 10 7 11 5 12
REMARK SMILES IDX 3 13 22 14 4 15 21 16 20 17 2 18 1 19 23 20 19 22 14 24
REMARK SMILES IDX 11 26
REMARK H PARENT 23 21 19 23 14 25 11 27
REMARK Flexibility Score: inf
ROOT
ATOM      1  C   UNL     1     -32.790  15.300  57.508  1.00  0.00     0.180 A 
ATOM      2  C   UNL     1     -33.414  15.009  58.734  1.00  0.00     0.208 A 
ATOM      3  C   UNL     1     -34.476  14.091  58.758  1.00  0.00     0.238 A 
ATOM      4  O   UNL     1     -35.065  13.876  59.849  1.00  0.00    -0.285 OA
ATOM      5  C   UNL     1     -34.889  13.463  57.558  1.00  0.00     0.111 A 
ATOM      6  C   UNL     1     -35.927  12.486  57.471  1.00  0.00     0.134 A 
ATOM      7  C   UNL     1     -36.341  12.027  56.214  1.00  0.00     0.093 A 
ATOM      8  C   UNL     1     -35.709  12.461  55.047  1.00  0.00     0.123 A 
ATOM      9  C   UNL     1     -34.655  13.369  55.126  1.00  0.00     0.094 A 
ATOM     10  C   UNL     1     -34.244  13.872  56.362  1.00  0.00     0.146 A 
ATOM     11  O   UNL     1     -33.243  14.744  56.391  1.00  0.00    -0.452 OA
ENDROOT
BRANCH   1  12
ATOM     12  C   UNL     1     -31.648  16.238  57.409  1.00  0.00     0.025 A 
ATOM     13  C   UNL     1     -30.680  18.467  57.680  1.00  0.00     0.161 A 
ATOM     14  C   UNL     1     -29.439  17.972  57.257  1.00  0.00     0.157 A 
ATOM     15  C   UNL     1     -31.782  17.593  57.762  1.00  0.00     0.062 A 
ATOM     16  C   UNL     1     -29.299  16.618  56.926  1.00  0.00     0.051 A 
ATOM     17  C   UNL     1     -30.393  15.756  57.008  1.00  0.00     0.016 A 
BRANCH  13  18
ATOM     18  O   UNL     1     -30.778  19.827  58.014  1.00  0.00    -0.493 OA
ATOM     19  C   UNL     1     -30.406  20.377  59.275  1.00  0.00     0.278 C 
ENDBRANCH  13  18
BRANCH  14  20
ATOM     20  O   UNL     1     -28.346  18.833  57.171  1.00  0.00    -0.504 OA
ATOM     21  H   UNL     1     -27.898  19.033  56.285  1.00  0.00     0.293 HD
ENDBRANCH  14  20
ENDBRANCH   1  12
BRANCH   2  22
ATOM     22  O   UNL     1     -33.005  15.658  59.903  1.00  0.00    -0.502 OA
ATOM     23  H   UNL     1     -33.114  15.246  60.822  1.00  0.00     0.293 HD
ENDBRANCH   2  22
BRANCH   6  24
ATOM     24  O   UNL     1     -36.560  11.919  58.582  1.00  0.00    -0.507 OA
ATOM     25  H   UNL     1     -36.594  12.337  59.499  1.00  0.00     0.293 HD
ENDBRANCH   6  24
BRANCH   8  26
ATOM     26  O   UNL     1     -36.116  11.988  53.800  1.00  0.00    -0.508 OA
ATOM     27  H   UNL     1     -36.019  12.550  52.963  1.00  0.00     0.293 HD
ENDBRANCH   8  26
TORSDOF 6
ENDMDL
