MODEL 1
REMARK VINA RESULT:    -5.027      0.000      0.000
REMARK INTER + INTRA:         -12.002
REMARK INTER:                  -9.729
REMARK INTRA:                  -2.273
REMARK UNBOUND:                -2.273
REMARK SMILES CCCCCC=CCC=CCCCCCCCCOC(C)=O
REMARK SMILES IDX 12 1 11 2 10 3 9 4 8 5 7 6 6 7 5 8 4 9 3 10 2 11 1 12 13 13
REMARK SMILES IDX 14 14 15 15 16 16 17 17 18 18 19 19 20 20 22 21 21 22
REMARK H PARENT
REMARK Flexibility Score: inf
ROOT
ATOM      1  C   UNL     1       4.796  56.343   9.696  1.00  0.00     0.004 C 
ENDROOT
BRANCH   1   2
ATOM      2  C   UNL     1       4.016  57.562  10.219  1.00  0.00     0.027 C 
BRANCH   2   3
ATOM      3  C   UNL     1       2.647  57.197  10.726  1.00  0.00    -0.031 C 
ATOM      4  C   UNL     1       1.847  56.355  10.054  1.00  0.00    -0.027 C 
BRANCH   4   5
ATOM      5  C   UNL     1       0.480  55.997  10.559  1.00  0.00     0.054 C 
BRANCH   5   6
ATOM      6  C   UNL     1      -0.496  55.909   9.411  1.00  0.00    -0.027 C 
ATOM      7  C   UNL     1      -0.600  54.871   8.560  1.00  0.00    -0.031 C 
BRANCH   7   8
ATOM      8  C   UNL     1       0.207  53.601   8.650  1.00  0.00     0.027 C 
BRANCH   8   9
ATOM      9  C   UNL     1       1.012  53.365   7.365  1.00  0.00     0.004 C 
BRANCH   9  10
ATOM     10  C   UNL     1       1.662  51.973   7.375  1.00  0.00     0.000 C 
BRANCH  10  11
ATOM     11  C   UNL     1       1.894  51.440   8.797  1.00  0.00    -0.003 C 
ATOM     12  C   UNL     1       2.747  50.173   8.820  1.00  0.00     0.004 C 
ENDBRANCH  10  11
ENDBRANCH   9  10
ENDBRANCH   8   9
ENDBRANCH   7   8
ENDBRANCH   5   6
ENDBRANCH   4   5
ENDBRANCH   2   3
ENDBRANCH   1   2
BRANCH   1  13
ATOM     13  C   UNL     1       5.090  55.274  10.765  1.00  0.00     0.000 C 
BRANCH  13  14
ATOM     14  C   UNL     1       4.635  53.869  10.338  1.00  0.00     0.000 C 
BRANCH  14  15
ATOM     15  C   UNL     1       4.838  53.606   8.835  1.00  0.00     0.000 C 
BRANCH  15  16
ATOM     16  C   UNL     1       5.801  52.453   8.492  1.00  0.00     0.003 C 
BRANCH  16  17
ATOM     17  C   UNL     1       5.787  52.007   7.017  1.00  0.00     0.042 C 
BRANCH  17  18
ATOM     18  C   UNL     1       4.799  52.794   6.144  1.00  0.00     0.233 C 
BRANCH  18  19
ATOM     19  O   UNL     1       5.473  53.515   5.115  1.00  0.00    -0.466 OA
BRANCH  19  20
ATOM     20  C   UNL     1       4.835  54.429   4.267  1.00  0.00     0.302 C 
ATOM     21  O   UNL     1       5.379  54.803   3.193  1.00  0.00    -0.253 OA
ATOM     22  C   UNL     1       3.479  54.937   4.623  1.00  0.00     0.139 C 
ENDBRANCH  19  20
ENDBRANCH  18  19
ENDBRANCH  17  18
ENDBRANCH  16  17
ENDBRANCH  15  16
ENDBRANCH  14  15
ENDBRANCH  13  14
ENDBRANCH   1  13
TORSDOF 16
ENDMDL
MODEL 2
REMARK VINA RESULT:    -4.923      1.144      4.247
REMARK INTER + INTRA:         -11.801
REMARK INTER:                  -9.017
REMARK INTRA:                  -2.784
REMARK UNBOUND:                -2.273
REMARK SMILES CCCCCC=CCC=CCCCCCCCCOC(C)=O
REMARK SMILES IDX 12 1 11 2 10 3 9 4 8 5 7 6 6 7 5 8 4 9 3 10 2 11 1 12 13 13
REMARK SMILES IDX 14 14 15 15 16 16 17 17 18 18 19 19 20 20 22 21 21 22
REMARK H PARENT
REMARK Flexibility Score: inf
ROOT
ATOM      1  C   UNL     1       1.780  52.070   7.426  1.00  0.00     0.004 C 
ENDROOT
BRANCH   1   2
ATOM      2  C   UNL     1       1.580  53.551   7.797  1.00  0.00     0.027 C 
BRANCH   2   3
ATOM      3  C   UNL     1       2.619  54.049   8.765  1.00  0.00    -0.031 C 
ATOM      4  C   UNL     1       3.532  54.965   8.409  1.00  0.00    -0.027 C 
BRANCH   4   5
ATOM      5  C   UNL     1       4.570  55.456   9.374  1.00  0.00     0.054 C 
BRANCH   5   6
ATOM      6  C   UNL     1       4.340  56.912   9.697  1.00  0.00    -0.027 C 
ATOM      7  C   UNL     1       3.666  57.371  10.769  1.00  0.00    -0.031 C 
BRANCH   7   8
ATOM      8  C   UNL     1       3.081  56.503  11.854  1.00  0.00     0.027 C 
BRANCH   8   9
ATOM      9  C   UNL     1       1.564  56.348  11.679  1.00  0.00     0.004 C 
BRANCH   9  10
ATOM     10  C   UNL     1       1.037  57.311  10.605  1.00  0.00     0.000 C 
BRANCH  10  11
ATOM     11  C   UNL     1      -0.454  57.097  10.300  1.00  0.00    -0.003 C 
ATOM     12  C   UNL     1      -0.699  55.931   9.345  1.00  0.00     0.004 C 
ENDBRANCH  10  11
ENDBRANCH   9  10
ENDBRANCH   8   9
ENDBRANCH   7   8
ENDBRANCH   5   6
ENDBRANCH   4   5
ENDBRANCH   2   3
ENDBRANCH   1   2
BRANCH   1  13
ATOM     13  C   UNL     1       1.873  51.122   8.636  1.00  0.00     0.000 C 
BRANCH  13  14
ATOM     14  C   UNL     1       3.151  50.267   8.621  1.00  0.00     0.000 C 
BRANCH  14  15
ATOM     15  C   UNL     1       4.299  50.895   9.433  1.00  0.00     0.000 C 
BRANCH  15  16
ATOM     16  C   UNL     1       5.326  51.696   8.608  1.00  0.00     0.003 C 
BRANCH  16  17
ATOM     17  C   UNL     1       5.452  51.271   7.132  1.00  0.00     0.042 C 
BRANCH  17  18
ATOM     18  C   UNL     1       5.791  52.430   6.183  1.00  0.00     0.233 C 
BRANCH  18  19
ATOM     19  O   UNL     1       4.634  53.206   5.876  1.00  0.00    -0.466 OA
BRANCH  19  20
ATOM     20  C   UNL     1       4.601  54.177   4.868  1.00  0.00     0.302 C 
ATOM     21  O   UNL     1       5.599  54.367   4.121  1.00  0.00    -0.253 OA
ATOM     22  C   UNL     1       3.357  54.969   4.652  1.00  0.00     0.139 C 
ENDBRANCH  19  20
ENDBRANCH  18  19
ENDBRANCH  17  18
ENDBRANCH  16  17
ENDBRANCH  15  16
ENDBRANCH  14  15
ENDBRANCH  13  14
ENDBRANCH   1  13
TORSDOF 16
ENDMDL
MODEL 3
REMARK VINA RESULT:    -4.918     12.042     14.723
REMARK INTER + INTRA:         -11.791
REMARK INTER:                  -9.382
REMARK INTRA:                  -2.409
REMARK UNBOUND:                -2.273
REMARK SMILES CCCCCC=CCC=CCCCCCCCCOC(C)=O
REMARK SMILES IDX 12 1 11 2 10 3 9 4 8 5 7 6 6 7 5 8 4 9 3 10 2 11 1 12 13 13
REMARK SMILES IDX 14 14 15 15 16 16 17 17 18 18 19 19 20 20 22 21 21 22
REMARK H PARENT
REMARK Flexibility Score: inf
ROOT
ATOM      1  C   UNL     1      -4.291  65.110   7.496  1.00  0.00     0.004 C 
ENDROOT
BRANCH   1   2
ATOM      2  C   UNL     1      -4.608  65.546   6.055  1.00  0.00     0.027 C 
BRANCH   2   3
ATOM      3  C   UNL     1      -6.086  65.577   5.773  1.00  0.00    -0.031 C 
ATOM      4  C   UNL     1      -6.978  65.891   6.725  1.00  0.00    -0.027 C 
BRANCH   4   5
ATOM      5  C   UNL     1      -8.451  65.915   6.443  1.00  0.00     0.054 C 
BRANCH   5   6
ATOM      6  C   UNL     1      -8.811  67.142   5.640  1.00  0.00    -0.027 C 
ATOM      7  C   UNL     1      -9.940  67.293   4.922  1.00  0.00    -0.031 C 
BRANCH   7   8
ATOM      8  C   UNL     1     -11.056  66.283   4.849  1.00  0.00     0.027 C 
BRANCH   8   9
ATOM      9  C   UNL     1     -11.024  65.519   3.519  1.00  0.00     0.004 C 
BRANCH   9  10
ATOM     10  C   UNL     1     -10.143  64.265   3.630  1.00  0.00     0.000 C 
BRANCH  10  11
ATOM     11  C   UNL     1      -9.044  64.218   2.558  1.00  0.00    -0.003 C 
ATOM     12  C   UNL     1      -8.861  65.554   1.841  1.00  0.00     0.004 C 
ENDBRANCH  10  11
ENDBRANCH   9  10
ENDBRANCH   8   9
ENDBRANCH   7   8
ENDBRANCH   5   6
ENDBRANCH   4   5
ENDBRANCH   2   3
ENDBRANCH   1   2
BRANCH   1  13
ATOM     13  C   UNL     1      -3.635  63.720   7.607  1.00  0.00     0.000 C 
BRANCH  13  14
ATOM     14  C   UNL     1      -4.644  62.617   7.965  1.00  0.00     0.000 C 
BRANCH  14  15
ATOM     15  C   UNL     1      -5.249  61.935   6.724  1.00  0.00     0.000 C 
BRANCH  15  16
ATOM     16  C   UNL     1      -4.345  61.920   5.475  1.00  0.00     0.003 C 
BRANCH  16  17
ATOM     17  C   UNL     1      -5.038  62.336   4.163  1.00  0.00     0.042 C 
BRANCH  17  18
ATOM     18  C   UNL     1      -6.505  61.891   4.072  1.00  0.00     0.233 C 
BRANCH  18  19
ATOM     19  O   UNL     1      -6.614  60.470   4.004  1.00  0.00    -0.466 OA
BRANCH  19  20
ATOM     20  C   UNL     1      -6.366  59.732   2.841  1.00  0.00     0.302 C 
ATOM     21  O   UNL     1      -5.312  59.051   2.720  1.00  0.00    -0.253 OA
ATOM     22  C   UNL     1      -7.380  59.722   1.748  1.00  0.00     0.139 C 
ENDBRANCH  19  20
ENDBRANCH  18  19
ENDBRANCH  17  18
ENDBRANCH  16  17
ENDBRANCH  15  16
ENDBRANCH  14  15
ENDBRANCH  13  14
ENDBRANCH   1  13
TORSDOF 16
ENDMDL
MODEL 4
REMARK VINA RESULT:    -4.806      1.732      3.776
REMARK INTER + INTRA:         -11.575
REMARK INTER:                  -9.060
REMARK INTRA:                  -2.515
REMARK UNBOUND:                -2.273
REMARK SMILES CCCCCC=CCC=CCCCCCCCCOC(C)=O
REMARK SMILES IDX 12 1 11 2 10 3 9 4 8 5 7 6 6 7 5 8 4 9 3 10 2 11 1 12 13 13
REMARK SMILES IDX 14 14 15 15 16 16 17 17 18 18 19 19 20 20 22 21 21 22
REMARK H PARENT
REMARK Flexibility Score: inf
ROOT
ATOM      1  C   UNL     1       3.251  57.619  10.679  1.00  0.00     0.004 C 
ENDROOT
BRANCH   1   2
ATOM      2  C   UNL     1       1.729  57.490  10.866  1.00  0.00     0.027 C 
BRANCH   2   3
ATOM      3  C   UNL     1       1.174  56.240  10.238  1.00  0.00    -0.031 C 
ATOM      4  C   UNL     1      -0.058  56.204   9.708  1.00  0.00    -0.027 C 
BRANCH   4   5
ATOM      5  C   UNL     1      -0.612  54.955   9.088  1.00  0.00     0.054 C 
BRANCH   5   6
ATOM      6  C   UNL     1       0.269  53.773   9.415  1.00  0.00    -0.027 C 
ATOM      7  C   UNL     1       1.050  53.122   8.533  1.00  0.00    -0.031 C 
BRANCH   7   8
ATOM      8  C   UNL     1       1.215  53.503   7.084  1.00  0.00     0.027 C 
BRANCH   8   9
ATOM      9  C   UNL     1       2.607  54.093   6.822  1.00  0.00     0.004 C 
BRANCH   9  10
ATOM     10  C   UNL     1       3.102  53.724   5.416  1.00  0.00     0.000 C 
BRANCH  10  11
ATOM     11  C   UNL     1       3.853  54.876   4.733  1.00  0.00    -0.003 C 
ATOM     12  C   UNL     1       5.218  54.454   4.193  1.00  0.00     0.004 C 
ENDBRANCH  10  11
ENDBRANCH   9  10
ENDBRANCH   8   9
ENDBRANCH   7   8
ENDBRANCH   5   6
ENDBRANCH   4   5
ENDBRANCH   2   3
ENDBRANCH   1   2
BRANCH   1  13
ATOM     13  C   UNL     1       3.801  56.884   9.442  1.00  0.00     0.000 C 
BRANCH  13  14
ATOM     14  C   UNL     1       4.951  55.924   9.788  1.00  0.00     0.000 C 
BRANCH  14  15
ATOM     15  C   UNL     1       4.502  54.749  10.676  1.00  0.00     0.000 C 
BRANCH  15  16
ATOM     16  C   UNL     1       4.515  53.366   9.995  1.00  0.00     0.003 C 
BRANCH  16  17
ATOM     17  C   UNL     1       5.337  53.288   8.693  1.00  0.00     0.042 C 
BRANCH  17  18
ATOM     18  C   UNL     1       5.678  51.854   8.265  1.00  0.00     0.233 C 
BRANCH  18  19
ATOM     19  O   UNL     1       4.528  51.172   7.767  1.00  0.00    -0.466 OA
BRANCH  19  20
ATOM     20  C   UNL     1       4.009  50.009   8.350  1.00  0.00     0.302 C 
ATOM     21  O   UNL     1       4.558  48.891   8.162  1.00  0.00    -0.253 OA
ATOM     22  C   UNL     1       2.811  50.103   9.234  1.00  0.00     0.139 C 
ENDBRANCH  19  20
ENDBRANCH  18  19
ENDBRANCH  17  18
ENDBRANCH  16  17
ENDBRANCH  15  16
ENDBRANCH  14  15
ENDBRANCH  13  14
ENDBRANCH   1  13
TORSDOF 16
ENDMDL
MODEL 5
REMARK VINA RESULT:    -4.779      1.264      4.033
REMARK INTER + INTRA:         -11.522
REMARK INTER:                  -9.308
REMARK INTRA:                  -2.214
REMARK UNBOUND:                -2.273
REMARK SMILES CCCCCC=CCC=CCCCCCCCCOC(C)=O
REMARK SMILES IDX 12 1 11 2 10 3 9 4 8 5 7 6 6 7 5 8 4 9 3 10 2 11 1 12 13 13
REMARK SMILES IDX 14 14 15 15 16 16 17 17 18 18 19 19 20 20 22 21 21 22
REMARK H PARENT
REMARK Flexibility Score: inf
ROOT
ATOM      1  C   UNL     1      -0.675  55.451   8.777  1.00  0.00     0.004 C 
ENDROOT
BRANCH   1   2
ATOM      2  C   UNL     1       0.176  55.411  10.058  1.00  0.00     0.027 C 
BRANCH   2   3
ATOM      3  C   UNL     1       1.375  56.317   9.983  1.00  0.00    -0.031 C 
ATOM      4  C   UNL     1       1.772  57.049  11.035  1.00  0.00    -0.027 C 
BRANCH   4   5
ATOM      5  C   UNL     1       2.965  57.957  10.956  1.00  0.00     0.054 C 
BRANCH   5   6
ATOM      6  C   UNL     1       3.811  57.606   9.756  1.00  0.00    -0.027 C 
ATOM      7  C   UNL     1       4.906  56.823   9.783  1.00  0.00    -0.031 C 
BRANCH   7   8
ATOM      8  C   UNL     1       5.432  56.121  11.009  1.00  0.00     0.027 C 
BRANCH   8   9
ATOM      9  C   UNL     1       4.981  54.654  11.043  1.00  0.00     0.004 C 
BRANCH   9  10
ATOM     10  C   UNL     1       4.503  54.198   9.657  1.00  0.00     0.000 C 
BRANCH  10  11
ATOM     11  C   UNL     1       4.818  52.720   9.380  1.00  0.00    -0.003 C 
ATOM     12  C   UNL     1       3.799  51.771  10.008  1.00  0.00     0.004 C 
ENDBRANCH  10  11
ENDBRANCH   9  10
ENDBRANCH   8   9
ENDBRANCH   7   8
ENDBRANCH   5   6
ENDBRANCH   4   5
ENDBRANCH   2   3
ENDBRANCH   1   2
BRANCH   1  13
ATOM     13  C   UNL     1      -0.114  54.605   7.618  1.00  0.00     0.000 C 
BRANCH  13  14
ATOM     14  C   UNL     1       0.614  53.342   8.106  1.00  0.00     0.000 C 
BRANCH  14  15
ATOM     15  C   UNL     1       1.709  52.869   7.132  1.00  0.00     0.000 C 
BRANCH  15  16
ATOM     16  C   UNL     1       2.601  53.984   6.552  1.00  0.00     0.003 C 
BRANCH  16  17
ATOM     17  C   UNL     1       3.459  53.570   5.341  1.00  0.00     0.042 C 
BRANCH  17  18
ATOM     18  C   UNL     1       4.115  54.754   4.616  1.00  0.00     0.233 C 
BRANCH  18  19
ATOM     19  O   UNL     1       5.508  54.530   4.409  1.00  0.00    -0.466 OA
BRANCH  19  20
ATOM     20  C   UNL     1       6.117  54.566   3.149  1.00  0.00     0.302 C 
ATOM     21  O   UNL     1       5.439  54.790   2.110  1.00  0.00    -0.253 OA
ATOM     22  C   UNL     1       7.592  54.375   3.040  1.00  0.00     0.139 C 
ENDBRANCH  19  20
ENDBRANCH  18  19
ENDBRANCH  17  18
ENDBRANCH  16  17
ENDBRANCH  15  16
ENDBRANCH  14  15
ENDBRANCH  13  14
ENDBRANCH   1  13
TORSDOF 16
ENDMDL
MODEL 6
REMARK VINA RESULT:    -4.764     12.411     15.466
REMARK INTER + INTRA:         -11.493
REMARK INTER:                  -8.700
REMARK INTRA:                  -2.793
REMARK UNBOUND:                -2.273
REMARK SMILES CCCCCC=CCC=CCCCCCCCCOC(C)=O
REMARK SMILES IDX 12 1 11 2 10 3 9 4 8 5 7 6 6 7 5 8 4 9 3 10 2 11 1 12 13 13
REMARK SMILES IDX 14 14 15 15 16 16 17 17 18 18 19 19 20 20 22 21 21 22
REMARK H PARENT
REMARK Flexibility Score: inf
ROOT
ATOM      1  C   UNL     1      -7.504  62.034   3.878  1.00  0.00     0.004 C 
ENDROOT
BRANCH   1   2
ATOM      2  C   UNL     1      -8.378  62.395   2.664  1.00  0.00     0.027 C 
BRANCH   2   3
ATOM      3  C   UNL     1      -9.280  63.569   2.931  1.00  0.00    -0.031 C 
ATOM      4  C   UNL     1      -9.214  64.690   2.197  1.00  0.00    -0.027 C 
BRANCH   4   5
ATOM      5  C   UNL     1     -10.111  65.862   2.469  1.00  0.00     0.054 C 
BRANCH   5   6
ATOM      6  C   UNL     1     -10.876  65.650   3.753  1.00  0.00    -0.027 C 
ATOM      7  C   UNL     1     -10.732  66.387   4.871  1.00  0.00    -0.031 C 
BRANCH   7   8
ATOM      8  C   UNL     1      -9.822  67.582   5.003  1.00  0.00     0.027 C 
BRANCH   8   9
ATOM      9  C   UNL     1      -8.604  67.255   5.877  1.00  0.00     0.004 C 
BRANCH   9  10
ATOM     10  C   UNL     1      -8.567  65.760   6.227  1.00  0.00     0.000 C 
BRANCH  10  11
ATOM     11  C   UNL     1      -7.195  65.124   5.957  1.00  0.00    -0.003 C 
ATOM     12  C   UNL     1      -6.622  65.510   4.595  1.00  0.00     0.004 C 
ENDBRANCH  10  11
ENDBRANCH   9  10
ENDBRANCH   8   9
ENDBRANCH   7   8
ENDBRANCH   5   6
ENDBRANCH   4   5
ENDBRANCH   2   3
ENDBRANCH   1   2
BRANCH   1  13
ATOM     13  C   UNL     1      -6.646  60.769   3.687  1.00  0.00     0.000 C 
BRANCH  13  14
ATOM     14  C   UNL     1      -5.158  61.090   3.471  1.00  0.00     0.000 C 
BRANCH  14  15
ATOM     15  C   UNL     1      -4.677  62.287   4.313  1.00  0.00     0.000 C 
BRANCH  15  16
ATOM     16  C   UNL     1      -4.048  61.924   5.673  1.00  0.00     0.003 C 
BRANCH  16  17
ATOM     17  C   UNL     1      -5.033  61.892   6.859  1.00  0.00     0.042 C 
BRANCH  17  18
ATOM     18  C   UNL     1      -4.878  63.080   7.819  1.00  0.00     0.233 C 
BRANCH  18  19
ATOM     19  O   UNL     1      -3.902  64.007   7.348  1.00  0.00    -0.466 OA
BRANCH  19  20
ATOM     20  C   UNL     1      -3.809  65.328   7.803  1.00  0.00     0.302 C 
ATOM     21  O   UNL     1      -3.707  65.583   9.033  1.00  0.00    -0.253 OA
ATOM     22  C   UNL     1      -3.793  66.445   6.815  1.00  0.00     0.139 C 
ENDBRANCH  19  20
ENDBRANCH  18  19
ENDBRANCH  17  18
ENDBRANCH  16  17
ENDBRANCH  15  16
ENDBRANCH  14  15
ENDBRANCH  13  14
ENDBRANCH   1  13
TORSDOF 16
ENDMDL
MODEL 7
REMARK VINA RESULT:    -4.696      1.306      4.659
REMARK INTER + INTRA:         -11.362
REMARK INTER:                  -8.266
REMARK INTRA:                  -3.096
REMARK UNBOUND:                -2.273
REMARK SMILES CCCCCC=CCC=CCCCCCCCCOC(C)=O
REMARK SMILES IDX 12 1 11 2 10 3 9 4 8 5 7 6 6 7 5 8 4 9 3 10 2 11 1 12 13 13
REMARK SMILES IDX 14 14 15 15 16 16 17 17 18 18 19 19 20 20 22 21 21 22
REMARK H PARENT
REMARK Flexibility Score: inf
ROOT
ATOM      1  C   UNL     1       4.871  51.111  10.570  1.00  0.00     0.004 C 
ENDROOT
BRANCH   1   2
ATOM      2  C   UNL     1       4.242  52.129  11.537  1.00  0.00     0.027 C 
BRANCH   2   3
ATOM      3  C   UNL     1       4.208  53.522  10.968  1.00  0.00    -0.031 C 
ATOM      4  C   UNL     1       4.688  53.795   9.745  1.00  0.00    -0.027 C 
BRANCH   4   5
ATOM      5  C   UNL     1       4.658  55.185   9.181  1.00  0.00     0.054 C 
BRANCH   5   6
ATOM      6  C   UNL     1       5.222  56.168  10.179  1.00  0.00    -0.027 C 
ATOM      7  C   UNL     1       4.621  57.308  10.568  1.00  0.00    -0.031 C 
BRANCH   7   8
ATOM      8  C   UNL     1       3.258  57.762  10.111  1.00  0.00     0.027 C 
BRANCH   8   9
ATOM      9  C   UNL     1       2.236  57.676  11.252  1.00  0.00     0.004 C 
BRANCH   9  10
ATOM     10  C   UNL     1       1.574  56.290  11.290  1.00  0.00     0.000 C 
BRANCH  10  11
ATOM     11  C   UNL     1       1.131  55.809   9.900  1.00  0.00    -0.003 C 
ATOM     12  C   UNL     1      -0.359  56.031   9.645  1.00  0.00     0.004 C 
ENDBRANCH  10  11
ENDBRANCH   9  10
ENDBRANCH   8   9
ENDBRANCH   7   8
ENDBRANCH   5   6
ENDBRANCH   4   5
ENDBRANCH   2   3
ENDBRANCH   1   2
BRANCH   1  13
ATOM     13  C   UNL     1       3.897  50.028  10.070  1.00  0.00     0.000 C 
BRANCH  13  14
ATOM     14  C   UNL     1       3.442  50.265   8.620  1.00  0.00     0.000 C 
BRANCH  14  15
ATOM     15  C   UNL     1       1.968  50.699   8.520  1.00  0.00     0.000 C 
BRANCH  15  16
ATOM     16  C   UNL     1       1.710  52.204   8.732  1.00  0.00     0.003 C 
BRANCH  16  17
ATOM     17  C   UNL     1       1.207  52.961   7.487  1.00  0.00     0.042 C 
BRANCH  17  18
ATOM     18  C   UNL     1       2.080  52.749   6.242  1.00  0.00     0.233 C 
BRANCH  18  19
ATOM     19  O   UNL     1       2.867  53.903   5.955  1.00  0.00    -0.466 OA
BRANCH  19  20
ATOM     20  C   UNL     1       4.231  53.849   5.641  1.00  0.00     0.302 C 
ATOM     21  O   UNL     1       4.757  54.717   4.893  1.00  0.00    -0.253 OA
ATOM     22  C   UNL     1       5.077  52.772   6.229  1.00  0.00     0.139 C 
ENDBRANCH  19  20
ENDBRANCH  18  19
ENDBRANCH  17  18
ENDBRANCH  16  17
ENDBRANCH  15  16
ENDBRANCH  14  15
ENDBRANCH  13  14
ENDBRANCH   1  13
TORSDOF 16
ENDMDL
MODEL 8
REMARK VINA RESULT:    -4.639      2.545      5.491
REMARK INTER + INTRA:         -11.251
REMARK INTER:                  -8.147
REMARK INTRA:                  -3.103
REMARK UNBOUND:                -2.273
REMARK SMILES CCCCCC=CCC=CCCCCCCCCOC(C)=O
REMARK SMILES IDX 12 1 11 2 10 3 9 4 8 5 7 6 6 7 5 8 4 9 3 10 2 11 1 12 13 13
REMARK SMILES IDX 14 14 15 15 16 16 17 17 18 18 19 19 20 20 22 21 21 22
REMARK H PARENT
REMARK Flexibility Score: inf
ROOT
ATOM      1  C   UNL     1      -0.367  53.591   9.336  1.00  0.00     0.004 C 
ENDROOT
BRANCH   1   2
ATOM      2  C   UNL     1      -0.278  54.588   8.168  1.00  0.00     0.027 C 
BRANCH   2   3
ATOM      3  C   UNL     1       0.726  54.171   7.127  1.00  0.00    -0.031 C 
ATOM      4  C   UNL     1       1.295  52.956   7.145  1.00  0.00    -0.027 C 
BRANCH   4   5
ATOM      5  C   UNL     1       2.300  52.544   6.109  1.00  0.00     0.054 C 
BRANCH   5   6
ATOM      6  C   UNL     1       3.347  53.617   5.939  1.00  0.00    -0.027 C 
ATOM      7  C   UNL     1       4.671  53.442   6.114  1.00  0.00    -0.031 C 
BRANCH   7   8
ATOM      8  C   UNL     1       5.328  52.128   6.454  1.00  0.00     0.027 C 
BRANCH   8   9
ATOM      9  C   UNL     1       5.885  52.142   7.884  1.00  0.00     0.004 C 
BRANCH   9  10
ATOM     10  C   UNL     1       4.880  51.527   8.868  1.00  0.00     0.000 C 
BRANCH  10  11
ATOM     11  C   UNL     1       4.141  50.317   8.278  1.00  0.00    -0.003 C 
ATOM     12  C   UNL     1       2.831  50.013   9.003  1.00  0.00     0.004 C 
ENDBRANCH  10  11
ENDBRANCH   9  10
ENDBRANCH   8   9
ENDBRANCH   7   8
ENDBRANCH   5   6
ENDBRANCH   4   5
ENDBRANCH   2   3
ENDBRANCH   1   2
BRANCH   1  13
ATOM     13  C   UNL     1       0.064  54.169  10.697  1.00  0.00     0.000 C 
BRANCH  13  14
ATOM     14  C   UNL     1       1.189  55.208  10.568  1.00  0.00     0.000 C 
BRANCH  14  15
ATOM     15  C   UNL     1       2.593  54.574  10.584  1.00  0.00     0.000 C 
BRANCH  15  16
ATOM     16  C   UNL     1       3.518  54.995   9.425  1.00  0.00     0.003 C 
BRANCH  16  17
ATOM     17  C   UNL     1       5.019  55.038   9.772  1.00  0.00     0.042 C 
BRANCH  17  18
ATOM     18  C   UNL     1       5.452  56.331  10.478  1.00  0.00     0.233 C 
BRANCH  18  19
ATOM     19  O   UNL     1       4.583  57.416  10.156  1.00  0.00    -0.466 OA
BRANCH  19  20
ATOM     20  C   UNL     1       3.917  58.184  11.119  1.00  0.00     0.302 C 
ATOM     21  O   UNL     1       2.686  58.428  11.013  1.00  0.00    -0.253 OA
ATOM     22  C   UNL     1       4.670  58.687  12.304  1.00  0.00     0.139 C 
ENDBRANCH  19  20
ENDBRANCH  18  19
ENDBRANCH  17  18
ENDBRANCH  16  17
ENDBRANCH  15  16
ENDBRANCH  14  15
ENDBRANCH  13  14
ENDBRANCH   1  13
TORSDOF 16
ENDMDL
MODEL 9
REMARK VINA RESULT:    -4.618      2.440      5.037
REMARK INTER + INTRA:         -11.211
REMARK INTER:                  -8.121
REMARK INTRA:                  -3.089
REMARK UNBOUND:                -2.273
REMARK SMILES CCCCCC=CCC=CCCCCCCCCOC(C)=O
REMARK SMILES IDX 12 1 11 2 10 3 9 4 8 5 7 6 6 7 5 8 4 9 3 10 2 11 1 12 13 13
REMARK SMILES IDX 14 14 15 15 16 16 17 17 18 18 19 19 20 20 22 21 21 22
REMARK H PARENT
REMARK Flexibility Score: inf
ROOT
ATOM      1  C   UNL     1       3.665  54.122   6.162  1.00  0.00     0.004 C 
ENDROOT
BRANCH   1   2
ATOM      2  C   UNL     1       2.382  53.277   6.078  1.00  0.00     0.027 C 
BRANCH   2   3
ATOM      3  C   UNL     1       1.581  53.315   7.351  1.00  0.00    -0.031 C 
ATOM      4  C   UNL     1       0.500  54.100   7.480  1.00  0.00    -0.027 C 
BRANCH   4   5
ATOM      5  C   UNL     1      -0.294  54.142   8.752  1.00  0.00     0.054 C 
BRANCH   5   6
ATOM      6  C   UNL     1      -0.457  55.567   9.222  1.00  0.00    -0.027 C 
ATOM      7  C   UNL     1       0.209  56.124  10.251  1.00  0.00    -0.031 C 
BRANCH   7   8
ATOM      8  C   UNL     1       1.271  55.431  11.066  1.00  0.00     0.027 C 
BRANCH   8   9
ATOM      9  C   UNL     1       2.629  56.130  10.914  1.00  0.00     0.004 C 
BRANCH   9  10
ATOM     10  C   UNL     1       3.136  56.031   9.468  1.00  0.00     0.000 C 
BRANCH  10  11
ATOM     11  C   UNL     1       4.664  55.895   9.386  1.00  0.00    -0.003 C 
ATOM     12  C   UNL     1       5.296  55.518  10.725  1.00  0.00     0.004 C 
ENDBRANCH  10  11
ENDBRANCH   9  10
ENDBRANCH   8   9
ENDBRANCH   7   8
ENDBRANCH   5   6
ENDBRANCH   4   5
ENDBRANCH   2   3
ENDBRANCH   1   2
BRANCH   1  13
ATOM     13  C   UNL     1       4.894  53.474   5.497  1.00  0.00     0.000 C 
BRANCH  13  14
ATOM     14  C   UNL     1       5.516  52.362   6.357  1.00  0.00     0.000 C 
BRANCH  14  15
ATOM     15  C   UNL     1       5.524  52.702   7.859  1.00  0.00     0.000 C 
BRANCH  15  16
ATOM     16  C   UNL     1       5.020  51.583   8.791  1.00  0.00     0.003 C 
BRANCH  16  17
ATOM     17  C   UNL     1       4.175  50.493   8.102  1.00  0.00     0.042 C 
BRANCH  17  18
ATOM     18  C   UNL     1       3.240  49.740   9.061  1.00  0.00     0.233 C 
BRANCH  18  19
ATOM     19  O   UNL     1       1.903  50.229   8.974  1.00  0.00    -0.466 OA
BRANCH  19  20
ATOM     20  C   UNL     1       1.244  50.867  10.032  1.00  0.00     0.302 C 
ATOM     21  O   UNL     1       0.034  50.621  10.282  1.00  0.00    -0.253 OA
ATOM     22  C   UNL     1       1.997  51.821  10.896  1.00  0.00     0.139 C 
ENDBRANCH  19  20
ENDBRANCH  18  19
ENDBRANCH  17  18
ENDBRANCH  16  17
ENDBRANCH  15  16
ENDBRANCH  14  15
ENDBRANCH  13  14
ENDBRANCH   1  13
TORSDOF 16
ENDMDL
