MODEL 1
REMARK VINA RESULT:    -5.593      0.000      0.000
REMARK INTER + INTRA:         -11.519
REMARK INTER:                 -10.824
REMARK INTRA:                  -0.695
REMARK UNBOUND:                -0.695
REMARK SMILES CCCCCCCCCCCCCCCCCC(=O)[O-]
REMARK SMILES IDX 10 1 11 2 12 3 13 4 14 5 15 6 16 7 17 8 18 9 19 10 20 11
REMARK SMILES IDX 9 12 8 13 7 14 6 15 5 16 4 17 3 18 2 19 1 20
REMARK H PARENT
REMARK Flexibility Score: inf
ROOT
ATOM      1  C   UNL     1      22.286 -11.924  21.708  1.00  0.00     0.000 C 
ENDROOT
BRANCH   1   2
ATOM      2  C   UNL     1      21.944 -10.814  22.717  1.00  0.00     0.000 C 
BRANCH   2   3
ATOM      3  C   UNL     1      20.624 -11.068  23.461  1.00  0.00     0.000 C 
BRANCH   3   4
ATOM      4  C   UNL     1      20.540 -10.215  24.735  1.00  0.00     0.000 C 
BRANCH   4   5
ATOM      5  C   UNL     1      20.804  -8.720  24.474  1.00  0.00     0.000 C 
BRANCH   5   6
ATOM      6  C   UNL     1      20.343  -7.772  25.596  1.00  0.00     0.000 C 
BRANCH   6   7
ATOM      7  C   UNL     1      19.417  -6.653  25.090  1.00  0.00     0.006 C 
BRANCH   7   8
ATOM      8  C   UNL     1      19.993  -5.934  23.863  1.00  0.00     0.053 C 
BRANCH   8   9
ATOM      9  C   UNL     1      20.719  -4.679  24.242  1.00  0.00     0.041 C 
ATOM     10  O   UNL     1      21.171  -4.536  25.409  1.00  0.00    -0.550 OA
ATOM     11  O   UNL     1      20.883  -3.661  23.311  1.00  0.00    -0.550 OA
ENDBRANCH   8   9
ENDBRANCH   7   8
ENDBRANCH   6   7
ENDBRANCH   5   6
ENDBRANCH   4   5
ENDBRANCH   3   4
ENDBRANCH   2   3
ENDBRANCH   1   2
BRANCH   1  12
ATOM     12  C   UNL     1      21.095 -12.797  21.265  1.00  0.00     0.000 C 
BRANCH  12  13
ATOM     13  C   UNL     1      21.395 -13.778  20.116  1.00  0.00    -0.000 C 
BRANCH  13  14
ATOM     14  C   UNL     1      22.648 -14.629  20.368  1.00  0.00    -0.000 C 
BRANCH  14  15
ATOM     15  C   UNL     1      22.923 -15.563  19.179  1.00  0.00    -0.000 C 
BRANCH  15  16
ATOM     16  C   UNL     1      22.976 -17.045  19.586  1.00  0.00    -0.000 C 
BRANCH  16  17
ATOM     17  C   UNL     1      23.647 -17.928  18.519  1.00  0.00    -0.000 C 
BRANCH  17  18
ATOM     18  C   UNL     1      23.131 -17.642  17.097  1.00  0.00    -0.000 C 
BRANCH  18  19
ATOM     19  C   UNL     1      22.345 -18.795  16.446  1.00  0.00    -0.003 C 
ATOM     20  C   UNL     1      22.010 -19.921  17.424  1.00  0.00     0.004 C 
ENDBRANCH  18  19
ENDBRANCH  17  18
ENDBRANCH  16  17
ENDBRANCH  15  16
ENDBRANCH  14  15
ENDBRANCH  13  14
ENDBRANCH  12  13
ENDBRANCH   1  12
TORSDOF 16
ENDMDL
MODEL 2
REMARK VINA RESULT:    -5.552      1.699      2.206
REMARK INTER + INTRA:         -11.440
REMARK INTER:                 -10.628
REMARK INTRA:                  -0.812
REMARK UNBOUND:                -0.695
REMARK SMILES CCCCCCCCCCCCCCCCCC(=O)[O-]
REMARK SMILES IDX 10 1 11 2 12 3 13 4 14 5 15 6 16 7 17 8 18 9 19 10 20 11
REMARK SMILES IDX 9 12 8 13 7 14 6 15 5 16 4 17 3 18 2 19 1 20
REMARK H PARENT
REMARK Flexibility Score: inf
ROOT
ATOM      1  C   UNL     1      21.186 -12.616  21.272  1.00  0.00     0.000 C 
ENDROOT
BRANCH   1   2
ATOM      2  C   UNL     1      22.416 -11.810  21.727  1.00  0.00     0.000 C 
BRANCH   2   3
ATOM      3  C   UNL     1      22.044 -10.562  22.541  1.00  0.00     0.000 C 
BRANCH   3   4
ATOM      4  C   UNL     1      20.960 -10.888  23.579  1.00  0.00     0.000 C 
BRANCH   4   5
ATOM      5  C   UNL     1      20.686  -9.722  24.547  1.00  0.00     0.000 C 
BRANCH   5   6
ATOM      6  C   UNL     1      21.098  -8.333  24.027  1.00  0.00     0.000 C 
BRANCH   6   7
ATOM      7  C   UNL     1      21.970  -7.554  25.026  1.00  0.00     0.006 C 
BRANCH   7   8
ATOM      8  C   UNL     1      21.317  -7.457  26.412  1.00  0.00     0.053 C 
BRANCH   8   9
ATOM      9  C   UNL     1      21.968  -6.410  27.263  1.00  0.00     0.041 C 
ATOM     10  O   UNL     1      21.642  -6.285  28.474  1.00  0.00    -0.550 OA
ATOM     11  O   UNL     1      22.924  -5.563  26.717  1.00  0.00    -0.550 OA
ENDBRANCH   8   9
ENDBRANCH   7   8
ENDBRANCH   6   7
ENDBRANCH   5   6
ENDBRANCH   4   5
ENDBRANCH   3   4
ENDBRANCH   2   3
ENDBRANCH   1   2
BRANCH   1  12
ATOM     12  C   UNL     1      21.478 -13.744  20.262  1.00  0.00     0.000 C 
BRANCH  12  13
ATOM     13  C   UNL     1      22.785 -14.519  20.508  1.00  0.00    -0.000 C 
BRANCH  13  14
ATOM     14  C   UNL     1      22.927 -15.754  19.608  1.00  0.00    -0.000 C 
BRANCH  14  15
ATOM     15  C   UNL     1      22.613 -15.405  18.145  1.00  0.00    -0.000 C 
BRANCH  15  16
ATOM     16  C   UNL     1      22.984 -16.534  17.170  1.00  0.00    -0.000 C 
BRANCH  16  17
ATOM     17  C   UNL     1      23.444 -17.813  17.892  1.00  0.00    -0.000 C 
BRANCH  17  18
ATOM     18  C   UNL     1      23.745 -18.970  16.923  1.00  0.00    -0.000 C 
BRANCH  18  19
ATOM     19  C   UNL     1      22.831 -20.200  17.075  1.00  0.00    -0.003 C 
ATOM     20  C   UNL     1      21.401 -19.948  16.598  1.00  0.00     0.004 C 
ENDBRANCH  18  19
ENDBRANCH  17  18
ENDBRANCH  16  17
ENDBRANCH  15  16
ENDBRANCH  14  15
ENDBRANCH  13  14
ENDBRANCH  12  13
ENDBRANCH   1  12
TORSDOF 16
ENDMDL
MODEL 3
REMARK VINA RESULT:    -5.534      1.412      3.419
REMARK INTER + INTRA:         -11.405
REMARK INTER:                 -10.626
REMARK INTRA:                  -0.778
REMARK UNBOUND:                -0.695
REMARK SMILES CCCCCCCCCCCCCCCCCC(=O)[O-]
REMARK SMILES IDX 10 1 11 2 12 3 13 4 14 5 15 6 16 7 17 8 18 9 19 10 20 11
REMARK SMILES IDX 9 12 8 13 7 14 6 15 5 16 4 17 3 18 2 19 1 20
REMARK H PARENT
REMARK Flexibility Score: inf
ROOT
ATOM      1  C   UNL     1      22.280 -14.447  20.054  1.00  0.00     0.000 C 
ENDROOT
BRANCH   1   2
ATOM      2  C   UNL     1      23.236 -14.157  21.225  1.00  0.00     0.000 C 
BRANCH   2   3
ATOM      3  C   UNL     1      23.291 -12.667  21.595  1.00  0.00     0.000 C 
BRANCH   3   4
ATOM      4  C   UNL     1      21.882 -12.059  21.629  1.00  0.00     0.000 C 
BRANCH   4   5
ATOM      5  C   UNL     1      21.755 -10.895  22.630  1.00  0.00     0.000 C 
BRANCH   5   6
ATOM      6  C   UNL     1      20.789 -11.146  23.801  1.00  0.00     0.000 C 
BRANCH   6   7
ATOM      7  C   UNL     1      20.579  -9.902  24.681  1.00  0.00     0.006 C 
BRANCH   7   8
ATOM      8  C   UNL     1      21.165  -8.635  24.042  1.00  0.00     0.053 C 
BRANCH   8   9
ATOM      9  C   UNL     1      20.771  -7.399  24.791  1.00  0.00     0.041 C 
ATOM     10  O   UNL     1      19.620  -7.303  25.295  1.00  0.00    -0.550 OA
ATOM     11  O   UNL     1      21.669  -6.346  24.920  1.00  0.00    -0.550 OA
ENDBRANCH   8   9
ENDBRANCH   7   8
ENDBRANCH   6   7
ENDBRANCH   5   6
ENDBRANCH   4   5
ENDBRANCH   3   4
ENDBRANCH   2   3
ENDBRANCH   1   2
BRANCH   1  12
ATOM     12  C   UNL     1      22.810 -15.449  19.008  1.00  0.00     0.000 C 
BRANCH  12  13
ATOM     13  C   UNL     1      23.096 -16.863  19.544  1.00  0.00    -0.000 C 
BRANCH  13  14
ATOM     14  C   UNL     1      23.640 -17.813  18.468  1.00  0.00    -0.000 C 
BRANCH  14  15
ATOM     15  C   UNL     1      22.976 -17.537  17.109  1.00  0.00    -0.000 C 
BRANCH  15  16
ATOM     16  C   UNL     1      22.525 -18.821  16.395  1.00  0.00    -0.000 C 
BRANCH  16  17
ATOM     17  C   UNL     1      22.321 -19.999  17.366  1.00  0.00    -0.000 C 
BRANCH  17  18
ATOM     18  C   UNL     1      20.843 -20.404  17.511  1.00  0.00    -0.000 C 
BRANCH  18  19
ATOM     19  C   UNL     1      20.343 -21.422  16.471  1.00  0.00    -0.003 C 
ATOM     20  C   UNL     1      18.885 -21.202  16.068  1.00  0.00     0.004 C 
ENDBRANCH  18  19
ENDBRANCH  17  18
ENDBRANCH  16  17
ENDBRANCH  15  16
ENDBRANCH  14  15
ENDBRANCH  13  14
ENDBRANCH  12  13
ENDBRANCH   1  12
TORSDOF 16
ENDMDL
MODEL 4
REMARK VINA RESULT:    -5.484      5.959     12.085
REMARK INTER + INTRA:         -11.308
REMARK INTER:                 -10.636
REMARK INTRA:                  -0.672
REMARK UNBOUND:                -0.695
REMARK SMILES CCCCCCCCCCCCCCCCCC(=O)[O-]
REMARK SMILES IDX 10 1 11 2 12 3 13 4 14 5 15 6 16 7 17 8 18 9 19 10 20 11
REMARK SMILES IDX 9 12 8 13 7 14 6 15 5 16 4 17 3 18 2 19 1 20
REMARK H PARENT
REMARK Flexibility Score: inf
ROOT
ATOM      1  C   UNL     1      22.850 -14.066  20.846  1.00  0.00     0.000 C 
ENDROOT
BRANCH   1   2
ATOM      2  C   UNL     1      22.735 -15.191  19.801  1.00  0.00     0.000 C 
BRANCH   2   3
ATOM      3  C   UNL     1      23.276 -16.536  20.310  1.00  0.00     0.000 C 
BRANCH   3   4
ATOM      4  C   UNL     1      23.161 -17.618  19.226  1.00  0.00     0.000 C 
BRANCH   4   5
ATOM      5  C   UNL     1      23.104 -17.035  17.801  1.00  0.00     0.000 C 
BRANCH   5   6
ATOM      6  C   UNL     1      23.408 -18.039  16.675  1.00  0.00     0.000 C 
BRANCH   6   7
ATOM      7  C   UNL     1      22.259 -19.032  16.432  1.00  0.00     0.006 C 
BRANCH   7   8
ATOM      8  C   UNL     1      22.515 -20.389  17.102  1.00  0.00     0.053 C 
BRANCH   8   9
ATOM      9  C   UNL     1      21.237 -21.107  17.415  1.00  0.00     0.041 C 
ATOM     10  O   UNL     1      20.129 -20.532  17.243  1.00  0.00    -0.550 OA
ATOM     11  O   UNL     1      21.270 -22.404  17.910  1.00  0.00    -0.550 OA
ENDBRANCH   8   9
ENDBRANCH   7   8
ENDBRANCH   6   7
ENDBRANCH   5   6
ENDBRANCH   4   5
ENDBRANCH   3   4
ENDBRANCH   2   3
ENDBRANCH   1   2
BRANCH   1  12
ATOM     12  C   UNL     1      21.615 -13.149  20.959  1.00  0.00     0.000 C 
BRANCH  12  13
ATOM     13  C   UNL     1      21.800 -11.913  21.858  1.00  0.00    -0.000 C 
BRANCH  13  14
ATOM     14  C   UNL     1      20.559 -11.597  22.704  1.00  0.00    -0.000 C 
BRANCH  14  15
ATOM     15  C   UNL     1      20.891 -10.577  23.805  1.00  0.00    -0.000 C 
BRANCH  15  16
ATOM     16  C   UNL     1      21.800  -9.441  23.310  1.00  0.00    -0.000 C 
BRANCH  16  17
ATOM     17  C   UNL     1      21.621  -8.144  24.119  1.00  0.00    -0.000 C 
BRANCH  17  18
ATOM     18  C   UNL     1      20.353  -8.155  24.993  1.00  0.00    -0.000 C 
BRANCH  18  19
ATOM     19  C   UNL     1      19.753  -6.768  25.286  1.00  0.00    -0.003 C 
ATOM     20  C   UNL     1      19.620  -5.896  24.039  1.00  0.00     0.004 C 
ENDBRANCH  18  19
ENDBRANCH  17  18
ENDBRANCH  16  17
ENDBRANCH  15  16
ENDBRANCH  14  15
ENDBRANCH  13  14
ENDBRANCH  12  13
ENDBRANCH   1  12
TORSDOF 16
ENDMDL
MODEL 5
REMARK VINA RESULT:    -5.422      1.947      2.823
REMARK INTER + INTRA:         -11.189
REMARK INTER:                 -10.821
REMARK INTRA:                  -0.368
REMARK UNBOUND:                -0.695
REMARK SMILES CCCCCCCCCCCCCCCCCC(=O)[O-]
REMARK SMILES IDX 10 1 11 2 12 3 13 4 14 5 15 6 16 7 17 8 18 9 19 10 20 11
REMARK SMILES IDX 9 12 8 13 7 14 6 15 5 16 4 17 3 18 2 19 1 20
REMARK H PARENT
REMARK Flexibility Score: inf
ROOT
ATOM      1  C   UNL     1      21.872 -10.782  22.671  1.00  0.00     0.000 C 
ENDROOT
BRANCH   1   2
ATOM      2  C   UNL     1      20.717 -10.796  23.689  1.00  0.00     0.000 C 
BRANCH   2   3
ATOM      3  C   UNL     1      20.754  -9.600  24.651  1.00  0.00     0.000 C 
BRANCH   3   4
ATOM      4  C   UNL     1      21.479  -8.406  24.013  1.00  0.00     0.000 C 
BRANCH   4   5
ATOM      5  C   UNL     1      20.809  -7.057  24.334  1.00  0.00     0.000 C 
BRANCH   5   6
ATOM      6  C   UNL     1      20.267  -6.924  25.768  1.00  0.00     0.000 C 
BRANCH   6   7
ATOM      7  C   UNL     1      21.234  -7.480  26.827  1.00  0.00     0.006 C 
BRANCH   7   8
ATOM      8  C   UNL     1      22.453  -6.571  27.033  1.00  0.00     0.053 C 
BRANCH   8   9
ATOM      9  C   UNL     1      22.691  -6.275  28.482  1.00  0.00     0.041 C 
ATOM     10  O   UNL     1      21.887  -5.544  29.119  1.00  0.00    -0.550 OA
ATOM     11  O   UNL     1      23.808  -6.793  29.125  1.00  0.00    -0.550 OA
ENDBRANCH   8   9
ENDBRANCH   7   8
ENDBRANCH   6   7
ENDBRANCH   5   6
ENDBRANCH   4   5
ENDBRANCH   3   4
ENDBRANCH   2   3
ENDBRANCH   1   2
BRANCH   1  12
ATOM     12  C   UNL     1      21.940 -12.008  21.739  1.00  0.00     0.000 C 
BRANCH  12  13
ATOM     13  C   UNL     1      23.336 -12.642  21.595  1.00  0.00    -0.000 C 
BRANCH  13  14
ATOM     14  C   UNL     1      23.282 -14.133  21.235  1.00  0.00    -0.000 C 
BRANCH  14  15
ATOM     15  C   UNL     1      22.260 -14.389  20.116  1.00  0.00    -0.000 C 
BRANCH  15  16
ATOM     16  C   UNL     1      22.746 -15.424  19.089  1.00  0.00    -0.000 C 
BRANCH  16  17
ATOM     17  C   UNL     1      23.114 -16.772  19.735  1.00  0.00    -0.000 C 
BRANCH  17  18
ATOM     18  C   UNL     1      23.208 -17.919  18.713  1.00  0.00    -0.000 C 
BRANCH  18  19
ATOM     19  C   UNL     1      22.980 -17.503  17.248  1.00  0.00    -0.003 C 
ATOM     20  C   UNL     1      22.547 -18.666  16.355  1.00  0.00     0.004 C 
ENDBRANCH  18  19
ENDBRANCH  17  18
ENDBRANCH  16  17
ENDBRANCH  15  16
ENDBRANCH  14  15
ENDBRANCH  13  14
ENDBRANCH  12  13
ENDBRANCH   1  12
TORSDOF 16
ENDMDL
MODEL 6
REMARK VINA RESULT:    -5.422      5.821     11.931
REMARK INTER + INTRA:         -11.188
REMARK INTER:                 -10.422
REMARK INTRA:                  -0.766
REMARK UNBOUND:                -0.695
REMARK SMILES CCCCCCCCCCCCCCCCCC(=O)[O-]
REMARK SMILES IDX 10 1 11 2 12 3 13 4 14 5 15 6 16 7 17 8 18 9 19 10 20 11
REMARK SMILES IDX 9 12 8 13 7 14 6 15 5 16 4 17 3 18 2 19 1 20
REMARK H PARENT
REMARK Flexibility Score: inf
ROOT
ATOM      1  C   UNL     1      23.071 -12.198  21.739  1.00  0.00     0.000 C 
ENDROOT
BRANCH   1   2
ATOM      2  C   UNL     1      23.323 -13.641  21.265  1.00  0.00     0.000 C 
BRANCH   2   3
ATOM      3  C   UNL     1      22.187 -14.189  20.388  1.00  0.00     0.000 C 
BRANCH   3   4
ATOM      4  C   UNL     1      22.724 -15.200  19.364  1.00  0.00     0.000 C 
BRANCH   4   5
ATOM      5  C   UNL     1      23.096 -16.553  19.997  1.00  0.00     0.000 C 
BRANCH   5   6
ATOM      6  C   UNL     1      23.410 -17.677  18.993  1.00  0.00     0.000 C 
BRANCH   6   7
ATOM      7  C   UNL     1      23.158 -17.262  17.533  1.00  0.00     0.006 C 
BRANCH   7   8
ATOM      8  C   UNL     1      23.616 -18.336  16.537  1.00  0.00     0.053 C 
BRANCH   8   9
ATOM      9  C   UNL     1      22.855 -19.615  16.709  1.00  0.00     0.041 C 
ATOM     10  O   UNL     1      23.441 -20.651  17.122  1.00  0.00    -0.550 OA
ATOM     11  O   UNL     1      21.502 -19.669  16.397  1.00  0.00    -0.550 OA
ENDBRANCH   8   9
ENDBRANCH   7   8
ENDBRANCH   6   7
ENDBRANCH   5   6
ENDBRANCH   4   5
ENDBRANCH   3   4
ENDBRANCH   2   3
ENDBRANCH   1   2
BRANCH   1  12
ATOM     12  C   UNL     1      21.607 -11.872  22.097  1.00  0.00     0.000 C 
BRANCH  12  13
ATOM     13  C   UNL     1      21.390 -10.509  22.780  1.00  0.00    -0.000 C 
BRANCH  13  14
ATOM     14  C   UNL     1      20.725 -10.630  24.158  1.00  0.00    -0.000 C 
BRANCH  14  15
ATOM     15  C   UNL     1      20.694  -9.270  24.872  1.00  0.00    -0.000 C 
BRANCH  15  16
ATOM     16  C   UNL     1      21.486  -8.186  24.125  1.00  0.00    -0.000 C 
BRANCH  16  17
ATOM     17  C   UNL     1      21.984  -7.067  25.058  1.00  0.00    -0.000 C 
BRANCH  17  18
ATOM     18  C   UNL     1      21.353  -7.134  26.460  1.00  0.00    -0.000 C 
BRANCH  18  19
ATOM     19  C   UNL     1      22.319  -6.841  27.622  1.00  0.00    -0.003 C 
ATOM     20  C   UNL     1      22.225  -5.404  28.134  1.00  0.00     0.004 C 
ENDBRANCH  18  19
ENDBRANCH  17  18
ENDBRANCH  16  17
ENDBRANCH  15  16
ENDBRANCH  14  15
ENDBRANCH  13  14
ENDBRANCH  12  13
ENDBRANCH   1  12
TORSDOF 16
ENDMDL
MODEL 7
REMARK VINA RESULT:    -5.348      4.315      8.527
REMARK INTER + INTRA:         -11.045
REMARK INTER:                 -10.208
REMARK INTRA:                  -0.837
REMARK UNBOUND:                -0.695
REMARK SMILES CCCCCCCCCCCCCCCCCC(=O)[O-]
REMARK SMILES IDX 10 1 11 2 12 3 13 4 14 5 15 6 16 7 17 8 18 9 19 10 20 11
REMARK SMILES IDX 9 12 8 13 7 14 6 15 5 16 4 17 3 18 2 19 1 20
REMARK H PARENT
REMARK Flexibility Score: inf
ROOT
ATOM      1  C   UNL     1      21.910 -19.364  17.358  1.00  0.00     0.000 C 
ENDROOT
BRANCH   1   2
ATOM      2  C   UNL     1      22.672 -18.221  16.662  1.00  0.00     0.000 C 
BRANCH   2   3
ATOM      3  C   UNL     1      23.101 -17.111  17.632  1.00  0.00     0.000 C 
BRANCH   3   4
ATOM      4  C   UNL     1      23.348 -17.678  19.038  1.00  0.00     0.000 C 
BRANCH   4   5
ATOM      5  C   UNL     1      23.090 -16.648  20.154  1.00  0.00     0.000 C 
BRANCH   5   6
ATOM      6  C   UNL     1      22.921 -15.196  19.672  1.00  0.00     0.000 C 
BRANCH   6   7
ATOM      7  C   UNL     1      22.743 -14.199  20.831  1.00  0.00     0.006 C 
BRANCH   7   8
ATOM      8  C   UNL     1      21.426 -13.418  20.725  1.00  0.00     0.053 C 
BRANCH   8   9
ATOM      9  C   UNL     1      21.413 -12.222  21.627  1.00  0.00     0.041 C 
ATOM     10  O   UNL     1      22.407 -11.448  21.667  1.00  0.00    -0.550 OA
ATOM     11  O   UNL     1      20.310 -11.968  22.433  1.00  0.00    -0.550 OA
ENDBRANCH   8   9
ENDBRANCH   7   8
ENDBRANCH   6   7
ENDBRANCH   5   6
ENDBRANCH   4   5
ENDBRANCH   3   4
ENDBRANCH   2   3
ENDBRANCH   1   2
BRANCH   1  12
ATOM     12  C   UNL     1      21.306 -20.421  16.412  1.00  0.00     0.000 C 
BRANCH  12  13
ATOM     13  C   UNL     1      20.345 -21.422  17.080  1.00  0.00    -0.000 C 
BRANCH  13  14
ATOM     14  C   UNL     1      18.869 -21.032  16.920  1.00  0.00    -0.000 C 
BRANCH  14  15
ATOM     15  C   UNL     1      18.060 -22.186  16.308  1.00  0.00    -0.000 C 
BRANCH  15  16
ATOM     16  C   UNL     1      17.414 -21.814  14.964  1.00  0.00    -0.000 C 
BRANCH  16  17
ATOM     17  C   UNL     1      18.435 -21.280  13.943  1.00  0.00    -0.000 C 
BRANCH  17  18
ATOM     18  C   UNL     1      18.640 -22.230  12.750  1.00  0.00    -0.000 C 
BRANCH  18  19
ATOM     19  C   UNL     1      18.672 -21.546  11.371  1.00  0.00    -0.003 C 
ATOM     20  C   UNL     1      18.919 -20.040  11.454  1.00  0.00     0.004 C 
ENDBRANCH  18  19
ENDBRANCH  17  18
ENDBRANCH  16  17
ENDBRANCH  15  16
ENDBRANCH  14  15
ENDBRANCH  13  14
ENDBRANCH  12  13
ENDBRANCH   1  12
TORSDOF 16
ENDMDL
MODEL 8
REMARK VINA RESULT:    -5.292      1.670      2.501
REMARK INTER + INTRA:         -10.937
REMARK INTER:                  -9.939
REMARK INTRA:                  -0.999
REMARK UNBOUND:                -0.695
REMARK SMILES CCCCCCCCCCCCCCCCCC(=O)[O-]
REMARK SMILES IDX 10 1 11 2 12 3 13 4 14 5 15 6 16 7 17 8 18 9 19 10 20 11
REMARK SMILES IDX 9 12 8 13 7 14 6 15 5 16 4 17 3 18 2 19 1 20
REMARK H PARENT
REMARK Flexibility Score: inf
ROOT
ATOM      1  C   UNL     1      21.132 -10.791  23.261  1.00  0.00     0.000 C 
ENDROOT
BRANCH   1   2
ATOM      2  C   UNL     1      21.598  -9.359  22.941  1.00  0.00     0.000 C 
BRANCH   2   3
ATOM      3  C   UNL     1      21.804  -8.502  24.199  1.00  0.00     0.000 C 
BRANCH   3   4
ATOM      4  C   UNL     1      20.585  -8.592  25.128  1.00  0.00     0.000 C 
BRANCH   4   5
ATOM      5  C   UNL     1      19.929  -7.224  25.391  1.00  0.00     0.000 C 
BRANCH   5   6
ATOM      6  C   UNL     1      20.867  -6.013  25.236  1.00  0.00     0.000 C 
BRANCH   6   7
ATOM      7  C   UNL     1      20.237  -4.871  24.419  1.00  0.00     0.006 C 
BRANCH   7   8
ATOM      8  C   UNL     1      18.938  -5.302  23.725  1.00  0.00     0.053 C 
BRANCH   8   9
ATOM      9  C   UNL     1      17.791  -4.407  24.081  1.00  0.00     0.041 C 
ATOM     10  O   UNL     1      17.731  -3.238  23.614  1.00  0.00    -0.550 OA
ATOM     11  O   UNL     1      16.797  -4.856  24.942  1.00  0.00    -0.550 OA
ENDBRANCH   8   9
ENDBRANCH   7   8
ENDBRANCH   6   7
ENDBRANCH   5   6
ENDBRANCH   4   5
ENDBRANCH   3   4
ENDBRANCH   2   3
ENDBRANCH   1   2
BRANCH   1  12
ATOM     12  C   UNL     1      21.490 -11.850  22.199  1.00  0.00     0.000 C 
BRANCH  12  13
ATOM     13  C   UNL     1      22.912 -11.739  21.619  1.00  0.00    -0.000 C 
BRANCH  13  14
ATOM     14  C   UNL     1      23.602 -13.101  21.462  1.00  0.00    -0.000 C 
BRANCH  14  15
ATOM     15  C   UNL     1      22.680 -14.103  20.749  1.00  0.00    -0.000 C 
BRANCH  15  16
ATOM     16  C   UNL     1      23.126 -15.561  20.937  1.00  0.00    -0.000 C 
BRANCH  16  17
ATOM     17  C   UNL     1      23.116 -16.359  19.620  1.00  0.00    -0.000 C 
BRANCH  17  18
ATOM     18  C   UNL     1      22.806 -15.482  18.394  1.00  0.00    -0.000 C 
BRANCH  18  19
ATOM     19  C   UNL     1      22.904 -16.203  17.037  1.00  0.00    -0.003 C 
ATOM     20  C   UNL     1      22.757 -17.720  17.152  1.00  0.00     0.004 C 
ENDBRANCH  18  19
ENDBRANCH  17  18
ENDBRANCH  16  17
ENDBRANCH  15  16
ENDBRANCH  14  15
ENDBRANCH  13  14
ENDBRANCH  12  13
ENDBRANCH   1  12
TORSDOF 16
ENDMDL
MODEL 9
REMARK VINA RESULT:    -5.280      6.175     10.329
REMARK INTER + INTRA:         -10.913
REMARK INTER:                  -9.703
REMARK INTRA:                  -1.209
REMARK UNBOUND:                -0.695
REMARK SMILES CCCCCCCCCCCCCCCCCC(=O)[O-]
REMARK SMILES IDX 10 1 11 2 12 3 13 4 14 5 15 6 16 7 17 8 18 9 19 10 20 11
REMARK SMILES IDX 9 12 8 13 7 14 6 15 5 16 4 17 3 18 2 19 1 20
REMARK H PARENT
REMARK Flexibility Score: inf
ROOT
ATOM      1  C   UNL     1      19.497 -20.696  17.858  1.00  0.00     0.000 C 
ENDROOT
BRANCH   1   2
ATOM      2  C   UNL     1      20.602 -20.469  16.810  1.00  0.00     0.000 C 
BRANCH   2   3
ATOM      3  C   UNL     1      21.879 -19.862  17.410  1.00  0.00     0.000 C 
BRANCH   3   4
ATOM      4  C   UNL     1      22.402 -18.713  16.535  1.00  0.00     0.000 C 
BRANCH   4   5
ATOM      5  C   UNL     1      22.977 -17.546  17.359  1.00  0.00     0.000 C 
BRANCH   5   6
ATOM      6  C   UNL     1      23.475 -17.925  18.765  1.00  0.00     0.000 C 
BRANCH   6   7
ATOM      7  C   UNL     1      23.116 -16.875  19.830  1.00  0.00     0.006 C 
BRANCH   7   8
ATOM      8  C   UNL     1      22.896 -15.484  19.221  1.00  0.00     0.053 C 
BRANCH   8   9
ATOM      9  C   UNL     1      22.476 -14.482  20.253  1.00  0.00     0.041 C 
ATOM     10  O   UNL     1      23.166 -14.318  21.294  1.00  0.00    -0.550 OA
ATOM     11  O   UNL     1      21.314 -13.742  20.073  1.00  0.00    -0.550 OA
ENDBRANCH   8   9
ENDBRANCH   7   8
ENDBRANCH   6   7
ENDBRANCH   5   6
ENDBRANCH   4   5
ENDBRANCH   3   4
ENDBRANCH   2   3
ENDBRANCH   1   2
BRANCH   1  12
ATOM     12  C   UNL     1      18.897 -22.117  17.881  1.00  0.00     0.000 C 
BRANCH  12  13
ATOM     13  C   UNL     1      18.810 -22.811  16.509  1.00  0.00    -0.000 C 
BRANCH  13  14
ATOM     14  C   UNL     1      17.461 -22.591  15.812  1.00  0.00    -0.000 C 
BRANCH  14  15
ATOM     15  C   UNL     1      17.595 -21.572  14.669  1.00  0.00    -0.000 C 
BRANCH  15  16
ATOM     16  C   UNL     1      18.869 -21.778  13.834  1.00  0.00    -0.000 C 
BRANCH  16  17
ATOM     17  C   UNL     1      18.951 -20.820  12.631  1.00  0.00    -0.000 C 
BRANCH  17  18
ATOM     18  C   UNL     1      19.073 -21.559  11.287  1.00  0.00    -0.000 C 
BRANCH  18  19
ATOM     19  C   UNL     1      17.896 -21.346  10.318  1.00  0.00    -0.003 C 
ATOM     20  C   UNL     1      16.539 -21.672  10.941  1.00  0.00     0.004 C 
ENDBRANCH  18  19
ENDBRANCH  17  18
ENDBRANCH  16  17
ENDBRANCH  15  16
ENDBRANCH  14  15
ENDBRANCH  13  14
ENDBRANCH  12  13
ENDBRANCH   1  12
TORSDOF 16
ENDMDL
