MODEL 1
REMARK VINA RESULT:    -3.583      0.000      0.000
REMARK INTER + INTRA:          -9.714
REMARK INTER:                  -6.934
REMARK INTRA:                  -2.780
REMARK UNBOUND:                -2.780
REMARK SMILES CCCCCCCCCCCCCCCCCC(=O)[O-]
REMARK SMILES IDX 10 1 11 2 12 3 13 4 14 5 15 6 16 7 17 8 18 9 19 10 20 11
REMARK SMILES IDX 9 12 8 13 7 14 6 15 5 16 4 17 3 18 2 19 1 20
REMARK H PARENT
REMARK Flexibility Score: inf
ROOT
ATOM      1  C   UNL     1     128.398 145.225 123.525  1.00  0.00     0.000 C 
ENDROOT
BRANCH   1   2
ATOM      2  C   UNL     1     129.220 146.513 123.396  1.00  0.00     0.000 C 
BRANCH   2   3
ATOM      3  C   UNL     1     130.725 146.214 123.453  1.00  0.00     0.000 C 
BRANCH   3   4
ATOM      4  C   UNL     1     131.308 145.806 122.088  1.00  0.00     0.000 C 
BRANCH   4   5
ATOM      5  C   UNL     1     131.665 146.978 121.155  1.00  0.00     0.000 C 
BRANCH   5   6
ATOM      6  C   UNL     1     132.022 146.525 119.732  1.00  0.00     0.000 C 
BRANCH   6   7
ATOM      7  C   UNL     1     133.251 145.609 119.741  1.00  0.00     0.006 C 
BRANCH   7   8
ATOM      8  C   UNL     1     134.472 146.315 119.146  1.00  0.00     0.053 C 
BRANCH   8   9
ATOM      9  C   UNL     1     135.505 146.551 120.203  1.00  0.00     0.041 C 
ATOM     10  O   UNL     1     135.169 147.008 121.328  1.00  0.00    -0.550 OA
ATOM     11  O   UNL     1     136.831 146.210 119.967  1.00  0.00    -0.550 OA
ENDBRANCH   8   9
ENDBRANCH   7   8
ENDBRANCH   6   7
ENDBRANCH   5   6
ENDBRANCH   4   5
ENDBRANCH   3   4
ENDBRANCH   2   3
ENDBRANCH   1   2
BRANCH   1  12
ATOM     12  C   UNL     1     127.277 145.181 122.478  1.00  0.00     0.000 C 
BRANCH  12  13
ATOM     13  C   UNL     1     127.117 146.541 121.787  1.00  0.00    -0.000 C 
BRANCH  13  14
ATOM     14  C   UNL     1     127.007 146.376 120.267  1.00  0.00    -0.000 C 
BRANCH  14  15
ATOM     15  C   UNL     1     128.353 145.968 119.658  1.00  0.00    -0.000 C 
BRANCH  15  16
ATOM     16  C   UNL     1     128.198 144.734 118.758  1.00  0.00    -0.000 C 
BRANCH  16  17
ATOM     17  C   UNL     1     128.721 143.444 119.413  1.00  0.00    -0.000 C 
BRANCH  17  18
ATOM     18  C   UNL     1     130.255 143.279 119.399  1.00  0.00    -0.000 C 
BRANCH  18  19
ATOM     19  C   UNL     1     130.835 142.487 120.584  1.00  0.00    -0.003 C 
ATOM     20  C   UNL     1     129.845 142.332 121.738  1.00  0.00     0.004 C 
ENDBRANCH  18  19
ENDBRANCH  17  18
ENDBRANCH  16  17
ENDBRANCH  15  16
ENDBRANCH  14  15
ENDBRANCH  13  14
ENDBRANCH  12  13
ENDBRANCH   1  12
TORSDOF 16
ENDMDL
MODEL 2
REMARK VINA RESULT:    -3.518      1.423      2.325
REMARK INTER + INTRA:          -9.590
REMARK INTER:                  -7.139
REMARK INTRA:                  -2.451
REMARK UNBOUND:                -2.780
REMARK SMILES CCCCCCCCCCCCCCCCCC(=O)[O-]
REMARK SMILES IDX 10 1 11 2 12 3 13 4 14 5 15 6 16 7 17 8 18 9 19 10 20 11
REMARK SMILES IDX 9 12 8 13 7 14 6 15 5 16 4 17 3 18 2 19 1 20
REMARK H PARENT
REMARK Flexibility Score: inf
ROOT
ATOM      1  C   UNL     1     129.754 145.697 121.887  1.00  0.00     0.000 C 
ENDROOT
BRANCH   1   2
ATOM      2  C   UNL     1     130.665 146.424 120.890  1.00  0.00     0.000 C 
BRANCH   2   3
ATOM      3  C   UNL     1     131.109 145.482 119.762  1.00  0.00     0.000 C 
BRANCH   3   4
ATOM      4  C   UNL     1     131.847 144.234 120.278  1.00  0.00     0.000 C 
BRANCH   4   5
ATOM      5  C   UNL     1     132.853 143.616 119.288  1.00  0.00     0.000 C 
BRANCH   5   6
ATOM      6  C   UNL     1     134.298 144.068 119.540  1.00  0.00     0.000 C 
BRANCH   6   7
ATOM      7  C   UNL     1     134.779 145.007 118.427  1.00  0.00     0.006 C 
BRANCH   7   8
ATOM      8  C   UNL     1     134.787 146.464 118.899  1.00  0.00     0.053 C 
BRANCH   8   9
ATOM      9  C   UNL     1     135.639 146.613 120.120  1.00  0.00     0.041 C 
ATOM     10  O   UNL     1     135.128 146.990 121.208  1.00  0.00    -0.550 OA
ATOM     11  O   UNL     1     136.986 146.279 120.072  1.00  0.00    -0.550 OA
ENDBRANCH   8   9
ENDBRANCH   7   8
ENDBRANCH   6   7
ENDBRANCH   5   6
ENDBRANCH   4   5
ENDBRANCH   3   4
ENDBRANCH   2   3
ENDBRANCH   1   2
BRANCH   1  12
ATOM     12  C   UNL     1     128.372 146.360 121.954  1.00  0.00     0.000 C 
BRANCH  12  13
ATOM     13  C   UNL     1     127.290 145.435 121.383  1.00  0.00    -0.000 C 
BRANCH  13  14
ATOM     14  C   UNL     1     127.242 145.526 119.853  1.00  0.00    -0.000 C 
BRANCH  14  15
ATOM     15  C   UNL     1     127.647 144.195 119.210  1.00  0.00    -0.000 C 
BRANCH  15  16
ATOM     16  C   UNL     1     127.585 143.049 120.231  1.00  0.00    -0.000 C 
BRANCH  16  17
ATOM     17  C   UNL     1     128.847 142.169 120.223  1.00  0.00    -0.000 C 
BRANCH  17  18
ATOM     18  C   UNL     1     129.399 141.806 121.617  1.00  0.00    -0.000 C 
BRANCH  18  19
ATOM     19  C   UNL     1     128.573 142.336 122.802  1.00  0.00    -0.003 C 
ATOM     20  C   UNL     1     128.427 141.314 123.929  1.00  0.00     0.004 C 
ENDBRANCH  18  19
ENDBRANCH  17  18
ENDBRANCH  16  17
ENDBRANCH  15  16
ENDBRANCH  14  15
ENDBRANCH  13  14
ENDBRANCH  12  13
ENDBRANCH   1  12
TORSDOF 16
ENDMDL
MODEL 3
REMARK VINA RESULT:    -3.488      3.863      6.281
REMARK INTER + INTRA:          -9.530
REMARK INTER:                  -6.957
REMARK INTRA:                  -2.574
REMARK UNBOUND:                -2.780
REMARK SMILES CCCCCCCCCCCCCCCCCC(=O)[O-]
REMARK SMILES IDX 10 1 11 2 12 3 13 4 14 5 15 6 16 7 17 8 18 9 19 10 20 11
REMARK SMILES IDX 9 12 8 13 7 14 6 15 5 16 4 17 3 18 2 19 1 20
REMARK H PARENT
REMARK Flexibility Score: inf
ROOT
ATOM      1  C   UNL     1     127.931 146.176 120.287  1.00  0.00     0.000 C 
ENDROOT
BRANCH   1   2
ATOM      2  C   UNL     1     127.337 145.615 118.989  1.00  0.00     0.000 C 
BRANCH   2   3
ATOM      3  C   UNL     1     127.627 144.113 118.854  1.00  0.00     0.000 C 
BRANCH   3   4
ATOM      4  C   UNL     1     129.015 143.719 119.391  1.00  0.00     0.000 C 
BRANCH   4   5
ATOM      5  C   UNL     1     129.020 142.544 120.386  1.00  0.00     0.000 C 
BRANCH   5   6
ATOM      6  C   UNL     1     127.680 142.370 121.115  1.00  0.00     0.000 C 
BRANCH   6   7
ATOM      7  C   UNL     1     126.877 141.209 120.516  1.00  0.00     0.006 C 
BRANCH   7   8
ATOM      8  C   UNL     1     127.786 140.021 120.187  1.00  0.00     0.053 C 
BRANCH   8   9
ATOM      9  C   UNL     1     127.898 139.107 121.367  1.00  0.00     0.041 C 
ATOM     10  O   UNL     1     127.003 138.248 121.591  1.00  0.00    -0.550 OA
ATOM     11  O   UNL     1     129.019 139.162 122.185  1.00  0.00    -0.550 OA
ENDBRANCH   8   9
ENDBRANCH   7   8
ENDBRANCH   6   7
ENDBRANCH   5   6
ENDBRANCH   4   5
ENDBRANCH   3   4
ENDBRANCH   2   3
ENDBRANCH   1   2
BRANCH   1  12
ATOM     12  C   UNL     1     126.893 146.165 121.416  1.00  0.00     0.000 C 
BRANCH  12  13
ATOM     13  C   UNL     1     127.542 145.792 122.755  1.00  0.00    -0.000 C 
BRANCH  13  14
ATOM     14  C   UNL     1     129.008 146.238 122.800  1.00  0.00    -0.000 C 
BRANCH  14  15
ATOM     15  C   UNL     1     129.936 145.054 123.090  1.00  0.00    -0.000 C 
BRANCH  15  16
ATOM     16  C   UNL     1     131.285 145.226 122.376  1.00  0.00    -0.000 C 
BRANCH  16  17
ATOM     17  C   UNL     1     131.233 146.254 121.233  1.00  0.00    -0.000 C 
BRANCH  17  18
ATOM     18  C   UNL     1     132.270 146.040 120.112  1.00  0.00    -0.000 C 
BRANCH  18  19
ATOM     19  C   UNL     1     132.571 144.568 119.779  1.00  0.00    -0.003 C 
ATOM     20  C   UNL     1     134.059 144.301 119.551  1.00  0.00     0.004 C 
ENDBRANCH  18  19
ENDBRANCH  17  18
ENDBRANCH  16  17
ENDBRANCH  15  16
ENDBRANCH  14  15
ENDBRANCH  13  14
ENDBRANCH  12  13
ENDBRANCH   1  12
TORSDOF 16
ENDMDL
MODEL 4
REMARK VINA RESULT:    -3.488      3.329      6.451
REMARK INTER + INTRA:          -9.530
REMARK INTER:                  -7.029
REMARK INTRA:                  -2.501
REMARK UNBOUND:                -2.780
REMARK SMILES CCCCCCCCCCCCCCCCCC(=O)[O-]
REMARK SMILES IDX 10 1 11 2 12 3 13 4 14 5 15 6 16 7 17 8 18 9 19 10 20 11
REMARK SMILES IDX 9 12 8 13 7 14 6 15 5 16 4 17 3 18 2 19 1 20
REMARK H PARENT
REMARK Flexibility Score: inf
ROOT
ATOM      1  C   UNL     1     130.135 143.400 119.404  1.00  0.00     0.000 C 
ENDROOT
BRANCH   1   2
ATOM      2  C   UNL     1     128.784 144.018 119.021  1.00  0.00     0.000 C 
BRANCH   2   3
ATOM      3  C   UNL     1     127.640 143.383 119.826  1.00  0.00     0.000 C 
BRANCH   3   4
ATOM      4  C   UNL     1     127.271 144.191 121.083  1.00  0.00     0.000 C 
BRANCH   4   5
ATOM      5  C   UNL     1     127.186 145.715 120.877  1.00  0.00     0.000 C 
BRANCH   5   6
ATOM      6  C   UNL     1     127.483 146.511 122.156  1.00  0.00     0.000 C 
BRANCH   6   7
ATOM      7  C   UNL     1     128.546 145.806 123.005  1.00  0.00     0.006 C 
BRANCH   7   8
ATOM      8  C   UNL     1     128.392 146.156 124.488  1.00  0.00     0.053 C 
BRANCH   8   9
ATOM      9  C   UNL     1     127.600 145.101 125.194  1.00  0.00     0.041 C 
ATOM     10  O   UNL     1     127.595 143.917 124.763  1.00  0.00    -0.550 OA
ATOM     11  O   UNL     1     126.916 145.410 126.362  1.00  0.00    -0.550 OA
ENDBRANCH   8   9
ENDBRANCH   7   8
ENDBRANCH   6   7
ENDBRANCH   5   6
ENDBRANCH   4   5
ENDBRANCH   3   4
ENDBRANCH   2   3
ENDBRANCH   1   2
BRANCH   1  12
ATOM     12  C   UNL     1     131.025 144.425 120.117  1.00  0.00     0.000 C 
BRANCH  12  13
ATOM     13  C   UNL     1     130.627 145.857 119.740  1.00  0.00    -0.000 C 
BRANCH  13  14
ATOM     14  C   UNL     1     131.413 146.882 120.565  1.00  0.00    -0.000 C 
BRANCH  14  15
ATOM     15  C   UNL     1     132.012 146.237 121.820  1.00  0.00    -0.000 C 
BRANCH  15  16
ATOM     16  C   UNL     1     133.425 146.775 122.093  1.00  0.00    -0.000 C 
BRANCH  16  17
ATOM     17  C   UNL     1     134.485 145.663 122.176  1.00  0.00    -0.000 C 
BRANCH  17  18
ATOM     18  C   UNL     1     135.064 145.210 120.820  1.00  0.00    -0.000 C 
BRANCH  18  19
ATOM     19  C   UNL     1     135.464 146.352 119.870  1.00  0.00    -0.003 C 
ATOM     20  C   UNL     1     134.607 146.403 118.606  1.00  0.00     0.004 C 
ENDBRANCH  18  19
ENDBRANCH  17  18
ENDBRANCH  16  17
ENDBRANCH  15  16
ENDBRANCH  14  15
ENDBRANCH  13  14
ENDBRANCH  12  13
ENDBRANCH   1  12
TORSDOF 16
ENDMDL
MODEL 5
REMARK VINA RESULT:    -3.469      1.847      3.593
REMARK INTER + INTRA:          -9.493
REMARK INTER:                  -7.133
REMARK INTRA:                  -2.360
REMARK UNBOUND:                -2.780
REMARK SMILES CCCCCCCCCCCCCCCCCC(=O)[O-]
REMARK SMILES IDX 10 1 11 2 12 3 13 4 14 5 15 6 16 7 17 8 18 9 19 10 20 11
REMARK SMILES IDX 9 12 8 13 7 14 6 15 5 16 4 17 3 18 2 19 1 20
REMARK H PARENT
REMARK Flexibility Score: inf
ROOT
ATOM      1  C   UNL     1     130.496 143.892 121.021  1.00  0.00     0.000 C 
ENDROOT
BRANCH   1   2
ATOM      2  C   UNL     1     130.988 144.788 119.878  1.00  0.00     0.000 C 
BRANCH   2   3
ATOM      3  C   UNL     1     130.876 146.272 120.255  1.00  0.00     0.000 C 
BRANCH   3   4
ATOM      4  C   UNL     1     132.162 147.065 119.959  1.00  0.00     0.000 C 
BRANCH   4   5
ATOM      5  C   UNL     1     133.462 146.242 120.012  1.00  0.00     0.000 C 
BRANCH   5   6
ATOM      6  C   UNL     1     134.428 146.571 118.864  1.00  0.00     0.000 C 
BRANCH   6   7
ATOM      7  C   UNL     1     135.070 145.295 118.307  1.00  0.00     0.006 C 
BRANCH   7   8
ATOM      8  C   UNL     1     134.264 144.054 118.699  1.00  0.00     0.053 C 
BRANCH   8   9
ATOM      9  C   UNL     1     135.170 142.990 119.235  1.00  0.00     0.041 C 
ATOM     10  O   UNL     1     136.365 142.916 118.839  1.00  0.00    -0.550 OA
ATOM     11  O   UNL     1     134.715 142.117 120.214  1.00  0.00    -0.550 OA
ENDBRANCH   8   9
ENDBRANCH   7   8
ENDBRANCH   6   7
ENDBRANCH   5   6
ENDBRANCH   4   5
ENDBRANCH   3   4
ENDBRANCH   2   3
ENDBRANCH   1   2
BRANCH   1  12
ATOM     12  C   UNL     1     129.507 142.838 120.508  1.00  0.00     0.000 C 
BRANCH  12  13
ATOM     13  C   UNL     1     128.705 143.373 119.315  1.00  0.00    -0.000 C 
BRANCH  13  14
ATOM     14  C   UNL     1     127.393 144.016 119.777  1.00  0.00    -0.000 C 
BRANCH  14  15
ATOM     15  C   UNL     1     127.332 145.494 119.376  1.00  0.00    -0.000 C 
BRANCH  15  16
ATOM     16  C   UNL     1     126.876 146.365 120.556  1.00  0.00    -0.000 C 
BRANCH  16  17
ATOM     17  C   UNL     1     127.240 145.762 121.923  1.00  0.00    -0.000 C 
BRANCH  17  18
ATOM     18  C   UNL     1     128.000 146.709 122.874  1.00  0.00    -0.000 C 
BRANCH  18  19
ATOM     19  C   UNL     1     129.185 146.070 123.619  1.00  0.00    -0.003 C 
ATOM     20  C   UNL     1     128.844 144.707 124.220  1.00  0.00     0.004 C 
ENDBRANCH  18  19
ENDBRANCH  17  18
ENDBRANCH  16  17
ENDBRANCH  15  16
ENDBRANCH  14  15
ENDBRANCH  13  14
ENDBRANCH  12  13
ENDBRANCH   1  12
TORSDOF 16
ENDMDL
MODEL 6
REMARK VINA RESULT:    -3.454      1.465      3.782
REMARK INTER + INTRA:          -9.464
REMARK INTER:                  -7.161
REMARK INTRA:                  -2.303
REMARK UNBOUND:                -2.780
REMARK SMILES CCCCCCCCCCCCCCCCCC(=O)[O-]
REMARK SMILES IDX 10 1 11 2 12 3 13 4 14 5 15 6 16 7 17 8 18 9 19 10 20 11
REMARK SMILES IDX 9 12 8 13 7 14 6 15 5 16 4 17 3 18 2 19 1 20
REMARK H PARENT
REMARK Flexibility Score: inf
ROOT
ATOM      1  C   UNL     1     127.226 145.004 120.947  1.00  0.00     0.000 C 
ENDROOT
BRANCH   1   2
ATOM      2  C   UNL     1     127.234 145.519 119.503  1.00  0.00     0.000 C 
BRANCH   2   3
ATOM      3  C   UNL     1     128.069 144.604 118.596  1.00  0.00     0.000 C 
BRANCH   3   4
ATOM      4  C   UNL     1     128.786 143.483 119.370  1.00  0.00     0.000 C 
BRANCH   4   5
ATOM      5  C   UNL     1     130.319 143.607 119.428  1.00  0.00     0.000 C 
BRANCH   5   6
ATOM      6  C   UNL     1     130.793 145.002 119.862  1.00  0.00     0.000 C 
BRANCH   6   7
ATOM      7  C   UNL     1     132.318 145.038 120.017  1.00  0.00     0.006 C 
BRANCH   7   8
ATOM      8  C   UNL     1     132.864 146.449 119.779  1.00  0.00     0.053 C 
BRANCH   8   9
ATOM      9  C   UNL     1     134.303 146.526 120.182  1.00  0.00     0.041 C 
ATOM     10  O   UNL     1     135.211 146.329 119.330  1.00  0.00    -0.550 OA
ATOM     11  O   UNL     1     134.644 146.875 121.482  1.00  0.00    -0.550 OA
ENDBRANCH   8   9
ENDBRANCH   7   8
ENDBRANCH   6   7
ENDBRANCH   5   6
ENDBRANCH   4   5
ENDBRANCH   3   4
ENDBRANCH   2   3
ENDBRANCH   1   2
BRANCH   1  12
ATOM     12  C   UNL     1     127.269 146.166 121.947  1.00  0.00     0.000 C 
BRANCH  12  13
ATOM     13  C   UNL     1     128.665 146.307 122.566  1.00  0.00    -0.000 C 
BRANCH  13  14
ATOM     14  C   UNL     1     128.574 146.670 124.053  1.00  0.00    -0.000 C 
BRANCH  14  15
ATOM     15  C   UNL     1     127.450 145.888 124.742  1.00  0.00    -0.000 C 
BRANCH  15  16
ATOM     16  C   UNL     1     128.022 144.805 125.668  1.00  0.00    -0.000 C 
BRANCH  16  17
ATOM     17  C   UNL     1     127.925 143.391 125.069  1.00  0.00    -0.000 C 
BRANCH  17  18
ATOM     18  C   UNL     1     129.252 142.815 124.535  1.00  0.00    -0.000 C 
BRANCH  18  19
ATOM     19  C   UNL     1     129.305 142.608 123.011  1.00  0.00    -0.003 C 
ATOM     20  C   UNL     1     128.211 141.672 122.499  1.00  0.00     0.004 C 
ENDBRANCH  18  19
ENDBRANCH  17  18
ENDBRANCH  16  17
ENDBRANCH  15  16
ENDBRANCH  14  15
ENDBRANCH  13  14
ENDBRANCH  12  13
ENDBRANCH   1  12
TORSDOF 16
ENDMDL
MODEL 7
REMARK VINA RESULT:    -3.440      3.291      5.736
REMARK INTER + INTRA:          -9.437
REMARK INTER:                  -7.115
REMARK INTRA:                  -2.322
REMARK UNBOUND:                -2.780
REMARK SMILES CCCCCCCCCCCCCCCCCC(=O)[O-]
REMARK SMILES IDX 10 1 11 2 12 3 13 4 14 5 15 6 16 7 17 8 18 9 19 10 20 11
REMARK SMILES IDX 9 12 8 13 7 14 6 15 5 16 4 17 3 18 2 19 1 20
REMARK H PARENT
REMARK Flexibility Score: inf
ROOT
ATOM      1  C   UNL     1     126.875 146.827 122.021  1.00  0.00     0.000 C 
ENDROOT
BRANCH   1   2
ATOM      2  C   UNL     1     127.257 145.523 121.310  1.00  0.00     0.000 C 
BRANCH   2   3
ATOM      3  C   UNL     1     127.379 145.737 119.795  1.00  0.00     0.000 C 
BRANCH   3   4
ATOM      4  C   UNL     1     127.565 144.423 119.016  1.00  0.00     0.000 C 
BRANCH   4   5
ATOM      5  C   UNL     1     128.810 143.604 119.406  1.00  0.00     0.000 C 
BRANCH   5   6
ATOM      6  C   UNL     1     128.467 142.322 120.178  1.00  0.00     0.000 C 
BRANCH   6   7
ATOM      7  C   UNL     1     129.568 141.983 121.191  1.00  0.00     0.006 C 
BRANCH   7   8
ATOM      8  C   UNL     1     129.494 142.900 122.415  1.00  0.00     0.053 C 
BRANCH   8   9
ATOM      9  C   UNL     1     128.520 142.359 123.415  1.00  0.00     0.041 C 
ATOM     10  O   UNL     1     128.500 141.126 123.678  1.00  0.00    -0.550 OA
ATOM     11  O   UNL     1     127.675 143.222 124.100  1.00  0.00    -0.550 OA
ENDBRANCH   8   9
ENDBRANCH   7   8
ENDBRANCH   6   7
ENDBRANCH   5   6
ENDBRANCH   4   5
ENDBRANCH   3   4
ENDBRANCH   2   3
ENDBRANCH   1   2
BRANCH   1  12
ATOM     12  C   UNL     1     127.610 146.959 123.361  1.00  0.00     0.000 C 
BRANCH  12  13
ATOM     13  C   UNL     1     129.040 146.415 123.259  1.00  0.00    -0.000 C 
BRANCH  13  14
ATOM     14  C   UNL     1     129.782 146.565 124.593  1.00  0.00    -0.000 C 
BRANCH  14  15
ATOM     15  C   UNL     1     131.300 146.512 124.387  1.00  0.00    -0.000 C 
BRANCH  15  16
ATOM     16  C   UNL     1     131.647 145.973 122.991  1.00  0.00    -0.000 C 
BRANCH  16  17
ATOM     17  C   UNL     1     132.756 146.780 122.295  1.00  0.00    -0.000 C 
BRANCH  17  18
ATOM     18  C   UNL     1     133.029 146.386 120.829  1.00  0.00    -0.000 C 
BRANCH  18  19
ATOM     19  C   UNL     1     131.841 145.737 120.098  1.00  0.00    -0.003 C 
ATOM     20  C   UNL     1     130.848 146.760 119.549  1.00  0.00     0.004 C 
ENDBRANCH  18  19
ENDBRANCH  17  18
ENDBRANCH  16  17
ENDBRANCH  15  16
ENDBRANCH  14  15
ENDBRANCH  13  14
ENDBRANCH  12  13
ENDBRANCH   1  12
TORSDOF 16
ENDMDL
MODEL 8
REMARK VINA RESULT:    -3.435      3.490      6.073
REMARK INTER + INTRA:          -9.428
REMARK INTER:                  -7.072
REMARK INTRA:                  -2.356
REMARK UNBOUND:                -2.780
REMARK SMILES CCCCCCCCCCCCCCCCCC(=O)[O-]
REMARK SMILES IDX 10 1 11 2 12 3 13 4 14 5 15 6 16 7 17 8 18 9 19 10 20 11
REMARK SMILES IDX 9 12 8 13 7 14 6 15 5 16 4 17 3 18 2 19 1 20
REMARK H PARENT
REMARK Flexibility Score: inf
ROOT
ATOM      1  C   UNL     1     127.576 145.961 122.633  1.00  0.00     0.000 C 
ENDROOT
BRANCH   1   2
ATOM      2  C   UNL     1     126.875 146.039 121.271  1.00  0.00     0.000 C 
BRANCH   2   3
ATOM      3  C   UNL     1     127.896 146.182 120.133  1.00  0.00     0.000 C 
BRANCH   3   4
ATOM      4  C   UNL     1     127.450 145.485 118.835  1.00  0.00     0.000 C 
BRANCH   4   5
ATOM      5  C   UNL     1     127.929 144.029 118.679  1.00  0.00     0.000 C 
BRANCH   5   6
ATOM      6  C   UNL     1     129.260 143.756 119.394  1.00  0.00     0.000 C 
BRANCH   6   7
ATOM      7  C   UNL     1     129.105 142.633 120.427  1.00  0.00     0.006 C 
BRANCH   7   8
ATOM      8  C   UNL     1     127.629 142.306 120.670  1.00  0.00     0.053 C 
BRANCH   8   9
ATOM      9  C   UNL     1     127.450 140.837 120.894  1.00  0.00     0.041 C 
ATOM     10  O   UNL     1     127.626 140.344 122.041  1.00  0.00    -0.550 OA
ATOM     11  O   UNL     1     127.032 140.020 119.852  1.00  0.00    -0.550 OA
ENDBRANCH   8   9
ENDBRANCH   7   8
ENDBRANCH   6   7
ENDBRANCH   5   6
ENDBRANCH   4   5
ENDBRANCH   3   4
ENDBRANCH   2   3
ENDBRANCH   1   2
BRANCH   1  12
ATOM     12  C   UNL     1     129.048 146.378 122.518  1.00  0.00     0.000 C 
BRANCH  12  13
ATOM     13  C   UNL     1     129.979 145.204 122.845  1.00  0.00    -0.000 C 
BRANCH  13  14
ATOM     14  C   UNL     1     131.381 145.437 122.270  1.00  0.00    -0.000 C 
BRANCH  14  15
ATOM     15  C   UNL     1     131.398 146.652 121.336  1.00  0.00    -0.000 C 
BRANCH  15  16
ATOM     16  C   UNL     1     131.658 146.224 119.884  1.00  0.00    -0.000 C 
BRANCH  16  17
ATOM     17  C   UNL     1     132.782 145.180 119.758  1.00  0.00    -0.000 C 
BRANCH  17  18
ATOM     18  C   UNL     1     134.163 145.643 120.264  1.00  0.00    -0.000 C 
BRANCH  18  19
ATOM     19  C   UNL     1     134.952 146.528 119.283  1.00  0.00    -0.003 C 
ATOM     20  C   UNL     1     136.358 146.861 119.780  1.00  0.00     0.004 C 
ENDBRANCH  18  19
ENDBRANCH  17  18
ENDBRANCH  16  17
ENDBRANCH  15  16
ENDBRANCH  14  15
ENDBRANCH  13  14
ENDBRANCH  12  13
ENDBRANCH   1  12
TORSDOF 16
ENDMDL
MODEL 9
REMARK VINA RESULT:    -3.407      1.364      1.972
REMARK INTER + INTRA:          -9.374
REMARK INTER:                  -6.897
REMARK INTRA:                  -2.477
REMARK UNBOUND:                -2.780
REMARK SMILES CCCCCCCCCCCCCCCCCC(=O)[O-]
REMARK SMILES IDX 10 1 11 2 12 3 13 4 14 5 15 6 16 7 17 8 18 9 19 10 20 11
REMARK SMILES IDX 9 12 8 13 7 14 6 15 5 16 4 17 3 18 2 19 1 20
REMARK H PARENT
REMARK Flexibility Score: inf
ROOT
ATOM      1  C   UNL     1     129.560 145.622 122.551  1.00  0.00     0.000 C 
ENDROOT
BRANCH   1   2
ATOM      2  C   UNL     1     130.815 146.308 121.996  1.00  0.00     0.000 C 
BRANCH   2   3
ATOM      3  C   UNL     1     130.646 146.645 120.508  1.00  0.00     0.000 C 
BRANCH   3   4
ATOM      4  C   UNL     1     131.917 146.373 119.683  1.00  0.00     0.000 C 
BRANCH   4   5
ATOM      5  C   UNL     1     132.898 145.365 120.310  1.00  0.00     0.000 C 
BRANCH   5   6
ATOM      6  C   UNL     1     133.095 144.107 119.452  1.00  0.00     0.000 C 
BRANCH   6   7
ATOM      7  C   UNL     1     134.464 144.125 118.760  1.00  0.00     0.006 C 
BRANCH   7   8
ATOM      8  C   UNL     1     135.395 145.155 119.406  1.00  0.00     0.053 C 
BRANCH   8   9
ATOM      9  C   UNL     1     136.468 144.469 120.192  1.00  0.00     0.041 C 
ATOM     10  O   UNL     1     136.563 144.658 121.434  1.00  0.00    -0.550 OA
ATOM     11  O   UNL     1     137.325 143.574 119.565  1.00  0.00    -0.550 OA
ENDBRANCH   8   9
ENDBRANCH   7   8
ENDBRANCH   6   7
ENDBRANCH   5   6
ENDBRANCH   4   5
ENDBRANCH   3   4
ENDBRANCH   2   3
ENDBRANCH   1   2
BRANCH   1  12
ATOM     12  C   UNL     1     128.616 146.643 123.198  1.00  0.00     0.000 C 
BRANCH  12  13
ATOM     13  C   UNL     1     127.291 146.731 122.432  1.00  0.00    -0.000 C 
BRANCH  13  14
ATOM     14  C   UNL     1     127.166 145.589 121.417  1.00  0.00    -0.000 C 
BRANCH  14  15
ATOM     15  C   UNL     1     126.888 146.130 120.010  1.00  0.00    -0.000 C 
BRANCH  15  16
ATOM     16  C   UNL     1     127.566 145.257 118.943  1.00  0.00    -0.000 C 
BRANCH  16  17
ATOM     17  C   UNL     1     127.870 143.832 119.437  1.00  0.00    -0.000 C 
BRANCH  17  18
ATOM     18  C   UNL     1     129.360 143.435 119.409  1.00  0.00    -0.000 C 
BRANCH  18  19
ATOM     19  C   UNL     1     129.834 142.605 120.615  1.00  0.00    -0.003 C 
ATOM     20  C   UNL     1     130.686 141.402 120.211  1.00  0.00     0.004 C 
ENDBRANCH  18  19
ENDBRANCH  17  18
ENDBRANCH  16  17
ENDBRANCH  15  16
ENDBRANCH  14  15
ENDBRANCH  13  14
ENDBRANCH  12  13
ENDBRANCH   1  12
TORSDOF 16
ENDMDL
