MODEL 1
REMARK VINA RESULT:    -5.293      0.000      0.000
REMARK INTER + INTRA:          -6.952
REMARK INTER:                  -8.077
REMARK INTRA:                   1.125
REMARK UNBOUND:                 1.125
REMARK SMILES CC1=CCC[C@H](C)C(=O)C[C@H](C(C)C)C(=O)C1
REMARK SMILES IDX 8 1 9 2 6 3 7 4 5 5 4 6 3 7 2 8 1 9 10 11 11 12 15 13 16 14
REMARK SMILES IDX 17 15 12 17 13 18 14 19
REMARK H PARENT
REMARK Flexibility Score: 70.00
ROOT
ATOM      1  C   UNL     1      17.506  25.114   4.762  1.00  0.00     0.136 C 
ATOM      2  O   UNL     1      17.902  23.975   4.958  1.00  0.00    -0.299 OA
ENDROOT
BRANCH   1   3
ATOM      3  C   UNL     1      16.136  25.532   5.274  1.00  0.00     0.053 C 
ATOM      4  C   UNL     1      15.076  25.383   4.174  1.00  0.00     0.016 C 
BRANCH   3   5
ATOM      5  C   UNL     1      15.740  24.724   6.527  1.00  0.00     0.015 C 
BRANCH   5   6
ATOM      6  C   UNL     1      15.831  25.577   7.809  1.00  0.00     0.028 C 
BRANCH   6   7
ATOM      7  C   UNL     1      17.116  25.366   8.562  1.00  0.00    -0.028 C 
ATOM      8  C   UNL     1      18.260  26.053   8.337  1.00  0.00    -0.070 CG0
ATOM      9  C   UNL     1      19.432  25.778   9.247  1.00  0.00     0.039 C 
ATOM     10  G   UNL     1      18.426  27.052   7.200  1.00  0.00     0.000 G0
ENDBRANCH   6   7
ENDBRANCH   5   6
ENDBRANCH   3   5
ENDBRANCH   1   3
BRANCH   1  11
ATOM     11  C   UNL     1      18.341  26.058   3.931  1.00  0.00     0.087 C 
BRANCH  11  12
ATOM     12  C   UNL     1      19.371  26.947   4.687  1.00  0.00     0.066 C 
BRANCH  12  13
ATOM     13  C   UNL     1      19.493  26.693   6.195  1.00  0.00     0.140 C 
ATOM     14  O   UNL     1      20.478  26.090   6.600  1.00  0.00    -0.299 OA
BRANCH  13  15
ATOM     15  C   UNL     1      18.424  27.061   7.202  1.00  0.00     0.106 CG0
ATOM     16  G   UNL     1      18.280  26.051   8.333  1.00  0.00     0.000 G0
ENDBRANCH  13  15
ENDBRANCH  12  13
BRANCH  12  17
ATOM     17  C   UNL     1      20.726  27.169   3.920  1.00  0.00    -0.006 C 
ATOM     18  C   UNL     1      21.220  25.857   3.285  1.00  0.00     0.008 C 
ATOM     19  C   UNL     1      20.715  28.266   2.842  1.00  0.00     0.008 C 
ENDBRANCH  12  17
ENDBRANCH  11  12
ENDBRANCH   1  11
TORSDOF 1
ENDMDL
MODEL 2
REMARK VINA RESULT:    -5.226      1.659      3.622
REMARK INTER + INTRA:          -6.851
REMARK INTER:                  -7.648
REMARK INTRA:                   0.797
REMARK UNBOUND:                 1.125
REMARK SMILES CC1=CCC[C@H](C)C(=O)C[C@H](C(C)C)C(=O)C1
REMARK SMILES IDX 8 1 9 2 6 3 7 4 5 5 4 6 3 7 2 8 1 9 10 11 11 12 15 13 16 14
REMARK SMILES IDX 17 15 12 17 13 18 14 19
REMARK H PARENT
REMARK Flexibility Score: 70.00
ROOT
ATOM      1  C   UNL     1      18.663  26.669   7.126  1.00  0.00     0.136 C 
ATOM      2  O   UNL     1      17.931  27.645   7.059  1.00  0.00    -0.299 OA
ENDROOT
BRANCH   1   3
ATOM      3  C   UNL     1      18.448  25.641   8.227  1.00  0.00     0.053 C 
ATOM      4  C   UNL     1      19.328  25.957   9.445  1.00  0.00     0.016 C 
BRANCH   3   5
ATOM      5  C   UNL     1      16.961  25.565   8.632  1.00  0.00     0.015 C 
BRANCH   5   6
ATOM      6  C   UNL     1      16.191  24.531   7.786  1.00  0.00     0.028 C 
BRANCH   6   7
ATOM      7  C   UNL     1      15.420  25.158   6.657  1.00  0.00    -0.028 C 
ATOM      8  C   UNL     1      15.818  25.164   5.363  1.00  0.00    -0.070 CG0
ATOM      9  C   UNL     1      14.878  25.758   4.344  1.00  0.00     0.039 C 
ATOM     10  G   UNL     1      17.170  24.635   4.902  1.00  0.00     0.000 G0
ENDBRANCH   6   7
ENDBRANCH   5   6
ENDBRANCH   3   5
ENDBRANCH   1   3
BRANCH   1  11
ATOM     11  C   UNL     1      19.831  26.550   6.176  1.00  0.00     0.087 C 
BRANCH  11  12
ATOM     12  C   UNL     1      19.560  25.871   4.801  1.00  0.00     0.066 C 
BRANCH  12  13
ATOM     13  C   UNL     1      18.085  25.750   4.395  1.00  0.00     0.140 C 
ATOM     14  O   UNL     1      17.604  26.634   3.699  1.00  0.00    -0.299 OA
BRANCH  13  15
ATOM     15  C   UNL     1      17.165  24.650   4.881  1.00  0.00     0.106 CG0
ATOM     16  G   UNL     1      15.811  25.157   5.358  1.00  0.00     0.000 G0
ENDBRANCH  13  15
ENDBRANCH  12  13
BRANCH  12  17
ATOM     17  C   UNL     1      20.550  26.302   3.657  1.00  0.00    -0.006 C 
ATOM     18  C   UNL     1      20.619  27.834   3.537  1.00  0.00     0.008 C 
ATOM     19  C   UNL     1      21.981  25.751   3.766  1.00  0.00     0.008 C 
ENDBRANCH  12  17
ENDBRANCH  11  12
ENDBRANCH   1  11
TORSDOF 1
ENDMDL
MODEL 3
REMARK VINA RESULT:    -5.155      1.536      4.215
REMARK INTER + INTRA:          -6.742
REMARK INTER:                  -6.956
REMARK INTRA:                   0.214
REMARK UNBOUND:                 1.125
REMARK SMILES CC1=CCC[C@H](C)C(=O)C[C@H](C(C)C)C(=O)C1
REMARK SMILES IDX 8 1 9 2 6 3 7 4 5 5 4 6 3 7 2 8 1 9 10 11 11 12 15 13 16 14
REMARK SMILES IDX 17 15 12 17 13 18 14 19
REMARK H PARENT
REMARK Flexibility Score: 70.00
ROOT
ATOM      1  C   UNL     1      16.115  25.315   7.148  1.00  0.00     0.136 C 
ATOM      2  O   UNL     1      15.693  24.606   8.049  1.00  0.00    -0.299 OA
ENDROOT
BRANCH   1   3
ATOM      3  C   UNL     1      15.769  24.983   5.704  1.00  0.00     0.053 C 
ATOM      4  C   UNL     1      14.967  26.123   5.062  1.00  0.00     0.016 C 
BRANCH   3   5
ATOM      5  C   UNL     1      17.040  24.679   4.885  1.00  0.00     0.015 C 
BRANCH   5   6
ATOM      6  C   UNL     1      17.232  25.689   3.734  1.00  0.00     0.028 C 
BRANCH   6   7
ATOM      7  C   UNL     1      18.678  25.889   3.369  1.00  0.00    -0.028 C 
ATOM      8  C   UNL     1      19.587  26.521   4.146  1.00  0.00    -0.070 CG0
ATOM      9  C   UNL     1      21.018  26.553   3.666  1.00  0.00     0.039 C 
ATOM     10  G   UNL     1      19.229  27.222   5.450  1.00  0.00     0.000 G0
ENDBRANCH   6   7
ENDBRANCH   5   6
ENDBRANCH   3   5
ENDBRANCH   1   3
BRANCH   1  11
ATOM     11  C   UNL     1      17.053  26.451   7.476  1.00  0.00     0.087 C 
BRANCH  11  12
ATOM     12  C   UNL     1      18.532  26.081   7.795  1.00  0.00     0.066 C 
BRANCH  12  13
ATOM     13  C   UNL     1      19.558  26.434   6.711  1.00  0.00     0.140 C 
ATOM     14  O   UNL     1      20.726  26.125   6.900  1.00  0.00    -0.299 OA
BRANCH  13  15
ATOM     15  C   UNL     1      19.227  27.225   5.462  1.00  0.00     0.106 CG0
ATOM     16  G   UNL     1      19.612  26.513   4.173  1.00  0.00     0.000 G0
ENDBRANCH  13  15
ENDBRANCH  12  13
BRANCH  12  17
ATOM     17  C   UNL     1      18.972  26.381   9.275  1.00  0.00    -0.006 C 
ATOM     18  C   UNL     1      17.787  26.903  10.107  1.00  0.00     0.008 C 
ATOM     19  C   UNL     1      19.627  25.212  10.030  1.00  0.00     0.008 C 
ENDBRANCH  12  17
ENDBRANCH  11  12
ENDBRANCH   1  11
TORSDOF 1
ENDMDL
MODEL 4
REMARK VINA RESULT:    -4.425      1.769      4.474
REMARK INTER + INTRA:          -5.628
REMARK INTER:                  -6.073
REMARK INTRA:                   0.445
REMARK UNBOUND:                 1.125
REMARK SMILES CC1=CCC[C@H](C)C(=O)C[C@H](C(C)C)C(=O)C1
REMARK SMILES IDX 8 1 9 2 6 3 7 4 5 5 4 6 3 7 2 8 1 9 10 11 11 12 15 13 16 14
REMARK SMILES IDX 17 15 12 17 13 18 14 19
REMARK H PARENT
REMARK Flexibility Score: 70.00
ROOT
ATOM      1  C   UNL     1      19.146  25.754   5.802  1.00  0.00     0.136 C 
ATOM      2  O   UNL     1      19.152  24.590   5.430  1.00  0.00    -0.299 OA
ENDROOT
BRANCH   1   3
ATOM      3  C   UNL     1      18.871  26.862   4.797  1.00  0.00     0.053 C 
ATOM      4  C   UNL     1      20.182  27.386   4.194  1.00  0.00     0.016 C 
BRANCH   3   5
ATOM      5  C   UNL     1      17.912  26.382   3.688  1.00  0.00     0.015 C 
BRANCH   5   6
ATOM      6  C   UNL     1      16.435  26.520   4.111  1.00  0.00     0.028 C 
BRANCH   6   7
ATOM      7  C   UNL     1      15.903  25.285   4.786  1.00  0.00    -0.028 C 
ATOM      8  C   UNL     1      15.620  25.192   6.106  1.00  0.00    -0.070 CG0
ATOM      9  C   UNL     1      15.005  23.906   6.601  1.00  0.00     0.039 C 
ATOM     10  G   UNL     1      15.920  26.301   7.106  1.00  0.00     0.000 G0
ENDBRANCH   6   7
ENDBRANCH   5   6
ENDBRANCH   3   5
ENDBRANCH   1   3
BRANCH   1  11
ATOM     11  C   UNL     1      19.508  26.078   7.231  1.00  0.00     0.087 C 
BRANCH  11  12
ATOM     12  C   UNL     1      18.385  26.677   8.129  1.00  0.00     0.066 C 
BRANCH  12  13
ATOM     13  C   UNL     1      17.035  25.949   8.084  1.00  0.00     0.140 C 
ATOM     14  O   UNL     1      16.876  24.984   8.819  1.00  0.00    -0.299 OA
BRANCH  13  15
ATOM     15  C   UNL     1      15.921  26.297   7.119  1.00  0.00     0.106 CG0
ATOM     16  G   UNL     1      15.629  25.197   6.107  1.00  0.00     0.000 G0
ENDBRANCH  13  15
ENDBRANCH  12  13
BRANCH  12  17
ATOM     17  C   UNL     1      18.867  27.135   9.554  1.00  0.00    -0.006 C 
ATOM     18  C   UNL     1      17.702  27.731  10.364  1.00  0.00     0.008 C 
ATOM     19  C   UNL     1      19.560  26.059  10.406  1.00  0.00     0.008 C 
ENDBRANCH  12  17
ENDBRANCH  11  12
ENDBRANCH   1  11
TORSDOF 1
ENDMDL
MODEL 5
REMARK VINA RESULT:    -4.145      1.830      4.725
REMARK INTER + INTRA:          -5.201
REMARK INTER:                  -5.640
REMARK INTRA:                   0.439
REMARK UNBOUND:                 1.125
REMARK SMILES CC1=CCC[C@H](C)C(=O)C[C@H](C(C)C)C(=O)C1
REMARK SMILES IDX 8 1 9 2 6 3 7 4 5 5 4 6 3 7 2 8 1 9 10 11 11 12 15 13 16 14
REMARK SMILES IDX 17 15 12 17 13 18 14 19
REMARK H PARENT
REMARK Flexibility Score: 70.00
ROOT
ATOM      1  C   UNL     1      19.747  26.555   5.868  1.00  0.00     0.136 C 
ATOM      2  O   UNL     1      19.779  27.770   5.995  1.00  0.00    -0.299 OA
ENDROOT
BRANCH   1   3
ATOM      3  C   UNL     1      19.848  25.941   4.480  1.00  0.00     0.053 C 
ATOM      4  C   UNL     1      21.019  26.553   3.699  1.00  0.00     0.016 C 
BRANCH   3   5
ATOM      5  C   UNL     1      19.987  24.406   4.561  1.00  0.00     0.015 C 
BRANCH   5   6
ATOM      6  C   UNL     1      18.612  23.712   4.644  1.00  0.00     0.028 C 
BRANCH   6   7
ATOM      7  C   UNL     1      17.472  24.631   4.301  1.00  0.00    -0.028 C 
ATOM      8  C   UNL     1      16.590  25.130   5.199  1.00  0.00    -0.070 CG0
ATOM      9  C   UNL     1      15.561  26.113   4.696  1.00  0.00     0.039 C 
ATOM     10  G   UNL     1      16.569  24.723   6.666  1.00  0.00     0.000 G0
ENDBRANCH   6   7
ENDBRANCH   5   6
ENDBRANCH   3   5
ENDBRANCH   1   3
BRANCH   1  11
ATOM     11  C   UNL     1      19.509  25.688   7.081  1.00  0.00     0.087 C 
BRANCH  11  12
ATOM     12  C   UNL     1      18.388  26.137   8.065  1.00  0.00     0.066 C 
BRANCH  12  13
ATOM     13  C   UNL     1      16.950  25.852   7.613  1.00  0.00     0.140 C 
ATOM     14  O   UNL     1      16.049  26.524   8.097  1.00  0.00    -0.299 OA
BRANCH  13  15
ATOM     15  C   UNL     1      16.568  24.726   6.675  1.00  0.00     0.106 CG0
ATOM     16  G   UNL     1      16.599  25.123   5.205  1.00  0.00     0.000 G0
ENDBRANCH  13  15
ENDBRANCH  12  13
BRANCH  12  17
ATOM     17  C   UNL     1      18.698  25.848   9.579  1.00  0.00    -0.006 C 
ATOM     18  C   UNL     1      20.096  25.227   9.747  1.00  0.00     0.008 C 
ATOM     19  C   UNL     1      18.575  27.050  10.531  1.00  0.00     0.008 C 
ENDBRANCH  12  17
ENDBRANCH  11  12
ENDBRANCH   1  11
TORSDOF 1
ENDMDL
MODEL 6
REMARK VINA RESULT:    -4.110     18.444     21.366
REMARK INTER + INTRA:          -5.147
REMARK INTER:                  -5.960
REMARK INTRA:                   0.813
REMARK UNBOUND:                 1.125
REMARK SMILES CC1=CCC[C@H](C)C(=O)C[C@H](C(C)C)C(=O)C1
REMARK SMILES IDX 8 1 9 2 6 3 7 4 5 5 4 6 3 7 2 8 1 9 10 11 11 12 15 13 16 14
REMARK SMILES IDX 17 15 12 17 13 18 14 19
REMARK H PARENT
REMARK Flexibility Score: 70.00
ROOT
ATOM      1  C   UNL     1      34.067  16.442  -5.905  1.00  0.00     0.136 C 
ATOM      2  O   UNL     1      34.285  16.699  -7.079  1.00  0.00    -0.299 OA
ENDROOT
BRANCH   1   3
ATOM      3  C   UNL     1      34.859  15.340  -5.217  1.00  0.00     0.053 C 
ATOM      4  C   UNL     1      34.922  15.582  -3.702  1.00  0.00     0.016 C 
BRANCH   3   5
ATOM      5  C   UNL     1      34.261  13.952  -5.524  1.00  0.00     0.015 C 
BRANCH   5   6
ATOM      6  C   UNL     1      33.498  13.943  -6.865  1.00  0.00     0.028 C 
BRANCH   6   7
ATOM      7  C   UNL     1      32.239  13.121  -6.815  1.00  0.00    -0.028 C 
ATOM      8  C   UNL     1      31.086  13.517  -6.229  1.00  0.00    -0.070 CG0
ATOM      9  C   UNL     1      29.889  12.606  -6.351  1.00  0.00     0.039 C 
ATOM     10  G   UNL     1      30.953  14.808  -5.433  1.00  0.00     0.000 G0
ENDBRANCH   6   7
ENDBRANCH   5   6
ENDBRANCH   3   5
ENDBRANCH   1   3
BRANCH   1  11
ATOM     11  C   UNL     1      32.948  17.155  -5.184  1.00  0.00     0.087 C 
BRANCH  11  12
ATOM     12  C   UNL     1      31.611  17.342  -5.960  1.00  0.00     0.066 C 
BRANCH  12  13
ATOM     13  C   UNL     1      30.811  16.061  -6.229  1.00  0.00     0.140 C 
ATOM     14  O   UNL     1      29.965  16.085  -7.113  1.00  0.00    -0.299 OA
BRANCH  13  15
ATOM     15  C   UNL     1      30.939  14.797  -5.405  1.00  0.00     0.106 CG0
ATOM     16  G   UNL     1      31.061  13.534  -6.245  1.00  0.00     0.000 G0
ENDBRANCH  13  15
ENDBRANCH  12  13
BRANCH  12  17
ATOM     17  C   UNL     1      30.768  18.592  -5.511  1.00  0.00    -0.006 C 
ATOM     18  C   UNL     1      29.914  19.125  -6.675  1.00  0.00     0.008 C 
ATOM     19  C   UNL     1      29.861  18.385  -4.287  1.00  0.00     0.008 C 
ENDBRANCH  12  17
ENDBRANCH  11  12
ENDBRANCH   1  11
TORSDOF 1
ENDMDL
MODEL 7
REMARK VINA RESULT:    -3.219      1.782      3.534
REMARK INTER + INTRA:          -3.788
REMARK INTER:                  -4.700
REMARK INTRA:                   0.912
REMARK UNBOUND:                 1.125
REMARK SMILES CC1=CCC[C@H](C)C(=O)C[C@H](C(C)C)C(=O)C1
REMARK SMILES IDX 8 1 9 2 6 3 7 4 5 5 4 6 3 7 2 8 1 9 10 11 11 12 15 13 16 14
REMARK SMILES IDX 17 15 12 17 13 18 14 19
REMARK H PARENT
REMARK Flexibility Score: 70.00
ROOT
ATOM      1  C   UNL     1      18.924  26.341   7.323  1.00  0.00     0.136 C 
ATOM      2  O   UNL     1      19.783  26.061   8.145  1.00  0.00    -0.299 OA
ENDROOT
BRANCH   1   3
ATOM      3  C   UNL     1      17.501  25.842   7.522  1.00  0.00     0.053 C 
ATOM      4  C   UNL     1      17.118  25.868   9.008  1.00  0.00     0.016 C 
BRANCH   3   5
ATOM      5  C   UNL     1      16.501  26.667   6.686  1.00  0.00     0.015 C 
BRANCH   5   6
ATOM      6  C   UNL     1      15.805  25.804   5.613  1.00  0.00     0.028 C 
BRANCH   6   7
ATOM      7  C   UNL     1      16.366  26.022   4.234  1.00  0.00    -0.028 C 
ATOM      8  C   UNL     1      17.483  25.428   3.755  1.00  0.00    -0.070 CG0
ATOM      9  C   UNL     1      17.854  25.689   2.316  1.00  0.00     0.039 C 
ATOM     10  G   UNL     1      18.390  24.547   4.604  1.00  0.00     0.000 G0
ENDBRANCH   6   7
ENDBRANCH   5   6
ENDBRANCH   3   5
ENDBRANCH   1   3
BRANCH   1  11
ATOM     11  C   UNL     1      19.310  27.096   6.074  1.00  0.00     0.087 C 
BRANCH  11  12
ATOM     12  C   UNL     1      20.293  26.390   5.094  1.00  0.00     0.066 C 
BRANCH  12  13
ATOM     13  C   UNL     1      19.858  25.007   4.593  1.00  0.00     0.140 C 
ATOM     14  O   UNL     1      20.711  24.274   4.110  1.00  0.00    -0.299 OA
BRANCH  13  15
ATOM     15  C   UNL     1      18.421  24.530   4.576  1.00  0.00     0.106 CG0
ATOM     16  G   UNL     1      17.494  25.425   3.765  1.00  0.00     0.000 G0
ENDBRANCH  13  15
ENDBRANCH  12  13
BRANCH  12  17
ATOM     17  C   UNL     1      20.927  27.339   4.012  1.00  0.00    -0.006 C 
ATOM     18  C   UNL     1      21.581  26.526   2.881  1.00  0.00     0.008 C 
ATOM     19  C   UNL     1      19.977  28.375   3.389  1.00  0.00     0.008 C 
ENDBRANCH  12  17
ENDBRANCH  11  12
ENDBRANCH   1  11
TORSDOF 1
ENDMDL
MODEL 8
REMARK VINA RESULT:    -2.566      1.440      4.079
REMARK INTER + INTRA:          -2.791
REMARK INTER:                  -3.699
REMARK INTRA:                   0.908
REMARK UNBOUND:                 1.125
REMARK SMILES CC1=CCC[C@H](C)C(=O)C[C@H](C(C)C)C(=O)C1
REMARK SMILES IDX 8 1 9 2 6 3 7 4 5 5 4 6 3 7 2 8 1 9 10 11 11 12 15 13 16 14
REMARK SMILES IDX 17 15 12 17 13 18 14 19
REMARK H PARENT
REMARK Flexibility Score: 70.00
ROOT
ATOM      1  C   UNL     1      18.521  26.787   3.505  1.00  0.00     0.136 C 
ATOM      2  O   UNL     1      18.007  27.889   3.378  1.00  0.00    -0.299 OA
ENDROOT
BRANCH   1   3
ATOM      3  C   UNL     1      20.009  26.681   3.802  1.00  0.00     0.053 C 
ATOM      4  C   UNL     1      20.836  27.245   2.638  1.00  0.00     0.016 C 
BRANCH   3   5
ATOM      5  C   UNL     1      20.364  27.394   5.122  1.00  0.00     0.015 C 
BRANCH   5   6
ATOM      6  C   UNL     1      20.177  26.466   6.341  1.00  0.00     0.028 C 
BRANCH   6   7
ATOM      7  C   UNL     1      18.967  26.819   7.162  1.00  0.00    -0.028 C 
ATOM      8  C   UNL     1      18.007  25.940   7.533  1.00  0.00    -0.070 CG0
ATOM      9  C   UNL     1      16.907  26.444   8.436  1.00  0.00     0.039 C 
ATOM     10  G   UNL     1      17.968  24.494   7.058  1.00  0.00     0.000 G0
ENDBRANCH   6   7
ENDBRANCH   5   6
ENDBRANCH   3   5
ENDBRANCH   1   3
BRANCH   1  11
ATOM     11  C   UNL     1      17.689  25.549   3.268  1.00  0.00     0.087 C 
BRANCH  11  12
ATOM     12  C   UNL     1      17.099  24.841   4.523  1.00  0.00     0.066 C 
BRANCH  12  13
ATOM     13  C   UNL     1      18.121  24.351   5.557  1.00  0.00     0.140 C 
ATOM     14  O   UNL     1      19.100  23.736   5.154  1.00  0.00    -0.299 OA
BRANCH  13  15
ATOM     15  C   UNL     1      17.946  24.502   7.053  1.00  0.00     0.106 CG0
ATOM     16  G   UNL     1      17.994  25.948   7.528  1.00  0.00     0.000 G0
ENDBRANCH  13  15
ENDBRANCH  12  13
BRANCH  12  17
ATOM     17  C   UNL     1      15.809  25.524   5.109  1.00  0.00    -0.006 C 
ATOM     18  C   UNL     1      14.927  26.091   3.983  1.00  0.00     0.008 C 
ATOM     19  C   UNL     1      14.938  24.643   6.021  1.00  0.00     0.008 C 
ENDBRANCH  12  17
ENDBRANCH  11  12
ENDBRANCH   1  11
TORSDOF 1
ENDMDL
