MODEL 1
REMARK VINA RESULT:    -4.146      0.000      0.000
REMARK INTER + INTRA:          -5.559
REMARK INTER:                  -5.358
REMARK INTRA:                  -0.201
REMARK UNBOUND:                -0.201
REMARK SMILES CCCCCCC(=O)[O-]
REMARK SMILES IDX 5 1 6 2 7 3 8 4 9 5 4 6 3 7 2 8 1 9
REMARK H PARENT
REMARK Flexibility Score: inf
ROOT
ATOM      1  C   UNL     1     -18.011  42.508  20.758  1.00  0.00     0.006 C 
ENDROOT
BRANCH   1   2
ATOM      2  C   UNL     1     -18.883  41.293  20.431  1.00  0.00     0.053 C 
BRANCH   2   3
ATOM      3  C   UNL     1     -18.239  40.457  19.369  1.00  0.00     0.041 C 
ATOM      4  O   UNL     1     -17.600  41.003  18.432  1.00  0.00    -0.550 OA
ATOM      5  O   UNL     1     -18.386  39.075  19.389  1.00  0.00    -0.550 OA
ENDBRANCH   2   3
ENDBRANCH   1   2
BRANCH   1   6
ATOM      6  C   UNL     1     -16.840  42.117  21.667  1.00  0.00     0.000 C 
BRANCH   6   7
ATOM      7  C   UNL     1     -15.959  43.332  21.984  1.00  0.00    -0.000 C 
BRANCH   7   8
ATOM      8  C   UNL     1     -16.791  44.619  22.025  1.00  0.00    -0.003 C 
ATOM      9  C   UNL     1     -16.789  45.231  23.422  1.00  0.00     0.004 C 
ENDBRANCH   7   8
ENDBRANCH   6   7
ENDBRANCH   1   6
TORSDOF 5
ENDMDL
MODEL 2
REMARK VINA RESULT:    -4.101      2.801      5.040
REMARK INTER + INTRA:          -5.501
REMARK INTER:                  -5.351
REMARK INTRA:                  -0.150
REMARK UNBOUND:                -0.201
REMARK SMILES CCCCCCC(=O)[O-]
REMARK SMILES IDX 5 1 6 2 7 3 8 4 9 5 4 6 3 7 2 8 1 9
REMARK H PARENT
REMARK Flexibility Score: inf
ROOT
ATOM      1  C   UNL     1     -17.700  42.275  21.135  1.00  0.00     0.006 C 
ENDROOT
BRANCH   1   2
ATOM      2  C   UNL     1     -17.361  43.730  21.471  1.00  0.00     0.053 C 
BRANCH   2   3
ATOM      3  C   UNL     1     -16.070  43.808  22.224  1.00  0.00     0.041 C 
ATOM      4  O   UNL     1     -15.135  43.007  21.962  1.00  0.00    -0.550 OA
ATOM      5  O   UNL     1     -15.919  44.732  23.250  1.00  0.00    -0.550 OA
ENDBRANCH   2   3
ENDBRANCH   1   2
BRANCH   1   6
ATOM      6  C   UNL     1     -18.694  42.196  19.970  1.00  0.00     0.000 C 
BRANCH   6   7
ATOM      7  C   UNL     1     -18.854  40.753  19.479  1.00  0.00    -0.000 C 
BRANCH   7   8
ATOM      8  C   UNL     1     -17.656  40.327  18.622  1.00  0.00    -0.003 C 
ATOM      9  C   UNL     1     -17.264  38.880  18.902  1.00  0.00     0.004 C 
ENDBRANCH   7   8
ENDBRANCH   6   7
ENDBRANCH   1   6
TORSDOF 5
ENDMDL
MODEL 3
REMARK VINA RESULT:    -4.035     11.950     13.416
REMARK INTER + INTRA:          -5.415
REMARK INTER:                  -5.172
REMARK INTRA:                  -0.242
REMARK UNBOUND:                -0.201
REMARK SMILES CCCCCCC(=O)[O-]
REMARK SMILES IDX 5 1 6 2 7 3 8 4 9 5 4 6 3 7 2 8 1 9
REMARK H PARENT
REMARK Flexibility Score: inf
ROOT
ATOM      1  C   UNL     1     -29.270  42.119  18.954  1.00  0.00     0.006 C 
ENDROOT
BRANCH   1   2
ATOM      2  C   UNL     1     -29.349  41.306  20.249  1.00  0.00     0.053 C 
BRANCH   2   3
ATOM      3  C   UNL     1     -29.426  39.843  19.946  1.00  0.00     0.041 C 
ATOM      4  O   UNL     1     -30.522  39.231  20.050  1.00  0.00    -0.550 OA
ATOM      5  O   UNL     1     -28.277  39.144  19.597  1.00  0.00    -0.550 OA
ENDBRANCH   2   3
ENDBRANCH   1   2
BRANCH   1   6
ATOM      6  C   UNL     1     -30.527  42.978  18.766  1.00  0.00     0.000 C 
BRANCH   6   7
ATOM      7  C   UNL     1     -31.339  43.057  20.063  1.00  0.00    -0.000 C 
BRANCH   7   8
ATOM      8  C   UNL     1     -32.734  43.639  19.804  1.00  0.00    -0.003 C 
ATOM      9  C   UNL     1     -32.900  44.042  18.343  1.00  0.00     0.004 C 
ENDBRANCH   7   8
ENDBRANCH   6   7
ENDBRANCH   1   6
TORSDOF 5
ENDMDL
MODEL 4
REMARK VINA RESULT:    -4.029      1.838      2.639
REMARK INTER + INTRA:          -5.408
REMARK INTER:                  -5.272
REMARK INTRA:                  -0.136
REMARK UNBOUND:                -0.201
REMARK SMILES CCCCCCC(=O)[O-]
REMARK SMILES IDX 5 1 6 2 7 3 8 4 9 5 4 6 3 7 2 8 1 9
REMARK H PARENT
REMARK Flexibility Score: inf
ROOT
ATOM      1  C   UNL     1     -17.359  43.666  21.524  1.00  0.00     0.006 C 
ENDROOT
BRANCH   1   2
ATOM      2  C   UNL     1     -16.561  42.360  21.552  1.00  0.00     0.053 C 
BRANCH   2   3
ATOM      3  C   UNL     1     -17.484  41.182  21.560  1.00  0.00     0.041 C 
ATOM      4  O   UNL     1     -18.595  41.243  20.972  1.00  0.00    -0.550 OA
ATOM      5  O   UNL     1     -17.137  40.032  22.260  1.00  0.00    -0.550 OA
ENDBRANCH   2   3
ENDBRANCH   1   2
BRANCH   1   6
ATOM      6  C   UNL     1     -16.487  44.853  21.952  1.00  0.00     0.000 C 
BRANCH   6   7
ATOM      7  C   UNL     1     -16.852  45.324  23.364  1.00  0.00    -0.000 C 
BRANCH   7   8
ATOM      8  C   UNL     1     -16.373  46.760  23.607  1.00  0.00    -0.003 C 
ATOM      9  C   UNL     1     -16.055  47.464  22.292  1.00  0.00     0.004 C 
ENDBRANCH   7   8
ENDBRANCH   6   7
ENDBRANCH   1   6
TORSDOF 5
ENDMDL
MODEL 5
REMARK VINA RESULT:    -3.894     12.484     13.939
REMARK INTER + INTRA:          -5.234
REMARK INTER:                  -5.001
REMARK INTRA:                  -0.233
REMARK UNBOUND:                -0.201
REMARK SMILES CCCCCCC(=O)[O-]
REMARK SMILES IDX 5 1 6 2 7 3 8 4 9 5 4 6 3 7 2 8 1 9
REMARK H PARENT
REMARK Flexibility Score: inf
ROOT
ATOM      1  C   UNL     1     -31.647  41.764  19.719  1.00  0.00     0.006 C 
ENDROOT
BRANCH   1   2
ATOM      2  C   UNL     1     -30.405  41.341  20.509  1.00  0.00     0.053 C 
BRANCH   2   3
ATOM      3  C   UNL     1     -29.269  41.044  19.580  1.00  0.00     0.041 C 
ATOM      4  O   UNL     1     -28.945  41.873  18.691  1.00  0.00    -0.550 OA
ATOM      5  O   UNL     1     -28.602  39.828  19.665  1.00  0.00    -0.550 OA
ENDBRANCH   2   3
ENDBRANCH   1   2
BRANCH   1   6
ATOM      6  C   UNL     1     -32.021  43.220  20.020  1.00  0.00     0.000 C 
BRANCH   6   7
ATOM      7  C   UNL     1     -32.718  43.869  18.820  1.00  0.00    -0.000 C 
BRANCH   7   8
ATOM      8  C   UNL     1     -31.878  43.718  17.547  1.00  0.00    -0.003 C 
ATOM      9  C   UNL     1     -32.521  44.447  16.372  1.00  0.00     0.004 C 
ENDBRANCH   7   8
ENDBRANCH   6   7
ENDBRANCH   1   6
TORSDOF 5
ENDMDL
MODEL 6
REMARK VINA RESULT:    -3.801      8.644     10.449
REMARK INTER + INTRA:          -5.114
REMARK INTER:                  -4.717
REMARK INTRA:                  -0.396
REMARK UNBOUND:                -0.201
REMARK SMILES CCCCCCC(=O)[O-]
REMARK SMILES IDX 5 1 6 2 7 3 8 4 9 5 4 6 3 7 2 8 1 9
REMARK H PARENT
REMARK Flexibility Score: inf
ROOT
ATOM      1  C   UNL     1     -16.536  36.631  15.056  1.00  0.00     0.006 C 
ENDROOT
BRANCH   1   2
ATOM      2  C   UNL     1     -15.029  36.449  15.255  1.00  0.00     0.053 C 
BRANCH   2   3
ATOM      3  C   UNL     1     -14.274  37.039  14.105  1.00  0.00     0.041 C 
ATOM      4  O   UNL     1     -13.305  36.417  13.597  1.00  0.00    -0.550 OA
ATOM      5  O   UNL     1     -14.610  38.301  13.628  1.00  0.00    -0.550 OA
ENDBRANCH   2   3
ENDBRANCH   1   2
BRANCH   1   6
ATOM      6  C   UNL     1     -17.137  35.449  14.287  1.00  0.00     0.000 C 
BRANCH   6   7
ATOM      7  C   UNL     1     -17.482  35.847  12.847  1.00  0.00    -0.000 C 
BRANCH   7   8
ATOM      8  C   UNL     1     -16.713  34.986  11.839  1.00  0.00    -0.003 C 
ATOM      9  C   UNL     1     -15.828  35.845  10.942  1.00  0.00     0.004 C 
ENDBRANCH   7   8
ENDBRANCH   6   7
ENDBRANCH   1   6
TORSDOF 5
ENDMDL
MODEL 7
REMARK VINA RESULT:    -3.762      4.009      6.002
REMARK INTER + INTRA:          -5.062
REMARK INTER:                  -4.942
REMARK INTRA:                  -0.120
REMARK UNBOUND:                -0.201
REMARK SMILES CCCCCCC(=O)[O-]
REMARK SMILES IDX 5 1 6 2 7 3 8 4 9 5 4 6 3 7 2 8 1 9
REMARK H PARENT
REMARK Flexibility Score: inf
ROOT
ATOM      1  C   UNL     1     -16.927  45.275  23.434  1.00  0.00     0.006 C 
ENDROOT
BRANCH   1   2
ATOM      2  C   UNL     1     -16.007  46.488  23.600  1.00  0.00     0.053 C 
BRANCH   2   3
ATOM      3  C   UNL     1     -16.363  47.555  22.613  1.00  0.00     0.041 C 
ATOM      4  O   UNL     1     -15.947  47.486  21.427  1.00  0.00    -0.550 OA
ATOM      5  O   UNL     1     -17.114  48.653  23.018  1.00  0.00    -0.550 OA
ENDBRANCH   2   3
ENDBRANCH   1   2
BRANCH   1   6
ATOM      6  C   UNL     1     -16.304  44.235  22.495  1.00  0.00     0.000 C 
BRANCH   6   7
ATOM      7  C   UNL     1     -17.340  43.701  21.500  1.00  0.00    -0.000 C 
BRANCH   7   8
ATOM      8  C   UNL     1     -17.290  42.171  21.423  1.00  0.00    -0.003 C 
ATOM      9  C   UNL     1     -18.419  41.626  20.553  1.00  0.00     0.004 C 
ENDBRANCH   7   8
ENDBRANCH   6   7
ENDBRANCH   1   6
TORSDOF 5
ENDMDL
MODEL 8
REMARK VINA RESULT:    -3.754      3.496      5.225
REMARK INTER + INTRA:          -5.052
REMARK INTER:                  -4.852
REMARK INTRA:                  -0.200
REMARK UNBOUND:                -0.201
REMARK SMILES CCCCCCC(=O)[O-]
REMARK SMILES IDX 5 1 6 2 7 3 8 4 9 5 4 6 3 7 2 8 1 9
REMARK H PARENT
REMARK Flexibility Score: inf
ROOT
ATOM      1  C   UNL     1     -16.243  42.950  21.873  1.00  0.00     0.006 C 
ENDROOT
BRANCH   1   2
ATOM      2  C   UNL     1     -17.091  44.222  21.792  1.00  0.00     0.053 C 
BRANCH   2   3
ATOM      3  C   UNL     1     -16.449  45.330  22.566  1.00  0.00     0.041 C 
ATOM      4  O   UNL     1     -16.134  45.161  23.773  1.00  0.00    -0.550 OA
ATOM      5  O   UNL     1     -16.243  46.568  21.968  1.00  0.00    -0.550 OA
ENDBRANCH   2   3
ENDBRANCH   1   2
BRANCH   1   6
ATOM      6  C   UNL     1     -17.027  41.733  21.368  1.00  0.00     0.000 C 
BRANCH   6   7
ATOM      7  C   UNL     1     -18.248  42.165  20.549  1.00  0.00    -0.000 C 
BRANCH   7   8
ATOM      8  C   UNL     1     -18.641  41.085  19.535  1.00  0.00    -0.003 C 
ATOM      9  C   UNL     1     -17.744  39.857  19.662  1.00  0.00     0.004 C 
ENDBRANCH   7   8
ENDBRANCH   6   7
ENDBRANCH   1   6
TORSDOF 5
ENDMDL
MODEL 9
REMARK VINA RESULT:    -3.749     12.731     14.119
REMARK INTER + INTRA:          -5.046
REMARK INTER:                  -4.839
REMARK INTRA:                  -0.207
REMARK UNBOUND:                -0.201
REMARK SMILES CCCCCCC(=O)[O-]
REMARK SMILES IDX 5 1 6 2 7 3 8 4 9 5 4 6 3 7 2 8 1 9
REMARK H PARENT
REMARK Flexibility Score: inf
ROOT
ATOM      1  C   UNL     1     -31.615  42.768  19.986  1.00  0.00     0.006 C 
ENDROOT
BRANCH   1   2
ATOM      2  C   UNL     1     -32.493  43.717  19.167  1.00  0.00     0.053 C 
BRANCH   2   3
ATOM      3  C   UNL     1     -32.464  43.341  17.719  1.00  0.00     0.041 C 
ATOM      4  O   UNL     1     -32.824  42.190  17.356  1.00  0.00    -0.550 OA
ATOM      5  O   UNL     1     -31.990  44.244  16.775  1.00  0.00    -0.550 OA
ENDBRANCH   2   3
ENDBRANCH   1   2
BRANCH   1   6
ATOM      6  C   UNL     1     -30.144  42.879  19.567  1.00  0.00     0.000 C 
BRANCH   6   7
ATOM      7  C   UNL     1     -29.308  41.754  20.188  1.00  0.00    -0.000 C 
BRANCH   7   8
ATOM      8  C   UNL     1     -29.830  40.379  19.756  1.00  0.00    -0.003 C 
ATOM      9  C   UNL     1     -28.697  39.360  19.673  1.00  0.00     0.004 C 
ENDBRANCH   7   8
ENDBRANCH   6   7
ENDBRANCH   1   6
TORSDOF 5
ENDMDL
