MODEL 1
REMARK VINA RESULT:    -1.279      0.000      0.000
REMARK INTER + INTRA:          -2.661
REMARK INTER:                  -2.775
REMARK INTRA:                   0.115
REMARK UNBOUND:                 0.115
REMARK SMILES CCCCCCCCCCCCCCCCCCCCCC(=O)[O-]
REMARK SMILES IDX 12 1 11 2 10 3 9 4 8 5 7 6 6 7 5 8 4 9 3 10 2 11 1 12 13 13
REMARK SMILES IDX 14 14 15 15 16 16 17 17 18 18 19 19 20 20 21 21 22 22 23 23
REMARK SMILES IDX 24 24
REMARK H PARENT
REMARK Flexibility Score: inf
ROOT
ATOM      1  C   UNL     1     -15.237  15.104  -7.756  1.00  0.00     0.000 C 
ENDROOT
BRANCH   1   2
ATOM      2  C   UNL     1     -16.391  15.857  -7.073  1.00  0.00     0.000 C 
BRANCH   2   3
ATOM      3  C   UNL     1     -17.101  16.843  -8.016  1.00  0.00     0.000 C 
BRANCH   3   4
ATOM      4  C   UNL     1     -16.672  16.702  -9.493  1.00  0.00    -0.000 C 
BRANCH   4   5
ATOM      5  C   UNL     1     -17.063  17.931 -10.331  1.00  0.00    -0.000 C 
BRANCH   5   6
ATOM      6  C   UNL     1     -17.049  19.239  -9.520  1.00  0.00    -0.000 C 
BRANCH   6   7
ATOM      7  C   UNL     1     -17.021  20.511 -10.395  1.00  0.00    -0.000 C 
BRANCH   7   8
ATOM      8  C   UNL     1     -16.943  20.187 -11.898  1.00  0.00    -0.000 C 
BRANCH   8   9
ATOM      9  C   UNL     1     -15.792  20.940 -12.598  1.00  0.00    -0.000 C 
BRANCH   9  10
ATOM     10  C   UNL     1     -14.465  20.163 -12.612  1.00  0.00    -0.000 C 
BRANCH  10  11
ATOM     11  C   UNL     1     -13.307  20.950 -11.983  1.00  0.00    -0.003 C 
ATOM     12  C   UNL     1     -12.899  22.125 -12.866  1.00  0.00     0.004 C 
ENDBRANCH  10  11
ENDBRANCH   9  10
ENDBRANCH   8   9
ENDBRANCH   7   8
ENDBRANCH   6   7
ENDBRANCH   5   6
ENDBRANCH   4   5
ENDBRANCH   3   4
ENDBRANCH   2   3
ENDBRANCH   1   2
BRANCH   1  13
ATOM     13  C   UNL     1     -15.256  13.597  -7.456  1.00  0.00     0.000 C 
BRANCH  13  14
ATOM     14  C   UNL     1     -13.846  12.982  -7.417  1.00  0.00     0.000 C 
BRANCH  14  15
ATOM     15  C   UNL     1     -13.702  11.777  -8.370  1.00  0.00     0.000 C 
BRANCH  15  16
ATOM     16  C   UNL     1     -14.203  12.050  -9.802  1.00  0.00     0.000 C 
BRANCH  16  17
ATOM     17  C   UNL     1     -15.394  13.019  -9.899  1.00  0.00     0.000 C 
BRANCH  17  18
ATOM     18  C   UNL     1     -15.425  13.787 -11.233  1.00  0.00     0.000 C 
BRANCH  18  19
ATOM     19  C   UNL     1     -16.842  13.903 -11.816  1.00  0.00     0.000 C 
BRANCH  19  20
ATOM     20  C   UNL     1     -17.023  13.079 -13.104  1.00  0.00     0.006 C 
BRANCH  20  21
ATOM     21  C   UNL     1     -16.133  11.830 -13.125  1.00  0.00     0.053 C 
BRANCH  21  22
ATOM     22  C   UNL     1     -16.785  10.670 -12.438  1.00  0.00     0.041 C 
ATOM     23  O   UNL     1     -17.124  10.759 -11.228  1.00  0.00    -0.550 OA
ATOM     24  O   UNL     1     -16.992   9.480 -13.125  1.00  0.00    -0.550 OA
ENDBRANCH  21  22
ENDBRANCH  20  21
ENDBRANCH  19  20
ENDBRANCH  18  19
ENDBRANCH  17  18
ENDBRANCH  16  17
ENDBRANCH  15  16
ENDBRANCH  14  15
ENDBRANCH  13  14
ENDBRANCH   1  13
TORSDOF 20
ENDMDL
MODEL 2
REMARK VINA RESULT:    -0.869      3.186      7.549
REMARK INTER + INTRA:          -1.770
REMARK INTER:                  -3.391
REMARK INTRA:                   1.620
REMARK UNBOUND:                 0.115
REMARK SMILES CCCCCCCCCCCCCCCCCCCCCC(=O)[O-]
REMARK SMILES IDX 12 1 11 2 10 3 9 4 8 5 7 6 6 7 5 8 4 9 3 10 2 11 1 12 13 13
REMARK SMILES IDX 14 14 15 15 16 16 17 17 18 18 19 19 20 20 21 21 22 22 23 23
REMARK SMILES IDX 24 24
REMARK H PARENT
REMARK Flexibility Score: inf
ROOT
ATOM      1  C   UNL     1     -15.237  16.698  -8.687  1.00  0.00     0.000 C 
ENDROOT
BRANCH   1   2
ATOM      2  C   UNL     1     -16.635  16.164  -8.331  1.00  0.00     0.000 C 
BRANCH   2   3
ATOM      3  C   UNL     1     -16.589  14.805  -7.611  1.00  0.00     0.000 C 
BRANCH   3   4
ATOM      4  C   UNL     1     -15.336  13.969  -7.953  1.00  0.00    -0.000 C 
BRANCH   4   5
ATOM      5  C   UNL     1     -15.591  12.988  -9.110  1.00  0.00    -0.000 C 
BRANCH   5   6
ATOM      6  C   UNL     1     -14.650  13.214 -10.306  1.00  0.00    -0.000 C 
BRANCH   6   7
ATOM      7  C   UNL     1     -14.283  11.918 -11.061  1.00  0.00    -0.000 C 
BRANCH   7   8
ATOM      8  C   UNL     1     -14.778  11.929 -12.519  1.00  0.00    -0.000 C 
BRANCH   8   9
ATOM      9  C   UNL     1     -16.317  11.846 -12.614  1.00  0.00    -0.000 C 
BRANCH   9  10
ATOM     10  C   UNL     1     -17.038  13.071 -12.028  1.00  0.00    -0.000 C 
BRANCH  10  11
ATOM     11  C   UNL     1     -17.063  14.265 -12.992  1.00  0.00    -0.003 C 
ATOM     12  C   UNL     1     -15.681  14.900 -13.113  1.00  0.00     0.004 C 
ENDBRANCH  10  11
ENDBRANCH   9  10
ENDBRANCH   8   9
ENDBRANCH   7   8
ENDBRANCH   6   7
ENDBRANCH   5   6
ENDBRANCH   4   5
ENDBRANCH   3   4
ENDBRANCH   2   3
ENDBRANCH   1   2
BRANCH   1  13
ATOM     13  C   UNL     1     -15.287  18.088  -9.342  1.00  0.00     0.000 C 
BRANCH  13  14
ATOM     14  C   UNL     1     -16.671  18.418  -9.928  1.00  0.00     0.000 C 
BRANCH  14  15
ATOM     15  C   UNL     1     -17.080  17.447 -11.055  1.00  0.00     0.000 C 
BRANCH  15  16
ATOM     16  C   UNL     1     -16.836  17.999 -12.473  1.00  0.00     0.000 C 
BRANCH  16  17
ATOM     17  C   UNL     1     -17.125  19.501 -12.644  1.00  0.00     0.000 C 
BRANCH  17  18
ATOM     18  C   UNL     1     -16.698  20.329 -11.418  1.00  0.00     0.000 C 
BRANCH  18  19
ATOM     19  C   UNL     1     -16.426  21.801 -11.763  1.00  0.00     0.000 C 
BRANCH  19  20
ATOM     20  C   UNL     1     -15.613  21.966 -13.061  1.00  0.00     0.006 C 
BRANCH  20  21
ATOM     21  C   UNL     1     -14.107  22.073 -12.793  1.00  0.00     0.053 C 
BRANCH  21  22
ATOM     22  C   UNL     1     -13.512  20.751 -12.418  1.00  0.00     0.041 C 
ATOM     23  O   UNL     1     -12.548  20.696 -11.610  1.00  0.00    -0.550 OA
ATOM     24  O   UNL     1     -14.003  19.580 -12.983  1.00  0.00    -0.550 OA
ENDBRANCH  21  22
ENDBRANCH  20  21
ENDBRANCH  19  20
ENDBRANCH  18  19
ENDBRANCH  17  18
ENDBRANCH  16  17
ENDBRANCH  15  16
ENDBRANCH  14  15
ENDBRANCH  13  14
ENDBRANCH   1  13
TORSDOF 20
ENDMDL
MODEL 3
REMARK VINA RESULT:    -0.763      1.670      2.121
REMARK INTER + INTRA:          -1.539
REMARK INTER:                  -1.141
REMARK INTRA:                  -0.398
REMARK UNBOUND:                 0.115
REMARK SMILES CCCCCCCCCCCCCCCCCCCCCC(=O)[O-]
REMARK SMILES IDX 12 1 11 2 10 3 9 4 8 5 7 6 6 7 5 8 4 9 3 10 2 11 1 12 13 13
REMARK SMILES IDX 14 14 15 15 16 16 17 17 18 18 19 19 20 20 21 21 22 22 23 23
REMARK SMILES IDX 24 24
REMARK H PARENT
REMARK Flexibility Score: inf
ROOT
ATOM      1  C   UNL     1     -15.736  15.531  -7.452  1.00  0.00     0.000 C 
ENDROOT
BRANCH   1   2
ATOM      2  C   UNL     1     -17.125  16.024  -7.893  1.00  0.00     0.000 C 
BRANCH   2   3
ATOM      3  C   UNL     1     -17.079  17.396  -8.586  1.00  0.00     0.000 C 
BRANCH   3   4
ATOM      4  C   UNL     1     -16.437  17.356  -9.991  1.00  0.00    -0.000 C 
BRANCH   4   5
ATOM      5  C   UNL     1     -16.014  18.754 -10.475  1.00  0.00    -0.000 C 
BRANCH   5   6
ATOM      6  C   UNL     1     -17.067  19.420 -11.378  1.00  0.00    -0.000 C 
BRANCH   6   7
ATOM      7  C   UNL     1     -17.120  20.957 -11.240  1.00  0.00    -0.000 C 
BRANCH   7   8
ATOM      8  C   UNL     1     -16.617  21.676 -12.505  1.00  0.00    -0.000 C 
BRANCH   8   9
ATOM      9  C   UNL     1     -15.245  21.145 -12.972  1.00  0.00    -0.000 C 
BRANCH   9  10
ATOM     10  C   UNL     1     -14.066  22.050 -12.576  1.00  0.00    -0.000 C 
BRANCH  10  11
ATOM     11  C   UNL     1     -12.792  21.260 -12.250  1.00  0.00    -0.003 C 
ATOM     12  C   UNL     1     -12.852  19.854 -12.841  1.00  0.00     0.004 C 
ENDBRANCH  10  11
ENDBRANCH   9  10
ENDBRANCH   8   9
ENDBRANCH   7   8
ENDBRANCH   6   7
ENDBRANCH   5   6
ENDBRANCH   4   5
ENDBRANCH   3   4
ENDBRANCH   2   3
ENDBRANCH   1   2
BRANCH   1  13
ATOM     13  C   UNL     1     -15.502  14.050  -7.789  1.00  0.00     0.000 C 
BRANCH  13  14
ATOM     14  C   UNL     1     -14.650  13.329  -6.730  1.00  0.00     0.000 C 
BRANCH  14  15
ATOM     15  C   UNL     1     -13.907  12.105  -7.305  1.00  0.00     0.000 C 
BRANCH  15  16
ATOM     16  C   UNL     1     -13.370  12.315  -8.734  1.00  0.00     0.000 C 
BRANCH  16  17
ATOM     17  C   UNL     1     -14.112  11.529  -9.829  1.00  0.00     0.000 C 
BRANCH  17  18
ATOM     18  C   UNL     1     -15.035  12.423 -10.677  1.00  0.00     0.000 C 
BRANCH  18  19
ATOM     19  C   UNL     1     -16.312  11.697 -11.127  1.00  0.00     0.000 C 
BRANCH  19  20
ATOM     20  C   UNL     1     -16.608  11.888 -12.626  1.00  0.00     0.006 C 
BRANCH  20  21
ATOM     21  C   UNL     1     -17.076  13.313 -12.948  1.00  0.00     0.053 C 
BRANCH  21  22
ATOM     22  C   UNL     1     -15.942  14.291 -12.925  1.00  0.00     0.041 C 
ATOM     23  O   UNL     1     -16.167  15.518 -12.752  1.00  0.00    -0.550 OA
ATOM     24  O   UNL     1     -14.639  13.852 -13.124  1.00  0.00    -0.550 OA
ENDBRANCH  21  22
ENDBRANCH  20  21
ENDBRANCH  19  20
ENDBRANCH  18  19
ENDBRANCH  17  18
ENDBRANCH  16  17
ENDBRANCH  15  16
ENDBRANCH  14  15
ENDBRANCH  13  14
ENDBRANCH   1  13
TORSDOF 20
ENDMDL
MODEL 4
REMARK VINA RESULT:    -0.756      3.492      7.316
REMARK INTER + INTRA:          -1.525
REMARK INTER:                  -0.277
REMARK INTRA:                  -1.249
REMARK UNBOUND:                 0.115
REMARK SMILES CCCCCCCCCCCCCCCCCCCCCC(=O)[O-]
REMARK SMILES IDX 12 1 11 2 10 3 9 4 8 5 7 6 6 7 5 8 4 9 3 10 2 11 1 12 13 13
REMARK SMILES IDX 14 14 15 15 16 16 17 17 18 18 19 19 20 20 21 21 22 22 23 23
REMARK SMILES IDX 24 24
REMARK H PARENT
REMARK Flexibility Score: inf
ROOT
ATOM      1  C   UNL     1     -16.099  15.263  -8.303  1.00  0.00     0.000 C 
ENDROOT
BRANCH   1   2
ATOM      2  C   UNL     1     -15.033  14.252  -7.848  1.00  0.00     0.000 C 
BRANCH   2   3
ATOM      3  C   UNL     1     -14.510  13.378  -9.000  1.00  0.00     0.000 C 
BRANCH   3   4
ATOM      4  C   UNL     1     -15.184  11.990  -9.078  1.00  0.00    -0.000 C 
BRANCH   4   5
ATOM      5  C   UNL     1     -16.308  11.949 -10.127  1.00  0.00    -0.000 C 
BRANCH   5   6
ATOM      6  C   UNL     1     -17.077  13.278 -10.234  1.00  0.00    -0.000 C 
BRANCH   6   7
ATOM      7  C   UNL     1     -17.125  13.853 -11.666  1.00  0.00    -0.000 C 
BRANCH   7   8
ATOM      8  C   UNL     1     -15.945  14.798 -11.957  1.00  0.00    -0.000 C 
BRANCH   8   9
ATOM      9  C   UNL     1     -15.061  14.289 -13.116  1.00  0.00    -0.000 C 
BRANCH   9  10
ATOM     10  C   UNL     1     -14.875  12.762 -13.125  1.00  0.00    -0.000 C 
BRANCH  10  11
ATOM     11  C   UNL     1     -13.400  12.342 -13.086  1.00  0.00    -0.003 C 
ATOM     12  C   UNL     1     -12.917  12.170 -11.649  1.00  0.00     0.004 C 
ENDBRANCH  10  11
ENDBRANCH   9  10
ENDBRANCH   8   9
ENDBRANCH   7   8
ENDBRANCH   6   7
ENDBRANCH   5   6
ENDBRANCH   4   5
ENDBRANCH   3   4
ENDBRANCH   2   3
ENDBRANCH   1   2
BRANCH   1  13
ATOM     13  C   UNL     1     -16.224  16.458  -7.344  1.00  0.00     0.000 C 
BRANCH  13  14
ATOM     14  C   UNL     1     -17.084  17.595  -7.924  1.00  0.00     0.000 C 
BRANCH  14  15
ATOM     15  C   UNL     1     -16.301  18.476  -8.920  1.00  0.00     0.000 C 
BRANCH  15  16
ATOM     16  C   UNL     1     -16.083  17.818 -10.297  1.00  0.00     0.000 C 
BRANCH  16  17
ATOM     17  C   UNL     1     -17.125  18.190 -11.366  1.00  0.00     0.000 C 
BRANCH  17  18
ATOM     18  C   UNL     1     -17.090  19.685 -11.732  1.00  0.00     0.000 C 
BRANCH  18  19
ATOM     19  C   UNL     1     -16.438  19.946 -13.098  1.00  0.00     0.000 C 
BRANCH  19  20
ATOM     20  C   UNL     1     -15.608  21.243 -13.122  1.00  0.00     0.006 C 
BRANCH  20  21
ATOM     21  C   UNL     1     -14.856  21.476 -11.805  1.00  0.00     0.053 C 
BRANCH  21  22
ATOM     22  C   UNL     1     -13.402  21.139 -11.926  1.00  0.00     0.041 C 
ATOM     23  O   UNL     1     -13.043  20.080 -12.505  1.00  0.00    -0.550 OA
ATOM     24  O   UNL     1     -12.443  21.980 -11.375  1.00  0.00    -0.550 OA
ENDBRANCH  21  22
ENDBRANCH  20  21
ENDBRANCH  19  20
ENDBRANCH  18  19
ENDBRANCH  17  18
ENDBRANCH  16  17
ENDBRANCH  15  16
ENDBRANCH  14  15
ENDBRANCH  13  14
ENDBRANCH   1  13
TORSDOF 20
ENDMDL
MODEL 5
REMARK VINA RESULT:    -0.693      1.942      2.713
REMARK INTER + INTRA:          -1.388
REMARK INTER:                   0.249
REMARK INTRA:                  -1.637
REMARK UNBOUND:                 0.115
REMARK SMILES CCCCCCCCCCCCCCCCCCCCCC(=O)[O-]
REMARK SMILES IDX 12 1 11 2 10 3 9 4 8 5 7 6 6 7 5 8 4 9 3 10 2 11 1 12 13 13
REMARK SMILES IDX 14 14 15 15 16 16 17 17 18 18 19 19 20 20 21 21 22 22 23 23
REMARK SMILES IDX 24 24
REMARK H PARENT
REMARK Flexibility Score: inf
ROOT
ATOM      1  C   UNL     1     -15.031  14.166  -7.297  1.00  0.00     0.000 C 
ENDROOT
BRANCH   1   2
ATOM      2  C   UNL     1     -14.652  15.363  -6.409  1.00  0.00     0.000 C 
BRANCH   2   3
ATOM      3  C   UNL     1     -15.262  16.687  -6.900  1.00  0.00     0.000 C 
BRANCH   3   4
ATOM      4  C   UNL     1     -16.741  16.563  -7.328  1.00  0.00    -0.000 C 
BRANCH   4   5
ATOM      5  C   UNL     1     -17.070  17.450  -8.542  1.00  0.00    -0.000 C 
BRANCH   5   6
ATOM      6  C   UNL     1     -16.329  17.017  -9.819  1.00  0.00    -0.000 C 
BRANCH   6   7
ATOM      7  C   UNL     1     -16.530  17.979 -11.010  1.00  0.00    -0.000 C 
BRANCH   7   8
ATOM      8  C   UNL     1     -15.578  19.188 -10.954  1.00  0.00    -0.000 C 
BRANCH   8   9
ATOM      9  C   UNL     1     -15.648  20.045 -12.236  1.00  0.00    -0.000 C 
BRANCH   9  10
ATOM     10  C   UNL     1     -15.251  21.514 -12.018  1.00  0.00    -0.000 C 
BRANCH  10  11
ATOM     11  C   UNL     1     -13.933  21.884 -12.711  1.00  0.00    -0.003 C 
ATOM     12  C   UNL     1     -12.801  22.021 -11.697  1.00  0.00     0.004 C 
ENDBRANCH  10  11
ENDBRANCH   9  10
ENDBRANCH   8   9
ENDBRANCH   7   8
ENDBRANCH   6   7
ENDBRANCH   5   6
ENDBRANCH   4   5
ENDBRANCH   3   4
ENDBRANCH   2   3
ENDBRANCH   1   2
BRANCH   1  13
ATOM     13  C   UNL     1     -16.206  13.358  -6.726  1.00  0.00     0.000 C 
BRANCH  13  14
ATOM     14  C   UNL     1     -17.077  12.722  -7.824  1.00  0.00     0.000 C 
BRANCH  14  15
ATOM     15  C   UNL     1     -17.079  13.549  -9.127  1.00  0.00     0.000 C 
BRANCH  15  16
ATOM     16  C   UNL     1     -16.982  12.696 -10.407  1.00  0.00     0.000 C 
BRANCH  16  17
ATOM     17  C   UNL     1     -16.898  11.178 -10.171  1.00  0.00     0.000 C 
BRANCH  17  18
ATOM     18  C   UNL     1     -17.124  10.365 -11.459  1.00  0.00     0.000 C 
BRANCH  18  19
ATOM     19  C   UNL     1     -16.840  11.179 -12.730  1.00  0.00     0.000 C 
BRANCH  19  20
ATOM     20  C   UNL     1     -15.350  11.177 -13.118  1.00  0.00     0.006 C 
BRANCH  20  21
ATOM     21  C   UNL     1     -14.694  12.548 -12.912  1.00  0.00     0.053 C 
BRANCH  21  22
ATOM     22  C   UNL     1     -13.490  12.462 -12.026  1.00  0.00     0.041 C 
ATOM     23  O   UNL     1     -13.620  12.182 -10.805  1.00  0.00    -0.550 OA
ATOM     24  O   UNL     1     -12.226  12.721 -12.541  1.00  0.00    -0.550 OA
ENDBRANCH  21  22
ENDBRANCH  20  21
ENDBRANCH  19  20
ENDBRANCH  18  19
ENDBRANCH  17  18
ENDBRANCH  16  17
ENDBRANCH  15  16
ENDBRANCH  14  15
ENDBRANCH  13  14
ENDBRANCH   1  13
TORSDOF 20
ENDMDL
MODEL 6
REMARK VINA RESULT:    -0.393      3.773      7.074
REMARK INTER + INTRA:          -0.737
REMARK INTER:                  -0.335
REMARK INTRA:                  -0.401
REMARK UNBOUND:                 0.115
REMARK SMILES CCCCCCCCCCCCCCCCCCCCCC(=O)[O-]
REMARK SMILES IDX 12 1 11 2 10 3 9 4 8 5 7 6 6 7 5 8 4 9 3 10 2 11 1 12 13 13
REMARK SMILES IDX 14 14 15 15 16 16 17 17 18 18 19 19 20 20 21 21 22 22 23 23
REMARK SMILES IDX 24 24
REMARK H PARENT
REMARK Flexibility Score: inf
ROOT
ATOM      1  C   UNL     1     -13.597  12.073 -11.397  1.00  0.00     0.000 C 
ENDROOT
BRANCH   1   2
ATOM      2  C   UNL     1     -14.512  12.895 -10.473  1.00  0.00     0.000 C 
BRANCH   2   3
ATOM      3  C   UNL     1     -15.590  12.040  -9.787  1.00  0.00     0.000 C 
BRANCH   3   4
ATOM      4  C   UNL     1     -16.670  12.874  -9.061  1.00  0.00    -0.000 C 
BRANCH   4   5
ATOM      5  C   UNL     1     -17.125  12.216  -7.747  1.00  0.00    -0.000 C 
BRANCH   5   6
ATOM      6  C   UNL     1     -16.931  13.127  -6.522  1.00  0.00    -0.000 C 
BRANCH   6   7
ATOM      7  C   UNL     1     -15.491  13.119  -5.965  1.00  0.00    -0.000 C 
BRANCH   7   8
ATOM      8  C   UNL     1     -14.553  14.052  -6.751  1.00  0.00    -0.000 C 
BRANCH   8   9
ATOM      9  C   UNL     1     -15.270  15.333  -7.230  1.00  0.00    -0.000 C 
BRANCH   9  10
ATOM     10  C   UNL     1     -15.428  15.417  -8.757  1.00  0.00    -0.000 C 
BRANCH  10  11
ATOM     11  C   UNL     1     -16.381  16.537  -9.196  1.00  0.00    -0.003 C 
ATOM     12  C   UNL     1     -17.034  17.204  -7.990  1.00  0.00     0.004 C 
ENDBRANCH  10  11
ENDBRANCH   9  10
ENDBRANCH   8   9
ENDBRANCH   7   8
ENDBRANCH   6   7
ENDBRANCH   5   6
ENDBRANCH   4   5
ENDBRANCH   3   4
ENDBRANCH   2   3
ENDBRANCH   1   2
BRANCH   1  13
ATOM     13  C   UNL     1     -13.635  12.566 -12.852  1.00  0.00     0.000 C 
BRANCH  13  14
ATOM     14  C   UNL     1     -14.636  13.715 -13.064  1.00  0.00     0.000 C 
BRANCH  14  15
ATOM     15  C   UNL     1     -16.100  13.265 -12.873  1.00  0.00     0.000 C 
BRANCH  15  16
ATOM     16  C   UNL     1     -17.074  14.420 -12.571  1.00  0.00     0.000 C 
BRANCH  16  17
ATOM     17  C   UNL     1     -16.634  15.795 -13.102  1.00  0.00     0.000 C 
BRANCH  17  18
ATOM     18  C   UNL     1     -17.087  16.953 -12.193  1.00  0.00     0.000 C 
BRANCH  18  19
ATOM     19  C   UNL     1     -16.703  18.331 -12.755  1.00  0.00     0.000 C 
BRANCH  19  20
ATOM     20  C   UNL     1     -15.273  18.753 -12.370  1.00  0.00     0.006 C 
BRANCH  20  21
ATOM     21  C   UNL     1     -15.258  19.982 -11.453  1.00  0.00     0.053 C 
BRANCH  21  22
ATOM     22  C   UNL     1     -15.052  21.250 -12.223  1.00  0.00     0.041 C 
ATOM     23  O   UNL     1     -16.013  22.043 -12.407  1.00  0.00    -0.550 OA
ATOM     24  O   UNL     1     -13.806  21.542 -12.765  1.00  0.00    -0.550 OA
ENDBRANCH  21  22
ENDBRANCH  20  21
ENDBRANCH  19  20
ENDBRANCH  18  19
ENDBRANCH  17  18
ENDBRANCH  16  17
ENDBRANCH  15  16
ENDBRANCH  14  15
ENDBRANCH  13  14
ENDBRANCH   1  13
TORSDOF 20
ENDMDL
MODEL 7
REMARK VINA RESULT:    -0.309      2.530      4.454
REMARK INTER + INTRA:          -0.556
REMARK INTER:                  -3.227
REMARK INTRA:                   2.671
REMARK UNBOUND:                 0.115
REMARK SMILES CCCCCCCCCCCCCCCCCCCCCC(=O)[O-]
REMARK SMILES IDX 12 1 11 2 10 3 9 4 8 5 7 6 6 7 5 8 4 9 3 10 2 11 1 12 13 13
REMARK SMILES IDX 14 14 15 15 16 16 17 17 18 18 19 19 20 20 21 21 22 22 23 23
REMARK SMILES IDX 24 24
REMARK H PARENT
REMARK Flexibility Score: inf
ROOT
ATOM      1  C   UNL     1     -16.189  13.877 -10.574  1.00  0.00     0.000 C 
ENDROOT
BRANCH   1   2
ATOM      2  C   UNL     1     -16.307  15.298 -11.150  1.00  0.00     0.000 C 
BRANCH   2   3
ATOM      3  C   UNL     1     -16.870  15.317 -12.581  1.00  0.00     0.000 C 
BRANCH   3   4
ATOM      4  C   UNL     1     -17.123  16.741 -13.125  1.00  0.00    -0.000 C 
BRANCH   4   5
ATOM      5  C   UNL     1     -17.125  17.798 -12.007  1.00  0.00    -0.000 C 
BRANCH   5   6
ATOM      6  C   UNL     1     -15.819  17.811 -11.194  1.00  0.00    -0.000 C 
BRANCH   6   7
ATOM      7  C   UNL     1     -15.660  19.057 -10.296  1.00  0.00    -0.000 C 
BRANCH   7   8
ATOM      8  C   UNL     1     -16.787  20.083 -10.513  1.00  0.00    -0.000 C 
BRANCH   8   9
ATOM      9  C   UNL     1     -16.480  21.051 -11.676  1.00  0.00    -0.000 C 
BRANCH   9  10
ATOM     10  C   UNL     1     -15.065  21.649 -11.623  1.00  0.00    -0.000 C 
BRANCH  10  11
ATOM     11  C   UNL     1     -14.175  21.177 -12.781  1.00  0.00    -0.003 C 
ATOM     12  C   UNL     1     -13.015  20.328 -12.269  1.00  0.00     0.004 C 
ENDBRANCH  10  11
ENDBRANCH   9  10
ENDBRANCH   8   9
ENDBRANCH   7   8
ENDBRANCH   6   7
ENDBRANCH   5   6
ENDBRANCH   4   5
ENDBRANCH   3   4
ENDBRANCH   2   3
ENDBRANCH   1   2
BRANCH   1  13
ATOM     13  C   UNL     1     -16.449  12.790 -11.629  1.00  0.00     0.000 C 
BRANCH  13  14
ATOM     14  C   UNL     1     -15.181  12.413 -12.416  1.00  0.00     0.000 C 
BRANCH  14  15
ATOM     15  C   UNL     1     -13.920  12.393 -11.527  1.00  0.00     0.000 C 
BRANCH  15  16
ATOM     16  C   UNL     1     -14.162  11.837 -10.111  1.00  0.00     0.000 C 
BRANCH  16  17
ATOM     17  C   UNL     1     -14.894  12.794  -9.154  1.00  0.00     0.000 C 
BRANCH  17  18
ATOM     18  C   UNL     1     -14.135  13.003  -7.831  1.00  0.00     0.000 C 
BRANCH  18  19
ATOM     19  C   UNL     1     -15.070  13.045  -6.613  1.00  0.00     0.000 C 
BRANCH  19  20
ATOM     20  C   UNL     1     -16.501  13.483  -6.977  1.00  0.00     0.006 C 
BRANCH  20  21
ATOM     21  C   UNL     1     -16.901  14.793  -6.285  1.00  0.00     0.053 C 
BRANCH  21  22
ATOM     22  C   UNL     1     -16.383  15.991  -7.018  1.00  0.00     0.041 C 
ATOM     23  O   UNL     1     -15.337  16.571  -6.626  1.00  0.00    -0.550 OA
ATOM     24  O   UNL     1     -17.072  16.487  -8.119  1.00  0.00    -0.550 OA
ENDBRANCH  21  22
ENDBRANCH  20  21
ENDBRANCH  19  20
ENDBRANCH  18  19
ENDBRANCH  17  18
ENDBRANCH  16  17
ENDBRANCH  15  16
ENDBRANCH  14  15
ENDBRANCH  13  14
ENDBRANCH   1  13
TORSDOF 20
ENDMDL
MODEL 8
REMARK VINA RESULT:    -0.226      1.863      3.014
REMARK INTER + INTRA:          -0.375
REMARK INTER:                  -0.522
REMARK INTRA:                   0.147
REMARK UNBOUND:                 0.115
REMARK SMILES CCCCCCCCCCCCCCCCCCCCCC(=O)[O-]
REMARK SMILES IDX 12 1 11 2 10 3 9 4 8 5 7 6 6 7 5 8 4 9 3 10 2 11 1 12 13 13
REMARK SMILES IDX 14 14 15 15 16 16 17 17 18 18 19 19 20 20 21 21 22 22 23 23
REMARK SMILES IDX 24 24
REMARK H PARENT
REMARK Flexibility Score: inf
ROOT
ATOM      1  C   UNL     1     -15.123  16.453  -9.087  1.00  0.00     0.000 C 
ENDROOT
BRANCH   1   2
ATOM      2  C   UNL     1     -15.823  17.325  -8.031  1.00  0.00     0.000 C 
BRANCH   2   3
ATOM      3  C   UNL     1     -16.328  18.662  -8.599  1.00  0.00     0.000 C 
BRANCH   3   4
ATOM      4  C   UNL     1     -17.080  18.517  -9.941  1.00  0.00    -0.000 C 
BRANCH   4   5
ATOM      5  C   UNL     1     -16.268  19.072 -11.124  1.00  0.00    -0.000 C 
BRANCH   5   6
ATOM      6  C   UNL     1     -17.125  19.885 -12.110  1.00  0.00    -0.000 C 
BRANCH   6   7
ATOM      7  C   UNL     1     -17.023  21.412 -11.908  1.00  0.00    -0.000 C 
BRANCH   7   8
ATOM      8  C   UNL     1     -16.398  22.123 -13.123  1.00  0.00    -0.000 C 
BRANCH   8   9
ATOM      9  C   UNL     1     -14.855  22.077 -13.096  1.00  0.00    -0.000 C 
BRANCH   9  10
ATOM     10  C   UNL     1     -14.276  21.597 -11.754  1.00  0.00    -0.000 C 
BRANCH  10  11
ATOM     11  C   UNL     1     -12.851  21.043 -11.885  1.00  0.00    -0.003 C 
ATOM     12  C   UNL     1     -12.039  21.852 -12.892  1.00  0.00     0.004 C 
ENDBRANCH  10  11
ENDBRANCH   9  10
ENDBRANCH   8   9
ENDBRANCH   7   8
ENDBRANCH   6   7
ENDBRANCH   5   6
ENDBRANCH   4   5
ENDBRANCH   3   4
ENDBRANCH   2   3
ENDBRANCH   1   2
BRANCH   1  13
ATOM     13  C   UNL     1     -15.898  15.162  -9.394  1.00  0.00     0.000 C 
BRANCH  13  14
ATOM     14  C   UNL     1     -17.036  15.381 -10.407  1.00  0.00     0.000 C 
BRANCH  14  15
ATOM     15  C   UNL     1     -16.520  15.863 -11.778  1.00  0.00     0.000 C 
BRANCH  15  16
ATOM     16  C   UNL     1     -15.233  15.156 -12.245  1.00  0.00     0.000 C 
BRANCH  16  17
ATOM     17  C   UNL     1     -15.456  13.843 -13.016  1.00  0.00     0.000 C 
BRANCH  17  18
ATOM     18  C   UNL     1     -16.912  13.350 -12.934  1.00  0.00     0.000 C 
BRANCH  18  19
ATOM     19  C   UNL     1     -17.019  11.817 -12.950  1.00  0.00     0.000 C 
BRANCH  19  20
ATOM     20  C   UNL     1     -16.145  11.149 -11.871  1.00  0.00     0.006 C 
BRANCH  20  21
ATOM     21  C   UNL     1     -15.959  12.044 -10.639  1.00  0.00     0.053 C 
BRANCH  21  22
ATOM     22  C   UNL     1     -14.527  12.101 -10.204  1.00  0.00     0.041 C 
ATOM     23  O   UNL     1     -13.622  11.622 -10.936  1.00  0.00    -0.550 OA
ATOM     24  O   UNL     1     -14.194  12.657  -8.974  1.00  0.00    -0.550 OA
ENDBRANCH  21  22
ENDBRANCH  20  21
ENDBRANCH  19  20
ENDBRANCH  18  19
ENDBRANCH  17  18
ENDBRANCH  16  17
ENDBRANCH  15  16
ENDBRANCH  14  15
ENDBRANCH  13  14
ENDBRANCH   1  13
TORSDOF 20
ENDMDL
