MODEL 1
REMARK VINA RESULT:    52.632      0.000      0.000
REMARK INTER + INTRA:          58.139
REMARK INTER:                  57.247
REMARK INTRA:                   0.893
REMARK UNBOUND:                 0.893
REMARK SMILES C[C@@H]1[C@H](C)CC[C@@]2(C(=O)[O-])CC[C@]3(C)C(=CC[C@H]4[C@]5(C)CC[C@H](O)C(C)(C)[C@H]5CC[C@]43C)[C@H]12
REMARK SMILES IDX 7 1 6 2 11 3 33 4 5 5 12 6 15 7 2 8 3 9 13 10 16 11 1 12
REMARK SMILES IDX 4 13 14 14 31 15 17 16 18 17 30 18 32 19 19 20 29 21 28 22
REMARK SMILES IDX 21 23 20 24 25 25 22 26 23 27 26 28 27 29 8 30 9 31 10 32
REMARK SMILES IDX 24 33
REMARK H PARENT 24 34
REMARK Flexibility Score: inf
ROOT
ATOM      1  C   UNL     1       7.699 -32.179  18.436  1.00  0.00     0.017 C 
ATOM      2  C   UNL     1       7.566 -33.266  19.576  1.00  0.00     0.014 C 
ATOM      3  C   UNL     1       8.521 -30.910  19.025  1.00  0.00     0.014 C 
ATOM      4  C   UNL     1       8.584 -32.910  17.297  1.00  0.00     0.030 C 
ATOM      5  C   UNL     1       7.299 -34.754  19.144  1.00  0.00     0.004 C 
ATOM      6  C   UNL     1       9.980 -30.836  18.535  1.00  0.00     0.013 C 
ATOM      7  C   UNL     1       9.255 -32.000  16.302  1.00  0.00    -0.063 C 
ATOM      8  C   UNL     1       8.054 -34.286  16.768  1.00  0.00    -0.003 C 
ATOM      9  C   UNL     1       8.104 -35.282  17.913  1.00  0.00    -0.011 C 
ATOM     10  C   UNL     1      10.154 -30.841  16.955  1.00  0.00    -0.006 C 
ATOM     11  C   UNL     1       9.498 -32.419  15.086  1.00  0.00    -0.027 C 
ATOM     12  C   UNL     1       6.653 -34.167  16.106  1.00  0.00     0.008 C 
ATOM     13  C   UNL     1       7.709 -36.749  17.577  1.00  0.00     0.008 C 
ATOM     14  C   UNL     1       9.680 -29.430  16.526  1.00  0.00     0.017 C 
ATOM     15  C   UNL     1      11.770 -31.029  16.661  1.00  0.00    -0.020 C 
ATOM     16  C   UNL     1      10.611 -31.813  14.372  1.00  0.00     0.032 C 
ATOM     17  C   UNL     1      11.893 -31.803  15.304  1.00  0.00     0.006 C 
ATOM     18  C   UNL     1      12.570 -29.636  16.579  1.00  0.00     0.008 C 
ATOM     19  C   UNL     1      12.520 -31.873  17.819  1.00  0.00     0.012 C 
ATOM     20  C   UNL     1      13.113 -31.394  14.375  1.00  0.00    -0.025 C 
ATOM     21  C   UNL     1      14.112 -29.793  16.170  1.00  0.00     0.005 C 
ATOM     22  C   UNL     1      14.358 -30.977  15.166  1.00  0.00     0.003 C 
ATOM     23  C   UNL     1      13.512 -32.779  13.624  1.00  0.00     0.010 C 
ATOM     24  C   UNL     1      12.536 -30.190  13.437  1.00  0.00     0.012 C 
ATOM     25  C   UNL     1      15.787 -31.363  14.479  1.00  0.00    -0.006 C 
ATOM     26  C   UNL     1      14.634 -33.672  14.344  1.00  0.00     0.033 C 
ATOM     27  C   UNL     1      15.964 -32.964  14.790  1.00  0.00     0.120 C 
ATOM     28  C   UNL     1      16.801 -30.386  15.111  1.00  0.00     0.014 C 
ATOM     29  C   UNL     1      16.085 -31.251  12.876  1.00  0.00     0.014 C 
ENDROOT
BRANCH   1  30
ATOM     30  C   UNL     1       6.332 -31.644  17.953  1.00  0.00     0.048 C 
ATOM     31  O   UNL     1       5.875 -30.568  18.482  1.00  0.00    -0.550 OA
ATOM     32  O   UNL     1       5.875 -31.839  16.651  1.00  0.00    -0.550 OA
ENDBRANCH   1  30
BRANCH  27  33
ATOM     33  O   UNL     1      16.454 -33.431  16.089  1.00  0.00    -0.393 OA
ATOM     34  H   UNL     1      16.879 -32.703  16.634  1.00  0.00     0.210 HD
ENDBRANCH  27  33
TORSDOF 2
ENDMDL
