MODEL 1
REMARK VINA RESULT:    -3.393      0.000      0.000
REMARK INTER + INTRA:          -4.097
REMARK INTER:                  -3.988
REMARK INTRA:                  -0.109
REMARK UNBOUND:                -0.109
REMARK SMILES CCCCC(=O)[O-]
REMARK SMILES IDX 4 1 5 2 6 3 7 4 3 5 2 6 1 7
REMARK H PARENT
REMARK Flexibility Score: inf
ROOT
ATOM      1  C   UNL     1       4.852 -11.074   7.238  1.00  0.00     0.053 C 
ENDROOT
BRANCH   1   2
ATOM      2  C   UNL     1       4.484  -9.989   6.272  1.00  0.00     0.041 C 
ATOM      3  O   UNL     1       3.776 -10.252   5.265  1.00  0.00    -0.550 OA
ATOM      4  O   UNL     1       4.893  -8.682   6.504  1.00  0.00    -0.550 OA
ENDBRANCH   1   2
BRANCH   1   5
ATOM      5  C   UNL     1       5.838 -12.076   6.623  1.00  0.00     0.006 C 
BRANCH   5   6
ATOM      6  C   UNL     1       5.219 -13.471   6.457  1.00  0.00    -0.003 C 
ATOM      7  C   UNL     1       4.789 -13.714   5.013  1.00  0.00     0.004 C 
ENDBRANCH   5   6
ENDBRANCH   1   5
TORSDOF 3
ENDMDL
MODEL 2
REMARK VINA RESULT:    -3.363      1.040      1.508
REMARK INTER + INTRA:          -4.062
REMARK INTER:                  -3.977
REMARK INTRA:                  -0.085
REMARK UNBOUND:                -0.109
REMARK SMILES CCCCC(=O)[O-]
REMARK SMILES IDX 4 1 5 2 6 3 7 4 3 5 2 6 1 7
REMARK H PARENT
REMARK Flexibility Score: inf
ROOT
ATOM      1  C   UNL     1       5.767 -12.122   6.718  1.00  0.00     0.053 C 
ENDROOT
BRANCH   1   2
ATOM      2  C   UNL     1       4.856 -10.940   6.852  1.00  0.00     0.041 C 
ATOM      3  O   UNL     1       3.623 -11.110   7.040  1.00  0.00    -0.550 OA
ATOM      4  O   UNL     1       5.375  -9.653   6.805  1.00  0.00    -0.550 OA
ENDBRANCH   1   2
BRANCH   1   5
ATOM      5  C   UNL     1       4.988 -13.415   6.441  1.00  0.00     0.006 C 
BRANCH   5   6
ATOM      6  C   UNL     1       4.883 -13.718   4.939  1.00  0.00    -0.003 C 
ATOM      7  C   UNL     1       3.477 -14.184   4.569  1.00  0.00     0.004 C 
ENDBRANCH   5   6
ENDBRANCH   1   5
TORSDOF 3
ENDMDL
MODEL 3
REMARK VINA RESULT:    -3.346      2.652      3.673
REMARK INTER + INTRA:          -4.042
REMARK INTER:                  -3.995
REMARK INTRA:                  -0.048
REMARK UNBOUND:                -0.109
REMARK SMILES CCCCC(=O)[O-]
REMARK SMILES IDX 4 1 5 2 6 3 7 4 3 5 2 6 1 7
REMARK H PARENT
REMARK Flexibility Score: inf
ROOT
ATOM      1  C   UNL     1       5.090 -13.407   6.154  1.00  0.00     0.053 C 
ENDROOT
BRANCH   1   2
ATOM      2  C   UNL     1       4.578 -13.814   4.806  1.00  0.00     0.041 C 
ATOM      3  O   UNL     1       3.562 -14.553   4.713  1.00  0.00    -0.550 OA
ATOM      4  O   UNL     1       5.200 -13.349   3.655  1.00  0.00    -0.550 OA
ENDBRANCH   1   2
BRANCH   1   5
ATOM      5  C   UNL     1       4.440 -12.106   6.643  1.00  0.00     0.006 C 
BRANCH   5   6
ATOM      6  C   UNL     1       5.474 -11.106   7.180  1.00  0.00    -0.003 C 
ATOM      7  C   UNL     1       6.779 -11.808   7.546  1.00  0.00     0.004 C 
ENDBRANCH   5   6
ENDBRANCH   1   5
TORSDOF 3
ENDMDL
MODEL 4
REMARK VINA RESULT:    -3.343      1.131      1.358
REMARK INTER + INTRA:          -4.039
REMARK INTER:                  -3.999
REMARK INTRA:                  -0.039
REMARK UNBOUND:                -0.109
REMARK SMILES CCCCC(=O)[O-]
REMARK SMILES IDX 4 1 5 2 6 3 7 4 3 5 2 6 1 7
REMARK H PARENT
REMARK Flexibility Score: inf
ROOT
ATOM      1  C   UNL     1       4.117 -10.937   6.936  1.00  0.00     0.053 C 
ENDROOT
BRANCH   1   2
ATOM      2  C   UNL     1       3.769  -9.487   6.795  1.00  0.00     0.041 C 
ATOM      3  O   UNL     1       2.635  -9.071   7.150  1.00  0.00    -0.550 OA
ATOM      4  O   UNL     1       4.710  -8.590   6.305  1.00  0.00    -0.550 OA
ENDBRANCH   1   2
BRANCH   1   5
ATOM      5  C   UNL     1       5.619 -11.144   7.172  1.00  0.00     0.006 C 
BRANCH   5   6
ATOM      6  C   UNL     1       6.049 -12.598   6.933  1.00  0.00    -0.003 C 
ATOM      7  C   UNL     1       4.890 -13.433   6.394  1.00  0.00     0.004 C 
ENDBRANCH   5   6
ENDBRANCH   1   5
TORSDOF 3
ENDMDL
MODEL 5
REMARK VINA RESULT:    -3.322      1.203      2.155
REMARK INTER + INTRA:          -4.014
REMARK INTER:                  -3.941
REMARK INTRA:                  -0.073
REMARK UNBOUND:                -0.109
REMARK SMILES CCCCC(=O)[O-]
REMARK SMILES IDX 4 1 5 2 6 3 7 4 3 5 2 6 1 7
REMARK H PARENT
REMARK Flexibility Score: inf
ROOT
ATOM      1  C   UNL     1       4.520 -10.099   6.878  1.00  0.00     0.053 C 
ENDROOT
BRANCH   1   2
ATOM      2  C   UNL     1       4.195  -9.354   5.619  1.00  0.00     0.041 C 
ATOM      3  O   UNL     1       4.507  -8.140   5.504  1.00  0.00    -0.550 OA
ATOM      4  O   UNL     1       3.578 -10.011   4.561  1.00  0.00    -0.550 OA
ENDBRANCH   1   2
BRANCH   1   5
ATOM      5  C   UNL     1       4.300 -11.609   6.721  1.00  0.00     0.006 C 
BRANCH   5   6
ATOM      6  C   UNL     1       5.621 -12.390   6.707  1.00  0.00    -0.003 C 
ATOM      7  C   UNL     1       6.689 -11.680   7.535  1.00  0.00     0.004 C 
ENDBRANCH   5   6
ENDBRANCH   1   5
TORSDOF 3
ENDMDL
MODEL 6
REMARK VINA RESULT:    -2.978      2.325      3.531
REMARK INTER + INTRA:          -3.609
REMARK INTER:                  -3.541
REMARK INTRA:                  -0.068
REMARK UNBOUND:                -0.109
REMARK SMILES CCCCC(=O)[O-]
REMARK SMILES IDX 4 1 5 2 6 3 7 4 3 5 2 6 1 7
REMARK H PARENT
REMARK Flexibility Score: inf
ROOT
ATOM      1  C   UNL     1       4.347 -11.343   6.892  1.00  0.00     0.053 C 
ENDROOT
BRANCH   1   2
ATOM      2  C   UNL     1       5.573 -12.204   6.844  1.00  0.00     0.041 C 
ATOM      3  O   UNL     1       5.478 -13.422   6.541  1.00  0.00    -0.550 OA
ATOM      4  O   UNL     1       6.822 -11.652   7.101  1.00  0.00    -0.550 OA
ENDBRANCH   1   2
BRANCH   1   5
ATOM      5  C   UNL     1       3.850 -10.980   5.487  1.00  0.00     0.006 C 
BRANCH   5   6
ATOM      6  C   UNL     1       3.716  -9.463   5.293  1.00  0.00    -0.003 C 
ATOM      7  C   UNL     1       4.578  -8.702   6.296  1.00  0.00     0.004 C 
ENDBRANCH   5   6
ENDBRANCH   1   5
TORSDOF 3
ENDMDL
MODEL 7
REMARK VINA RESULT:    -2.885     15.185     15.862
REMARK INTER + INTRA:          -3.500
REMARK INTER:                  -3.462
REMARK INTRA:                  -0.038
REMARK UNBOUND:                -0.109
REMARK SMILES CCCCC(=O)[O-]
REMARK SMILES IDX 4 1 5 2 6 3 7 4 3 5 2 6 1 7
REMARK H PARENT
REMARK Flexibility Score: inf
ROOT
ATOM      1  C   UNL     1      14.188  -3.298  16.231  1.00  0.00     0.053 C 
ENDROOT
BRANCH   1   2
ATOM      2  C   UNL     1      14.351  -1.864  15.832  1.00  0.00     0.041 C 
ATOM      3  O   UNL     1      13.345  -1.111  15.754  1.00  0.00    -0.550 OA
ATOM      4  O   UNL     1      15.617  -1.351  15.581  1.00  0.00    -0.550 OA
ENDBRANCH   1   2
BRANCH   1   5
ATOM      5  C   UNL     1      12.712  -3.719  16.259  1.00  0.00     0.006 C 
BRANCH   5   6
ATOM      6  C   UNL     1      12.495  -5.022  17.041  1.00  0.00    -0.003 C 
ATOM      7  C   UNL     1      13.816  -5.748  17.279  1.00  0.00     0.004 C 
ENDBRANCH   5   6
ENDBRANCH   1   5
TORSDOF 3
ENDMDL
MODEL 8
REMARK VINA RESULT:    -2.865      2.320      3.445
REMARK INTER + INTRA:          -3.477
REMARK INTER:                  -3.425
REMARK INTRA:                  -0.052
REMARK UNBOUND:                -0.109
REMARK SMILES CCCCC(=O)[O-]
REMARK SMILES IDX 4 1 5 2 6 3 7 4 3 5 2 6 1 7
REMARK H PARENT
REMARK Flexibility Score: inf
ROOT
ATOM      1  C   UNL     1       3.696 -12.808   4.562  1.00  0.00     0.053 C 
ENDROOT
BRANCH   1   2
ATOM      2  C   UNL     1       4.019 -12.325   3.181  1.00  0.00     0.041 C 
ATOM      3  O   UNL     1       3.539 -11.239   2.763  1.00  0.00    -0.550 OA
ATOM      4  O   UNL     1       4.877 -13.057   2.371  1.00  0.00    -0.550 OA
ENDBRANCH   1   2
BRANCH   1   5
ATOM      5  C   UNL     1       4.741 -13.806   5.078  1.00  0.00     0.006 C 
BRANCH   5   6
ATOM      6  C   UNL     1       5.127 -13.540   6.539  1.00  0.00    -0.003 C 
ATOM      7  C   UNL     1       5.620 -12.108   6.726  1.00  0.00     0.004 C 
ENDBRANCH   5   6
ENDBRANCH   1   5
TORSDOF 3
ENDMDL
MODEL 9
REMARK VINA RESULT:    -2.769      5.703      6.480
REMARK INTER + INTRA:          -3.365
REMARK INTER:                  -3.278
REMARK INTRA:                  -0.087
REMARK UNBOUND:                -0.109
REMARK SMILES CCCCC(=O)[O-]
REMARK SMILES IDX 4 1 5 2 6 3 7 4 3 5 2 6 1 7
REMARK H PARENT
REMARK Flexibility Score: inf
ROOT
ATOM      1  C   UNL     1       6.844 -12.871   0.033  1.00  0.00     0.053 C 
ENDROOT
BRANCH   1   2
ATOM      2  C   UNL     1       5.648 -12.674   0.914  1.00  0.00     0.041 C 
ATOM      3  O   UNL     1       4.709 -11.920   0.547  1.00  0.00    -0.550 OA
ATOM      4  O   UNL     1       5.555 -13.351   2.124  1.00  0.00    -0.550 OA
ENDBRANCH   1   2
BRANCH   1   5
ATOM      5  C   UNL     1       8.141 -12.971   0.846  1.00  0.00     0.006 C 
BRANCH   5   6
ATOM      6  C   UNL     1       8.969 -14.208   0.468  1.00  0.00    -0.003 C 
ATOM      7  C   UNL     1       8.094 -15.280  -0.176  1.00  0.00     0.004 C 
ENDBRANCH   5   6
ENDBRANCH   1   5
TORSDOF 3
ENDMDL
