MODEL 1
REMARK VINA RESULT:    -3.792      0.000      0.000
REMARK INTER + INTRA:          -8.008
REMARK INTER:                  -6.673
REMARK INTRA:                  -1.335
REMARK UNBOUND:                -1.335
REMARK SMILES CCCCCCC=CCCCCCCCC(=O)[O-]
REMARK SMILES IDX 10 1 11 2 12 3 13 4 14 5 15 6 16 7 17 8 18 9 9 10 8 11 7 12
REMARK SMILES IDX 6 13 5 14 4 15 3 16 2 17 1 18
REMARK H PARENT
REMARK Flexibility Score: inf
ROOT
ATOM      1  C   UNL     1      11.566  -0.908 -17.655  1.00  0.00     0.004 C 
ENDROOT
BRANCH   1   2
ATOM      2  C   UNL     1      11.849   0.118 -16.549  1.00  0.00     0.000 C 
BRANCH   2   3
ATOM      3  C   UNL     1      12.968   1.081 -16.962  1.00  0.00     0.000 C 
BRANCH   3   4
ATOM      4  C   UNL     1      12.959   1.312 -18.481  1.00  0.00     0.000 C 
BRANCH   4   5
ATOM      5  C   UNL     1      12.932   2.804 -18.856  1.00  0.00     0.006 C 
BRANCH   5   6
ATOM      6  C   UNL     1      13.306   3.096 -20.318  1.00  0.00     0.053 C 
BRANCH   6   7
ATOM      7  C   UNL     1      13.610   4.547 -20.541  1.00  0.00     0.041 C 
ATOM      8  O   UNL     1      14.802   4.936 -20.650  1.00  0.00    -0.550 OA
ATOM      9  O   UNL     1      12.576   5.472 -20.593  1.00  0.00    -0.550 OA
ENDBRANCH   6   7
ENDBRANCH   5   6
ENDBRANCH   4   5
ENDBRANCH   3   4
ENDBRANCH   2   3
ENDBRANCH   1   2
BRANCH   1  10
ATOM     10  C   UNL     1      10.272  -0.598 -18.415  1.00  0.00     0.027 C 
BRANCH  10  11
ATOM     11  C   UNL     1       9.869  -1.748 -19.309  1.00  0.00    -0.031 C 
ATOM     12  C   UNL     1      10.233  -1.892 -20.597  1.00  0.00    -0.031 C 
BRANCH  12  13
ATOM     13  C   UNL     1      11.150  -0.957 -21.342  1.00  0.00     0.027 C 
BRANCH  13  14
ATOM     14  C   UNL     1      11.987  -1.716 -22.380  1.00  0.00     0.004 C 
BRANCH  14  15
ATOM     15  C   UNL     1      13.442  -1.858 -21.913  1.00  0.00     0.000 C 
BRANCH  15  16
ATOM     16  C   UNL     1      13.756  -1.020 -20.661  1.00  0.00    -0.000 C 
BRANCH  16  17
ATOM     17  C   UNL     1      14.678  -1.707 -19.637  1.00  0.00    -0.003 C 
ATOM     18  C   UNL     1      16.147  -1.705 -20.059  1.00  0.00     0.004 C 
ENDBRANCH  16  17
ENDBRANCH  15  16
ENDBRANCH  14  15
ENDBRANCH  13  14
ENDBRANCH  12  13
ENDBRANCH  10  11
ENDBRANCH   1  10
TORSDOF 13
ENDMDL
MODEL 2
REMARK VINA RESULT:    -3.604      1.223      2.904
REMARK INTER + INTRA:          -7.678
REMARK INTER:                  -6.264
REMARK INTRA:                  -1.414
REMARK UNBOUND:                -1.335
REMARK SMILES CCCCCCC=CCCCCCCCC(=O)[O-]
REMARK SMILES IDX 10 1 11 2 12 3 13 4 14 5 15 6 16 7 17 8 18 9 9 10 8 11 7 12
REMARK SMILES IDX 6 13 5 14 4 15 3 16 2 17 1 18
REMARK H PARENT
REMARK Flexibility Score: inf
ROOT
ATOM      1  C   UNL     1      11.263  -0.141 -17.691  1.00  0.00     0.004 C 
ENDROOT
BRANCH   1   2
ATOM      2  C   UNL     1      12.400   0.233 -16.729  1.00  0.00     0.000 C 
BRANCH   2   3
ATOM      3  C   UNL     1      13.009   1.590 -17.097  1.00  0.00     0.000 C 
BRANCH   3   4
ATOM      4  C   UNL     1      12.490   2.074 -18.459  1.00  0.00     0.000 C 
BRANCH   4   5
ATOM      5  C   UNL     1      13.605   2.646 -19.354  1.00  0.00     0.006 C 
BRANCH   5   6
ATOM      6  C   UNL     1      13.099   3.386 -20.602  1.00  0.00     0.053 C 
BRANCH   6   7
ATOM      7  C   UNL     1      13.491   4.832 -20.594  1.00  0.00     0.041 C 
ATOM      8  O   UNL     1      14.707   5.160 -20.601  1.00  0.00    -0.550 OA
ATOM      9  O   UNL     1      12.513   5.817 -20.544  1.00  0.00    -0.550 OA
ENDBRANCH   6   7
ENDBRANCH   5   6
ENDBRANCH   4   5
ENDBRANCH   3   4
ENDBRANCH   2   3
ENDBRANCH   1   2
BRANCH   1  10
ATOM     10  C   UNL     1      11.605  -1.372 -18.539  1.00  0.00     0.027 C 
BRANCH  10  11
ATOM     11  C   UNL     1      13.071  -1.724 -18.433  1.00  0.00    -0.031 C 
ATOM     12  C   UNL     1      14.002  -1.451 -19.365  1.00  0.00    -0.031 C 
BRANCH  12  13
ATOM     13  C   UNL     1      13.745  -0.698 -20.645  1.00  0.00     0.027 C 
BRANCH  13  14
ATOM     14  C   UNL     1      13.122  -1.610 -21.707  1.00  0.00     0.004 C 
BRANCH  14  15
ATOM     15  C   UNL     1      11.710  -1.136 -22.078  1.00  0.00     0.000 C 
BRANCH  15  16
ATOM     16  C   UNL     1      10.955  -2.137 -22.972  1.00  0.00    -0.000 C 
BRANCH  16  17
ATOM     17  C   UNL     1       9.910  -2.998 -22.239  1.00  0.00    -0.003 C 
ATOM     18  C   UNL     1       9.383  -4.152 -23.091  1.00  0.00     0.004 C 
ENDBRANCH  16  17
ENDBRANCH  15  16
ENDBRANCH  14  15
ENDBRANCH  13  14
ENDBRANCH  12  13
ENDBRANCH  10  11
ENDBRANCH   1  10
TORSDOF 13
ENDMDL
MODEL 3
REMARK VINA RESULT:    -3.593      3.100      5.825
REMARK INTER + INTRA:          -7.659
REMARK INTER:                  -6.945
REMARK INTRA:                  -0.714
REMARK UNBOUND:                -1.335
REMARK SMILES CCCCCCC=CCCCCCCCC(=O)[O-]
REMARK SMILES IDX 10 1 11 2 12 3 13 4 14 5 15 6 16 7 17 8 18 9 9 10 8 11 7 12
REMARK SMILES IDX 6 13 5 14 4 15 3 16 2 17 1 18
REMARK H PARENT
REMARK Flexibility Score: inf
ROOT
ATOM      1  C   UNL     1      12.585   0.813 -17.217  1.00  0.00     0.004 C 
ENDROOT
BRANCH   1   2
ATOM      2  C   UNL     1      11.604   0.021 -18.093  1.00  0.00     0.000 C 
BRANCH   2   3
ATOM      3  C   UNL     1      12.144  -1.381 -18.396  1.00  0.00     0.000 C 
BRANCH   3   4
ATOM      4  C   UNL     1      13.652  -1.338 -18.683  1.00  0.00     0.000 C 
BRANCH   4   5
ATOM      5  C   UNL     1      13.985  -1.604 -20.162  1.00  0.00     0.006 C 
BRANCH   5   6
ATOM      6  C   UNL     1      13.291  -0.652 -21.149  1.00  0.00     0.053 C 
BRANCH   6   7
ATOM      7  C   UNL     1      12.261  -1.356 -21.978  1.00  0.00     0.041 C 
ATOM      8  O   UNL     1      12.589  -1.915 -23.058  1.00  0.00    -0.550 OA
ATOM      9  O   UNL     1      10.932  -1.365 -21.574  1.00  0.00    -0.550 OA
ENDBRANCH   6   7
ENDBRANCH   5   6
ENDBRANCH   4   5
ENDBRANCH   3   4
ENDBRANCH   2   3
ENDBRANCH   1   2
BRANCH   1  10
ATOM     10  C   UNL     1      13.164   2.029 -17.951  1.00  0.00     0.027 C 
BRANCH  10  11
ATOM     11  C   UNL     1      12.862   1.974 -19.431  1.00  0.00    -0.031 C 
ATOM     12  C   UNL     1      13.053   2.985 -20.298  1.00  0.00    -0.031 C 
BRANCH  12  13
ATOM     13  C   UNL     1      13.655   4.321 -19.945  1.00  0.00     0.027 C 
BRANCH  13  14
ATOM     14  C   UNL     1      14.364   4.944 -21.153  1.00  0.00     0.004 C 
BRANCH  14  15
ATOM     15  C   UNL     1      15.553   5.805 -20.707  1.00  0.00     0.000 C 
BRANCH  15  16
ATOM     16  C   UNL     1      16.733   5.758 -21.696  1.00  0.00    -0.000 C 
BRANCH  16  17
ATOM     17  C   UNL     1      16.332   5.785 -23.182  1.00  0.00    -0.003 C 
ATOM     18  C   UNL     1      16.758   4.528 -23.939  1.00  0.00     0.004 C 
ENDBRANCH  16  17
ENDBRANCH  15  16
ENDBRANCH  14  15
ENDBRANCH  13  14
ENDBRANCH  12  13
ENDBRANCH  10  11
ENDBRANCH   1  10
TORSDOF 13
ENDMDL
MODEL 4
REMARK VINA RESULT:    -3.563      2.575      5.232
REMARK INTER + INTRA:          -7.606
REMARK INTER:                  -6.596
REMARK INTRA:                  -1.010
REMARK UNBOUND:                -1.335
REMARK SMILES CCCCCCC=CCCCCCCCC(=O)[O-]
REMARK SMILES IDX 10 1 11 2 12 3 13 4 14 5 15 6 16 7 17 8 18 9 9 10 8 11 7 12
REMARK SMILES IDX 6 13 5 14 4 15 3 16 2 17 1 18
REMARK H PARENT
REMARK Flexibility Score: inf
ROOT
ATOM      1  C   UNL     1       9.596  -2.058 -19.778  1.00  0.00     0.004 C 
ENDROOT
BRANCH   1   2
ATOM      2  C   UNL     1      10.012  -2.266 -21.241  1.00  0.00     0.000 C 
BRANCH   2   3
ATOM      3  C   UNL     1      11.069  -1.240 -21.664  1.00  0.00     0.000 C 
BRANCH   3   4
ATOM      4  C   UNL     1      12.078  -1.862 -22.642  1.00  0.00     0.000 C 
BRANCH   4   5
ATOM      5  C   UNL     1      13.462  -2.089 -22.007  1.00  0.00     0.006 C 
BRANCH   5   6
ATOM      6  C   UNL     1      13.828  -1.078 -20.909  1.00  0.00     0.053 C 
BRANCH   6   7
ATOM      7  C   UNL     1      14.714  -1.682 -19.863  1.00  0.00     0.041 C 
ATOM      8  O   UNL     1      14.227  -2.081 -18.772  1.00  0.00    -0.550 OA
ATOM      9  O   UNL     1      16.082  -1.773 -20.080  1.00  0.00    -0.550 OA
ENDBRANCH   6   7
ENDBRANCH   5   6
ENDBRANCH   4   5
ENDBRANCH   3   4
ENDBRANCH   2   3
ENDBRANCH   1   2
BRANCH   1  10
ATOM     10  C   UNL     1      10.740  -1.499 -18.924  1.00  0.00     0.027 C 
BRANCH  10  11
ATOM     11  C   UNL     1      10.259  -0.392 -18.014  1.00  0.00    -0.031 C 
ATOM     12  C   UNL     1      11.005   0.217 -17.074  1.00  0.00    -0.031 C 
BRANCH  12  13
ATOM     13  C   UNL     1      12.462  -0.067 -16.814  1.00  0.00     0.027 C 
BRANCH  13  14
ATOM     14  C   UNL     1      13.318   1.183 -17.046  1.00  0.00     0.004 C 
BRANCH  14  15
ATOM     15  C   UNL     1      12.722   2.057 -18.158  1.00  0.00     0.000 C 
BRANCH  15  16
ATOM     16  C   UNL     1      12.901   1.449 -19.561  1.00  0.00    -0.000 C 
BRANCH  16  17
ATOM     17  C   UNL     1      13.296   2.455 -20.657  1.00  0.00    -0.003 C 
ATOM     18  C   UNL     1      13.290   3.903 -20.169  1.00  0.00     0.004 C 
ENDBRANCH  16  17
ENDBRANCH  15  16
ENDBRANCH  14  15
ENDBRANCH  13  14
ENDBRANCH  12  13
ENDBRANCH  10  11
ENDBRANCH   1  10
TORSDOF 13
ENDMDL
MODEL 5
REMARK VINA RESULT:    -3.563      1.239      1.988
REMARK INTER + INTRA:          -7.605
REMARK INTER:                  -6.223
REMARK INTRA:                  -1.382
REMARK UNBOUND:                -1.335
REMARK SMILES CCCCCCC=CCCCCCCCC(=O)[O-]
REMARK SMILES IDX 10 1 11 2 12 3 13 4 14 5 15 6 16 7 17 8 18 9 9 10 8 11 7 12
REMARK SMILES IDX 6 13 5 14 4 15 3 16 2 17 1 18
REMARK H PARENT
REMARK Flexibility Score: inf
ROOT
ATOM      1  C   UNL     1      10.584  -1.786 -18.411  1.00  0.00     0.004 C 
ENDROOT
BRANCH   1   2
ATOM      2  C   UNL     1      11.811  -1.239 -17.669  1.00  0.00     0.000 C 
BRANCH   2   3
ATOM      3  C   UNL     1      11.496   0.099 -16.993  1.00  0.00     0.000 C 
BRANCH   3   4
ATOM      4  C   UNL     1      12.787   0.821 -16.575  1.00  0.00     0.000 C 
BRANCH   4   5
ATOM      5  C   UNL     1      13.401   1.653 -17.714  1.00  0.00     0.006 C 
BRANCH   5   6
ATOM      6  C   UNL     1      12.491   1.813 -18.943  1.00  0.00     0.053 C 
BRANCH   6   7
ATOM      7  C   UNL     1      13.184   2.524 -20.065  1.00  0.00     0.041 C 
ATOM      8  O   UNL     1      13.546   1.889 -21.091  1.00  0.00    -0.550 OA
ATOM      9  O   UNL     1      13.461   3.881 -19.962  1.00  0.00    -0.550 OA
ENDBRANCH   6   7
ENDBRANCH   5   6
ENDBRANCH   4   5
ENDBRANCH   3   4
ENDBRANCH   2   3
ENDBRANCH   1   2
BRANCH   1  10
ATOM     10  C   UNL     1      10.248  -0.961 -19.659  1.00  0.00     0.027 C 
BRANCH  10  11
ATOM     11  C   UNL     1      10.276  -1.814 -20.907  1.00  0.00    -0.031 C 
ATOM     12  C   UNL     1      11.248  -1.792 -21.838  1.00  0.00    -0.031 C 
BRANCH  12  13
ATOM     13  C   UNL     1      12.498  -0.953 -21.759  1.00  0.00     0.027 C 
BRANCH  13  14
ATOM     14  C   UNL     1      13.705  -1.799 -21.337  1.00  0.00     0.004 C 
BRANCH  14  15
ATOM     15  C   UNL     1      14.229  -1.361 -19.962  1.00  0.00     0.000 C 
BRANCH  15  16
ATOM     16  C   UNL     1      15.654  -1.868 -19.673  1.00  0.00    -0.000 C 
BRANCH  16  17
ATOM     17  C   UNL     1      16.712  -1.449 -20.710  1.00  0.00    -0.003 C 
ATOM     18  C   UNL     1      18.133  -1.448 -20.148  1.00  0.00     0.004 C 
ENDBRANCH  16  17
ENDBRANCH  15  16
ENDBRANCH  14  15
ENDBRANCH  13  14
ENDBRANCH  12  13
ENDBRANCH  10  11
ENDBRANCH   1  10
TORSDOF 13
ENDMDL
MODEL 6
REMARK VINA RESULT:    -3.520      2.271      4.470
REMARK INTER + INTRA:          -7.530
REMARK INTER:                  -6.432
REMARK INTRA:                  -1.098
REMARK UNBOUND:                -1.335
REMARK SMILES CCCCCCC=CCCCCCCCC(=O)[O-]
REMARK SMILES IDX 10 1 11 2 12 3 13 4 14 5 15 6 16 7 17 8 18 9 9 10 8 11 7 12
REMARK SMILES IDX 6 13 5 14 4 15 3 16 2 17 1 18
REMARK H PARENT
REMARK Flexibility Score: inf
ROOT
ATOM      1  C   UNL     1      12.911   2.302 -19.800  1.00  0.00     0.004 C 
ENDROOT
BRANCH   1   2
ATOM      2  C   UNL     1      13.070   3.816 -19.996  1.00  0.00     0.000 C 
BRANCH   2   3
ATOM      3  C   UNL     1      14.290   4.134 -20.866  1.00  0.00     0.000 C 
BRANCH   3   4
ATOM      4  C   UNL     1      14.720   5.599 -20.695  1.00  0.00     0.000 C 
BRANCH   4   5
ATOM      5  C   UNL     1      16.129   5.876 -21.248  1.00  0.00     0.006 C 
BRANCH   5   6
ATOM      6  C   UNL     1      16.195   6.001 -22.779  1.00  0.00     0.053 C 
BRANCH   6   7
ATOM      7  C   UNL     1      17.178   5.042 -23.378  1.00  0.00     0.041 C 
ATOM      8  O   UNL     1      16.806   4.215 -24.252  1.00  0.00    -0.550 OA
ATOM      9  O   UNL     1      18.498   5.040 -22.946  1.00  0.00    -0.550 OA
ENDBRANCH   6   7
ENDBRANCH   5   6
ENDBRANCH   4   5
ENDBRANCH   3   4
ENDBRANCH   2   3
ENDBRANCH   1   2
BRANCH   1  10
ATOM     10  C   UNL     1      13.284   1.513 -21.060  1.00  0.00     0.027 C 
BRANCH  10  11
ATOM     11  C   UNL     1      13.747   0.115 -20.718  1.00  0.00    -0.031 C 
ATOM     12  C   UNL     1      12.985  -0.992 -20.788  1.00  0.00    -0.031 C 
BRANCH  12  13
ATOM     13  C   UNL     1      11.560  -1.027 -21.276  1.00  0.00     0.027 C 
BRANCH  13  14
ATOM     14  C   UNL     1      10.597  -1.404 -20.144  1.00  0.00     0.004 C 
BRANCH  14  15
ATOM     15  C   UNL     1      11.308  -1.366 -18.784  1.00  0.00     0.000 C 
BRANCH  15  16
ATOM     16  C   UNL     1      10.808  -0.228 -17.876  1.00  0.00    -0.000 C 
BRANCH  16  17
ATOM     17  C   UNL     1      11.671   0.030 -16.628  1.00  0.00    -0.003 C 
ATOM     18  C   UNL     1      12.955   0.799 -16.938  1.00  0.00     0.004 C 
ENDBRANCH  16  17
ENDBRANCH  15  16
ENDBRANCH  14  15
ENDBRANCH  13  14
ENDBRANCH  12  13
ENDBRANCH  10  11
ENDBRANCH   1  10
TORSDOF 13
ENDMDL
MODEL 7
REMARK VINA RESULT:    -3.513      2.514      4.850
REMARK INTER + INTRA:          -7.518
REMARK INTER:                  -6.577
REMARK INTRA:                  -0.941
REMARK UNBOUND:                -1.335
REMARK SMILES CCCCCCC=CCCCCCCCC(=O)[O-]
REMARK SMILES IDX 10 1 11 2 12 3 13 4 14 5 15 6 16 7 17 8 18 9 9 10 8 11 7 12
REMARK SMILES IDX 6 13 5 14 4 15 3 16 2 17 1 18
REMARK H PARENT
REMARK Flexibility Score: inf
ROOT
ATOM      1  C   UNL     1      13.762   3.591 -20.247  1.00  0.00     0.004 C 
ENDROOT
BRANCH   1   2
ATOM      2  C   UNL     1      13.143   4.983 -20.439  1.00  0.00     0.000 C 
BRANCH   2   3
ATOM      3  C   UNL     1      14.134   5.939 -21.111  1.00  0.00     0.000 C 
BRANCH   3   4
ATOM      4  C   UNL     1      15.504   5.887 -20.418  1.00  0.00     0.000 C 
BRANCH   4   5
ATOM      5  C   UNL     1      16.676   5.838 -21.414  1.00  0.00     0.006 C 
BRANCH   5   6
ATOM      6  C   UNL     1      16.258   5.585 -22.871  1.00  0.00     0.053 C 
BRANCH   6   7
ATOM      7  C   UNL     1      17.425   5.211 -23.733  1.00  0.00     0.041 C 
ATOM      8  O   UNL     1      17.274   5.053 -24.973  1.00  0.00    -0.550 OA
ATOM      9  O   UNL     1      18.673   5.003 -23.160  1.00  0.00    -0.550 OA
ENDBRANCH   6   7
ENDBRANCH   5   6
ENDBRANCH   4   5
ENDBRANCH   3   4
ENDBRANCH   2   3
ENDBRANCH   1   2
BRANCH   1  10
ATOM     10  C   UNL     1      12.752   2.582 -19.687  1.00  0.00     0.027 C 
BRANCH  10  11
ATOM     11  C   UNL     1      13.196   2.047 -18.344  1.00  0.00    -0.031 C 
ATOM     12  C   UNL     1      12.619   1.022 -17.691  1.00  0.00    -0.031 C 
BRANCH  12  13
ATOM     13  C   UNL     1      11.471   0.200 -18.218  1.00  0.00     0.027 C 
BRANCH  13  14
ATOM     14  C   UNL     1      11.935  -1.207 -18.613  1.00  0.00     0.004 C 
BRANCH  14  15
ATOM     15  C   UNL     1      13.374  -1.181 -19.147  1.00  0.00     0.000 C 
BRANCH  15  16
ATOM     16  C   UNL     1      13.451  -0.839 -20.646  1.00  0.00    -0.000 C 
BRANCH  16  17
ATOM     17  C   UNL     1      12.135  -1.032 -21.422  1.00  0.00    -0.003 C 
ATOM     18  C   UNL     1      12.304  -1.872 -22.687  1.00  0.00     0.004 C 
ENDBRANCH  16  17
ENDBRANCH  15  16
ENDBRANCH  14  15
ENDBRANCH  13  14
ENDBRANCH  12  13
ENDBRANCH  10  11
ENDBRANCH   1  10
TORSDOF 13
ENDMDL
MODEL 8
REMARK VINA RESULT:    -3.449      3.108      5.105
REMARK INTER + INTRA:          -7.405
REMARK INTER:                  -5.794
REMARK INTRA:                  -1.611
REMARK UNBOUND:                -1.335
REMARK SMILES CCCCCCC=CCCCCCCCC(=O)[O-]
REMARK SMILES IDX 10 1 11 2 12 3 13 4 14 5 15 6 16 7 17 8 18 9 9 10 8 11 7 12
REMARK SMILES IDX 6 13 5 14 4 15 3 16 2 17 1 18
REMARK H PARENT
REMARK Flexibility Score: inf
ROOT
ATOM      1  C   UNL     1      10.913  -0.232 -16.395  1.00  0.00     0.004 C 
ENDROOT
BRANCH   1   2
ATOM      2  C   UNL     1      10.020  -0.317 -17.641  1.00  0.00     0.000 C 
BRANCH   2   3
ATOM      3  C   UNL     1      10.677  -1.167 -18.733  1.00  0.00     0.000 C 
BRANCH   3   4
ATOM      4  C   UNL     1       9.835  -2.415 -19.040  1.00  0.00     0.000 C 
BRANCH   4   5
ATOM      5  C   UNL     1       9.488  -2.547 -20.534  1.00  0.00     0.006 C 
BRANCH   5   6
ATOM      6  C   UNL     1      10.358  -1.688 -21.465  1.00  0.00     0.053 C 
BRANCH   6   7
ATOM      7  C   UNL     1      10.769  -2.436 -22.696  1.00  0.00     0.041 C 
ATOM      8  O   UNL     1      11.844  -2.147 -23.285  1.00  0.00    -0.550 OA
ATOM      9  O   UNL     1       9.947  -3.429 -23.212  1.00  0.00    -0.550 OA
ENDBRANCH   6   7
ENDBRANCH   5   6
ENDBRANCH   4   5
ENDBRANCH   3   4
ENDBRANCH   2   3
ENDBRANCH   1   2
BRANCH   1  10
ATOM     10  C   UNL     1      12.395  -0.441 -16.730  1.00  0.00     0.027 C 
BRANCH  10  11
ATOM     11  C   UNL     1      13.180   0.842 -16.580  1.00  0.00    -0.031 C 
ATOM     12  C   UNL     1      13.219   1.836 -17.487  1.00  0.00    -0.031 C 
BRANCH  12  13
ATOM     13  C   UNL     1      12.440   1.856 -18.777  1.00  0.00     0.027 C 
BRANCH  13  14
ATOM     14  C   UNL     1      13.237   2.544 -19.892  1.00  0.00     0.004 C 
BRANCH  14  15
ATOM     15  C   UNL     1      13.526   1.568 -21.042  1.00  0.00     0.000 C 
BRANCH  15  16
ATOM     16  C   UNL     1      12.933   0.167 -20.804  1.00  0.00    -0.000 C 
BRANCH  16  17
ATOM     17  C   UNL     1      13.957  -0.982 -20.843  1.00  0.00    -0.003 C 
ATOM     18  C   UNL     1      14.306  -1.519 -19.456  1.00  0.00     0.004 C 
ENDBRANCH  16  17
ENDBRANCH  15  16
ENDBRANCH  14  15
ENDBRANCH  13  14
ENDBRANCH  12  13
ENDBRANCH  10  11
ENDBRANCH   1  10
TORSDOF 13
ENDMDL
MODEL 9
REMARK VINA RESULT:    -3.380      1.556      2.956
REMARK INTER + INTRA:          -7.284
REMARK INTER:                  -6.131
REMARK INTRA:                  -1.153
REMARK UNBOUND:                -1.335
REMARK SMILES CCCCCCC=CCCCCCCCC(=O)[O-]
REMARK SMILES IDX 10 1 11 2 12 3 13 4 14 5 15 6 16 7 17 8 18 9 9 10 8 11 7 12
REMARK SMILES IDX 6 13 5 14 4 15 3 16 2 17 1 18
REMARK H PARENT
REMARK Flexibility Score: inf
ROOT
ATOM      1  C   UNL     1      13.161   1.638 -17.714  1.00  0.00     0.004 C 
ENDROOT
BRANCH   1   2
ATOM      2  C   UNL     1      13.105   1.842 -19.235  1.00  0.00     0.000 C 
BRANCH   2   3
ATOM      3  C   UNL     1      12.919   3.322 -19.586  1.00  0.00     0.000 C 
BRANCH   3   4
ATOM      4  C   UNL     1      13.988   3.787 -20.587  1.00  0.00     0.000 C 
BRANCH   4   5
ATOM      5  C   UNL     1      14.171   5.315 -20.597  1.00  0.00     0.006 C 
BRANCH   5   6
ATOM      6  C   UNL     1      15.635   5.778 -20.555  1.00  0.00     0.053 C 
BRANCH   6   7
ATOM      7  C   UNL     1      16.263   5.778 -21.916  1.00  0.00     0.041 C 
ATOM      8  O   UNL     1      15.593   6.125 -22.924  1.00  0.00    -0.550 OA
ATOM      9  O   UNL     1      17.579   5.362 -22.074  1.00  0.00    -0.550 OA
ENDBRANCH   6   7
ENDBRANCH   5   6
ENDBRANCH   4   5
ENDBRANCH   3   4
ENDBRANCH   2   3
ENDBRANCH   1   2
BRANCH   1  10
ATOM     10  C   UNL     1      12.427   0.366 -17.273  1.00  0.00     0.027 C 
BRANCH  10  11
ATOM     11  C   UNL     1      10.952   0.442 -17.593  1.00  0.00    -0.031 C 
ATOM     12  C   UNL     1      10.301  -0.372 -18.444  1.00  0.00    -0.031 C 
BRANCH  12  13
ATOM     13  C   UNL     1      10.927  -1.532 -19.175  1.00  0.00     0.027 C 
BRANCH  13  14
ATOM     14  C   UNL     1      10.386  -1.638 -20.606  1.00  0.00     0.004 C 
BRANCH  14  15
ATOM     15  C   UNL     1      11.492  -1.359 -21.633  1.00  0.00     0.000 C 
BRANCH  15  16
ATOM     16  C   UNL     1      12.690  -0.601 -21.033  1.00  0.00    -0.000 C 
BRANCH  16  17
ATOM     17  C   UNL     1      14.006  -1.400 -20.993  1.00  0.00    -0.003 C 
ATOM     18  C   UNL     1      14.481  -1.697 -19.571  1.00  0.00     0.004 C 
ENDBRANCH  16  17
ENDBRANCH  15  16
ENDBRANCH  14  15
ENDBRANCH  13  14
ENDBRANCH  12  13
ENDBRANCH  10  11
ENDBRANCH   1  10
TORSDOF 13
ENDMDL
