MODEL 1
REMARK VINA RESULT:    -6.698      0.000      0.000
REMARK INTER + INTRA:         -10.538
REMARK INTER:                  -9.634
REMARK INTRA:                  -0.904
REMARK UNBOUND:                -0.904
REMARK SMILES O=c1c(O[C@H]2O[C@@H](CO)[C@H](O)[C@@H](O)[C@@H]2O)c(-c2ccc(O)cc2)oc2cc(O)cc(O)c12
REMARK SMILES IDX 4 1 3 2 16 3 24 4 2 5 25 6 1 7 32 8 26 9 30 10 27 11 29 12
REMARK SMILES IDX 17 13 18 14 19 15 20 16 23 17 22 18 21 19 31 21 28 23 5 25
REMARK SMILES IDX 14 26 6 27 12 28 7 29 10 30 15 31 13 33 8 35 9 36 11 38
REMARK H PARENT 21 20 31 22 28 24 15 32 13 34 9 37 11 39
REMARK Flexibility Score: inf
ROOT
ATOM      1  O   UNL     1     -37.919   5.467  81.802  1.00  0.00    -0.454 OA
ENDROOT
BRANCH   1   2
ATOM      2  C   UNL     1     -38.696   4.854  80.795  1.00  0.00     0.214 A 
ATOM      3  C   UNL     1     -38.130   4.717  79.513  1.00  0.00     0.180 A 
ATOM      4  O   UNL     1     -38.851   4.243  78.503  1.00  0.00    -0.452 OA
ATOM      5  C   UNL     1     -40.021   4.398  80.989  1.00  0.00     0.239 A 
ATOM      6  C   UNL     1     -40.107   3.839  78.635  1.00  0.00     0.146 A 
ATOM      7  O   UNL     1     -40.549   4.441  82.131  1.00  0.00    -0.285 OA
ATOM      8  C   UNL     1     -40.750   3.886  79.893  1.00  0.00     0.111 A 
ATOM      9  C   UNL     1     -40.786   3.358  77.513  1.00  0.00     0.094 A 
ATOM     10  C   UNL     1     -42.087   3.427  79.999  1.00  0.00     0.134 A 
ATOM     11  C   UNL     1     -42.107   2.909  77.623  1.00  0.00     0.123 A 
ATOM     12  C   UNL     1     -42.750   2.943  78.862  1.00  0.00     0.093 A 
BRANCH   3  13
ATOM     13  C   UNL     1     -36.732   5.104  79.243  1.00  0.00     0.021 A 
ATOM     14  C   UNL     1     -36.428   6.014  78.217  1.00  0.00     0.016 A 
ATOM     15  C   UNL     1     -35.103   6.391  77.980  1.00  0.00     0.047 A 
ATOM     16  C   UNL     1     -34.071   5.873  78.776  1.00  0.00     0.115 A 
ATOM     17  C   UNL     1     -35.699   4.607  80.052  1.00  0.00     0.016 A 
ATOM     18  C   UNL     1     -34.373   4.984  79.813  1.00  0.00     0.047 A 
BRANCH  16  19
ATOM     19  O   UNL     1     -32.747   6.238  78.545  1.00  0.00    -0.508 OA
ATOM     20  H   UNL     1     -32.026   6.082  79.241  1.00  0.00     0.293 HD
ENDBRANCH  16  19
ENDBRANCH   3  13
BRANCH  10  21
ATOM     21  O   UNL     1     -42.761   3.450  81.221  1.00  0.00    -0.507 OA
ATOM     22  H   UNL     1     -42.584   4.168  81.914  1.00  0.00     0.293 HD
ENDBRANCH  10  21
BRANCH  11  23
ATOM     23  O   UNL     1     -42.790   2.428  76.508  1.00  0.00    -0.508 OA
ATOM     24  H   UNL     1     -42.308   1.936  75.764  1.00  0.00     0.293 HD
ENDBRANCH  11  23
ENDBRANCH   1   2
BRANCH   1  25
ATOM     25  C   UNL     1     -38.362   6.437  82.756  1.00  0.00     0.339 C 
ATOM     26  C   UNL     1     -38.766   7.742  82.042  1.00  0.00     0.214 C 
ATOM     27  O   UNL     1     -37.373   6.623  83.763  1.00  0.00    -0.332 OA
ATOM     28  C   UNL     1     -37.543   8.433  81.385  1.00  0.00     0.180 C 
ATOM     29  C   UNL     1     -36.384   7.610  83.480  1.00  0.00     0.179 C 
ATOM     30  C   UNL     1     -36.206   7.936  81.972  1.00  0.00     0.177 C 
BRANCH  26  31
ATOM     31  O   UNL     1     -39.359   8.601  82.983  1.00  0.00    -0.384 OA
ATOM     32  H   UNL     1     -38.925   8.414  83.856  1.00  0.00     0.211 HD
ENDBRANCH  26  31
BRANCH  28  33
ATOM     33  O   UNL     1     -37.558   8.270  79.988  1.00  0.00    -0.387 OA
ATOM     34  H   UNL     1     -36.618   8.275  79.675  1.00  0.00     0.211 HD
ENDBRANCH  28  33
BRANCH  29  35
ATOM     35  C   UNL     1     -35.066   7.157  84.125  1.00  0.00     0.191 C 
BRANCH  35  36
ATOM     36  O   UNL     1     -34.257   6.488  83.192  1.00  0.00    -0.394 OA
ATOM     37  H   UNL     1     -34.475   6.862  82.299  1.00  0.00     0.210 HD
ENDBRANCH  35  36
ENDBRANCH  29  35
BRANCH  30  38
ATOM     38  O   UNL     1     -35.235   8.939  81.795  1.00  0.00    -0.387 OA
ATOM     39  H   UNL     1     -34.592   8.611  81.113  1.00  0.00     0.211 HD
ENDBRANCH  30  38
ENDBRANCH   1  25
TORSDOF 11
ENDMDL
MODEL 2
REMARK VINA RESULT:    -6.566      2.741      4.496
REMARK INTER + INTRA:         -10.348
REMARK INTER:                  -8.837
REMARK INTRA:                  -1.512
REMARK UNBOUND:                -0.904
REMARK SMILES O=c1c(O[C@H]2O[C@@H](CO)[C@H](O)[C@@H](O)[C@@H]2O)c(-c2ccc(O)cc2)oc2cc(O)cc(O)c12
REMARK SMILES IDX 4 1 3 2 16 3 24 4 2 5 25 6 1 7 32 8 26 9 30 10 27 11 29 12
REMARK SMILES IDX 17 13 18 14 19 15 20 16 23 17 22 18 21 19 31 21 28 23 5 25
REMARK SMILES IDX 14 26 6 27 12 28 7 29 10 30 15 31 13 33 8 35 9 36 11 38
REMARK H PARENT 21 20 31 22 28 24 15 32 13 34 9 37 11 39
REMARK Flexibility Score: inf
ROOT
ATOM      1  O   UNL     1     -38.735   6.501  79.114  1.00  0.00    -0.454 OA
ENDROOT
BRANCH   1   2
ATOM      2  C   UNL     1     -38.787   5.474  80.081  1.00  0.00     0.214 A 
ATOM      3  C   UNL     1     -37.573   4.899  80.504  1.00  0.00     0.180 A 
ATOM      4  O   UNL     1     -37.570   3.861  81.332  1.00  0.00    -0.452 OA
ATOM      5  C   UNL     1     -39.989   4.966  80.627  1.00  0.00     0.239 A 
ATOM      6  C   UNL     1     -38.675   3.332  81.839  1.00  0.00     0.146 A 
ATOM      7  O   UNL     1     -41.096   5.487  80.329  1.00  0.00    -0.285 OA
ATOM      8  C   UNL     1     -39.943   3.870  81.519  1.00  0.00     0.111 A 
ATOM      9  C   UNL     1     -38.571   2.238  82.702  1.00  0.00     0.094 A 
ATOM     10  C   UNL     1     -41.101   3.291  82.094  1.00  0.00     0.134 A 
ATOM     11  C   UNL     1     -39.718   1.668  83.264  1.00  0.00     0.123 A 
ATOM     12  C   UNL     1     -40.975   2.196  82.962  1.00  0.00     0.093 A 
BRANCH   3  13
ATOM     13  C   UNL     1     -36.273   5.414  80.035  1.00  0.00     0.021 A 
ATOM     14  C   UNL     1     -35.442   6.147  80.898  1.00  0.00     0.016 A 
ATOM     15  C   UNL     1     -34.202   6.615  80.453  1.00  0.00     0.047 A 
ATOM     16  C   UNL     1     -33.776   6.343  79.145  1.00  0.00     0.115 A 
ATOM     17  C   UNL     1     -35.831   5.124  78.735  1.00  0.00     0.016 A 
ATOM     18  C   UNL     1     -34.591   5.594  78.291  1.00  0.00     0.047 A 
BRANCH  16  19
ATOM     19  O   UNL     1     -32.545   6.809  78.689  1.00  0.00    -0.508 OA
ATOM     20  H   UNL     1     -32.398   7.788  78.468  1.00  0.00     0.293 HD
ENDBRANCH  16  19
ENDBRANCH   3  13
BRANCH  10  21
ATOM     21  O   UNL     1     -42.373   3.791  81.811  1.00  0.00    -0.507 OA
ATOM     22  H   UNL     1     -42.562   4.786  81.795  1.00  0.00     0.293 HD
ENDBRANCH  10  21
BRANCH  11  23
ATOM     23  O   UNL     1     -39.621   0.578  84.125  1.00  0.00    -0.508 OA
ATOM     24  H   UNL     1     -40.037   0.594  85.050  1.00  0.00     0.293 HD
ENDBRANCH  11  23
ENDBRANCH   1   2
BRANCH   1  25
ATOM     25  C   UNL     1     -38.383   7.871  79.334  1.00  0.00     0.339 C 
ATOM     26  C   UNL     1     -39.604   8.660  79.845  1.00  0.00     0.214 C 
ATOM     27  O   UNL     1     -37.799   8.423  78.160  1.00  0.00    -0.332 OA
ATOM     28  C   UNL     1     -40.711   8.756  78.765  1.00  0.00     0.180 C 
ATOM     29  C   UNL     1     -38.715   8.991  77.226  1.00  0.00     0.179 C 
ATOM     30  C   UNL     1     -40.172   8.469  77.348  1.00  0.00     0.177 C 
BRANCH  26  31
ATOM     31  O   UNL     1     -39.180   9.947  80.218  1.00  0.00    -0.384 OA
ATOM     32  H   UNL     1     -38.473  10.215  79.574  1.00  0.00     0.211 HD
ENDBRANCH  26  31
BRANCH  28  33
ATOM     33  O   UNL     1     -41.788   7.900  79.063  1.00  0.00    -0.387 OA
ATOM     34  H   UNL     1     -42.201   7.626  78.205  1.00  0.00     0.211 HD
ENDBRANCH  28  33
BRANCH  29  35
ATOM     35  C   UNL     1     -38.147   8.775  75.815  1.00  0.00     0.191 C 
BRANCH  35  36
ATOM     36  O   UNL     1     -38.750   7.667  75.199  1.00  0.00    -0.394 OA
ATOM     37  H   UNL     1     -38.390   6.856  75.645  1.00  0.00     0.210 HD
ENDBRANCH  35  36
ENDBRANCH  29  35
BRANCH  30  38
ATOM     38  O   UNL     1     -41.005   9.107  76.411  1.00  0.00    -0.387 OA
ATOM     39  H   UNL     1     -40.537   9.930  76.110  1.00  0.00     0.211 HD
ENDBRANCH  30  38
ENDBRANCH   1  25
TORSDOF 11
ENDMDL
MODEL 3
REMARK VINA RESULT:    -6.527     11.073     14.684
REMARK INTER + INTRA:         -10.292
REMARK INTER:                  -8.999
REMARK INTRA:                  -1.293
REMARK UNBOUND:                -0.904
REMARK SMILES O=c1c(O[C@H]2O[C@@H](CO)[C@H](O)[C@@H](O)[C@@H]2O)c(-c2ccc(O)cc2)oc2cc(O)cc(O)c12
REMARK SMILES IDX 4 1 3 2 16 3 24 4 2 5 25 6 1 7 32 8 26 9 30 10 27 11 29 12
REMARK SMILES IDX 17 13 18 14 19 15 20 16 23 17 22 18 21 19 31 21 28 23 5 25
REMARK SMILES IDX 14 26 6 27 12 28 7 29 10 30 15 31 13 33 8 35 9 36 11 38
REMARK H PARENT 21 20 31 22 28 24 15 32 13 34 9 37 11 39
REMARK Flexibility Score: inf
ROOT
ATOM      1  O   UNL     1     -47.620   3.472  70.193  1.00  0.00    -0.454 OA
ENDROOT
BRANCH   1   2
ATOM      2  C   UNL     1     -47.951   2.139  69.867  1.00  0.00     0.214 A 
ATOM      3  C   UNL     1     -47.855   1.166  70.882  1.00  0.00     0.180 A 
ATOM      4  O   UNL     1     -48.054  -0.118  70.606  1.00  0.00    -0.452 OA
ATOM      5  C   UNL     1     -48.340   1.716  68.575  1.00  0.00     0.239 A 
ATOM      6  C   UNL     1     -48.386  -0.560  69.401  1.00  0.00     0.146 A 
ATOM      7  O   UNL     1     -48.501   2.555  67.651  1.00  0.00    -0.285 OA
ATOM      8  C   UNL     1     -48.558   0.342  68.326  1.00  0.00     0.111 A 
ATOM      9  C   UNL     1     -48.571  -1.931  69.208  1.00  0.00     0.094 A 
ATOM     10  C   UNL     1     -48.933  -0.165  67.057  1.00  0.00     0.134 A 
ATOM     11  C   UNL     1     -48.937  -2.426  67.951  1.00  0.00     0.123 A 
ATOM     12  C   UNL     1     -49.119  -1.544  66.884  1.00  0.00     0.093 A 
BRANCH   3  13
ATOM     13  C   UNL     1     -47.521   1.532  72.270  1.00  0.00     0.021 A 
ATOM     14  C   UNL     1     -48.531   1.666  73.237  1.00  0.00     0.016 A 
ATOM     15  C   UNL     1     -48.205   1.994  74.556  1.00  0.00     0.047 A 
ATOM     16  C   UNL     1     -46.864   2.177  74.924  1.00  0.00     0.115 A 
ATOM     17  C   UNL     1     -46.179   1.692  72.650  1.00  0.00     0.016 A 
ATOM     18  C   UNL     1     -45.854   2.021  73.969  1.00  0.00     0.047 A 
BRANCH  16  19
ATOM     19  O   UNL     1     -46.528   2.509  76.235  1.00  0.00    -0.508 OA
ATOM     20  H   UNL     1     -46.572   3.466  76.566  1.00  0.00     0.293 HD
ENDBRANCH  16  19
ENDBRANCH   3  13
BRANCH  10  21
ATOM     21  O   UNL     1     -49.119   0.688  65.967  1.00  0.00    -0.507 OA
ATOM     22  H   UNL     1     -49.633   1.557  66.053  1.00  0.00     0.293 HD
ENDBRANCH  10  21
BRANCH  11  23
ATOM     23  O   UNL     1     -49.124  -3.792  67.752  1.00  0.00    -0.508 OA
ATOM     24  H   UNL     1     -49.348  -4.414  68.521  1.00  0.00     0.293 HD
ENDBRANCH  11  23
ENDBRANCH   1   2
BRANCH   1  25
ATOM     25  C   UNL     1     -48.523   4.576  70.313  1.00  0.00     0.339 C 
ATOM     26  C   UNL     1     -48.060   5.744  69.421  1.00  0.00     0.214 C 
ATOM     27  O   UNL     1     -48.682   4.934  71.681  1.00  0.00    -0.332 OA
ATOM     28  C   UNL     1     -46.717   6.339  69.914  1.00  0.00     0.180 C 
ATOM     29  C   UNL     1     -47.739   5.877  72.184  1.00  0.00     0.179 C 
ATOM     30  C   UNL     1     -46.413   5.962  71.379  1.00  0.00     0.177 C 
BRANCH  26  31
ATOM     31  O   UNL     1     -49.059   6.732  69.426  1.00  0.00    -0.384 OA
ATOM     32  H   UNL     1     -48.717   7.484  69.978  1.00  0.00     0.211 HD
ENDBRANCH  26  31
BRANCH  28  33
ATOM     33  O   UNL     1     -45.653   5.956  69.077  1.00  0.00    -0.387 OA
ATOM     34  H   UNL     1     -45.992   5.946  68.146  1.00  0.00     0.211 HD
ENDBRANCH  28  33
BRANCH  29  35
ATOM     35  C   UNL     1     -47.487   5.552  73.664  1.00  0.00     0.191 C 
BRANCH  35  36
ATOM     36  O   UNL     1     -48.272   6.367  74.495  1.00  0.00    -0.394 OA
ATOM     37  H   UNL     1     -49.204   6.030  74.435  1.00  0.00     0.210 HD
ENDBRANCH  35  36
ENDBRANCH  29  35
BRANCH  30  38
ATOM     38  O   UNL     1     -45.562   6.937  71.930  1.00  0.00    -0.387 OA
ATOM     39  H   UNL     1     -44.857   6.460  72.441  1.00  0.00     0.211 HD
ENDBRANCH  30  38
ENDBRANCH   1  25
TORSDOF 11
ENDMDL
MODEL 4
REMARK VINA RESULT:    -6.462      2.673      5.092
REMARK INTER + INTRA:         -10.199
REMARK INTER:                  -8.848
REMARK INTRA:                  -1.351
REMARK UNBOUND:                -0.904
REMARK SMILES O=c1c(O[C@H]2O[C@@H](CO)[C@H](O)[C@@H](O)[C@@H]2O)c(-c2ccc(O)cc2)oc2cc(O)cc(O)c12
REMARK SMILES IDX 4 1 3 2 16 3 24 4 2 5 25 6 1 7 32 8 26 9 30 10 27 11 29 12
REMARK SMILES IDX 17 13 18 14 19 15 20 16 23 17 22 18 21 19 31 21 28 23 5 25
REMARK SMILES IDX 14 26 6 27 12 28 7 29 10 30 15 31 13 33 8 35 9 36 11 38
REMARK H PARENT 21 20 31 22 28 24 15 32 13 34 9 37 11 39
REMARK Flexibility Score: inf
ROOT
ATOM      1  O   UNL     1     -36.392   6.594  79.664  1.00  0.00    -0.454 OA
ENDROOT
BRANCH   1   2
ATOM      2  C   UNL     1     -37.475   5.829  80.147  1.00  0.00     0.214 A 
ATOM      3  C   UNL     1     -38.753   6.076  79.609  1.00  0.00     0.180 A 
ATOM      4  O   UNL     1     -39.822   5.459  80.100  1.00  0.00    -0.452 OA
ATOM      5  C   UNL     1     -37.359   4.851  81.163  1.00  0.00     0.239 A 
ATOM      6  C   UNL     1     -39.761   4.563  81.074  1.00  0.00     0.146 A 
ATOM      7  O   UNL     1     -36.230   4.549  81.632  1.00  0.00    -0.285 OA
ATOM      8  C   UNL     1     -38.519   4.205  81.646  1.00  0.00     0.111 A 
ATOM      9  C   UNL     1     -40.943   3.969  81.525  1.00  0.00     0.094 A 
ATOM     10  C   UNL     1     -38.491   3.228  82.673  1.00  0.00     0.134 A 
ATOM     11  C   UNL     1     -40.909   3.008  82.541  1.00  0.00     0.123 A 
ATOM     12  C   UNL     1     -39.687   2.640  83.108  1.00  0.00     0.093 A 
BRANCH   3  13
ATOM     13  C   UNL     1     -38.951   7.030  78.502  1.00  0.00     0.021 A 
ATOM     14  C   UNL     1     -38.794   6.619  77.168  1.00  0.00     0.016 A 
ATOM     15  C   UNL     1     -39.002   7.524  76.123  1.00  0.00     0.047 A 
ATOM     16  C   UNL     1     -39.384   8.844  76.402  1.00  0.00     0.115 A 
ATOM     17  C   UNL     1     -39.357   8.345  78.774  1.00  0.00     0.016 A 
ATOM     18  C   UNL     1     -39.564   9.250  77.729  1.00  0.00     0.047 A 
BRANCH  16  19
ATOM     19  O   UNL     1     -39.589   9.756  75.369  1.00  0.00    -0.508 OA
ATOM     20  H   UNL     1     -38.858  10.391  75.070  1.00  0.00     0.293 HD
ENDBRANCH  16  19
ENDBRANCH   3  13
BRANCH  10  21
ATOM     21  O   UNL     1     -37.287   2.840  83.264  1.00  0.00    -0.507 OA
ATOM     22  H   UNL     1     -36.476   2.596  82.708  1.00  0.00     0.293 HD
ENDBRANCH  10  21
BRANCH  11  23
ATOM     23  O   UNL     1     -42.083   2.412  82.996  1.00  0.00    -0.508 OA
ATOM     24  H   UNL     1     -42.374   2.486  83.964  1.00  0.00     0.293 HD
ENDBRANCH  11  23
ENDBRANCH   1   2
BRANCH   1  25
ATOM     25  C   UNL     1     -35.340   6.146  78.804  1.00  0.00     0.339 C 
ATOM     26  C   UNL     1     -34.017   6.040  79.588  1.00  0.00     0.214 C 
ATOM     27  O   UNL     1     -35.254   6.981  77.655  1.00  0.00    -0.332 OA
ATOM     28  C   UNL     1     -33.518   7.433  80.051  1.00  0.00     0.180 C 
ATOM     29  C   UNL     1     -34.418   8.128  77.789  1.00  0.00     0.179 C 
ATOM     30  C   UNL     1     -34.169   8.582  79.253  1.00  0.00     0.177 C 
BRANCH  26  31
ATOM     31  O   UNL     1     -33.056   5.431  78.764  1.00  0.00    -0.384 OA
ATOM     32  H   UNL     1     -33.475   5.316  77.871  1.00  0.00     0.211 HD
ENDBRANCH  26  31
BRANCH  28  33
ATOM     33  O   UNL     1     -33.723   7.614  81.431  1.00  0.00    -0.387 OA
ATOM     34  H   UNL     1     -34.693   7.756  81.574  1.00  0.00     0.211 HD
ENDBRANCH  28  33
BRANCH  29  35
ATOM     35  C   UNL     1     -35.021   9.255  76.938  1.00  0.00     0.191 C 
BRANCH  35  36
ATOM     36  O   UNL     1     -34.012   9.995  76.300  1.00  0.00    -0.394 OA
ATOM     37  H   UNL     1     -34.011  10.898  76.712  1.00  0.00     0.210 HD
ENDBRANCH  35  36
ENDBRANCH  29  35
BRANCH  30  38
ATOM     38  O   UNL     1     -33.311   9.697  79.286  1.00  0.00    -0.387 OA
ATOM     39  H   UNL     1     -32.385   9.355  79.393  1.00  0.00     0.211 HD
ENDBRANCH  30  38
ENDBRANCH   1  25
TORSDOF 11
ENDMDL
MODEL 5
REMARK VINA RESULT:    -6.377      2.720      4.646
REMARK INTER + INTRA:         -10.076
REMARK INTER:                  -8.615
REMARK INTRA:                  -1.461
REMARK UNBOUND:                -0.904
REMARK SMILES O=c1c(O[C@H]2O[C@@H](CO)[C@H](O)[C@@H](O)[C@@H]2O)c(-c2ccc(O)cc2)oc2cc(O)cc(O)c12
REMARK SMILES IDX 4 1 3 2 16 3 24 4 2 5 25 6 1 7 32 8 26 9 30 10 27 11 29 12
REMARK SMILES IDX 17 13 18 14 19 15 20 16 23 17 22 18 21 19 31 21 28 23 5 25
REMARK SMILES IDX 14 26 6 27 12 28 7 29 10 30 15 31 13 33 8 35 9 36 11 38
REMARK H PARENT 21 20 31 22 28 24 15 32 13 34 9 37 11 39
REMARK Flexibility Score: inf
ROOT
ATOM      1  O   UNL     1     -36.818   6.774  79.047  1.00  0.00    -0.454 OA
ENDROOT
BRANCH   1   2
ATOM      2  C   UNL     1     -37.812   5.972  79.648  1.00  0.00     0.214 A 
ATOM      3  C   UNL     1     -39.152   6.180  79.265  1.00  0.00     0.180 A 
ATOM      4  O   UNL     1     -40.136   5.527  79.873  1.00  0.00    -0.452 OA
ATOM      5  C   UNL     1     -37.547   4.995  80.636  1.00  0.00     0.239 A 
ATOM      6  C   UNL     1     -39.933   4.630  80.827  1.00  0.00     0.146 A 
ATOM      7  O   UNL     1     -36.362   4.728  80.967  1.00  0.00    -0.285 OA
ATOM      8  C   UNL     1     -38.621   4.311  81.247  1.00  0.00     0.111 A 
ATOM      9  C   UNL     1     -41.034   3.997  81.409  1.00  0.00     0.094 A 
ATOM     10  C   UNL     1     -38.442   3.332  82.257  1.00  0.00     0.134 A 
ATOM     11  C   UNL     1     -40.851   3.034  82.408  1.00  0.00     0.123 A 
ATOM     12  C   UNL     1     -39.560   2.705  82.825  1.00  0.00     0.093 A 
BRANCH   3  13
ATOM     13  C   UNL     1     -39.508   7.130  78.195  1.00  0.00     0.021 A 
ATOM     14  C   UNL     1     -39.049   6.934  76.883  1.00  0.00     0.016 A 
ATOM     15  C   UNL     1     -39.407   7.829  75.870  1.00  0.00     0.047 A 
ATOM     16  C   UNL     1     -40.239   8.920  76.157  1.00  0.00     0.115 A 
ATOM     17  C   UNL     1     -40.361   8.210  78.472  1.00  0.00     0.016 A 
ATOM     18  C   UNL     1     -40.717   9.105  77.459  1.00  0.00     0.047 A 
BRANCH  16  19
ATOM     19  O   UNL     1     -40.598   9.821  75.157  1.00  0.00    -0.508 OA
ATOM     20  H   UNL     1     -39.901  10.352  74.648  1.00  0.00     0.293 HD
ENDBRANCH  16  19
ENDBRANCH   3  13
BRANCH  10  21
ATOM     21  O   UNL     1     -37.166   2.981  82.700  1.00  0.00    -0.507 OA
ATOM     22  H   UNL     1     -36.613   3.602  83.279  1.00  0.00     0.293 HD
ENDBRANCH  10  21
BRANCH  11  23
ATOM     23  O   UNL     1     -41.944   2.399  82.992  1.00  0.00    -0.508 OA
ATOM     24  H   UNL     1     -42.195   2.562  83.961  1.00  0.00     0.293 HD
ENDBRANCH  11  23
ENDBRANCH   1   2
BRANCH   1  25
ATOM     25  C   UNL     1     -36.505   8.134  79.364  1.00  0.00     0.339 C 
ATOM     26  C   UNL     1     -35.620   8.749  78.261  1.00  0.00     0.214 C 
ATOM     27  O   UNL     1     -35.932   8.216  80.664  1.00  0.00    -0.332 OA
ATOM     28  C   UNL     1     -34.226   8.075  78.209  1.00  0.00     0.180 C 
ATOM     29  C   UNL     1     -34.516   8.060  80.724  1.00  0.00     0.179 C 
ATOM     30  C   UNL     1     -33.894   7.317  79.510  1.00  0.00     0.177 C 
BRANCH  26  31
ATOM     31  O   UNL     1     -35.484  10.125  78.515  1.00  0.00    -0.384 OA
ATOM     32  H   UNL     1     -35.771  10.599  77.691  1.00  0.00     0.211 HD
ENDBRANCH  26  31
BRANCH  28  33
ATOM     33  O   UNL     1     -34.117   7.217  77.099  1.00  0.00    -0.387 OA
ATOM     34  H   UNL     1     -33.540   7.664  76.429  1.00  0.00     0.211 HD
ENDBRANCH  28  33
BRANCH  29  35
ATOM     35  C   UNL     1     -34.172   7.371  82.053  1.00  0.00     0.191 C 
BRANCH  35  36
ATOM     36  O   UNL     1     -34.153   5.975  81.902  1.00  0.00    -0.394 OA
ATOM     37  H   UNL     1     -35.065   5.649  82.120  1.00  0.00     0.210 HD
ENDBRANCH  35  36
ENDBRANCH  29  35
BRANCH  30  38
ATOM     38  O   UNL     1     -32.495   7.239  79.644  1.00  0.00    -0.387 OA
ATOM     39  H   UNL     1     -32.297   7.097  80.606  1.00  0.00     0.211 HD
ENDBRANCH  30  38
ENDBRANCH   1  25
TORSDOF 11
ENDMDL
MODEL 6
REMARK VINA RESULT:    -6.335      2.400      6.262
REMARK INTER + INTRA:         -10.016
REMARK INTER:                  -9.052
REMARK INTRA:                  -0.964
REMARK UNBOUND:                -0.904
REMARK SMILES O=c1c(O[C@H]2O[C@@H](CO)[C@H](O)[C@@H](O)[C@@H]2O)c(-c2ccc(O)cc2)oc2cc(O)cc(O)c12
REMARK SMILES IDX 4 1 3 2 16 3 24 4 2 5 25 6 1 7 32 8 26 9 30 10 27 11 29 12
REMARK SMILES IDX 17 13 18 14 19 15 20 16 23 17 22 18 21 19 31 21 28 23 5 25
REMARK SMILES IDX 14 26 6 27 12 28 7 29 10 30 15 31 13 33 8 35 9 36 11 38
REMARK H PARENT 21 20 31 22 28 24 15 32 13 34 9 37 11 39
REMARK Flexibility Score: inf
ROOT
ATOM      1  O   UNL     1     -39.557   5.779  81.423  1.00  0.00    -0.454 OA
ENDROOT
BRANCH   1   2
ATOM      2  C   UNL     1     -38.907   6.515  80.409  1.00  0.00     0.214 A 
ATOM      3  C   UNL     1     -38.965   6.021  79.091  1.00  0.00     0.180 A 
ATOM      4  O   UNL     1     -38.286   6.615  78.117  1.00  0.00    -0.452 OA
ATOM      5  C   UNL     1     -38.172   7.701  80.642  1.00  0.00     0.239 A 
ATOM      6  C   UNL     1     -37.557   7.707  78.301  1.00  0.00     0.146 A 
ATOM      7  O   UNL     1     -38.141   8.216  81.791  1.00  0.00    -0.285 OA
ATOM      8  C   UNL     1     -37.476   8.312  79.576  1.00  0.00     0.111 A 
ATOM      9  C   UNL     1     -36.875   8.259  77.213  1.00  0.00     0.094 A 
ATOM     10  C   UNL     1     -36.703   9.490  79.729  1.00  0.00     0.134 A 
ATOM     11  C   UNL     1     -36.111   9.420  77.372  1.00  0.00     0.123 A 
ATOM     12  C   UNL     1     -36.030  10.031  78.625  1.00  0.00     0.093 A 
BRANCH   3  13
ATOM     13  C   UNL     1     -39.764   4.829  78.751  1.00  0.00     0.021 A 
ATOM     14  C   UNL     1     -39.136   3.616  78.426  1.00  0.00     0.016 A 
ATOM     15  C   UNL     1     -39.900   2.485  78.124  1.00  0.00     0.047 A 
ATOM     16  C   UNL     1     -41.300   2.553  78.157  1.00  0.00     0.115 A 
ATOM     17  C   UNL     1     -41.165   4.885  78.806  1.00  0.00     0.016 A 
ATOM     18  C   UNL     1     -41.929   3.754  78.503  1.00  0.00     0.047 A 
BRANCH  16  19
ATOM     19  O   UNL     1     -42.072   1.434  77.852  1.00  0.00    -0.508 OA
ATOM     20  H   UNL     1     -42.832   1.481  77.184  1.00  0.00     0.293 HD
ENDBRANCH  16  19
ENDBRANCH   3  13
BRANCH  10  21
ATOM     21  O   UNL     1     -36.597  10.125  80.969  1.00  0.00    -0.507 OA
ATOM     22  H   UNL     1     -36.978  11.050  81.127  1.00  0.00     0.293 HD
ENDBRANCH  10  21
BRANCH  11  23
ATOM     23  O   UNL     1     -35.428   9.975  76.292  1.00  0.00    -0.508 OA
ATOM     24  H   UNL     1     -35.900  10.563  75.613  1.00  0.00     0.293 HD
ENDBRANCH  11  23
ENDBRANCH   1   2
BRANCH   1  25
ATOM     25  C   UNL     1     -39.110   5.594  82.771  1.00  0.00     0.339 C 
ATOM     26  C   UNL     1     -37.695   4.982  82.784  1.00  0.00     0.214 C 
ATOM     27  O   UNL     1     -40.064   4.837  83.506  1.00  0.00    -0.332 OA
ATOM     28  C   UNL     1     -37.695   3.539  82.217  1.00  0.00     0.180 C 
ATOM     29  C   UNL     1     -39.906   3.421  83.444  1.00  0.00     0.179 C 
ATOM     30  C   UNL     1     -39.104   2.911  82.217  1.00  0.00     0.177 C 
BRANCH  26  31
ATOM     31  O   UNL     1     -37.222   4.982  84.107  1.00  0.00    -0.384 OA
ATOM     32  H   UNL     1     -36.531   4.271  84.166  1.00  0.00     0.211 HD
ENDBRANCH  26  31
BRANCH  28  33
ATOM     33  O   UNL     1     -37.139   3.501  80.926  1.00  0.00    -0.387 OA
ATOM     34  H   UNL     1     -37.885   3.410  80.280  1.00  0.00     0.211 HD
ENDBRANCH  28  33
BRANCH  29  35
ATOM     35  C   UNL     1     -41.303   2.786  83.518  1.00  0.00     0.191 C 
BRANCH  35  36
ATOM     36  O   UNL     1     -41.713   2.332  82.254  1.00  0.00    -0.394 OA
ATOM     37  H   UNL     1     -40.922   1.907  81.829  1.00  0.00     0.210 HD
ENDBRANCH  35  36
ENDBRANCH  29  35
BRANCH  30  38
ATOM     38  O   UNL     1     -38.974   1.511  82.259  1.00  0.00    -0.387 OA
ATOM     39  H   UNL     1     -38.922   1.247  83.215  1.00  0.00     0.211 HD
ENDBRANCH  30  38
ENDBRANCH   1  25
TORSDOF 11
ENDMDL
MODEL 7
REMARK VINA RESULT:    -6.261      2.347      6.982
REMARK INTER + INTRA:          -9.909
REMARK INTER:                  -8.511
REMARK INTRA:                  -1.399
REMARK UNBOUND:                -0.904
REMARK SMILES O=c1c(O[C@H]2O[C@@H](CO)[C@H](O)[C@@H](O)[C@@H]2O)c(-c2ccc(O)cc2)oc2cc(O)cc(O)c12
REMARK SMILES IDX 4 1 3 2 16 3 24 4 2 5 25 6 1 7 32 8 26 9 30 10 27 11 29 12
REMARK SMILES IDX 17 13 18 14 19 15 20 16 23 17 22 18 21 19 31 21 28 23 5 25
REMARK SMILES IDX 14 26 6 27 12 28 7 29 10 30 15 31 13 33 8 35 9 36 11 38
REMARK H PARENT 21 20 31 22 28 24 15 32 13 34 9 37 11 39
REMARK Flexibility Score: inf
ROOT
ATOM      1  O   UNL     1     -38.123   5.274  80.580  1.00  0.00    -0.454 OA
ENDROOT
BRANCH   1   2
ATOM      2  C   UNL     1     -37.002   6.092  80.840  1.00  0.00     0.214 A 
ATOM      3  C   UNL     1     -36.715   7.131  79.933  1.00  0.00     0.180 A 
ATOM      4  O   UNL     1     -35.616   7.863  80.071  1.00  0.00    -0.452 OA
ATOM      5  C   UNL     1     -36.131   5.910  81.939  1.00  0.00     0.239 A 
ATOM      6  C   UNL     1     -34.756   7.701  81.066  1.00  0.00     0.146 A 
ATOM      7  O   UNL     1     -36.378   5.036  82.811  1.00  0.00    -0.285 OA
ATOM      8  C   UNL     1     -34.980   6.721  82.059  1.00  0.00     0.111 A 
ATOM      9  C   UNL     1     -33.625   8.520  81.126  1.00  0.00     0.094 A 
ATOM     10  C   UNL     1     -34.048   6.590  83.119  1.00  0.00     0.134 A 
ATOM     11  C   UNL     1     -32.707   8.384  82.173  1.00  0.00     0.123 A 
ATOM     12  C   UNL     1     -32.922   7.424  83.164  1.00  0.00     0.093 A 
BRANCH   3  13
ATOM     13  C   UNL     1     -37.609   7.431  78.799  1.00  0.00     0.021 A 
ATOM     14  C   UNL     1     -38.678   8.330  78.949  1.00  0.00     0.016 A 
ATOM     15  C   UNL     1     -39.509   8.625  77.865  1.00  0.00     0.047 A 
ATOM     16  C   UNL     1     -39.271   8.034  76.616  1.00  0.00     0.115 A 
ATOM     17  C   UNL     1     -37.361   6.862  77.540  1.00  0.00     0.016 A 
ATOM     18  C   UNL     1     -38.193   7.157  76.456  1.00  0.00     0.047 A 
BRANCH  16  19
ATOM     19  O   UNL     1     -40.096   8.317  75.529  1.00  0.00    -0.508 OA
ATOM     20  H   UNL     1     -39.846   8.037  74.588  1.00  0.00     0.293 HD
ENDBRANCH  16  19
ENDBRANCH   3  13
BRANCH  10  21
ATOM     21  O   UNL     1     -34.230   5.639  84.125  1.00  0.00    -0.507 OA
ATOM     22  H   UNL     1     -34.147   5.879  85.106  1.00  0.00     0.293 HD
ENDBRANCH  10  21
BRANCH  11  23
ATOM     23  O   UNL     1     -31.578   9.197  82.238  1.00  0.00    -0.508 OA
ATOM     24  H   UNL     1     -30.832   9.124  81.554  1.00  0.00     0.293 HD
ENDBRANCH  11  23
ENDBRANCH   1   2
BRANCH   1  25
ATOM     25  C   UNL     1     -38.130   3.851  80.426  1.00  0.00     0.339 C 
ATOM     26  C   UNL     1     -38.735   3.465  79.061  1.00  0.00     0.214 C 
ATOM     27  O   UNL     1     -38.786   3.240  81.531  1.00  0.00    -0.332 OA
ATOM     28  C   UNL     1     -40.239   3.831  78.982  1.00  0.00     0.180 C 
ATOM     29  C   UNL     1     -40.197   3.085  81.401  1.00  0.00     0.179 C 
ATOM     30  C   UNL     1     -40.863   4.044  80.376  1.00  0.00     0.177 C 
BRANCH  26  31
ATOM     31  O   UNL     1     -38.562   2.084  78.871  1.00  0.00    -0.384 OA
ATOM     32  H   UNL     1     -39.386   1.642  79.203  1.00  0.00     0.211 HD
ENDBRANCH  26  31
BRANCH  28  33
ATOM     33  O   UNL     1     -40.445   4.963  78.173  1.00  0.00    -0.387 OA
ATOM     34  H   UNL     1     -39.562   5.386  78.019  1.00  0.00     0.211 HD
ENDBRANCH  28  33
BRANCH  29  35
ATOM     35  C   UNL     1     -40.819   3.223  82.799  1.00  0.00     0.191 C 
BRANCH  35  36
ATOM     36  O   UNL     1     -42.039   2.533  82.874  1.00  0.00    -0.394 OA
ATOM     37  H   UNL     1     -42.760   3.215  82.837  1.00  0.00     0.210 HD
ENDBRANCH  35  36
ENDBRANCH  29  35
BRANCH  30  38
ATOM     38  O   UNL     1     -42.245   3.797  80.295  1.00  0.00    -0.387 OA
ATOM     39  H   UNL     1     -42.596   4.321  79.529  1.00  0.00     0.211 HD
ENDBRANCH  30  38
ENDBRANCH   1  25
TORSDOF 11
ENDMDL
MODEL 8
REMARK VINA RESULT:    -5.994      2.948      6.898
REMARK INTER + INTRA:          -9.526
REMARK INTER:                  -8.096
REMARK INTRA:                  -1.429
REMARK UNBOUND:                -0.904
REMARK SMILES O=c1c(O[C@H]2O[C@@H](CO)[C@H](O)[C@@H](O)[C@@H]2O)c(-c2ccc(O)cc2)oc2cc(O)cc(O)c12
REMARK SMILES IDX 4 1 3 2 16 3 24 4 2 5 25 6 1 7 32 8 26 9 30 10 27 11 29 12
REMARK SMILES IDX 17 13 18 14 19 15 20 16 23 17 22 18 21 19 31 21 28 23 5 25
REMARK SMILES IDX 14 26 6 27 12 28 7 29 10 30 15 31 13 33 8 35 9 36 11 38
REMARK H PARENT 21 20 31 22 28 24 15 32 13 34 9 37 11 39
REMARK Flexibility Score: inf
ROOT
ATOM      1  O   UNL     1     -39.279   6.476  79.870  1.00  0.00    -0.454 OA
ENDROOT
BRANCH   1   2
ATOM      2  C   UNL     1     -38.040   7.150  79.938  1.00  0.00     0.214 A 
ATOM      3  C   UNL     1     -37.793   8.178  79.007  1.00  0.00     0.180 A 
ATOM      4  O   UNL     1     -36.606   8.773  78.959  1.00  0.00    -0.452 OA
ATOM      5  C   UNL     1     -37.020   6.832  80.864  1.00  0.00     0.239 A 
ATOM      6  C   UNL     1     -35.612   8.480  79.785  1.00  0.00     0.146 A 
ATOM      7  O   UNL     1     -37.215   5.965  81.756  1.00  0.00    -0.285 OA
ATOM      8  C   UNL     1     -35.777   7.500  80.790  1.00  0.00     0.111 A 
ATOM      9  C   UNL     1     -34.398   9.160  79.655  1.00  0.00     0.094 A 
ATOM     10  C   UNL     1     -34.697   7.227  81.668  1.00  0.00     0.134 A 
ATOM     11  C   UNL     1     -33.336   8.884  80.522  1.00  0.00     0.123 A 
ATOM     12  C   UNL     1     -33.489   7.924  81.524  1.00  0.00     0.093 A 
BRANCH   3  13
ATOM     13  C   UNL     1     -38.827   8.616  78.052  1.00  0.00     0.021 A 
ATOM     14  C   UNL     1     -38.794   8.188  76.715  1.00  0.00     0.016 A 
ATOM     15  C   UNL     1     -39.789   8.592  75.820  1.00  0.00     0.047 A 
ATOM     16  C   UNL     1     -40.834   9.417  76.257  1.00  0.00     0.115 A 
ATOM     17  C   UNL     1     -39.889   9.422  78.490  1.00  0.00     0.016 A 
ATOM     18  C   UNL     1     -40.883   9.827  77.594  1.00  0.00     0.047 A 
BRANCH  16  19
ATOM     19  O   UNL     1     -41.828   9.830  75.373  1.00  0.00    -0.508 OA
ATOM     20  H   UNL     1     -42.117  10.800  75.317  1.00  0.00     0.293 HD
ENDBRANCH  16  19
ENDBRANCH   3  13
BRANCH  10  21
ATOM     21  O   UNL     1     -34.815   6.271  82.678  1.00  0.00    -0.507 OA
ATOM     22  H   UNL     1     -35.664   5.733  82.806  1.00  0.00     0.293 HD
ENDBRANCH  10  21
BRANCH  11  23
ATOM     23  O   UNL     1     -32.123   9.558  80.397  1.00  0.00    -0.508 OA
ATOM     24  H   UNL     1     -31.983  10.476  80.806  1.00  0.00     0.293 HD
ENDBRANCH  11  23
ENDBRANCH   1   2
BRANCH   1  25
ATOM     25  C   UNL     1     -39.721   5.596  78.831  1.00  0.00     0.339 C 
ATOM     26  C   UNL     1     -40.896   4.731  79.329  1.00  0.00     0.214 C 
ATOM     27  O   UNL     1     -38.627   4.835  78.333  1.00  0.00    -0.332 OA
ATOM     28  C   UNL     1     -40.450   3.754  80.446  1.00  0.00     0.180 C 
ATOM     29  C   UNL     1     -38.365   3.612  79.017  1.00  0.00     0.179 C 
ATOM     30  C   UNL     1     -38.921   3.548  80.465  1.00  0.00     0.177 C 
BRANCH  26  31
ATOM     31  O   UNL     1     -41.416   4.015  78.238  1.00  0.00    -0.384 OA
ATOM     32  H   UNL     1     -40.641   3.725  77.689  1.00  0.00     0.211 HD
ENDBRANCH  26  31
BRANCH  28  33
ATOM     33  O   UNL     1     -40.904   4.181  81.707  1.00  0.00    -0.387 OA
ATOM     34  H   UNL     1     -40.132   4.163  82.327  1.00  0.00     0.211 HD
ENDBRANCH  28  33
BRANCH  29  35
ATOM     35  C   UNL     1     -36.850   3.363  78.976  1.00  0.00     0.191 C 
BRANCH  35  36
ATOM     36  O   UNL     1     -36.240   3.790  80.167  1.00  0.00    -0.394 OA
ATOM     37  H   UNL     1     -35.534   4.439  79.913  1.00  0.00     0.210 HD
ENDBRANCH  35  36
ENDBRANCH  29  35
BRANCH  30  38
ATOM     38  O   UNL     1     -38.642   2.297  81.046  1.00  0.00    -0.387 OA
ATOM     39  H   UNL     1     -37.685   2.097  80.872  1.00  0.00     0.211 HD
ENDBRANCH  30  38
ENDBRANCH   1  25
TORSDOF 11
ENDMDL
