MODEL 1
REMARK VINA RESULT:    -5.190      0.000      0.000
REMARK INTER + INTRA:         -18.313
REMARK INTER:                 -13.685
REMARK INTRA:                  -4.628
REMARK UNBOUND:                -4.628
REMARK SMILES CCCCCCCCCCCCCCCCCCCCCCCCCCCCCC(=O)[O-]
REMARK SMILES IDX 16 1 17 2 18 3 19 4 20 5 21 6 22 7 23 8 24 9 25 10 26 11
REMARK SMILES IDX 27 12 28 13 29 14 30 15 31 16 32 17 15 18 14 19 13 20 12 21
REMARK SMILES IDX 11 22 10 23 9 24 8 25 7 26 6 27 5 28 4 29 3 30 2 31 1 32
REMARK H PARENT
REMARK Flexibility Score: inf
ROOT
ATOM      1  C   UNL     1     -10.420 -35.045  44.301  1.00  0.00     0.000 C 
ENDROOT
BRANCH   1   2
ATOM      2  C   UNL     1      -9.648 -34.777  42.996  1.00  0.00     0.000 C 
BRANCH   2   3
ATOM      3  C   UNL     1     -10.287 -33.679  42.131  1.00  0.00     0.000 C 
BRANCH   3   4
ATOM      4  C   UNL     1      -9.442 -33.415  40.876  1.00  0.00     0.000 C 
BRANCH   4   5
ATOM      5  C   UNL     1      -8.031 -32.904  41.212  1.00  0.00     0.000 C 
BRANCH   5   6
ATOM      6  C   UNL     1      -8.002 -31.399  41.505  1.00  0.00     0.000 C 
BRANCH   6   7
ATOM      7  C   UNL     1      -7.173 -31.109  42.766  1.00  0.00     0.000 C 
BRANCH   7   8
ATOM      8  C   UNL     1      -7.291 -32.217  43.824  1.00  0.00     0.000 C 
BRANCH   8   9
ATOM      9  C   UNL     1      -6.733 -31.792  45.195  1.00  0.00     0.000 C 
BRANCH   9  10
ATOM     10  C   UNL     1      -7.831 -31.223  46.115  1.00  0.00     0.000 C 
BRANCH  10  11
ATOM     11  C   UNL     1      -7.972 -31.978  47.449  1.00  0.00     0.000 C 
BRANCH  11  12
ATOM     12  C   UNL     1      -7.136 -31.355  48.578  1.00  0.00     0.000 C 
BRANCH  12  13
ATOM     13  C   UNL     1      -5.808 -32.096  48.804  1.00  0.00     0.006 C 
BRANCH  13  14
ATOM     14  C   UNL     1      -6.015 -33.535  49.293  1.00  0.00     0.053 C 
BRANCH  14  15
ATOM     15  C   UNL     1      -5.596 -33.665  50.724  1.00  0.00     0.041 C 
ATOM     16  O   UNL     1      -5.263 -34.788  51.186  1.00  0.00    -0.550 OA
ATOM     17  O   UNL     1      -5.612 -32.553  51.558  1.00  0.00    -0.550 OA
ENDBRANCH  14  15
ENDBRANCH  13  14
ENDBRANCH  12  13
ENDBRANCH  11  12
ENDBRANCH  10  11
ENDBRANCH   9  10
ENDBRANCH   8   9
ENDBRANCH   7   8
ENDBRANCH   6   7
ENDBRANCH   5   6
ENDBRANCH   4   5
ENDBRANCH   3   4
ENDBRANCH   2   3
ENDBRANCH   1   2
BRANCH   1  18
ATOM     18  C   UNL     1      -9.852 -34.353  45.558  1.00  0.00     0.000 C 
BRANCH  18  19
ATOM     19  C   UNL     1      -9.874 -35.200  46.842  1.00  0.00     0.000 C 
BRANCH  19  20
ATOM     20  C   UNL     1     -11.010 -36.238  46.859  1.00  0.00     0.000 C 
BRANCH  20  21
ATOM     21  C   UNL     1     -11.615 -36.408  48.262  1.00  0.00     0.000 C 
BRANCH  21  22
ATOM     22  C   UNL     1     -12.452 -37.695  48.384  1.00  0.00     0.000 C 
BRANCH  22  23
ATOM     23  C   UNL     1     -12.261 -38.633  47.176  1.00  0.00     0.000 C 
BRANCH  23  24
ATOM     24  C   UNL     1     -11.554 -39.964  47.509  1.00  0.00    -0.000 C 
BRANCH  24  25
ATOM     25  C   UNL     1     -10.473 -39.879  48.612  1.00  0.00    -0.000 C 
BRANCH  25  26
ATOM     26  C   UNL     1      -9.114 -39.312  48.158  1.00  0.00    -0.000 C 
BRANCH  26  27
ATOM     27  C   UNL     1      -8.753 -39.712  46.715  1.00  0.00    -0.000 C 
BRANCH  27  28
ATOM     28  C   UNL     1      -8.353 -38.509  45.846  1.00  0.00    -0.000 C 
BRANCH  28  29
ATOM     29  C   UNL     1      -9.135 -38.439  44.522  1.00  0.00    -0.000 C 
BRANCH  29  30
ATOM     30  C   UNL     1      -9.647 -39.815  44.064  1.00  0.00    -0.000 C 
BRANCH  30  31
ATOM     31  C   UNL     1     -11.159 -39.824  43.793  1.00  0.00    -0.003 C 
ATOM     32  C   UNL     1     -11.678 -38.412  43.534  1.00  0.00     0.004 C 
ENDBRANCH  30  31
ENDBRANCH  29  30
ENDBRANCH  28  29
ENDBRANCH  27  28
ENDBRANCH  26  27
ENDBRANCH  25  26
ENDBRANCH  24  25
ENDBRANCH  23  24
ENDBRANCH  22  23
ENDBRANCH  21  22
ENDBRANCH  20  21
ENDBRANCH  19  20
ENDBRANCH  18  19
ENDBRANCH   1  18
TORSDOF 28
ENDMDL
MODEL 2
REMARK VINA RESULT:    -5.152      4.438      8.985
REMARK INTER + INTRA:         -18.213
REMARK INTER:                 -13.394
REMARK INTRA:                  -4.820
REMARK UNBOUND:                -4.628
REMARK SMILES CCCCCCCCCCCCCCCCCCCCCCCCCCCCCC(=O)[O-]
REMARK SMILES IDX 16 1 17 2 18 3 19 4 20 5 21 6 22 7 23 8 24 9 25 10 26 11
REMARK SMILES IDX 27 12 28 13 29 14 30 15 31 16 32 17 15 18 14 19 13 20 12 21
REMARK SMILES IDX 11 22 10 23 9 24 8 25 7 26 6 27 5 28 4 29 3 30 2 31 1 32
REMARK H PARENT
REMARK Flexibility Score: inf
ROOT
ATOM      1  C   UNL     1      -9.786 -39.962  45.763  1.00  0.00     0.000 C 
ENDROOT
BRANCH   1   2
ATOM      2  C   UNL     1     -10.989 -39.421  44.969  1.00  0.00     0.000 C 
BRANCH   2   3
ATOM      3  C   UNL     1     -12.332 -40.002  45.437  1.00  0.00     0.000 C 
BRANCH   3   4
ATOM      4  C   UNL     1     -12.123 -41.345  46.154  1.00  0.00     0.000 C 
BRANCH   4   5
ATOM      5  C   UNL     1     -12.557 -42.545  45.296  1.00  0.00     0.000 C 
BRANCH   5   6
ATOM      6  C   UNL     1     -11.434 -43.056  44.383  1.00  0.00     0.000 C 
BRANCH   6   7
ATOM      7  C   UNL     1     -11.918 -43.146  42.928  1.00  0.00     0.000 C 
BRANCH   7   8
ATOM      8  C   UNL     1     -11.663 -41.856  42.134  1.00  0.00     0.000 C 
BRANCH   8   9
ATOM      9  C   UNL     1     -10.866 -42.103  40.839  1.00  0.00     0.000 C 
BRANCH   9  10
ATOM     10  C   UNL     1      -9.349 -41.925  41.051  1.00  0.00     0.000 C 
BRANCH  10  11
ATOM     11  C   UNL     1      -8.994 -41.011  42.237  1.00  0.00     0.000 C 
BRANCH  11  12
ATOM     12  C   UNL     1      -7.899 -41.603  43.139  1.00  0.00     0.000 C 
BRANCH  12  13
ATOM     13  C   UNL     1      -6.855 -42.406  42.347  1.00  0.00     0.006 C 
BRANCH  13  14
ATOM     14  C   UNL     1      -6.445 -43.701  43.059  1.00  0.00     0.053 C 
BRANCH  14  15
ATOM     15  C   UNL     1      -7.282 -44.847  42.581  1.00  0.00     0.041 C 
ATOM     16  O   UNL     1      -6.751 -45.799  41.953  1.00  0.00    -0.550 OA
ATOM     17  O   UNL     1      -8.655 -44.842  42.795  1.00  0.00    -0.550 OA
ENDBRANCH  14  15
ENDBRANCH  13  14
ENDBRANCH  12  13
ENDBRANCH  11  12
ENDBRANCH  10  11
ENDBRANCH   9  10
ENDBRANCH   8   9
ENDBRANCH   7   8
ENDBRANCH   6   7
ENDBRANCH   5   6
ENDBRANCH   4   5
ENDBRANCH   3   4
ENDBRANCH   2   3
ENDBRANCH   1   2
BRANCH   1  18
ATOM     18  C   UNL     1      -8.792 -38.893  46.264  1.00  0.00     0.000 C 
BRANCH  18  19
ATOM     19  C   UNL     1      -8.450 -38.963  47.763  1.00  0.00     0.000 C 
BRANCH  19  20
ATOM     20  C   UNL     1      -8.914 -40.272  48.424  1.00  0.00     0.000 C 
BRANCH  20  21
ATOM     21  C   UNL     1      -9.940 -40.021  49.542  1.00  0.00     0.000 C 
BRANCH  21  22
ATOM     22  C   UNL     1     -11.304 -39.567  48.990  1.00  0.00     0.000 C 
BRANCH  22  23
ATOM     23  C   UNL     1     -11.586 -38.080  49.277  1.00  0.00     0.000 C 
BRANCH  23  24
ATOM     24  C   UNL     1     -12.122 -37.288  48.066  1.00  0.00    -0.000 C 
BRANCH  24  25
ATOM     25  C   UNL     1     -11.122 -36.291  47.435  1.00  0.00    -0.000 C 
BRANCH  25  26
ATOM     26  C   UNL     1     -11.232 -36.129  45.906  1.00  0.00    -0.000 C 
BRANCH  26  27
ATOM     27  C   UNL     1     -10.004 -35.431  45.291  1.00  0.00    -0.000 C 
BRANCH  27  28
ATOM     28  C   UNL     1      -9.846 -35.718  43.789  1.00  0.00    -0.000 C 
BRANCH  28  29
ATOM     29  C   UNL     1      -9.142 -34.576  43.033  1.00  0.00    -0.000 C 
BRANCH  29  30
ATOM     30  C   UNL     1      -8.770 -33.399  43.951  1.00  0.00    -0.000 C 
BRANCH  30  31
ATOM     31  C   UNL     1      -7.726 -32.465  43.322  1.00  0.00    -0.003 C 
ATOM     32  C   UNL     1      -7.789 -32.519  41.798  1.00  0.00     0.004 C 
ENDBRANCH  30  31
ENDBRANCH  29  30
ENDBRANCH  28  29
ENDBRANCH  27  28
ENDBRANCH  26  27
ENDBRANCH  25  26
ENDBRANCH  24  25
ENDBRANCH  23  24
ENDBRANCH  22  23
ENDBRANCH  21  22
ENDBRANCH  20  21
ENDBRANCH  19  20
ENDBRANCH  18  19
ENDBRANCH   1  18
TORSDOF 28
ENDMDL
MODEL 3
REMARK VINA RESULT:    -5.136      3.176      8.930
REMARK INTER + INTRA:         -18.173
REMARK INTER:                 -13.722
REMARK INTRA:                  -4.450
REMARK UNBOUND:                -4.628
REMARK SMILES CCCCCCCCCCCCCCCCCCCCCCCCCCCCCC(=O)[O-]
REMARK SMILES IDX 16 1 17 2 18 3 19 4 20 5 21 6 22 7 23 8 24 9 25 10 26 11
REMARK SMILES IDX 27 12 28 13 29 14 30 15 31 16 32 17 15 18 14 19 13 20 12 21
REMARK SMILES IDX 11 22 10 23 9 24 8 25 7 26 6 27 5 28 4 29 3 30 2 31 1 32
REMARK H PARENT
REMARK Flexibility Score: inf
ROOT
ATOM      1  C   UNL     1      -9.803 -35.649  44.126  1.00  0.00     0.000 C 
ENDROOT
BRANCH   1   2
ATOM      2  C   UNL     1     -10.196 -36.708  45.173  1.00  0.00     0.000 C 
BRANCH   2   3
ATOM      3  C   UNL     1     -10.441 -36.114  46.569  1.00  0.00     0.000 C 
BRANCH   3   4
ATOM      4  C   UNL     1      -9.746 -36.959  47.649  1.00  0.00     0.000 C 
BRANCH   4   5
ATOM      5  C   UNL     1      -8.832 -38.042  47.052  1.00  0.00     0.000 C 
BRANCH   5   6
ATOM      6  C   UNL     1      -8.967 -39.390  47.771  1.00  0.00     0.000 C 
BRANCH   6   7
ATOM      7  C   UNL     1     -10.328 -39.495  48.475  1.00  0.00     0.000 C 
BRANCH   7   8
ATOM      8  C   UNL     1     -11.336 -40.357  47.699  1.00  0.00     0.000 C 
BRANCH   8   9
ATOM      9  C   UNL     1     -12.309 -39.516  46.851  1.00  0.00     0.000 C 
BRANCH   9  10
ATOM     10  C   UNL     1     -12.145 -39.788  45.342  1.00  0.00     0.000 C 
BRANCH  10  11
ATOM     11  C   UNL     1     -10.865 -40.566  44.990  1.00  0.00     0.000 C 
BRANCH  11  12
ATOM     12  C   UNL     1     -10.171 -40.032  43.727  1.00  0.00     0.000 C 
BRANCH  12  13
ATOM     13  C   UNL     1      -8.644 -40.210  43.775  1.00  0.00     0.006 C 
BRANCH  13  14
ATOM     14  C   UNL     1      -8.089 -40.866  42.504  1.00  0.00     0.053 C 
BRANCH  14  15
ATOM     15  C   UNL     1      -7.083 -41.917  42.855  1.00  0.00     0.041 C 
ATOM     16  O   UNL     1      -7.139 -43.052  42.315  1.00  0.00    -0.550 OA
ATOM     17  O   UNL     1      -6.107 -41.654  43.809  1.00  0.00    -0.550 OA
ENDBRANCH  14  15
ENDBRANCH  13  14
ENDBRANCH  12  13
ENDBRANCH  11  12
ENDBRANCH  10  11
ENDBRANCH   9  10
ENDBRANCH   8   9
ENDBRANCH   7   8
ENDBRANCH   6   7
ENDBRANCH   5   6
ENDBRANCH   4   5
ENDBRANCH   3   4
ENDBRANCH   2   3
ENDBRANCH   1   2
BRANCH   1  18
ATOM     18  C   UNL     1     -10.497 -34.279  44.281  1.00  0.00     0.000 C 
BRANCH  18  19
ATOM     19  C   UNL     1     -10.601 -33.445  42.992  1.00  0.00     0.000 C 
BRANCH  19  20
ATOM     20  C   UNL     1      -9.991 -34.150  41.769  1.00  0.00     0.000 C 
BRANCH  20  21
ATOM     21  C   UNL     1      -9.422 -33.148  40.751  1.00  0.00     0.000 C 
BRANCH  21  22
ATOM     22  C   UNL     1      -7.999 -32.687  41.119  1.00  0.00     0.000 C 
BRANCH  22  23
ATOM     23  C   UNL     1      -7.963 -31.220  41.587  1.00  0.00     0.000 C 
BRANCH  23  24
ATOM     24  C   UNL     1      -7.228 -30.995  42.925  1.00  0.00    -0.000 C 
BRANCH  24  25
ATOM     25  C   UNL     1      -7.157 -32.230  43.855  1.00  0.00    -0.000 C 
BRANCH  25  26
ATOM     26  C   UNL     1      -7.160 -31.917  45.364  1.00  0.00    -0.000 C 
BRANCH  26  27
ATOM     27  C   UNL     1      -8.528 -32.169  46.023  1.00  0.00    -0.000 C 
BRANCH  27  28
ATOM     28  C   UNL     1      -8.438 -33.087  47.252  1.00  0.00    -0.000 C 
BRANCH  28  29
ATOM     29  C   UNL     1      -9.606 -32.888  48.236  1.00  0.00    -0.000 C 
BRANCH  29  30
ATOM     30  C   UNL     1      -9.809 -31.413  48.621  1.00  0.00    -0.000 C 
BRANCH  30  31
ATOM     31  C   UNL     1      -8.660 -30.860  49.477  1.00  0.00    -0.003 C 
ATOM     32  C   UNL     1      -8.290 -29.442  49.049  1.00  0.00     0.004 C 
ENDBRANCH  30  31
ENDBRANCH  29  30
ENDBRANCH  28  29
ENDBRANCH  27  28
ENDBRANCH  26  27
ENDBRANCH  25  26
ENDBRANCH  24  25
ENDBRANCH  23  24
ENDBRANCH  22  23
ENDBRANCH  21  22
ENDBRANCH  20  21
ENDBRANCH  19  20
ENDBRANCH  18  19
ENDBRANCH   1  18
TORSDOF 28
ENDMDL
MODEL 4
REMARK VINA RESULT:    -5.076      4.795      8.381
REMARK INTER + INTRA:         -18.013
REMARK INTER:                 -13.692
REMARK INTRA:                  -4.321
REMARK UNBOUND:                -4.628
REMARK SMILES CCCCCCCCCCCCCCCCCCCCCCCCCCCCCC(=O)[O-]
REMARK SMILES IDX 16 1 17 2 18 3 19 4 20 5 21 6 22 7 23 8 24 9 25 10 26 11
REMARK SMILES IDX 27 12 28 13 29 14 30 15 31 16 32 17 15 18 14 19 13 20 12 21
REMARK SMILES IDX 11 22 10 23 9 24 8 25 7 26 6 27 5 28 4 29 3 30 2 31 1 32
REMARK H PARENT
REMARK Flexibility Score: inf
ROOT
ATOM      1  C   UNL     1      -9.025 -39.363  44.213  1.00  0.00     0.000 C 
ENDROOT
BRANCH   1   2
ATOM      2  C   UNL     1     -10.419 -39.611  43.609  1.00  0.00     0.000 C 
BRANCH   2   3
ATOM      3  C   UNL     1     -11.495 -39.890  44.669  1.00  0.00     0.000 C 
BRANCH   3   4
ATOM      4  C   UNL     1     -10.905 -40.680  45.847  1.00  0.00     0.000 C 
BRANCH   4   5
ATOM      5  C   UNL     1     -11.806 -40.644  47.092  1.00  0.00     0.000 C 
BRANCH   5   6
ATOM      6  C   UNL     1     -11.217 -39.792  48.224  1.00  0.00     0.000 C 
BRANCH   6   7
ATOM      7  C   UNL     1      -9.726 -39.516  47.973  1.00  0.00     0.000 C 
BRANCH   7   8
ATOM      8  C   UNL     1      -9.433 -38.032  47.700  1.00  0.00     0.000 C 
BRANCH   8   9
ATOM      9  C   UNL     1     -10.694 -37.152  47.782  1.00  0.00     0.000 C 
BRANCH   9  10
ATOM     10  C   UNL     1     -11.156 -36.671  46.391  1.00  0.00     0.000 C 
BRANCH  10  11
ATOM     11  C   UNL     1     -10.019 -36.098  45.527  1.00  0.00     0.000 C 
BRANCH  11  12
ATOM     12  C   UNL     1     -10.433 -34.832  44.761  1.00  0.00     0.000 C 
BRANCH  12  13
ATOM     13  C   UNL     1      -9.719 -34.705  43.405  1.00  0.00     0.006 C 
BRANCH  13  14
ATOM     14  C   UNL     1     -10.254 -33.538  42.566  1.00  0.00     0.053 C 
BRANCH  14  15
ATOM     15  C   UNL     1      -9.368 -33.295  41.384  1.00  0.00     0.041 C 
ATOM     16  O   UNL     1      -9.851 -33.300  40.221  1.00  0.00    -0.550 OA
ATOM     17  O   UNL     1      -8.004 -33.104  41.565  1.00  0.00    -0.550 OA
ENDBRANCH  14  15
ENDBRANCH  13  14
ENDBRANCH  12  13
ENDBRANCH  11  12
ENDBRANCH  10  11
ENDBRANCH   9  10
ENDBRANCH   8   9
ENDBRANCH   7   8
ENDBRANCH   6   7
ENDBRANCH   5   6
ENDBRANCH   4   5
ENDBRANCH   3   4
ENDBRANCH   2   3
ENDBRANCH   1   2
BRANCH   1  18
ATOM     18  C   UNL     1      -7.944 -40.393  43.822  1.00  0.00     0.000 C 
BRANCH  18  19
ATOM     19  C   UNL     1      -7.919 -40.789  42.336  1.00  0.00     0.000 C 
BRANCH  19  20
ATOM     20  C   UNL     1      -7.140 -42.089  42.073  1.00  0.00     0.000 C 
BRANCH  20  21
ATOM     21  C   UNL     1      -6.217 -42.456  43.247  1.00  0.00     0.000 C 
BRANCH  21  22
ATOM     22  C   UNL     1      -6.239 -43.964  43.557  1.00  0.00     0.000 C 
BRANCH  22  23
ATOM     23  C   UNL     1      -7.210 -44.735  42.642  1.00  0.00     0.000 C 
BRANCH  23  24
ATOM     24  C   UNL     1      -6.691 -46.114  42.180  1.00  0.00    -0.000 C 
BRANCH  24  25
ATOM     25  C   UNL     1      -7.299 -46.638  40.858  1.00  0.00    -0.000 C 
BRANCH  25  26
ATOM     26  C   UNL     1      -8.817 -46.902  40.892  1.00  0.00    -0.000 C 
BRANCH  26  27
ATOM     27  C   UNL     1      -9.512 -46.555  39.562  1.00  0.00    -0.000 C 
BRANCH  27  28
ATOM     28  C   UNL     1     -10.300 -45.237  39.627  1.00  0.00    -0.000 C 
BRANCH  28  29
ATOM     29  C   UNL     1     -10.751 -44.879  41.054  1.00  0.00    -0.000 C 
BRANCH  29  30
ATOM     30  C   UNL     1     -10.415 -43.427  41.434  1.00  0.00    -0.000 C 
BRANCH  30  31
ATOM     31  C   UNL     1     -10.637 -43.139  42.926  1.00  0.00    -0.003 C 
ATOM     32  C   UNL     1     -12.018 -43.610  43.376  1.00  0.00     0.004 C 
ENDBRANCH  30  31
ENDBRANCH  29  30
ENDBRANCH  28  29
ENDBRANCH  27  28
ENDBRANCH  26  27
ENDBRANCH  25  26
ENDBRANCH  24  25
ENDBRANCH  23  24
ENDBRANCH  22  23
ENDBRANCH  21  22
ENDBRANCH  20  21
ENDBRANCH  19  20
ENDBRANCH  18  19
ENDBRANCH   1  18
TORSDOF 28
ENDMDL
MODEL 5
REMARK VINA RESULT:    -5.056      2.589      5.326
REMARK INTER + INTRA:         -17.961
REMARK INTER:                 -14.126
REMARK INTRA:                  -3.835
REMARK UNBOUND:                -4.628
REMARK SMILES CCCCCCCCCCCCCCCCCCCCCCCCCCCCCC(=O)[O-]
REMARK SMILES IDX 16 1 17 2 18 3 19 4 20 5 21 6 22 7 23 8 24 9 25 10 26 11
REMARK SMILES IDX 27 12 28 13 29 14 30 15 31 16 32 17 15 18 14 19 13 20 12 21
REMARK SMILES IDX 11 22 10 23 9 24 8 25 7 26 6 27 5 28 4 29 3 30 2 31 1 32
REMARK H PARENT
REMARK Flexibility Score: inf
ROOT
ATOM      1  C   UNL     1      -8.981 -37.774  47.703  1.00  0.00     0.000 C 
ENDROOT
BRANCH   1   2
ATOM      2  C   UNL     1     -10.418 -37.865  48.250  1.00  0.00     0.000 C 
BRANCH   2   3
ATOM      3  C   UNL     1     -11.350 -36.784  47.682  1.00  0.00     0.000 C 
BRANCH   3   4
ATOM      4  C   UNL     1     -10.537 -35.619  47.095  1.00  0.00     0.000 C 
BRANCH   4   5
ATOM      5  C   UNL     1     -10.777 -35.434  45.588  1.00  0.00     0.000 C 
BRANCH   5   6
ATOM      6  C   UNL     1      -9.535 -34.916  44.851  1.00  0.00     0.000 C 
BRANCH   6   7
ATOM      7  C   UNL     1      -9.680 -35.122  43.335  1.00  0.00     0.000 C 
BRANCH   7   8
ATOM      8  C   UNL     1     -10.404 -33.957  42.642  1.00  0.00     0.000 C 
BRANCH   8   9
ATOM      9  C   UNL     1      -9.686 -33.487  41.364  1.00  0.00     0.000 C 
BRANCH   9  10
ATOM     10  C   UNL     1      -8.151 -33.514  41.519  1.00  0.00     0.000 C 
BRANCH  10  11
ATOM     11  C   UNL     1      -7.561 -32.196  42.049  1.00  0.00     0.000 C 
BRANCH  11  12
ATOM     12  C   UNL     1      -7.215 -32.257  43.546  1.00  0.00     0.000 C 
BRANCH  12  13
ATOM     13  C   UNL     1      -6.685 -30.917  44.082  1.00  0.00     0.006 C 
BRANCH  13  14
ATOM     14  C   UNL     1      -5.433 -31.086  44.952  1.00  0.00     0.053 C 
BRANCH  14  15
ATOM     15  C   UNL     1      -5.807 -31.135  46.401  1.00  0.00     0.041 C 
ATOM     16  O   UNL     1      -5.979 -32.244  46.972  1.00  0.00    -0.550 OA
ATOM     17  O   UNL     1      -6.004 -29.956  47.109  1.00  0.00    -0.550 OA
ENDBRANCH  14  15
ENDBRANCH  13  14
ENDBRANCH  12  13
ENDBRANCH  11  12
ENDBRANCH  10  11
ENDBRANCH   9  10
ENDBRANCH   8   9
ENDBRANCH   7   8
ENDBRANCH   6   7
ENDBRANCH   5   6
ENDBRANCH   4   5
ENDBRANCH   3   4
ENDBRANCH   2   3
ENDBRANCH   1   2
BRANCH   1  18
ATOM     18  C   UNL     1      -8.570 -38.906  46.737  1.00  0.00     0.000 C 
BRANCH  18  19
ATOM     19  C   UNL     1      -8.384 -38.483  45.269  1.00  0.00     0.000 C 
BRANCH  19  20
ATOM     20  C   UNL     1      -9.275 -39.276  44.297  1.00  0.00     0.000 C 
BRANCH  20  21
ATOM     21  C   UNL     1     -10.728 -38.771  44.306  1.00  0.00     0.000 C 
BRANCH  21  22
ATOM     22  C   UNL     1     -11.656 -39.680  45.134  1.00  0.00     0.000 C 
BRANCH  22  23
ATOM     23  C   UNL     1     -12.809 -40.260  44.293  1.00  0.00     0.000 C 
BRANCH  23  24
ATOM     24  C   UNL     1     -12.452 -40.518  42.814  1.00  0.00    -0.000 C 
BRANCH  24  25
ATOM     25  C   UNL     1     -11.668 -41.824  42.542  1.00  0.00    -0.000 C 
BRANCH  25  26
ATOM     26  C   UNL     1     -10.533 -41.705  41.507  1.00  0.00    -0.000 C 
BRANCH  26  27
ATOM     27  C   UNL     1      -9.204 -42.297  42.010  1.00  0.00    -0.000 C 
BRANCH  27  28
ATOM     28  C   UNL     1      -7.995 -41.401  41.696  1.00  0.00    -0.000 C 
BRANCH  28  29
ATOM     29  C   UNL     1      -6.682 -41.934  42.298  1.00  0.00    -0.000 C 
BRANCH  29  30
ATOM     30  C   UNL     1      -6.755 -43.430  42.645  1.00  0.00    -0.000 C 
BRANCH  30  31
ATOM     31  C   UNL     1      -6.009 -43.774  43.943  1.00  0.00    -0.003 C 
ATOM     32  C   UNL     1      -4.910 -42.754  44.231  1.00  0.00     0.004 C 
ENDBRANCH  30  31
ENDBRANCH  29  30
ENDBRANCH  28  29
ENDBRANCH  27  28
ENDBRANCH  26  27
ENDBRANCH  25  26
ENDBRANCH  24  25
ENDBRANCH  23  24
ENDBRANCH  22  23
ENDBRANCH  21  22
ENDBRANCH  20  21
ENDBRANCH  19  20
ENDBRANCH  18  19
ENDBRANCH   1  18
TORSDOF 28
ENDMDL
MODEL 6
REMARK VINA RESULT:    -5.027      4.033      8.061
REMARK INTER + INTRA:         -17.885
REMARK INTER:                 -13.956
REMARK INTRA:                  -3.929
REMARK UNBOUND:                -4.628
REMARK SMILES CCCCCCCCCCCCCCCCCCCCCCCCCCCCCC(=O)[O-]
REMARK SMILES IDX 16 1 17 2 18 3 19 4 20 5 21 6 22 7 23 8 24 9 25 10 26 11
REMARK SMILES IDX 27 12 28 13 29 14 30 15 31 16 32 17 15 18 14 19 13 20 12 21
REMARK SMILES IDX 11 22 10 23 9 24 8 25 7 26 6 27 5 28 4 29 3 30 2 31 1 32
REMARK H PARENT
REMARK Flexibility Score: inf
ROOT
ATOM      1  C   UNL     1      -8.034 -44.349  42.772  1.00  0.00     0.000 C 
ENDROOT
BRANCH   1   2
ATOM      2  C   UNL     1      -6.589 -43.859  42.972  1.00  0.00     0.000 C 
BRANCH   2   3
ATOM      3  C   UNL     1      -6.474 -42.328  43.038  1.00  0.00     0.000 C 
BRANCH   3   4
ATOM      4  C   UNL     1      -7.411 -41.668  42.014  1.00  0.00     0.000 C 
BRANCH   4   5
ATOM      5  C   UNL     1      -8.017 -40.354  42.532  1.00  0.00     0.000 C 
BRANCH   5   6
ATOM      6  C   UNL     1      -8.596 -40.486  43.947  1.00  0.00     0.000 C 
BRANCH   6   7
ATOM      7  C   UNL     1      -8.095 -39.345  44.845  1.00  0.00     0.000 C 
BRANCH   7   8
ATOM      8  C   UNL     1      -8.470 -37.955  44.308  1.00  0.00     0.000 C 
BRANCH   8   9
ATOM      9  C   UNL     1      -9.759 -37.400  44.943  1.00  0.00     0.000 C 
BRANCH   9  10
ATOM     10  C   UNL     1     -10.458 -36.373  44.030  1.00  0.00     0.000 C 
BRANCH  10  11
ATOM     11  C   UNL     1     -10.420 -34.935  44.576  1.00  0.00     0.000 C 
BRANCH  11  12
ATOM     12  C   UNL     1      -9.843 -33.929  43.568  1.00  0.00     0.000 C 
BRANCH  12  13
ATOM     13  C   UNL     1      -9.994 -34.402  42.113  1.00  0.00     0.006 C 
BRANCH  13  14
ATOM     14  C   UNL     1      -9.622 -33.312  41.099  1.00  0.00     0.053 C 
BRANCH  14  15
ATOM     15  C   UNL     1      -8.236 -32.810  41.357  1.00  0.00     0.041 C 
ATOM     16  O   UNL     1      -8.055 -31.622  41.732  1.00  0.00    -0.550 OA
ATOM     17  O   UNL     1      -7.144 -33.641  41.145  1.00  0.00    -0.550 OA
ENDBRANCH  14  15
ENDBRANCH  13  14
ENDBRANCH  12  13
ENDBRANCH  11  12
ENDBRANCH  10  11
ENDBRANCH   9  10
ENDBRANCH   8   9
ENDBRANCH   7   8
ENDBRANCH   6   7
ENDBRANCH   5   6
ENDBRANCH   4   5
ENDBRANCH   3   4
ENDBRANCH   2   3
ENDBRANCH   1   2
BRANCH   1  18
ATOM     18  C   UNL     1      -8.209 -45.485  41.742  1.00  0.00     0.000 C 
BRANCH  18  19
ATOM     19  C   UNL     1      -9.623 -45.627  41.152  1.00  0.00     0.000 C 
BRANCH  19  20
ATOM     20  C   UNL     1     -10.720 -45.699  42.229  1.00  0.00     0.000 C 
BRANCH  20  21
ATOM     21  C   UNL     1     -11.746 -44.563  42.084  1.00  0.00     0.000 C 
BRANCH  21  22
ATOM     22  C   UNL     1     -11.287 -43.488  41.081  1.00  0.00     0.000 C 
BRANCH  22  23
ATOM     23  C   UNL     1     -11.091 -42.113  41.747  1.00  0.00     0.000 C 
BRANCH  23  24
ATOM     24  C   UNL     1     -12.176 -41.073  41.392  1.00  0.00    -0.000 C 
BRANCH  24  25
ATOM     25  C   UNL     1     -12.443 -40.002  42.476  1.00  0.00    -0.000 C 
BRANCH  25  26
ATOM     26  C   UNL     1     -11.832 -40.300  43.859  1.00  0.00    -0.000 C 
BRANCH  26  27
ATOM     27  C   UNL     1     -12.661 -41.311  44.672  1.00  0.00    -0.000 C 
BRANCH  27  28
ATOM     28  C   UNL     1     -12.196 -41.427  46.133  1.00  0.00    -0.000 C 
BRANCH  28  29
ATOM     29  C   UNL     1     -11.370 -40.213  46.595  1.00  0.00    -0.000 C 
BRANCH  29  30
ATOM     30  C   UNL     1     -11.067 -40.243  48.103  1.00  0.00    -0.000 C 
BRANCH  30  31
ATOM     31  C   UNL     1      -9.828 -39.415  48.474  1.00  0.00    -0.003 C 
ATOM     32  C   UNL     1      -8.549 -40.227  48.289  1.00  0.00     0.004 C 
ENDBRANCH  30  31
ENDBRANCH  29  30
ENDBRANCH  28  29
ENDBRANCH  27  28
ENDBRANCH  26  27
ENDBRANCH  25  26
ENDBRANCH  24  25
ENDBRANCH  23  24
ENDBRANCH  22  23
ENDBRANCH  21  22
ENDBRANCH  20  21
ENDBRANCH  19  20
ENDBRANCH  18  19
ENDBRANCH   1  18
TORSDOF 28
ENDMDL
MODEL 7
REMARK VINA RESULT:    -5.027      2.091      4.059
REMARK INTER + INTRA:         -17.884
REMARK INTER:                 -13.444
REMARK INTRA:                  -4.441
REMARK UNBOUND:                -4.628
REMARK SMILES CCCCCCCCCCCCCCCCCCCCCCCCCCCCCC(=O)[O-]
REMARK SMILES IDX 16 1 17 2 18 3 19 4 20 5 21 6 22 7 23 8 24 9 25 10 26 11
REMARK SMILES IDX 27 12 28 13 29 14 30 15 31 16 32 17 15 18 14 19 13 20 12 21
REMARK SMILES IDX 11 22 10 23 9 24 8 25 7 26 6 27 5 28 4 29 3 30 2 31 1 32
REMARK H PARENT
REMARK Flexibility Score: inf
ROOT
ATOM      1  C   UNL     1      -9.060 -33.256  40.849  1.00  0.00     0.000 C 
ENDROOT
BRANCH   1   2
ATOM      2  C   UNL     1      -7.768 -32.726  41.498  1.00  0.00     0.000 C 
BRANCH   2   3
ATOM      3  C   UNL     1      -7.743 -31.196  41.629  1.00  0.00     0.000 C 
BRANCH   3   4
ATOM      4  C   UNL     1      -7.301 -30.778  43.040  1.00  0.00     0.000 C 
BRANCH   4   5
ATOM      5  C   UNL     1      -6.919 -31.981  43.918  1.00  0.00     0.000 C 
BRANCH   5   6
ATOM      6  C   UNL     1      -5.782 -31.661  44.897  1.00  0.00     0.000 C 
BRANCH   6   7
ATOM      7  C   UNL     1      -5.322 -30.205  44.734  1.00  0.00     0.000 C 
BRANCH   7   8
ATOM      8  C   UNL     1      -4.302 -29.779  45.802  1.00  0.00     0.000 C 
BRANCH   8   9
ATOM      9  C   UNL     1      -4.807 -30.022  47.237  1.00  0.00     0.000 C 
BRANCH   9  10
ATOM     10  C   UNL     1      -5.737 -28.890  47.721  1.00  0.00     0.000 C 
BRANCH  10  11
ATOM     11  C   UNL     1      -7.077 -29.392  48.287  1.00  0.00     0.000 C 
BRANCH  11  12
ATOM     12  C   UNL     1      -8.158 -29.553  47.206  1.00  0.00     0.000 C 
BRANCH  12  13
ATOM     13  C   UNL     1      -8.628 -31.010  47.056  1.00  0.00     0.006 C 
BRANCH  13  14
ATOM     14  C   UNL     1      -8.537 -31.795  48.371  1.00  0.00     0.053 C 
BRANCH  14  15
ATOM     15  C   UNL     1      -9.487 -32.951  48.355  1.00  0.00     0.041 C 
ATOM     16  O   UNL     1      -9.262 -33.944  47.615  1.00  0.00    -0.550 OA
ATOM     17  O   UNL     1     -10.642 -32.913  49.127  1.00  0.00    -0.550 OA
ENDBRANCH  14  15
ENDBRANCH  13  14
ENDBRANCH  12  13
ENDBRANCH  11  12
ENDBRANCH  10  11
ENDBRANCH   9  10
ENDBRANCH   8   9
ENDBRANCH   7   8
ENDBRANCH   6   7
ENDBRANCH   5   6
ENDBRANCH   4   5
ENDBRANCH   3   4
ENDBRANCH   2   3
ENDBRANCH   1   2
BRANCH   1  18
ATOM     18  C   UNL     1      -9.979 -34.074  41.782  1.00  0.00     0.000 C 
BRANCH  18  19
ATOM     19  C   UNL     1     -10.568 -33.296  42.972  1.00  0.00     0.000 C 
BRANCH  19  20
ATOM     20  C   UNL     1     -10.100 -33.837  44.334  1.00  0.00     0.000 C 
BRANCH  20  21
ATOM     21  C   UNL     1      -9.665 -35.310  44.251  1.00  0.00     0.000 C 
BRANCH  21  22
ATOM     22  C   UNL     1     -10.600 -36.239  45.047  1.00  0.00     0.000 C 
BRANCH  22  23
ATOM     23  C   UNL     1     -10.799 -37.601  44.354  1.00  0.00     0.000 C 
BRANCH  23  24
ATOM     24  C   UNL     1      -9.586 -38.550  44.452  1.00  0.00    -0.000 C 
BRANCH  24  25
ATOM     25  C   UNL     1      -9.911 -40.054  44.302  1.00  0.00    -0.000 C 
BRANCH  25  26
ATOM     26  C   UNL     1     -11.412 -40.402  44.266  1.00  0.00    -0.000 C 
BRANCH  26  27
ATOM     27  C   UNL     1     -11.896 -41.087  45.558  1.00  0.00    -0.000 C 
BRANCH  27  28
ATOM     28  C   UNL     1     -12.179 -40.089  46.692  1.00  0.00    -0.000 C 
BRANCH  28  29
ATOM     29  C   UNL     1     -11.125 -40.143  47.813  1.00  0.00    -0.000 C 
BRANCH  29  30
ATOM     30  C   UNL     1     -10.573 -38.753  48.173  1.00  0.00    -0.000 C 
BRANCH  30  31
ATOM     31  C   UNL     1      -9.047 -38.663  48.014  1.00  0.00    -0.003 C 
ATOM     32  C   UNL     1      -8.409 -40.049  48.048  1.00  0.00     0.004 C 
ENDBRANCH  30  31
ENDBRANCH  29  30
ENDBRANCH  28  29
ENDBRANCH  27  28
ENDBRANCH  26  27
ENDBRANCH  25  26
ENDBRANCH  24  25
ENDBRANCH  23  24
ENDBRANCH  22  23
ENDBRANCH  21  22
ENDBRANCH  20  21
ENDBRANCH  19  20
ENDBRANCH  18  19
ENDBRANCH   1  18
TORSDOF 28
ENDMDL
MODEL 8
REMARK VINA RESULT:    -5.008      2.627      4.637
REMARK INTER + INTRA:         -17.833
REMARK INTER:                 -13.840
REMARK INTRA:                  -3.993
REMARK UNBOUND:                -4.628
REMARK SMILES CCCCCCCCCCCCCCCCCCCCCCCCCCCCCC(=O)[O-]
REMARK SMILES IDX 16 1 17 2 18 3 19 4 20 5 21 6 22 7 23 8 24 9 25 10 26 11
REMARK SMILES IDX 27 12 28 13 29 14 30 15 31 16 32 17 15 18 14 19 13 20 12 21
REMARK SMILES IDX 11 22 10 23 9 24 8 25 7 26 6 27 5 28 4 29 3 30 2 31 1 32
REMARK H PARENT
REMARK Flexibility Score: inf
ROOT
ATOM      1  C   UNL     1      -8.760 -38.149  46.091  1.00  0.00     0.000 C 
ENDROOT
BRANCH   1   2
ATOM      2  C   UNL     1      -8.965 -37.951  44.578  1.00  0.00     0.000 C 
BRANCH   2   3
ATOM      3  C   UNL     1     -10.178 -37.069  44.244  1.00  0.00     0.000 C 
BRANCH   3   4
ATOM      4  C   UNL     1     -10.218 -35.833  45.155  1.00  0.00     0.000 C 
BRANCH   4   5
ATOM      5  C   UNL     1     -10.460 -34.532  44.372  1.00  0.00     0.000 C 
BRANCH   5   6
ATOM      6  C   UNL     1     -10.243 -34.701  42.863  1.00  0.00     0.000 C 
BRANCH   6   7
ATOM      7  C   UNL     1     -10.255 -33.335  42.158  1.00  0.00     0.000 C 
BRANCH   7   8
ATOM      8  C   UNL     1      -9.244 -33.251  41.004  1.00  0.00     0.000 C 
BRANCH   8   9
ATOM      9  C   UNL     1      -7.791 -33.113  41.495  1.00  0.00     0.000 C 
BRANCH   9  10
ATOM     10  C   UNL     1      -7.632 -31.966  42.515  1.00  0.00     0.000 C 
BRANCH  10  11
ATOM     11  C   UNL     1      -7.402 -32.450  43.957  1.00  0.00     0.000 C 
BRANCH  11  12
ATOM     12  C   UNL     1      -6.551 -31.473  44.785  1.00  0.00     0.000 C 
BRANCH  12  13
ATOM     13  C   UNL     1      -6.363 -30.118  44.083  1.00  0.00     0.006 C 
BRANCH  13  14
ATOM     14  C   UNL     1      -5.027 -29.453  44.438  1.00  0.00     0.053 C 
BRANCH  14  15
ATOM     15  C   UNL     1      -5.034 -28.993  45.863  1.00  0.00     0.041 C 
ATOM     16  O   UNL     1      -5.709 -27.985  46.198  1.00  0.00    -0.550 OA
ATOM     17  O   UNL     1      -4.264 -29.655  46.811  1.00  0.00    -0.550 OA
ENDBRANCH  14  15
ENDBRANCH  13  14
ENDBRANCH  12  13
ENDBRANCH  11  12
ENDBRANCH  10  11
ENDBRANCH   9  10
ENDBRANCH   8   9
ENDBRANCH   7   8
ENDBRANCH   6   7
ENDBRANCH   5   6
ENDBRANCH   4   5
ENDBRANCH   3   4
ENDBRANCH   2   3
ENDBRANCH   1   2
BRANCH   1  18
ATOM     18  C   UNL     1      -8.670 -39.618  46.558  1.00  0.00     0.000 C 
BRANCH  18  19
ATOM     19  C   UNL     1      -9.329 -39.918  47.916  1.00  0.00     0.000 C 
BRANCH  19  20
ATOM     20  C   UNL     1     -10.223 -38.771  48.417  1.00  0.00     0.000 C 
BRANCH  20  21
ATOM     21  C   UNL     1     -11.718 -39.089  48.245  1.00  0.00     0.000 C 
BRANCH  21  22
ATOM     22  C   UNL     1     -12.355 -38.291  47.092  1.00  0.00     0.000 C 
BRANCH  22  23
ATOM     23  C   UNL     1     -13.105 -39.198  46.098  1.00  0.00     0.000 C 
BRANCH  23  24
ATOM     24  C   UNL     1     -12.189 -39.995  45.145  1.00  0.00    -0.000 C 
BRANCH  24  25
ATOM     25  C   UNL     1     -12.471 -39.795  43.638  1.00  0.00    -0.000 C 
BRANCH  25  26
ATOM     26  C   UNL     1     -11.417 -40.393  42.687  1.00  0.00    -0.000 C 
BRANCH  26  27
ATOM     27  C   UNL     1     -10.329 -41.192  43.429  1.00  0.00    -0.000 C 
BRANCH  27  28
ATOM     28  C   UNL     1      -8.946 -41.070  42.770  1.00  0.00    -0.000 C 
BRANCH  28  29
ATOM     29  C   UNL     1      -8.826 -41.890  41.473  1.00  0.00    -0.000 C 
BRANCH  29  30
ATOM     30  C   UNL     1      -9.257 -43.355  41.658  1.00  0.00    -0.000 C 
BRANCH  30  31
ATOM     31  C   UNL     1     -10.088 -43.880  40.478  1.00  0.00    -0.003 C 
ATOM     32  C   UNL     1     -10.829 -42.743  39.779  1.00  0.00     0.004 C 
ENDBRANCH  30  31
ENDBRANCH  29  30
ENDBRANCH  28  29
ENDBRANCH  27  28
ENDBRANCH  26  27
ENDBRANCH  25  26
ENDBRANCH  24  25
ENDBRANCH  23  24
ENDBRANCH  22  23
ENDBRANCH  21  22
ENDBRANCH  20  21
ENDBRANCH  19  20
ENDBRANCH  18  19
ENDBRANCH   1  18
TORSDOF 28
ENDMDL
MODEL 9
REMARK VINA RESULT:    -4.971      1.887      2.797
REMARK INTER + INTRA:         -17.737
REMARK INTER:                 -13.291
REMARK INTRA:                  -4.446
REMARK UNBOUND:                -4.628
REMARK SMILES CCCCCCCCCCCCCCCCCCCCCCCCCCCCCC(=O)[O-]
REMARK SMILES IDX 16 1 17 2 18 3 19 4 20 5 21 6 22 7 23 8 24 9 25 10 26 11
REMARK SMILES IDX 27 12 28 13 29 14 30 15 31 16 32 17 15 18 14 19 13 20 12 21
REMARK SMILES IDX 11 22 10 23 9 24 8 25 7 26 6 27 5 28 4 29 3 30 2 31 1 32
REMARK H PARENT
REMARK Flexibility Score: inf
ROOT
ATOM      1  C   UNL     1     -10.535 -34.947  44.640  1.00  0.00     0.000 C 
ENDROOT
BRANCH   1   2
ATOM      2  C   UNL     1      -9.909 -34.887  43.235  1.00  0.00     0.000 C 
BRANCH   2   3
ATOM      3  C   UNL     1     -10.346 -33.653  42.431  1.00  0.00     0.000 C 
BRANCH   3   4
ATOM      4  C   UNL     1      -9.588 -33.577  41.096  1.00  0.00     0.000 C 
BRANCH   4   5
ATOM      5  C   UNL     1      -8.156 -33.044  41.262  1.00  0.00     0.000 C 
BRANCH   5   6
ATOM      6  C   UNL     1      -8.096 -31.511  41.293  1.00  0.00     0.000 C 
BRANCH   6   7
ATOM      7  C   UNL     1      -7.353 -31.025  42.548  1.00  0.00     0.000 C 
BRANCH   7   8
ATOM      8  C   UNL     1      -7.239 -32.110  43.630  1.00  0.00     0.000 C 
BRANCH   8   9
ATOM      9  C   UNL     1      -6.295 -31.707  44.778  1.00  0.00     0.000 C 
BRANCH   9  10
ATOM     10  C   UNL     1      -6.892 -32.040  46.161  1.00  0.00     0.000 C 
BRANCH  10  11
ATOM     11  C   UNL     1      -8.198 -31.287  46.468  1.00  0.00     0.000 C 
BRANCH  11  12
ATOM     12  C   UNL     1      -8.438 -31.098  47.974  1.00  0.00     0.000 C 
BRANCH  12  13
ATOM     13  C   UNL     1      -9.627 -31.927  48.488  1.00  0.00     0.006 C 
BRANCH  13  14
ATOM     14  C   UNL     1     -10.569 -31.111  49.383  1.00  0.00     0.053 C 
BRANCH  14  15
ATOM     15  C   UNL     1     -10.245 -31.338  50.826  1.00  0.00     0.041 C 
ATOM     16  O   UNL     1      -9.623 -30.460  51.480  1.00  0.00    -0.550 OA
ATOM     17  O   UNL     1     -10.594 -32.536  51.438  1.00  0.00    -0.550 OA
ENDBRANCH  14  15
ENDBRANCH  13  14
ENDBRANCH  12  13
ENDBRANCH  11  12
ENDBRANCH  10  11
ENDBRANCH   9  10
ENDBRANCH   8   9
ENDBRANCH   7   8
ENDBRANCH   6   7
ENDBRANCH   5   6
ENDBRANCH   4   5
ENDBRANCH   3   4
ENDBRANCH   2   3
ENDBRANCH   1   2
BRANCH   1  18
ATOM     18  C   UNL     1      -9.580 -34.602  45.803  1.00  0.00     0.000 C 
BRANCH  18  19
ATOM     19  C   UNL     1      -9.972 -35.185  47.172  1.00  0.00     0.000 C 
BRANCH  19  20
ATOM     20  C   UNL     1     -11.086 -36.242  47.078  1.00  0.00     0.000 C 
BRANCH  20  21
ATOM     21  C   UNL     1     -11.624 -36.637  48.463  1.00  0.00     0.000 C 
BRANCH  21  22
ATOM     22  C   UNL     1     -12.047 -38.117  48.524  1.00  0.00     0.000 C 
BRANCH  22  23
ATOM     23  C   UNL     1     -12.702 -38.592  47.213  1.00  0.00     0.000 C 
BRANCH  23  24
ATOM     24  C   UNL     1     -12.293 -40.015  46.776  1.00  0.00    -0.000 C 
BRANCH  24  25
ATOM     25  C   UNL     1     -12.357 -40.281  45.253  1.00  0.00    -0.000 C 
BRANCH  25  26
ATOM     26  C   UNL     1     -11.115 -40.969  44.654  1.00  0.00    -0.000 C 
BRANCH  26  27
ATOM     27  C   UNL     1     -10.281 -40.025  43.767  1.00  0.00    -0.000 C 
BRANCH  27  28
ATOM     28  C   UNL     1     -10.173 -38.605  44.346  1.00  0.00    -0.000 C 
BRANCH  28  29
ATOM     29  C   UNL     1      -8.772 -38.291  44.902  1.00  0.00    -0.000 C 
BRANCH  29  30
ATOM     30  C   UNL     1      -8.308 -39.315  45.950  1.00  0.00    -0.000 C 
BRANCH  30  31
ATOM     31  C   UNL     1      -8.614 -38.872  47.388  1.00  0.00    -0.003 C 
ATOM     32  C   UNL     1      -8.784 -40.077  48.310  1.00  0.00     0.004 C 
ENDBRANCH  30  31
ENDBRANCH  29  30
ENDBRANCH  28  29
ENDBRANCH  27  28
ENDBRANCH  26  27
ENDBRANCH  25  26
ENDBRANCH  24  25
ENDBRANCH  23  24
ENDBRANCH  22  23
ENDBRANCH  21  22
ENDBRANCH  20  21
ENDBRANCH  19  20
ENDBRANCH  18  19
ENDBRANCH   1  18
TORSDOF 28
ENDMDL
