MODEL 1
REMARK VINA RESULT:    -0.063      0.000      0.000
REMARK INTER + INTRA:           0.150
REMARK INTER:                  -0.085
REMARK INTRA:                   0.235
REMARK UNBOUND:                 0.235
REMARK SMILES O=c1c(-c2ccc(O)cc2)coc2c([C@@H]3O[C@H](CO)[C@H](O)[C@@H](O)[C@@H]3O)c(O)ccc12
REMARK SMILES IDX 3 1 11 2 12 3 13 4 30 5 2 6 1 7 29 8 28 9 26 10 14 11 4 12
REMARK SMILES IDX 5 13 6 14 7 15 10 16 9 17 8 18 15 20 24 21 16 22 22 23 17 24
REMARK SMILES IDX 20 25 25 26 23 28 18 30 19 31 21 33 27 35
REMARK H PARENT 8 19 25 27 23 29 19 32 21 34 27 36
REMARK Flexibility Score: inf
ROOT
ATOM      1  C   UNL     1       2.835  -4.670  -9.432  1.00  0.00     0.065 A 
ATOM      2  C   UNL     1       1.476  -4.697  -9.773  1.00  0.00     0.208 A 
ATOM      3  O   UNL     1       0.717  -3.617  -9.635  1.00  0.00    -0.463 OA
ATOM      4  C   UNL     1       1.176  -2.456  -9.176  1.00  0.00     0.147 A 
ATOM      5  C   UNL     1       2.541  -2.336  -8.820  1.00  0.00     0.066 A 
ATOM      6  C   UNL     1       3.374  -3.461  -8.956  1.00  0.00     0.200 A 
ATOM      7  O   UNL     1       4.603  -3.382  -8.673  1.00  0.00    -0.288 OA
ATOM      8  C   UNL     1       3.031  -1.106  -8.357  1.00  0.00     0.020 A 
ATOM      9  C   UNL     1       2.184  -0.004  -8.258  1.00  0.00     0.047 A 
ATOM     10  C   UNL     1       0.833  -0.110  -8.609  1.00  0.00     0.125 A 
ATOM     11  C   UNL     1       0.305  -1.345  -9.050  1.00  0.00     0.069 A 
ENDROOT
BRANCH   1  12
ATOM     12  C   UNL     1       3.663  -5.893  -9.588  1.00  0.00    -0.011 A 
ATOM     13  C   UNL     1       5.056  -5.798  -9.760  1.00  0.00     0.013 A 
ATOM     14  C   UNL     1       5.832  -6.954  -9.896  1.00  0.00     0.047 A 
ATOM     15  C   UNL     1       5.229  -8.215  -9.858  1.00  0.00     0.115 A 
ATOM     16  C   UNL     1       3.065  -7.165  -9.543  1.00  0.00     0.013 A 
ATOM     17  C   UNL     1       3.843  -8.318  -9.679  1.00  0.00     0.047 A 
BRANCH  15  18
ATOM     18  O   UNL     1       6.015  -9.356  -9.995  1.00  0.00    -0.508 OA
ATOM     19  H   UNL     1       7.007  -9.344  -9.787  1.00  0.00     0.293 HD
ENDBRANCH  15  18
ENDBRANCH   1  12
BRANCH  11  20
ATOM     20  C   UNL     1      -1.162  -1.438  -9.451  1.00  0.00     0.188 C 
ATOM     21  C   UNL     1      -1.922  -2.404  -8.513  1.00  0.00     0.179 C 
ATOM     22  O   UNL     1      -1.757  -0.148  -9.443  1.00  0.00    -0.362 OA
ATOM     23  C   UNL     1      -3.413  -2.464  -8.912  1.00  0.00     0.177 C 
ATOM     24  C   UNL     1      -3.071  -0.198  -9.973  1.00  0.00     0.176 C 
ATOM     25  C   UNL     1      -3.993  -1.046  -9.064  1.00  0.00     0.177 C 
BRANCH  21  26
ATOM     26  O   UNL     1      -1.799  -1.979  -7.179  1.00  0.00    -0.387 OA
ATOM     27  H   UNL     1      -1.105  -1.269  -7.167  1.00  0.00     0.211 HD
ENDBRANCH  21  26
BRANCH  23  28
ATOM     28  O   UNL     1      -3.561  -3.159 -10.125  1.00  0.00    -0.387 OA
ATOM     29  H   UNL     1      -4.333  -3.771 -10.014  1.00  0.00     0.211 HD
ENDBRANCH  23  28
BRANCH  24  30
ATOM     30  C   UNL     1      -3.601   1.235 -10.124  1.00  0.00     0.191 C 
BRANCH  30  31
ATOM     31  O   UNL     1      -4.908   1.328  -9.623  1.00  0.00    -0.394 OA
ATOM     32  H   UNL     1      -4.872   1.030  -8.677  1.00  0.00     0.210 HD
ENDBRANCH  30  31
ENDBRANCH  24  30
BRANCH  25  33
ATOM     33  O   UNL     1      -4.110  -0.456  -7.792  1.00  0.00    -0.388 OA
ATOM     34  H   UNL     1      -5.014  -0.049  -7.739  1.00  0.00     0.211 HD
ENDBRANCH  25  33
ENDBRANCH  11  20
BRANCH  10  35
ATOM     35  O   UNL     1       0.013   1.015  -8.523  1.00  0.00    -0.507 OA
ATOM     36  H   UNL     1       0.369   1.911  -8.208  1.00  0.00     0.293 HD
ENDBRANCH  10  35
TORSDOF 9
ENDMDL
MODEL 2
REMARK VINA RESULT:     0.281     11.309     13.511
REMARK INTER + INTRA:           0.615
REMARK INTER:                  -0.128
REMARK INTRA:                   0.742
REMARK UNBOUND:                 0.235
REMARK SMILES O=c1c(-c2ccc(O)cc2)coc2c([C@@H]3O[C@H](CO)[C@H](O)[C@@H](O)[C@@H]3O)c(O)ccc12
REMARK SMILES IDX 3 1 11 2 12 3 13 4 30 5 2 6 1 7 29 8 28 9 26 10 14 11 4 12
REMARK SMILES IDX 5 13 6 14 7 15 10 16 9 17 8 18 15 20 24 21 16 22 22 23 17 24
REMARK SMILES IDX 20 25 25 26 23 28 18 30 19 31 21 33 27 35
REMARK H PARENT 8 19 25 27 23 29 19 32 21 34 27 36
REMARK Flexibility Score: inf
ROOT
ATOM      1  C   UNL     1      -0.093   3.797   0.993  1.00  0.00     0.065 A 
ATOM      2  C   UNL     1      -1.315   4.406   0.680  1.00  0.00     0.208 A 
ATOM      3  O   UNL     1      -1.395   5.717   0.487  1.00  0.00    -0.463 OA
ATOM      4  C   UNL     1      -0.347   6.532   0.575  1.00  0.00     0.147 A 
ATOM      5  C   UNL     1       0.929   6.000   0.875  1.00  0.00     0.066 A 
ATOM      6  C   UNL     1       1.049   4.613   1.083  1.00  0.00     0.200 A 
ATOM      7  O   UNL     1       2.178   4.101   1.326  1.00  0.00    -0.288 OA
ATOM      8  C   UNL     1       2.038   6.855   0.946  1.00  0.00     0.020 A 
ATOM      9  C   UNL     1       1.889   8.220   0.711  1.00  0.00     0.047 A 
ATOM     10  C   UNL     1       0.632   8.759   0.411  1.00  0.00     0.125 A 
ATOM     11  C   UNL     1      -0.508   7.924   0.363  1.00  0.00     0.069 A 
ENDROOT
BRANCH   1  12
ATOM     12  C   UNL     1      -0.030   2.330   1.211  1.00  0.00    -0.011 A 
ATOM     13  C   UNL     1      -0.481   1.765   2.418  1.00  0.00     0.013 A 
ATOM     14  C   UNL     1      -0.429   0.381   2.614  1.00  0.00     0.047 A 
ATOM     15  C   UNL     1       0.068  -0.454   1.609  1.00  0.00     0.115 A 
ATOM     16  C   UNL     1       0.461   1.483   0.202  1.00  0.00     0.013 A 
ATOM     17  C   UNL     1       0.512   0.100   0.401  1.00  0.00     0.047 A 
BRANCH  15  18
ATOM     18  O   UNL     1       0.114  -1.830   1.819  1.00  0.00    -0.508 OA
ATOM     19  H   UNL     1      -0.520  -2.289   2.463  1.00  0.00     0.293 HD
ENDBRANCH  15  18
ENDBRANCH   1  12
BRANCH  11  20
ATOM     20  C   UNL     1      -1.865   8.521   0.010  1.00  0.00     0.188 C 
ATOM     21  C   UNL     1      -2.374   7.957  -1.337  1.00  0.00     0.179 C 
ATOM     22  O   UNL     1      -2.799   8.271   1.052  1.00  0.00    -0.362 OA
ATOM     23  C   UNL     1      -3.763   8.546  -1.665  1.00  0.00     0.177 C 
ATOM     24  C   UNL     1      -4.014   8.961   0.812  1.00  0.00     0.176 C 
ATOM     25  C   UNL     1      -4.709   8.416  -0.458  1.00  0.00     0.177 C 
BRANCH  21  26
ATOM     26  O   UNL     1      -2.450   6.555  -1.275  1.00  0.00    -0.387 OA
ATOM     27  H   UNL     1      -2.982   6.331  -0.467  1.00  0.00     0.211 HD
ENDBRANCH  21  26
BRANCH  23  28
ATOM     28  O   UNL     1      -3.642   9.902  -2.017  1.00  0.00    -0.387 OA
ATOM     29  H   UNL     1      -4.153  10.422  -1.343  1.00  0.00     0.211 HD
ENDBRANCH  23  28
BRANCH  24  30
ATOM     30  C   UNL     1      -4.916   8.820   2.047  1.00  0.00     0.191 C 
BRANCH  30  31
ATOM     31  O   UNL     1      -6.200   9.314   1.772  1.00  0.00    -0.394 OA
ATOM     32  H   UNL     1      -6.151   9.759   0.886  1.00  0.00     0.210 HD
ENDBRANCH  30  31
ENDBRANCH  24  30
BRANCH  25  33
ATOM     33  O   UNL     1      -5.058   7.064  -0.288  1.00  0.00    -0.388 OA
ATOM     34  H   UNL     1      -4.952   6.620  -1.169  1.00  0.00     0.211 HD
ENDBRANCH  25  33
ENDBRANCH  11  20
BRANCH  10  35
ATOM     35  O   UNL     1       0.516  10.125   0.156  1.00  0.00    -0.507 OA
ATOM     36  H   UNL     1       1.326  10.733   0.127  1.00  0.00     0.293 HD
ENDBRANCH  10  35
TORSDOF 9
ENDMDL
MODEL 3
REMARK VINA RESULT:     0.745     11.148     13.265
REMARK INTER + INTRA:           1.241
REMARK INTER:                  -0.978
REMARK INTRA:                   2.220
REMARK UNBOUND:                 0.235
REMARK SMILES O=c1c(-c2ccc(O)cc2)coc2c([C@@H]3O[C@H](CO)[C@H](O)[C@@H](O)[C@@H]3O)c(O)ccc12
REMARK SMILES IDX 3 1 11 2 12 3 13 4 30 5 2 6 1 7 29 8 28 9 26 10 14 11 4 12
REMARK SMILES IDX 5 13 6 14 7 15 10 16 9 17 8 18 15 20 24 21 16 22 22 23 17 24
REMARK SMILES IDX 20 25 25 26 23 28 18 30 19 31 21 33 27 35
REMARK H PARENT 8 19 25 27 23 29 19 32 21 34 27 36
REMARK Flexibility Score: inf
ROOT
ATOM      1  C   UNL     1       0.708   3.157   0.729  1.00  0.00     0.065 A 
ATOM      2  C   UNL     1      -0.530   3.804   0.833  1.00  0.00     0.208 A 
ATOM      3  O   UNL     1      -0.603   5.127   0.921  1.00  0.00    -0.463 OA
ATOM      4  C   UNL     1       0.466   5.918   0.918  1.00  0.00     0.147 A 
ATOM      5  C   UNL     1       1.756   5.349   0.803  1.00  0.00     0.066 A 
ATOM      6  C   UNL     1       1.870   3.950   0.705  1.00  0.00     0.200 A 
ATOM      7  O   UNL     1       3.004   3.410   0.575  1.00  0.00    -0.288 OA
ATOM      8  C   UNL     1       2.883   6.184   0.776  1.00  0.00     0.020 A 
ATOM      9  C   UNL     1       2.735   7.567   0.850  1.00  0.00     0.047 A 
ATOM     10  C   UNL     1       1.463   8.142   0.962  1.00  0.00     0.125 A 
ATOM     11  C   UNL     1       0.313   7.323   1.021  1.00  0.00     0.069 A 
ENDROOT
BRANCH   1  12
ATOM     12  C   UNL     1       0.765   1.676   0.639  1.00  0.00    -0.011 A 
ATOM     13  C   UNL     1       0.006   0.876   1.512  1.00  0.00     0.013 A 
ATOM     14  C   UNL     1       0.054  -0.518   1.416  1.00  0.00     0.047 A 
ATOM     15  C   UNL     1       0.856  -1.130   0.448  1.00  0.00     0.115 A 
ATOM     16  C   UNL     1       1.563   1.054  -0.337  1.00  0.00     0.013 A 
ATOM     17  C   UNL     1       1.610  -0.340  -0.431  1.00  0.00     0.047 A 
BRANCH  15  18
ATOM     18  O   UNL     1       0.896  -2.520   0.365  1.00  0.00    -0.508 OA
ATOM     19  H   UNL     1       1.734  -3.009   0.072  1.00  0.00     0.293 HD
ENDBRANCH  15  18
ENDBRANCH   1  12
BRANCH  11  20
ATOM     20  C   UNL     1      -1.066   7.966   1.118  1.00  0.00     0.188 C 
ATOM     21  C   UNL     1      -0.971   9.492   0.884  1.00  0.00     0.179 C 
ATOM     22  O   UNL     1      -1.956   7.363   0.189  1.00  0.00    -0.362 OA
ATOM     23  C   UNL     1      -2.379  10.125   0.952  1.00  0.00     0.177 C 
ATOM     24  C   UNL     1      -3.279   7.836   0.383  1.00  0.00     0.176 C 
ATOM     25  C   UNL     1      -3.369   9.348   0.067  1.00  0.00     0.177 C 
BRANCH  21  26
ATOM     26  O   UNL     1      -0.389   9.753  -0.368  1.00  0.00    -0.387 OA
ATOM     27  H   UNL     1       0.482  10.197  -0.194  1.00  0.00     0.211 HD
ENDBRANCH  21  26
BRANCH  23  28
ATOM     28  O   UNL     1      -2.843  10.125   2.279  1.00  0.00    -0.387 OA
ATOM     29  H   UNL     1      -2.071  10.363   2.855  1.00  0.00     0.211 HD
ENDBRANCH  23  28
BRANCH  24  30
ATOM     30  C   UNL     1      -4.232   7.021  -0.504  1.00  0.00     0.191 C 
BRANCH  30  31
ATOM     31  O   UNL     1      -5.385   7.765  -0.792  1.00  0.00    -0.394 OA
ATOM     32  H   UNL     1      -5.088   8.569  -1.293  1.00  0.00     0.210 HD
ENDBRANCH  30  31
ENDBRANCH  24  30
BRANCH  25  33
ATOM     33  O   UNL     1      -3.066   9.587  -1.286  1.00  0.00    -0.388 OA
ATOM     34  H   UNL     1      -3.904   9.887  -1.726  1.00  0.00     0.211 HD
ENDBRANCH  25  33
ENDBRANCH  11  20
BRANCH  10  35
ATOM     35  O   UNL     1       1.342   9.531   1.009  1.00  0.00    -0.507 OA
ATOM     36  H   UNL     1       0.812  10.044   0.314  1.00  0.00     0.293 HD
ENDBRANCH  10  35
TORSDOF 9
ENDMDL
MODEL 4
REMARK VINA RESULT:     2.076      1.757      2.642
REMARK INTER + INTRA:           3.039
REMARK INTER:                   2.374
REMARK INTRA:                   0.665
REMARK UNBOUND:                 0.235
REMARK SMILES O=c1c(-c2ccc(O)cc2)coc2c([C@@H]3O[C@H](CO)[C@H](O)[C@@H](O)[C@@H]3O)c(O)ccc12
REMARK SMILES IDX 3 1 11 2 12 3 13 4 30 5 2 6 1 7 29 8 28 9 26 10 14 11 4 12
REMARK SMILES IDX 5 13 6 14 7 15 10 16 9 17 8 18 15 20 24 21 16 22 22 23 17 24
REMARK SMILES IDX 20 25 25 26 23 28 18 30 19 31 21 33 27 35
REMARK H PARENT 8 19 25 27 23 29 19 32 21 34 27 36
REMARK Flexibility Score: inf
ROOT
ATOM      1  C   UNL     1       1.325  -2.651  -9.599  1.00  0.00     0.065 A 
ATOM      2  C   UNL     1      -0.054  -2.892  -9.673  1.00  0.00     0.208 A 
ATOM      3  O   UNL     1      -0.926  -1.898  -9.560  1.00  0.00    -0.463 OA
ATOM      4  C   UNL     1      -0.568  -0.631  -9.372  1.00  0.00     0.147 A 
ATOM      5  C   UNL     1       0.805  -0.296  -9.298  1.00  0.00     0.066 A 
ATOM      6  C   UNL     1       1.757  -1.326  -9.417  1.00  0.00     0.200 A 
ATOM      7  O   UNL     1       2.991  -1.059  -9.382  1.00  0.00    -0.288 OA
ATOM      8  C   UNL     1       1.185   1.043  -9.123  1.00  0.00     0.020 A 
ATOM      9  C   UNL     1       0.217   2.041  -9.034  1.00  0.00     0.047 A 
ATOM     10  C   UNL     1      -1.144   1.723  -9.108  1.00  0.00     0.125 A 
ATOM     11  C   UNL     1      -1.555   0.379  -9.254  1.00  0.00     0.069 A 
ENDROOT
BRANCH   1  12
ATOM     12  C   UNL     1       2.281  -3.781  -9.721  1.00  0.00    -0.011 A 
ATOM     13  C   UNL     1       1.823  -5.081 -10.001  1.00  0.00     0.013 A 
ATOM     14  C   UNL     1       2.729  -6.139 -10.125  1.00  0.00     0.047 A 
ATOM     15  C   UNL     1       4.101  -5.913  -9.976  1.00  0.00     0.115 A 
ATOM     16  C   UNL     1       3.663  -3.559  -9.580  1.00  0.00     0.013 A 
ATOM     17  C   UNL     1       4.566  -4.619  -9.705  1.00  0.00     0.047 A 
BRANCH  15  18
ATOM     18  O   UNL     1       4.990  -6.976 -10.102  1.00  0.00    -0.508 OA
ATOM     19  H   UNL     1       5.524  -7.122 -10.951  1.00  0.00     0.293 HD
ENDBRANCH  15  18
ENDBRANCH   1  12
BRANCH  11  20
ATOM     20  C   UNL     1      -3.040   0.052  -9.358  1.00  0.00     0.188 C 
ATOM     21  C   UNL     1      -3.342  -1.318  -8.705  1.00  0.00     0.179 C 
ATOM     22  O   UNL     1      -3.814   1.082  -8.760  1.00  0.00    -0.362 OA
ATOM     23  C   UNL     1      -4.854  -1.621  -8.790  1.00  0.00     0.177 C 
ATOM     24  C   UNL     1      -5.197   0.872  -8.995  1.00  0.00     0.176 C 
ATOM     25  C   UNL     1      -5.679  -0.420  -8.293  1.00  0.00     0.177 C 
BRANCH  21  26
ATOM     26  O   UNL     1      -2.928  -1.314  -7.362  1.00  0.00    -0.387 OA
ATOM     27  H   UNL     1      -3.658  -0.895  -6.837  1.00  0.00     0.211 HD
ENDBRANCH  21  26
BRANCH  23  28
ATOM     28  O   UNL     1      -5.214  -1.915 -10.116  1.00  0.00    -0.387 OA
ATOM     29  H   UNL     1      -4.379  -2.154 -10.595  1.00  0.00     0.211 HD
ENDBRANCH  23  28
BRANCH  24  30
ATOM     30  C   UNL     1      -5.976   2.100  -8.502  1.00  0.00     0.191 C 
BRANCH  30  31
ATOM     31  O   UNL     1      -7.240   1.718  -8.029  1.00  0.00    -0.394 OA
ATOM     32  H   UNL     1      -7.229   1.853  -7.045  1.00  0.00     0.210 HD
ENDBRANCH  30  31
ENDBRANCH  24  30
BRANCH  25  33
ATOM     33  O   UNL     1      -5.536  -0.306  -6.898  1.00  0.00    -0.388 OA
ATOM     34  H   UNL     1      -5.287   0.635  -6.704  1.00  0.00     0.211 HD
ENDBRANCH  25  33
ENDBRANCH  11  20
BRANCH  10  35
ATOM     35  O   UNL     1      -2.090   2.746  -9.041  1.00  0.00    -0.507 OA
ATOM     36  H   UNL     1      -2.113   3.402  -8.268  1.00  0.00     0.293 HD
ENDBRANCH  10  35
TORSDOF 9
ENDMDL
