MODEL 1
REMARK VINA RESULT:    -3.917      0.000      0.000
REMARK INTER + INTRA:          -5.317
REMARK INTER:                  -5.177
REMARK INTRA:                  -0.140
REMARK UNBOUND:                -0.140
REMARK SMILES CCCCC=CC=CCO
REMARK SMILES IDX 5 1 6 2 4 3 3 4 2 5 1 6 7 7 8 8 9 9 10 10
REMARK H PARENT 10 11
REMARK Flexibility Score: inf
ROOT
ATOM      1  C   UNL     1     -14.977  -5.503   3.243  1.00  0.00    -0.027 C 
ATOM      2  C   UNL     1     -14.566  -4.253   3.016  1.00  0.00    -0.005 C 
ENDROOT
BRANCH   1   3
ATOM      3  C   UNL     1     -14.092  -6.685   2.967  1.00  0.00     0.027 C 
BRANCH   3   4
ATOM      4  C   UNL     1     -14.018  -7.617   4.185  1.00  0.00     0.004 C 
BRANCH   4   5
ATOM      5  C   UNL     1     -12.804  -8.558   4.133  1.00  0.00    -0.003 C 
ATOM      6  C   UNL     1     -12.130  -8.729   5.494  1.00  0.00     0.004 C 
ENDBRANCH   4   5
ENDBRANCH   3   4
ENDBRANCH   1   3
BRANCH   2   7
ATOM      7  C   UNL     1     -15.449  -3.105   3.276  1.00  0.00    -0.002 C 
ATOM      8  C   UNL     1     -15.435  -2.479   4.454  1.00  0.00     0.001 C 
BRANCH   8   9
ATOM      9  C   UNL     1     -16.338  -1.310   4.714  1.00  0.00     0.183 C 
BRANCH   9  10
ATOM     10  O   UNL     1     -16.252  -0.917   6.057  1.00  0.00    -0.392 OA
ATOM     11  H   UNL     1     -15.866  -0.002   6.061  1.00  0.00     0.210 HD
ENDBRANCH   9  10
ENDBRANCH   8   9
ENDBRANCH   2   7
TORSDOF 6
ENDMDL
MODEL 2
REMARK VINA RESULT:    -3.821      1.120      1.611
REMARK INTER + INTRA:          -5.190
REMARK INTER:                  -4.970
REMARK INTRA:                  -0.220
REMARK UNBOUND:                -0.140
REMARK SMILES CCCCC=CC=CCO
REMARK SMILES IDX 5 1 6 2 4 3 3 4 2 5 1 6 7 7 8 8 9 9 10 10
REMARK H PARENT 10 11
REMARK Flexibility Score: inf
ROOT
ATOM      1  C   UNL     1     -14.844  -6.714   3.928  1.00  0.00    -0.027 C 
ATOM      2  C   UNL     1     -14.641  -5.919   2.875  1.00  0.00    -0.005 C 
ENDROOT
BRANCH   1   3
ATOM      3  C   UNL     1     -14.483  -8.172   3.896  1.00  0.00     0.027 C 
BRANCH   3   4
ATOM      4  C   UNL     1     -13.024  -8.390   4.325  1.00  0.00     0.004 C 
BRANCH   4   5
ATOM      5  C   UNL     1     -12.910  -9.020   5.722  1.00  0.00    -0.003 C 
ATOM      6  C   UNL     1     -11.583  -8.699   6.409  1.00  0.00     0.004 C 
ENDBRANCH   4   5
ENDBRANCH   3   4
ENDBRANCH   1   3
BRANCH   2   7
ATOM      7  C   UNL     1     -15.014  -4.496   2.915  1.00  0.00    -0.002 C 
ATOM      8  C   UNL     1     -15.014  -3.816   4.063  1.00  0.00     0.001 C 
BRANCH   8   9
ATOM      9  C   UNL     1     -15.396  -2.367   4.098  1.00  0.00     0.183 C 
BRANCH   9  10
ATOM     10  O   UNL     1     -14.391  -1.612   4.719  1.00  0.00    -0.392 OA
ATOM     11  H   UNL     1     -13.696  -1.445   4.030  1.00  0.00     0.210 HD
ENDBRANCH   9  10
ENDBRANCH   8   9
ENDBRANCH   2   7
TORSDOF 6
ENDMDL
MODEL 3
REMARK VINA RESULT:    -3.674      2.956      5.838
REMARK INTER + INTRA:          -4.995
REMARK INTER:                  -4.750
REMARK INTRA:                  -0.245
REMARK UNBOUND:                -0.140
REMARK SMILES CCCCC=CC=CCO
REMARK SMILES IDX 5 1 6 2 4 3 3 4 2 5 1 6 7 7 8 8 9 9 10 10
REMARK H PARENT 10 11
REMARK Flexibility Score: inf
ROOT
ATOM      1  C   UNL     1     -14.849  -5.516   3.913  1.00  0.00    -0.027 C 
ATOM      2  C   UNL     1     -15.240  -6.771   3.679  1.00  0.00    -0.005 C 
ENDROOT
BRANCH   1   3
ATOM      3  C   UNL     1     -14.999  -4.439   2.876  1.00  0.00     0.027 C 
BRANCH   3   4
ATOM      4  C   UNL     1     -14.277  -3.153   3.305  1.00  0.00     0.004 C 
BRANCH   4   5
ATOM      5  C   UNL     1     -14.706  -2.676   4.702  1.00  0.00    -0.003 C 
ATOM      6  C   UNL     1     -15.889  -1.710   4.660  1.00  0.00     0.004 C 
ENDBRANCH   4   5
ENDBRANCH   3   4
ENDBRANCH   1   3
BRANCH   2   7
ATOM      7  C   UNL     1     -15.073  -7.819   4.698  1.00  0.00    -0.002 C 
ATOM      8  C   UNL     1     -13.885  -8.049   5.261  1.00  0.00     0.001 C 
BRANCH   8   9
ATOM      9  C   UNL     1     -13.721  -9.120   6.298  1.00  0.00     0.183 C 
BRANCH   9  10
ATOM     10  O   UNL     1     -12.740  -8.750   7.229  1.00  0.00    -0.392 OA
ATOM     11  H   UNL     1     -12.652  -7.763   7.171  1.00  0.00     0.210 HD
ENDBRANCH   9  10
ENDBRANCH   8   9
ENDBRANCH   2   7
TORSDOF 6
ENDMDL
MODEL 4
REMARK VINA RESULT:    -3.644      5.799      7.703
REMARK INTER + INTRA:          -4.955
REMARK INTER:                  -4.581
REMARK INTRA:                  -0.374
REMARK UNBOUND:                -0.140
REMARK SMILES CCCCC=CC=CCO
REMARK SMILES IDX 5 1 6 2 4 3 3 4 2 5 1 6 7 7 8 8 9 9 10 10
REMARK H PARENT 10 11
REMARK Flexibility Score: inf
ROOT
ATOM      1  C   UNL     1     -14.300 -10.112   6.198  1.00  0.00    -0.027 C 
ATOM      2  C   UNL     1     -15.541 -10.130   5.706  1.00  0.00    -0.005 C 
ENDROOT
BRANCH   1   3
ATOM      3  C   UNL     1     -13.582  -8.822   6.475  1.00  0.00     0.027 C 
BRANCH   3   4
ATOM      4  C   UNL     1     -12.165  -8.839   5.883  1.00  0.00     0.004 C 
BRANCH   4   5
ATOM      5  C   UNL     1     -12.154  -9.214   4.393  1.00  0.00    -0.003 C 
ATOM      6  C   UNL     1     -12.758  -8.126   3.505  1.00  0.00     0.004 C 
ENDBRANCH   4   5
ENDBRANCH   3   4
ENDBRANCH   1   3
BRANCH   2   7
ATOM      7  C   UNL     1     -16.227 -11.401   5.425  1.00  0.00    -0.002 C 
ATOM      8  C   UNL     1     -15.637 -12.359   4.708  1.00  0.00     0.001 C 
BRANCH   8   9
ATOM      9  C   UNL     1     -16.341 -13.651   4.424  1.00  0.00     0.183 C 
BRANCH   9  10
ATOM     10  O   UNL     1     -17.596 -13.671   5.049  1.00  0.00    -0.392 OA
ATOM     11  H   UNL     1     -18.183 -13.066   4.525  1.00  0.00     0.210 HD
ENDBRANCH   9  10
ENDBRANCH   8   9
ENDBRANCH   2   7
TORSDOF 6
ENDMDL
MODEL 5
REMARK VINA RESULT:    -3.643     15.867     17.674
REMARK INTER + INTRA:          -4.954
REMARK INTER:                  -4.645
REMARK INTRA:                  -0.309
REMARK UNBOUND:                -0.140
REMARK SMILES CCCCC=CC=CCO
REMARK SMILES IDX 5 1 6 2 4 3 3 4 2 5 1 6 7 7 8 8 9 9 10 10
REMARK H PARENT 10 11
REMARK Flexibility Score: inf
ROOT
ATOM      1  C   UNL     1     -12.029 -14.370  18.015  1.00  0.00    -0.027 C 
ATOM      2  C   UNL     1     -10.777 -14.158  18.428  1.00  0.00    -0.005 C 
ENDROOT
BRANCH   1   3
ATOM      3  C   UNL     1     -13.128 -14.718  18.979  1.00  0.00     0.027 C 
BRANCH   3   4
ATOM      4  C   UNL     1     -12.585 -14.857  20.410  1.00  0.00     0.004 C 
BRANCH   4   5
ATOM      5  C   UNL     1     -13.283 -13.909  21.398  1.00  0.00    -0.003 C 
ATOM      6  C   UNL     1     -14.606 -13.364  20.861  1.00  0.00     0.004 C 
ENDBRANCH   4   5
ENDBRANCH   3   4
ENDBRANCH   1   3
BRANCH   2   7
ATOM      7  C   UNL     1      -9.708 -13.832  17.471  1.00  0.00    -0.002 C 
ATOM      8  C   UNL     1      -9.224 -12.593  17.373  1.00  0.00     0.001 C 
BRANCH   8   9
ATOM      9  C   UNL     1      -8.136 -12.267  16.396  1.00  0.00     0.183 C 
BRANCH   9  10
ATOM     10  O   UNL     1      -8.475 -11.130  15.648  1.00  0.00    -0.392 OA
ATOM     11  H   UNL     1      -7.873 -11.120  14.859  1.00  0.00     0.210 HD
ENDBRANCH   9  10
ENDBRANCH   8   9
ENDBRANCH   2   7
TORSDOF 6
ENDMDL
MODEL 6
REMARK VINA RESULT:    -3.509     16.130     17.823
REMARK INTER + INTRA:          -4.777
REMARK INTER:                  -4.569
REMARK INTRA:                  -0.208
REMARK UNBOUND:                -0.140
REMARK SMILES CCCCC=CC=CCO
REMARK SMILES IDX 5 1 6 2 4 3 3 4 2 5 1 6 7 7 8 8 9 9 10 10
REMARK H PARENT 10 11
REMARK Flexibility Score: inf
ROOT
ATOM      1  C   UNL     1     -11.392 -14.397  18.667  1.00  0.00    -0.027 C 
ATOM      2  C   UNL     1     -12.614 -14.719  18.235  1.00  0.00    -0.005 C 
ENDROOT
BRANCH   1   3
ATOM      3  C   UNL     1     -10.200 -14.432  17.753  1.00  0.00     0.027 C 
BRANCH   3   4
ATOM      4  C   UNL     1      -9.155 -13.385  18.166  1.00  0.00     0.004 C 
BRANCH   4   5
ATOM      5  C   UNL     1      -9.184 -12.138  17.269  1.00  0.00    -0.003 C 
ATOM      6  C   UNL     1      -8.045 -12.115  16.251  1.00  0.00     0.004 C 
ENDBRANCH   4   5
ENDBRANCH   3   4
ENDBRANCH   1   3
BRANCH   2   7
ATOM      7  C   UNL     1     -13.770 -14.696  19.145  1.00  0.00    -0.002 C 
ATOM      8  C   UNL     1     -13.648 -14.271  20.404  1.00  0.00     0.001 C 
BRANCH   8   9
ATOM      9  C   UNL     1     -14.829 -14.251  21.327  1.00  0.00     0.183 C 
BRANCH   9  10
ATOM     10  O   UNL     1     -15.999 -13.947  20.616  1.00  0.00    -0.392 OA
ATOM     11  H   UNL     1     -16.532 -14.784  20.576  1.00  0.00     0.210 HD
ENDBRANCH   9  10
ENDBRANCH   8   9
ENDBRANCH   2   7
TORSDOF 6
ENDMDL
MODEL 7
REMARK VINA RESULT:    -3.200     16.117     18.742
REMARK INTER + INTRA:          -4.369
REMARK INTER:                  -4.198
REMARK INTRA:                  -0.171
REMARK UNBOUND:                -0.140
REMARK SMILES CCCCC=CC=CCO
REMARK SMILES IDX 5 1 6 2 4 3 3 4 2 5 1 6 7 7 8 8 9 9 10 10
REMARK H PARENT 10 11
REMARK Flexibility Score: inf
ROOT
ATOM      1  C   UNL     1     -10.180 -13.434  20.613  1.00  0.00    -0.027 C 
ATOM      2  C   UNL     1      -8.992 -12.847  20.448  1.00  0.00    -0.005 C 
ENDROOT
BRANCH   1   3
ATOM      3  C   UNL     1     -10.865 -13.462  21.950  1.00  0.00     0.027 C 
BRANCH   3   4
ATOM      4  C   UNL     1     -12.265 -14.085  21.842  1.00  0.00     0.004 C 
BRANCH   4   5
ATOM      5  C   UNL     1     -13.385 -13.063  22.092  1.00  0.00    -0.003 C 
ATOM      6  C   UNL     1     -14.696 -13.442  21.405  1.00  0.00     0.004 C 
ENDBRANCH   4   5
ENDBRANCH   3   4
ENDBRANCH   1   3
BRANCH   2   7
ATOM      7  C   UNL     1      -8.325 -12.842  19.137  1.00  0.00    -0.002 C 
ATOM      8  C   UNL     1      -8.957 -12.411  18.044  1.00  0.00     0.001 C 
BRANCH   8   9
ATOM      9  C   UNL     1      -8.273 -12.408  16.710  1.00  0.00     0.183 C 
BRANCH   9  10
ATOM     10  O   UNL     1      -8.671 -11.293  15.960  1.00  0.00    -0.392 OA
ATOM     11  H   UNL     1      -8.565 -11.541  15.004  1.00  0.00     0.210 HD
ENDBRANCH   9  10
ENDBRANCH   8   9
ENDBRANCH   2   7
TORSDOF 6
ENDMDL
MODEL 8
REMARK VINA RESULT:    -3.182     16.799     17.881
REMARK INTER + INTRA:          -4.344
REMARK INTER:                  -3.975
REMARK INTRA:                  -0.369
REMARK UNBOUND:                -0.140
REMARK SMILES CCCCC=CC=CCO
REMARK SMILES IDX 5 1 6 2 4 3 3 4 2 5 1 6 7 7 8 8 9 9 10 10
REMARK H PARENT 10 11
REMARK Flexibility Score: inf
ROOT
ATOM      1  C   UNL     1      -9.698 -13.314  17.450  1.00  0.00    -0.027 C 
ATOM      2  C   UNL     1      -9.940 -14.619  17.598  1.00  0.00    -0.005 C 
ENDROOT
BRANCH   1   3
ATOM      3  C   UNL     1      -8.298 -12.782  17.327  1.00  0.00     0.027 C 
BRANCH   3   4
ATOM      4  C   UNL     1      -7.547 -12.886  18.663  1.00  0.00     0.004 C 
BRANCH   4   5
ATOM      5  C   UNL     1      -8.351 -12.304  19.836  1.00  0.00    -0.003 C 
ATOM      6  C   UNL     1      -8.153 -13.085  21.135  1.00  0.00     0.004 C 
ENDBRANCH   4   5
ENDBRANCH   3   4
ENDBRANCH   1   3
BRANCH   2   7
ATOM      7  C   UNL     1     -11.316 -15.124  17.733  1.00  0.00    -0.002 C 
ATOM      8  C   UNL     1     -12.180 -14.553  18.573  1.00  0.00     0.001 C 
BRANCH   8   9
ATOM      9  C   UNL     1     -13.580 -15.072  18.706  1.00  0.00     0.183 C 
BRANCH   9  10
ATOM     10  O   UNL     1     -14.290 -14.874  17.514  1.00  0.00    -0.392 OA
ATOM     11  H   UNL     1     -13.614 -14.766  16.796  1.00  0.00     0.210 HD
ENDBRANCH   9  10
ENDBRANCH   8   9
ENDBRANCH   2   7
TORSDOF 6
ENDMDL
MODEL 9
REMARK VINA RESULT:    -3.120      5.870      7.402
REMARK INTER + INTRA:          -4.264
REMARK INTER:                  -3.967
REMARK INTRA:                  -0.296
REMARK UNBOUND:                -0.140
REMARK SMILES CCCCC=CC=CCO
REMARK SMILES IDX 5 1 6 2 4 3 3 4 2 5 1 6 7 7 8 8 9 9 10 10
REMARK H PARENT 10 11
REMARK Flexibility Score: inf
ROOT
ATOM      1  C   UNL     1     -16.050 -11.398   5.003  1.00  0.00    -0.027 C 
ATOM      2  C   UNL     1     -14.839 -10.962   4.648  1.00  0.00    -0.005 C 
ENDROOT
BRANCH   1   3
ATOM      3  C   UNL     1     -16.875 -12.258   4.090  1.00  0.00     0.027 C 
BRANCH   3   4
ATOM      4  C   UNL     1     -16.062 -13.453   3.570  1.00  0.00     0.004 C 
BRANCH   4   5
ATOM      5  C   UNL     1     -16.075 -14.642   4.543  1.00  0.00    -0.003 C 
ATOM      6  C   UNL     1     -17.464 -14.923   5.116  1.00  0.00     0.004 C 
ENDBRANCH   4   5
ENDBRANCH   3   4
ENDBRANCH   1   3
BRANCH   2   7
ATOM      7  C   UNL     1     -14.047 -10.106   5.547  1.00  0.00    -0.002 C 
ATOM      8  C   UNL     1     -12.850  -9.646   5.181  1.00  0.00     0.001 C 
BRANCH   8   9
ATOM      9  C   UNL     1     -12.047  -8.775   6.101  1.00  0.00     0.183 C 
BRANCH   9  10
ATOM     10  O   UNL     1     -12.605  -8.779   7.387  1.00  0.00    -0.392 OA
ATOM     11  H   UNL     1     -12.618  -9.725   7.688  1.00  0.00     0.210 HD
ENDBRANCH   9  10
ENDBRANCH   8   9
ENDBRANCH   2   7
TORSDOF 6
ENDMDL
