MODEL 1
REMARK VINA RESULT:    -6.541      0.000      0.000
REMARK INTER + INTRA:          -9.658
REMARK INTER:                  -8.836
REMARK INTRA:                  -0.822
REMARK UNBOUND:                -0.822
REMARK SMILES CC(=O)CCC=C(C)CCC=C(C)C
REMARK SMILES IDX 7 1 6 2 8 3 9 4 10 5 11 6 13 7 12 8 14 9 5 10 4 11 2 12 3 13
REMARK SMILES IDX 1 14
REMARK H PARENT
REMARK Flexibility Score: inf
ROOT
ATOM      1  C   UNL     1      -4.148  28.252  30.374  1.00  0.00    -0.077 C 
ATOM      2  C   UNL     1      -2.871  28.576  30.675  1.00  0.00    -0.028 C 
ATOM      3  C   UNL     1      -4.524  26.883  29.857  1.00  0.00     0.039 C 
ENDROOT
BRANCH   1   4
ATOM      4  C   UNL     1      -5.233  29.287  30.573  1.00  0.00     0.034 C 
BRANCH   4   5
ATOM      5  C   UNL     1      -6.103  29.417  29.318  1.00  0.00     0.032 C 
BRANCH   5   6
ATOM      6  C   UNL     1      -5.968  30.786  28.696  1.00  0.00    -0.028 C 
ATOM      7  C   UNL     1      -3.882  30.130  27.490  1.00  0.00     0.039 C 
ATOM      8  C   UNL     1      -4.961  31.120  27.863  1.00  0.00    -0.080 C 
ATOM      9  C   UNL     1      -4.921  32.516  27.297  1.00  0.00     0.039 C 
ENDBRANCH   5   6
ENDBRANCH   4   5
ENDBRANCH   1   4
BRANCH   2  10
ATOM     10  C   UNL     1      -1.684  27.661  30.479  1.00  0.00     0.035 C 
BRANCH  10  11
ATOM     11  C   UNL     1      -0.946  27.963  29.169  1.00  0.00     0.079 C 
BRANCH  11  12
ATOM     12  C   UNL     1      -0.993  26.790  28.223  1.00  0.00     0.130 C 
ATOM     13  O   UNL     1      -1.975  26.625  27.515  1.00  0.00    -0.300 OA
ATOM     14  C   UNL     1       0.145  25.816  28.131  1.00  0.00     0.087 C 
ENDBRANCH  11  12
ENDBRANCH  10  11
ENDBRANCH   2  10
TORSDOF 6
ENDMDL
MODEL 2
REMARK VINA RESULT:    -6.295      1.393      2.066
REMARK INTER + INTRA:          -9.325
REMARK INTER:                  -8.591
REMARK INTRA:                  -0.733
REMARK UNBOUND:                -0.822
REMARK SMILES CC(=O)CCC=C(C)CCC=C(C)C
REMARK SMILES IDX 7 1 6 2 8 3 9 4 10 5 11 6 13 7 12 8 14 9 5 10 4 11 2 12 3 13
REMARK SMILES IDX 1 14
REMARK H PARENT
REMARK Flexibility Score: inf
ROOT
ATOM      1  C   UNL     1      -4.482  29.273  28.993  1.00  0.00    -0.077 C 
ATOM      2  C   UNL     1      -3.720  29.153  27.883  1.00  0.00    -0.028 C 
ATOM      3  C   UNL     1      -3.922  29.029  30.375  1.00  0.00     0.039 C 
ENDROOT
BRANCH   1   4
ATOM      4  C   UNL     1      -5.933  29.675  28.847  1.00  0.00     0.034 C 
BRANCH   4   5
ATOM      5  C   UNL     1      -6.075  31.199  28.776  1.00  0.00     0.032 C 
BRANCH   5   6
ATOM      6  C   UNL     1      -6.125  31.679  27.346  1.00  0.00    -0.028 C 
ATOM      7  C   UNL     1      -3.877  32.750  27.531  1.00  0.00     0.039 C 
ATOM      8  C   UNL     1      -5.130  32.385  26.770  1.00  0.00    -0.080 C 
ATOM      9  C   UNL     1      -5.283  32.815  25.334  1.00  0.00     0.039 C 
ENDBRANCH   5   6
ENDBRANCH   4   5
ENDBRANCH   1   4
BRANCH   2  10
ATOM     10  C   UNL     1      -2.274  28.713  27.876  1.00  0.00     0.035 C 
BRANCH  10  11
ATOM     11  C   UNL     1      -2.146  27.187  27.953  1.00  0.00     0.079 C 
BRANCH  11  12
ATOM     12  C   UNL     1      -0.848  26.771  28.599  1.00  0.00     0.130 C 
ATOM     13  O   UNL     1      -0.496  27.303  29.641  1.00  0.00    -0.300 OA
ATOM     14  C   UNL     1       0.023  25.714  27.988  1.00  0.00     0.087 C 
ENDBRANCH  11  12
ENDBRANCH  10  11
ENDBRANCH   2  10
TORSDOF 6
ENDMDL
MODEL 3
REMARK VINA RESULT:    -6.269      2.683      6.109
REMARK INTER + INTRA:          -9.290
REMARK INTER:                  -8.812
REMARK INTRA:                  -0.479
REMARK UNBOUND:                -0.822
REMARK SMILES CC(=O)CCC=C(C)CCC=C(C)C
REMARK SMILES IDX 7 1 6 2 8 3 9 4 10 5 11 6 13 7 12 8 14 9 5 10 4 11 2 12 3 13
REMARK SMILES IDX 1 14
REMARK H PARENT
REMARK Flexibility Score: inf
ROOT
ATOM      1  C   UNL     1      -4.586  29.594  29.129  1.00  0.00    -0.077 C 
ATOM      2  C   UNL     1      -4.369  30.428  28.087  1.00  0.00    -0.028 C 
ATOM      3  C   UNL     1      -5.773  29.759  30.049  1.00  0.00     0.039 C 
ENDROOT
BRANCH   1   4
ATOM      4  C   UNL     1      -3.619  28.457  29.372  1.00  0.00     0.034 C 
BRANCH   4   5
ATOM      5  C   UNL     1      -2.768  28.186  28.126  1.00  0.00     0.032 C 
BRANCH   5   6
ATOM      6  C   UNL     1      -1.417  27.623  28.496  1.00  0.00    -0.028 C 
ATOM      7  C   UNL     1      -1.791  25.577  27.113  1.00  0.00     0.039 C 
ATOM      8  C   UNL     1      -0.963  26.437  28.040  1.00  0.00    -0.080 C 
ATOM      9  C   UNL     1       0.402  25.969  28.472  1.00  0.00     0.039 C 
ENDBRANCH   5   6
ENDBRANCH   4   5
ENDBRANCH   1   4
BRANCH   2  10
ATOM     10  C   UNL     1      -5.222  31.631  27.757  1.00  0.00     0.035 C 
BRANCH  10  11
ATOM     11  C   UNL     1      -4.381  32.790  27.210  1.00  0.00     0.079 C 
BRANCH  11  12
ATOM     12  C   UNL     1      -5.084  33.503  26.083  1.00  0.00     0.130 C 
ATOM     13  O   UNL     1      -5.079  34.725  26.046  1.00  0.00    -0.300 OA
ATOM     14  C   UNL     1      -5.793  32.743  25.001  1.00  0.00     0.087 C 
ENDBRANCH  11  12
ENDBRANCH  10  11
ENDBRANCH   2  10
TORSDOF 6
ENDMDL
MODEL 4
REMARK VINA RESULT:    -6.192      1.302      4.985
REMARK INTER + INTRA:          -9.187
REMARK INTER:                  -8.452
REMARK INTRA:                  -0.735
REMARK UNBOUND:                -0.822
REMARK SMILES CC(=O)CCC=C(C)CCC=C(C)C
REMARK SMILES IDX 7 1 6 2 8 3 9 4 10 5 11 6 13 7 12 8 14 9 5 10 4 11 2 12 3 13
REMARK SMILES IDX 1 14
REMARK H PARENT
REMARK Flexibility Score: inf
ROOT
ATOM      1  C   UNL     1      -4.130  28.118  30.465  1.00  0.00    -0.077 C 
ATOM      2  C   UNL     1      -4.791  29.296  30.414  1.00  0.00    -0.028 C 
ATOM      3  C   UNL     1      -4.635  26.887  29.750  1.00  0.00     0.039 C 
ENDROOT
BRANCH   1   4
ATOM      4  C   UNL     1      -2.840  28.035  31.252  1.00  0.00     0.034 C 
BRANCH   4   5
ATOM      5  C   UNL     1      -1.665  28.589  30.438  1.00  0.00     0.032 C 
BRANCH   5   6
ATOM      6  C   UNL     1      -0.871  27.478  29.795  1.00  0.00    -0.028 C 
ATOM      7  C   UNL     1      -1.992  27.827  27.592  1.00  0.00     0.039 C 
ATOM      8  C   UNL     1      -1.012  27.123  28.501  1.00  0.00    -0.080 C 
ATOM      9  C   UNL     1      -0.168  25.999  27.961  1.00  0.00     0.039 C 
ENDBRANCH   5   6
ENDBRANCH   4   5
ENDBRANCH   1   4
BRANCH   2  10
ATOM     10  C   UNL     1      -6.111  29.510  29.710  1.00  0.00     0.035 C 
BRANCH  10  11
ATOM     11  C   UNL     1      -6.124  30.822  28.916  1.00  0.00     0.079 C 
BRANCH  11  12
ATOM     12  C   UNL     1      -5.034  30.853  27.875  1.00  0.00     0.130 C 
ATOM     13  O   UNL     1      -4.704  29.817  27.317  1.00  0.00    -0.300 OA
ATOM     14  C   UNL     1      -4.343  32.133  27.507  1.00  0.00     0.087 C 
ENDBRANCH  11  12
ENDBRANCH  10  11
ENDBRANCH   2  10
TORSDOF 6
ENDMDL
MODEL 5
REMARK VINA RESULT:    -5.704      2.428      4.502
REMARK INTER + INTRA:          -8.527
REMARK INTER:                  -8.000
REMARK INTRA:                  -0.527
REMARK UNBOUND:                -0.822
REMARK SMILES CC(=O)CCC=C(C)CCC=C(C)C
REMARK SMILES IDX 7 1 6 2 8 3 9 4 10 5 11 6 13 7 12 8 14 9 5 10 4 11 2 12 3 13
REMARK SMILES IDX 1 14
REMARK H PARENT
REMARK Flexibility Score: inf
ROOT
ATOM      1  C   UNL     1      -4.536  31.499  27.784  1.00  0.00    -0.077 C 
ATOM      2  C   UNL     1      -3.772  30.386  27.851  1.00  0.00    -0.028 C 
ATOM      3  C   UNL     1      -5.947  31.533  28.323  1.00  0.00     0.039 C 
ENDROOT
BRANCH   1   4
ATOM      4  C   UNL     1      -3.955  32.751  27.163  1.00  0.00     0.034 C 
BRANCH   4   5
ATOM      5  C   UNL     1      -5.036  33.547  26.422  1.00  0.00     0.032 C 
BRANCH   5   6
ATOM      6  C   UNL     1      -5.159  33.098  24.986  1.00  0.00    -0.028 C 
ATOM      7  C   UNL     1      -5.871  35.373  24.243  1.00  0.00     0.039 C 
ATOM      8  C   UNL     1      -5.538  33.921  23.987  1.00  0.00    -0.080 C 
ATOM      9  C   UNL     1      -5.628  33.370  22.588  1.00  0.00     0.039 C 
ENDBRANCH   5   6
ENDBRANCH   4   5
ENDBRANCH   1   4
BRANCH   2  10
ATOM     10  C   UNL     1      -4.238  29.056  28.398  1.00  0.00     0.035 C 
BRANCH  10  11
ATOM     11  C   UNL     1      -3.059  28.124  28.703  1.00  0.00     0.079 C 
BRANCH  11  12
ATOM     12  C   UNL     1      -2.593  28.267  30.130  1.00  0.00     0.130 C 
ATOM     13  O   UNL     1      -1.496  27.835  30.451  1.00  0.00    -0.300 OA
ATOM     14  C   UNL     1      -3.450  28.931  31.167  1.00  0.00     0.087 C 
ENDBRANCH  11  12
ENDBRANCH  10  11
ENDBRANCH   2  10
TORSDOF 6
ENDMDL
MODEL 6
REMARK VINA RESULT:    -5.658      1.822      3.699
REMARK INTER + INTRA:          -8.465
REMARK INTER:                  -7.941
REMARK INTRA:                  -0.525
REMARK UNBOUND:                -0.822
REMARK SMILES CC(=O)CCC=C(C)CCC=C(C)C
REMARK SMILES IDX 7 1 6 2 8 3 9 4 10 5 11 6 13 7 12 8 14 9 5 10 4 11 2 12 3 13
REMARK SMILES IDX 1 14
REMARK H PARENT
REMARK Flexibility Score: inf
ROOT
ATOM      1  C   UNL     1      -5.101  30.627  28.343  1.00  0.00    -0.077 C 
ATOM      2  C   UNL     1      -5.525  30.210  29.557  1.00  0.00    -0.028 C 
ATOM      3  C   UNL     1      -4.335  29.719  27.409  1.00  0.00     0.039 C 
ENDROOT
BRANCH   1   4
ATOM      4  C   UNL     1      -5.416  32.039  27.901  1.00  0.00     0.034 C 
BRANCH   4   5
ATOM      5  C   UNL     1      -4.390  32.534  26.876  1.00  0.00     0.032 C 
BRANCH   5   6
ATOM      6  C   UNL     1      -4.762  33.895  26.340  1.00  0.00    -0.028 C 
ATOM      7  C   UNL     1      -5.802  32.905  24.297  1.00  0.00     0.039 C 
ATOM      8  C   UNL     1      -5.405  34.075  25.168  1.00  0.00    -0.080 C 
ATOM      9  C   UNL     1      -5.730  35.478  24.726  1.00  0.00     0.039 C 
ENDBRANCH   5   6
ENDBRANCH   4   5
ENDBRANCH   1   4
BRANCH   2  10
ATOM     10  C   UNL     1      -5.240  28.847  30.144  1.00  0.00     0.035 C 
BRANCH  10  11
ATOM     11  C   UNL     1      -3.869  28.799  30.829  1.00  0.00     0.079 C 
BRANCH  11  12
ATOM     12  C   UNL     1      -2.927  27.859  30.122  1.00  0.00     0.130 C 
ATOM     13  O   UNL     1      -3.370  27.057  29.314  1.00  0.00    -0.300 OA
ATOM     14  C   UNL     1      -1.451  27.886  30.390  1.00  0.00     0.087 C 
ENDBRANCH  11  12
ENDBRANCH  10  11
ENDBRANCH   2  10
TORSDOF 6
ENDMDL
MODEL 7
REMARK VINA RESULT:    -5.462      2.777      5.970
REMARK INTER + INTRA:          -8.200
REMARK INTER:                  -7.898
REMARK INTRA:                  -0.302
REMARK UNBOUND:                -0.822
REMARK SMILES CC(=O)CCC=C(C)CCC=C(C)C
REMARK SMILES IDX 7 1 6 2 8 3 9 4 10 5 11 6 13 7 12 8 14 9 5 10 4 11 2 12 3 13
REMARK SMILES IDX 1 14
REMARK H PARENT
REMARK Flexibility Score: inf
ROOT
ATOM      1  C   UNL     1      -5.191  30.124  28.549  1.00  0.00    -0.077 C 
ATOM      2  C   UNL     1      -5.880  31.271  28.359  1.00  0.00    -0.028 C 
ATOM      3  C   UNL     1      -4.318  29.529  27.468  1.00  0.00     0.039 C 
ENDROOT
BRANCH   1   4
ATOM      4  C   UNL     1      -5.287  29.423  29.886  1.00  0.00     0.034 C 
BRANCH   4   5
ATOM      5  C   UNL     1      -4.693  28.012  29.809  1.00  0.00     0.032 C 
BRANCH   5   6
ATOM      6  C   UNL     1      -3.314  27.964  30.420  1.00  0.00    -0.028 C 
ATOM      7  C   UNL     1      -2.304  27.126  28.296  1.00  0.00     0.039 C 
ATOM      8  C   UNL     1      -2.220  27.562  29.740  1.00  0.00    -0.080 C 
ATOM      9  C   UNL     1      -0.889  27.553  30.447  1.00  0.00     0.039 C 
ENDBRANCH   5   6
ENDBRANCH   4   5
ENDBRANCH   1   4
BRANCH   2  10
ATOM     10  C   UNL     1      -5.916  32.048  27.063  1.00  0.00     0.035 C 
BRANCH  10  11
ATOM     11  C   UNL     1      -4.822  33.122  27.015  1.00  0.00     0.079 C 
BRANCH  11  12
ATOM     12  C   UNL     1      -4.913  33.951  25.759  1.00  0.00     0.130 C 
ATOM     13  O   UNL     1      -5.183  35.139  25.839  1.00  0.00    -0.300 OA
ATOM     14  C   UNL     1      -4.676  33.345  24.407  1.00  0.00     0.087 C 
ENDBRANCH  11  12
ENDBRANCH  10  11
ENDBRANCH   2  10
TORSDOF 6
ENDMDL
MODEL 8
REMARK VINA RESULT:    -5.384      2.943      5.396
REMARK INTER + INTRA:          -8.094
REMARK INTER:                  -7.494
REMARK INTRA:                  -0.600
REMARK UNBOUND:                -0.822
REMARK SMILES CC(=O)CCC=C(C)CCC=C(C)C
REMARK SMILES IDX 7 1 6 2 8 3 9 4 10 5 11 6 13 7 12 8 14 9 5 10 4 11 2 12 3 13
REMARK SMILES IDX 1 14
REMARK H PARENT
REMARK Flexibility Score: inf
ROOT
ATOM      1  C   UNL     1      -5.205  31.985  27.204  1.00  0.00    -0.077 C 
ATOM      2  C   UNL     1      -6.116  31.246  27.877  1.00  0.00    -0.028 C 
ATOM      3  C   UNL     1      -3.881  32.374  27.820  1.00  0.00     0.039 C 
ENDROOT
BRANCH   1   4
ATOM      4  C   UNL     1      -5.516  32.424  25.790  1.00  0.00     0.034 C 
BRANCH   4   5
ATOM      5  C   UNL     1      -4.317  33.145  25.165  1.00  0.00     0.032 C 
BRANCH   5   6
ATOM      6  C   UNL     1      -4.638  33.639  23.775  1.00  0.00    -0.028 C 
ATOM      7  C   UNL     1      -5.753  35.689  24.664  1.00  0.00     0.039 C 
ATOM      8  C   UNL     1      -5.291  34.796  23.536  1.00  0.00    -0.080 C 
ATOM      9  C   UNL     1      -5.560  35.195  22.109  1.00  0.00     0.039 C 
ENDBRANCH   5   6
ENDBRANCH   4   5
ENDBRANCH   1   4
BRANCH   2  10
ATOM     10  C   UNL     1      -5.960  30.783  29.306  1.00  0.00     0.035 C 
BRANCH  10  11
ATOM     11  C   UNL     1      -5.732  29.269  29.391  1.00  0.00     0.079 C 
BRANCH  11  12
ATOM     12  C   UNL     1      -4.289  28.939  29.677  1.00  0.00     0.130 C 
ATOM     13  O   UNL     1      -3.890  28.934  30.832  1.00  0.00    -0.300 OA
ATOM     14  C   UNL     1      -3.329  28.617  28.570  1.00  0.00     0.087 C 
ENDBRANCH  11  12
ENDBRANCH  10  11
ENDBRANCH   2  10
TORSDOF 6
ENDMDL
MODEL 9
REMARK VINA RESULT:    -5.287      1.126      3.156
REMARK INTER + INTRA:          -7.964
REMARK INTER:                  -7.586
REMARK INTRA:                  -0.378
REMARK UNBOUND:                -0.822
REMARK SMILES CC(=O)CCC=C(C)CCC=C(C)C
REMARK SMILES IDX 7 1 6 2 8 3 9 4 10 5 11 6 13 7 12 8 14 9 5 10 4 11 2 12 3 13
REMARK SMILES IDX 1 14
REMARK H PARENT
REMARK Flexibility Score: inf
ROOT
ATOM      1  C   UNL     1      -4.466  29.910  27.967  1.00  0.00    -0.077 C 
ATOM      2  C   UNL     1      -3.792  28.742  27.869  1.00  0.00    -0.028 C 
ATOM      3  C   UNL     1      -3.863  31.220  27.517  1.00  0.00     0.039 C 
ENDROOT
BRANCH   1   4
ATOM      4  C   UNL     1      -5.870  29.901  28.531  1.00  0.00     0.034 C 
BRANCH   4   5
ATOM      5  C   UNL     1      -5.896  29.262  29.924  1.00  0.00     0.032 C 
BRANCH   5   6
ATOM      6  C   UNL     1      -4.772  29.782  30.787  1.00  0.00    -0.028 C 
ATOM      7  C   UNL     1      -3.700  27.530  30.903  1.00  0.00     0.039 C 
ATOM      8  C   UNL     1      -3.768  29.002  31.238  1.00  0.00    -0.080 C 
ATOM      9  C   UNL     1      -2.695  29.624  32.093  1.00  0.00     0.039 C 
ENDBRANCH   5   6
ENDBRANCH   4   5
ENDBRANCH   1   4
BRANCH   2  10
ATOM     10  C   UNL     1      -2.371  28.610  27.372  1.00  0.00     0.035 C 
BRANCH  10  11
ATOM     11  C   UNL     1      -1.498  27.820  28.355  1.00  0.00     0.079 C 
BRANCH  11  12
ATOM     12  C   UNL     1      -1.098  26.481  27.789  1.00  0.00     0.130 C 
ATOM     13  O   UNL     1      -1.858  25.894  27.033  1.00  0.00    -0.300 OA
ATOM     14  C   UNL     1       0.218  25.850  28.136  1.00  0.00     0.087 C 
ENDBRANCH  11  12
ENDBRANCH  10  11
ENDBRANCH   2  10
TORSDOF 6
ENDMDL
