MODEL 1
REMARK VINA RESULT:    -4.987      0.000      0.000
REMARK INTER + INTRA:          -8.685
REMARK INTER:                  -7.902
REMARK INTRA:                  -0.784
REMARK UNBOUND:                -0.784
REMARK SMILES CCCCCCCCCCCC(=O)[O-]
REMARK SMILES IDX 7 1 8 2 9 3 10 4 11 5 12 6 13 7 14 8 6 9 5 10 4 11 3 12 2 13
REMARK SMILES IDX 1 14
REMARK H PARENT
REMARK Flexibility Score: inf
ROOT
ATOM      1  C   UNL     1       1.160  44.223  10.968  1.00  0.00     0.000 C 
ENDROOT
BRANCH   1   2
ATOM      2  C   UNL     1       1.951  44.214   9.647  1.00  0.00     0.000 C 
BRANCH   2   3
ATOM      3  C   UNL     1       2.635  45.556   9.349  1.00  0.00     0.000 C 
BRANCH   3   4
ATOM      4  C   UNL     1       4.162  45.418   9.399  1.00  0.00     0.006 C 
BRANCH   4   5
ATOM      5  C   UNL     1       4.794  46.585  10.161  1.00  0.00     0.053 C 
BRANCH   5   6
ATOM      6  C   UNL     1       5.628  47.420   9.242  1.00  0.00     0.041 C 
ATOM      7  O   UNL     1       5.089  48.064   8.304  1.00  0.00    -0.550 OA
ATOM      8  O   UNL     1       6.998  47.527   9.451  1.00  0.00    -0.550 OA
ENDBRANCH   5   6
ENDBRANCH   4   5
ENDBRANCH   3   4
ENDBRANCH   2   3
ENDBRANCH   1   2
BRANCH   1   9
ATOM      9  C   UNL     1       1.775  43.382  12.101  1.00  0.00     0.000 C 
BRANCH   9  10
ATOM     10  C   UNL     1       3.307  43.486  12.160  1.00  0.00    -0.000 C 
BRANCH  10  11
ATOM     11  C   UNL     1       3.958  42.105  12.025  1.00  0.00    -0.000 C 
BRANCH  11  12
ATOM     12  C   UNL     1       2.905  40.992  12.076  1.00  0.00    -0.000 C 
BRANCH  12  13
ATOM     13  C   UNL     1       3.422  39.780  12.859  1.00  0.00    -0.003 C 
ATOM     14  C   UNL     1       4.887  39.956  13.242  1.00  0.00     0.004 C 
ENDBRANCH  12  13
ENDBRANCH  11  12
ENDBRANCH  10  11
ENDBRANCH   9  10
ENDBRANCH   1   9
TORSDOF 10
ENDMDL
MODEL 2
REMARK VINA RESULT:    -4.883      2.106      2.930
REMARK INTER + INTRA:          -8.521
REMARK INTER:                  -7.787
REMARK INTRA:                  -0.733
REMARK UNBOUND:                -0.784
REMARK SMILES CCCCCCCCCCCC(=O)[O-]
REMARK SMILES IDX 7 1 8 2 9 3 10 4 11 5 12 6 13 7 14 8 6 9 5 10 4 11 3 12 2 13
REMARK SMILES IDX 1 14
REMARK H PARENT
REMARK Flexibility Score: inf
ROOT
ATOM      1  C   UNL     1       4.411  44.624  10.861  1.00  0.00     0.000 C 
ENDROOT
BRANCH   1   2
ATOM      2  C   UNL     1       3.900  46.070  10.716  1.00  0.00     0.000 C 
BRANCH   2   3
ATOM      3  C   UNL     1       4.849  46.962   9.902  1.00  0.00     0.000 C 
BRANCH   3   4
ATOM      4  C   UNL     1       4.194  47.403   8.587  1.00  0.00     0.006 C 
BRANCH   4   5
ATOM      5  C   UNL     1       2.675  47.219   8.641  1.00  0.00     0.053 C 
BRANCH   5   6
ATOM      6  C   UNL     1       1.981  48.529   8.441  1.00  0.00     0.041 C 
ATOM      7  O   UNL     1       1.096  48.908   9.251  1.00  0.00    -0.550 OA
ATOM      8  O   UNL     1       2.347  49.355   7.385  1.00  0.00    -0.550 OA
ENDBRANCH   5   6
ENDBRANCH   4   5
ENDBRANCH   3   4
ENDBRANCH   2   3
ENDBRANCH   1   2
BRANCH   1   9
ATOM      9  C   UNL     1       3.980  43.666   9.736  1.00  0.00     0.000 C 
BRANCH   9  10
ATOM     10  C   UNL     1       2.815  42.751  10.143  1.00  0.00    -0.000 C 
BRANCH  10  11
ATOM     11  C   UNL     1       2.773  42.556  11.663  1.00  0.00    -0.000 C 
BRANCH  11  12
ATOM     12  C   UNL     1       3.117  41.112  12.044  1.00  0.00    -0.000 C 
BRANCH  12  13
ATOM     13  C   UNL     1       4.524  41.022  12.646  1.00  0.00    -0.003 C 
ATOM     14  C   UNL     1       4.740  39.684  13.345  1.00  0.00     0.004 C 
ENDBRANCH  12  13
ENDBRANCH  11  12
ENDBRANCH  10  11
ENDBRANCH   9  10
ENDBRANCH   1   9
TORSDOF 10
ENDMDL
MODEL 3
REMARK VINA RESULT:    -4.883      3.879      6.420
REMARK INTER + INTRA:          -8.521
REMARK INTER:                  -7.443
REMARK INTRA:                  -1.077
REMARK UNBOUND:                -0.784
REMARK SMILES CCCCCCCCCCCC(=O)[O-]
REMARK SMILES IDX 7 1 8 2 9 3 10 4 11 5 12 6 13 7 14 8 6 9 5 10 4 11 3 12 2 13
REMARK SMILES IDX 1 14
REMARK H PARENT
REMARK Flexibility Score: inf
ROOT
ATOM      1  C   UNL     1       1.620  43.818   8.975  1.00  0.00     0.000 C 
ENDROOT
BRANCH   1   2
ATOM      2  C   UNL     1       2.672  42.917   9.649  1.00  0.00     0.000 C 
BRANCH   2   3
ATOM      3  C   UNL     1       2.537  42.879  11.178  1.00  0.00     0.000 C 
BRANCH   3   4
ATOM      4  C   UNL     1       3.463  41.817  11.785  1.00  0.00     0.006 C 
BRANCH   4   5
ATOM      5  C   UNL     1       2.664  40.776  12.573  1.00  0.00     0.053 C 
BRANCH   5   6
ATOM      6  C   UNL     1       3.511  39.579  12.869  1.00  0.00     0.041 C 
ATOM      7  O   UNL     1       4.624  39.716  13.441  1.00  0.00    -0.550 OA
ATOM      8  O   UNL     1       3.048  38.307  12.559  1.00  0.00    -0.550 OA
ENDBRANCH   5   6
ENDBRANCH   4   5
ENDBRANCH   3   4
ENDBRANCH   2   3
ENDBRANCH   1   2
BRANCH   1   9
ATOM      9  C   UNL     1       0.899  44.795   9.920  1.00  0.00     0.000 C 
BRANCH   9  10
ATOM     10  C   UNL     1       0.896  46.241   9.400  1.00  0.00    -0.000 C 
BRANCH  10  11
ATOM     11  C   UNL     1       2.132  47.004   9.891  1.00  0.00    -0.000 C 
BRANCH  11  12
ATOM     12  C   UNL     1       3.185  47.119   8.783  1.00  0.00    -0.000 C 
BRANCH  12  13
ATOM     13  C   UNL     1       4.475  46.388   9.173  1.00  0.00    -0.003 C 
ATOM     14  C   UNL     1       4.477  46.024  10.654  1.00  0.00     0.004 C 
ENDBRANCH  12  13
ENDBRANCH  11  12
ENDBRANCH  10  11
ENDBRANCH   9  10
ENDBRANCH   1   9
TORSDOF 10
ENDMDL
MODEL 4
REMARK VINA RESULT:    -4.839      3.661      6.137
REMARK INTER + INTRA:          -8.451
REMARK INTER:                  -7.250
REMARK INTRA:                  -1.201
REMARK UNBOUND:                -0.784
REMARK SMILES CCCCCCCCCCCC(=O)[O-]
REMARK SMILES IDX 7 1 8 2 9 3 10 4 11 5 12 6 13 7 14 8 6 9 5 10 4 11 3 12 2 13
REMARK SMILES IDX 1 14
REMARK H PARENT
REMARK Flexibility Score: inf
ROOT
ATOM      1  C   UNL     1       4.425  45.025  10.742  1.00  0.00     0.000 C 
ENDROOT
BRANCH   1   2
ATOM      2  C   UNL     1       4.083  44.357  12.087  1.00  0.00     0.000 C 
BRANCH   2   3
ATOM      3  C   UNL     1       2.606  43.951  12.196  1.00  0.00     0.000 C 
BRANCH   3   4
ATOM      4  C   UNL     1       2.439  42.436  12.023  1.00  0.00     0.006 C 
BRANCH   4   5
ATOM      5  C   UNL     1       3.799  41.734  11.985  1.00  0.00     0.053 C 
BRANCH   5   6
ATOM      6  C   UNL     1       3.742  40.440  12.733  1.00  0.00     0.041 C 
ATOM      7  O   UNL     1       4.774  39.984  13.292  1.00  0.00    -0.550 OA
ATOM      8  O   UNL     1       2.535  39.762  12.857  1.00  0.00    -0.550 OA
ENDBRANCH   5   6
ENDBRANCH   4   5
ENDBRANCH   3   4
ENDBRANCH   2   3
ENDBRANCH   1   2
BRANCH   1   9
ATOM      9  C   UNL     1       4.187  46.545  10.691  1.00  0.00     0.000 C 
BRANCH   9  10
ATOM     10  C   UNL     1       3.327  46.977   9.494  1.00  0.00    -0.000 C 
BRANCH  10  11
ATOM     11  C   UNL     1       1.833  46.860   9.819  1.00  0.00    -0.000 C 
BRANCH  11  12
ATOM     12  C   UNL     1       1.081  46.133   8.698  1.00  0.00    -0.000 C 
BRANCH  12  13
ATOM     13  C   UNL     1       0.662  44.726   9.140  1.00  0.00    -0.003 C 
ATOM     14  C   UNL     1       1.654  43.676   8.649  1.00  0.00     0.004 C 
ENDBRANCH  12  13
ENDBRANCH  11  12
ENDBRANCH  10  11
ENDBRANCH   9  10
ENDBRANCH   1   9
TORSDOF 10
ENDMDL
MODEL 5
REMARK VINA RESULT:    -4.818      3.803      6.419
REMARK INTER + INTRA:          -8.419
REMARK INTER:                  -7.328
REMARK INTRA:                  -1.090
REMARK UNBOUND:                -0.784
REMARK SMILES CCCCCCCCCCCC(=O)[O-]
REMARK SMILES IDX 7 1 8 2 9 3 10 4 11 5 12 6 13 7 14 8 6 9 5 10 4 11 3 12 2 13
REMARK SMILES IDX 1 14
REMARK H PARENT
REMARK Flexibility Score: inf
ROOT
ATOM      1  C   UNL     1       3.929  43.929   9.489  1.00  0.00     0.000 C 
ENDROOT
BRANCH   1   2
ATOM      2  C   UNL     1       2.798  42.949   9.854  1.00  0.00     0.000 C 
BRANCH   2   3
ATOM      3  C   UNL     1       2.125  43.281  11.193  1.00  0.00     0.000 C 
BRANCH   3   4
ATOM      4  C   UNL     1       2.226  42.100  12.166  1.00  0.00     0.006 C 
BRANCH   4   5
ATOM      5  C   UNL     1       3.605  41.439  12.087  1.00  0.00     0.053 C 
BRANCH   5   6
ATOM      6  C   UNL     1       3.597  40.125  12.802  1.00  0.00     0.041 C 
ATOM      7  O   UNL     1       2.594  39.368  12.729  1.00  0.00    -0.550 OA
ATOM      8  O   UNL     1       4.720  39.713  13.509  1.00  0.00    -0.550 OA
ENDBRANCH   5   6
ENDBRANCH   4   5
ENDBRANCH   3   4
ENDBRANCH   2   3
ENDBRANCH   1   2
BRANCH   1   9
ATOM      9  C   UNL     1       4.508  44.724  10.673  1.00  0.00     0.000 C 
BRANCH   9  10
ATOM     10  C   UNL     1       4.168  46.221  10.613  1.00  0.00    -0.000 C 
BRANCH  10  11
ATOM     11  C   UNL     1       4.429  46.789   9.213  1.00  0.00    -0.000 C 
BRANCH  11  12
ATOM     12  C   UNL     1       3.162  47.427   8.632  1.00  0.00    -0.000 C 
BRANCH  12  13
ATOM     13  C   UNL     1       1.953  47.174   9.541  1.00  0.00    -0.003 C 
ATOM     14  C   UNL     1       0.942  46.251   8.869  1.00  0.00     0.004 C 
ENDBRANCH  12  13
ENDBRANCH  11  12
ENDBRANCH  10  11
ENDBRANCH   9  10
ENDBRANCH   1   9
TORSDOF 10
ENDMDL
MODEL 6
REMARK VINA RESULT:    -4.767      3.324      5.881
REMARK INTER + INTRA:          -8.338
REMARK INTER:                  -6.920
REMARK INTRA:                  -1.418
REMARK UNBOUND:                -0.784
REMARK SMILES CCCCCCCCCCCC(=O)[O-]
REMARK SMILES IDX 7 1 8 2 9 3 10 4 11 5 12 6 13 7 14 8 6 9 5 10 4 11 3 12 2 13
REMARK SMILES IDX 1 14
REMARK H PARENT
REMARK Flexibility Score: inf
ROOT
ATOM      1  C   UNL     1       4.548  46.390   9.363  1.00  0.00     0.000 C 
ENDROOT
BRANCH   1   2
ATOM      2  C   UNL     1       3.937  46.297  10.774  1.00  0.00     0.000 C 
BRANCH   2   3
ATOM      3  C   UNL     1       3.901  44.862  11.318  1.00  0.00     0.000 C 
BRANCH   3   4
ATOM      4  C   UNL     1       4.075  43.841  10.187  1.00  0.00     0.006 C 
BRANCH   4   5
ATOM      5  C   UNL     1       2.978  42.775  10.235  1.00  0.00     0.053 C 
BRANCH   5   6
ATOM      6  C   UNL     1       2.877  42.189  11.608  1.00  0.00     0.041 C 
ATOM      7  O   UNL     1       1.826  42.337  12.285  1.00  0.00    -0.550 OA
ATOM      8  O   UNL     1       3.926  41.437  12.121  1.00  0.00    -0.550 OA
ENDBRANCH   5   6
ENDBRANCH   4   5
ENDBRANCH   3   4
ENDBRANCH   2   3
ENDBRANCH   1   2
BRANCH   1   9
ATOM      9  C   UNL     1       3.855  47.388   8.417  1.00  0.00     0.000 C 
BRANCH   9  10
ATOM     10  C   UNL     1       2.436  47.760   8.875  1.00  0.00    -0.000 C 
BRANCH  10  11
ATOM     11  C   UNL     1       1.391  47.312   7.846  1.00  0.00    -0.000 C 
BRANCH  11  12
ATOM     12  C   UNL     1       0.196  46.640   8.532  1.00  0.00    -0.000 C 
BRANCH  12  13
ATOM     13  C   UNL     1       0.603  45.303   9.162  1.00  0.00    -0.003 C 
ATOM     14  C   UNL     1       0.200  45.241  10.631  1.00  0.00     0.004 C 
ENDBRANCH  12  13
ENDBRANCH  11  12
ENDBRANCH  10  11
ENDBRANCH   9  10
ENDBRANCH   1   9
TORSDOF 10
ENDMDL
MODEL 7
REMARK VINA RESULT:    -4.745      2.328      3.955
REMARK INTER + INTRA:          -8.303
REMARK INTER:                  -7.176
REMARK INTRA:                  -1.127
REMARK UNBOUND:                -0.784
REMARK SMILES CCCCCCCCCCCC(=O)[O-]
REMARK SMILES IDX 7 1 8 2 9 3 10 4 11 5 12 6 13 7 14 8 6 9 5 10 4 11 3 12 2 13
REMARK SMILES IDX 1 14
REMARK H PARENT
REMARK Flexibility Score: inf
ROOT
ATOM      1  C   UNL     1       4.835  45.136  11.202  1.00  0.00     0.000 C 
ENDROOT
BRANCH   1   2
ATOM      2  C   UNL     1       4.153  46.309  10.473  1.00  0.00     0.000 C 
BRANCH   2   3
ATOM      3  C   UNL     1       5.115  47.094   9.569  1.00  0.00     0.000 C 
BRANCH   3   4
ATOM      4  C   UNL     1       4.374  47.692   8.367  1.00  0.00     0.006 C 
BRANCH   4   5
ATOM      5  C   UNL     1       2.874  47.396   8.444  1.00  0.00     0.053 C 
BRANCH   5   6
ATOM      6  C   UNL     1       2.094  48.453   7.728  1.00  0.00     0.041 C 
ATOM      7  O   UNL     1       2.687  49.425   7.192  1.00  0.00    -0.550 OA
ATOM      8  O   UNL     1       0.714  48.338   7.610  1.00  0.00    -0.550 OA
ENDBRANCH   5   6
ENDBRANCH   4   5
ENDBRANCH   3   4
ENDBRANCH   2   3
ENDBRANCH   1   2
BRANCH   1   9
ATOM      9  C   UNL     1       3.941  44.385  12.206  1.00  0.00     0.000 C 
BRANCH   9  10
ATOM     10  C   UNL     1       3.713  42.915  11.822  1.00  0.00    -0.000 C 
BRANCH  10  11
ATOM     11  C   UNL     1       2.397  42.745  11.053  1.00  0.00    -0.000 C 
BRANCH  11  12
ATOM     12  C   UNL     1       2.619  42.893   9.543  1.00  0.00    -0.000 C 
BRANCH  12  13
ATOM     13  C   UNL     1       1.613  43.877   8.934  1.00  0.00    -0.003 C 
ATOM     14  C   UNL     1       0.869  44.648  10.019  1.00  0.00     0.004 C 
ENDBRANCH  12  13
ENDBRANCH  11  12
ENDBRANCH  10  11
ENDBRANCH   9  10
ENDBRANCH   1   9
TORSDOF 10
ENDMDL
MODEL 8
REMARK VINA RESULT:    -4.740      2.812      5.658
REMARK INTER + INTRA:          -8.294
REMARK INTER:                  -7.163
REMARK INTRA:                  -1.131
REMARK UNBOUND:                -0.784
REMARK SMILES CCCCCCCCCCCC(=O)[O-]
REMARK SMILES IDX 7 1 8 2 9 3 10 4 11 5 12 6 13 7 14 8 6 9 5 10 4 11 3 12 2 13
REMARK SMILES IDX 1 14
REMARK H PARENT
REMARK Flexibility Score: inf
ROOT
ATOM      1  C   UNL     1       0.413  46.106   7.868  1.00  0.00     0.000 C 
ENDROOT
BRANCH   1   2
ATOM      2  C   UNL     1       0.440  44.650   8.371  1.00  0.00     0.000 C 
BRANCH   2   3
ATOM      3  C   UNL     1       1.487  44.414   9.468  1.00  0.00     0.000 C 
BRANCH   3   4
ATOM      4  C   UNL     1       2.414  43.248   9.101  1.00  0.00     0.006 C 
BRANCH   4   5
ATOM      5  C   UNL     1       3.835  43.493   9.615  1.00  0.00     0.053 C 
BRANCH   5   6
ATOM      6  C   UNL     1       3.887  43.344  11.103  1.00  0.00     0.041 C 
ATOM      7  O   UNL     1       3.792  42.205  11.630  1.00  0.00    -0.550 OA
ATOM      8  O   UNL     1       4.091  44.459  11.906  1.00  0.00    -0.550 OA
ENDBRANCH   5   6
ENDBRANCH   4   5
ENDBRANCH   3   4
ENDBRANCH   2   3
ENDBRANCH   1   2
BRANCH   1   9
ATOM      9  C   UNL     1       1.440  47.042   8.531  1.00  0.00     0.000 C 
BRANCH   9  10
ATOM     10  C   UNL     1       2.281  47.826   7.512  1.00  0.00    -0.000 C 
BRANCH  10  11
ATOM     11  C   UNL     1       3.748  47.902   7.952  1.00  0.00    -0.000 C 
BRANCH  11  12
ATOM     12  C   UNL     1       3.942  47.267   9.333  1.00  0.00    -0.000 C 
BRANCH  12  13
ATOM     13  C   UNL     1       5.409  46.884   9.561  1.00  0.00    -0.003 C 
ATOM     14  C   UNL     1       6.342  48.029   9.182  1.00  0.00     0.004 C 
ENDBRANCH  12  13
ENDBRANCH  11  12
ENDBRANCH  10  11
ENDBRANCH   9  10
ENDBRANCH   1   9
TORSDOF 10
ENDMDL
MODEL 9
REMARK VINA RESULT:    -4.736      2.567      3.655
REMARK INTER + INTRA:          -8.288
REMARK INTER:                  -7.360
REMARK INTRA:                  -0.927
REMARK UNBOUND:                -0.784
REMARK SMILES CCCCCCCCCCCC(=O)[O-]
REMARK SMILES IDX 7 1 8 2 9 3 10 4 11 5 12 6 13 7 14 8 6 9 5 10 4 11 3 12 2 13
REMARK SMILES IDX 1 14
REMARK H PARENT
REMARK Flexibility Score: inf
ROOT
ATOM      1  C   UNL     1       4.195  46.320  10.669  1.00  0.00     0.000 C 
ENDROOT
BRANCH   1   2
ATOM      2  C   UNL     1       4.601  46.905   9.303  1.00  0.00     0.000 C 
BRANCH   2   3
ATOM      3  C   UNL     1       3.404  47.431   8.496  1.00  0.00     0.000 C 
BRANCH   3   4
ATOM      4  C   UNL     1       2.098  47.266   9.283  1.00  0.00     0.006 C 
BRANCH   4   5
ATOM      5  C   UNL     1       1.113  46.369   8.529  1.00  0.00     0.053 C 
BRANCH   5   6
ATOM      6  C   UNL     1       0.889  45.092   9.277  1.00  0.00     0.041 C 
ATOM      7  O   UNL     1       1.408  44.020   8.872  1.00  0.00    -0.550 OA
ATOM      8  O   UNL     1       0.148  45.097  10.453  1.00  0.00    -0.550 OA
ENDBRANCH   5   6
ENDBRANCH   4   5
ENDBRANCH   3   4
ENDBRANCH   2   3
ENDBRANCH   1   2
BRANCH   1   9
ATOM      9  C   UNL     1       4.349  44.794  10.796  1.00  0.00     0.000 C 
BRANCH   9  10
ATOM     10  C   UNL     1       3.959  44.266  12.185  1.00  0.00    -0.000 C 
BRANCH  10  11
ATOM     11  C   UNL     1       2.734  43.348  12.100  1.00  0.00    -0.000 C 
BRANCH  11  12
ATOM     12  C   UNL     1       3.076  42.038  11.381  1.00  0.00    -0.000 C 
BRANCH  12  13
ATOM     13  C   UNL     1       3.143  40.869  12.370  1.00  0.00    -0.003 C 
ATOM     14  C   UNL     1       4.584  40.561  12.763  1.00  0.00     0.004 C 
ENDBRANCH  12  13
ENDBRANCH  11  12
ENDBRANCH  10  11
ENDBRANCH   9  10
ENDBRANCH   1   9
TORSDOF 10
ENDMDL
