MODEL 1
REMARK VINA RESULT:    -3.171      0.000      0.000
REMARK INTER + INTRA:          -4.773
REMARK INTER:                  -4.376
REMARK INTRA:                  -0.397
REMARK UNBOUND:                -0.397
REMARK SMILES CCCCCCCCO
REMARK SMILES IDX 5 1 4 2 3 3 2 4 1 5 6 6 7 7 8 8 9 9
REMARK H PARENT 9 10
REMARK Flexibility Score: inf
ROOT
ATOM      1  C   UNL     1     163.590 163.472 164.939  1.00  0.00     0.000 C 
ENDROOT
BRANCH   1   2
ATOM      2  C   UNL     1     164.922 163.643 165.692  1.00  0.00    -0.000 C 
BRANCH   2   3
ATOM      3  C   UNL     1     165.160 165.088 166.164  1.00  0.00    -0.000 C 
BRANCH   3   4
ATOM      4  C   UNL     1     164.997 165.246 167.683  1.00  0.00    -0.003 C 
ATOM      5  C   UNL     1     165.149 163.923 168.433  1.00  0.00     0.004 C 
ENDBRANCH   3   4
ENDBRANCH   2   3
ENDBRANCH   1   2
BRANCH   1   6
ATOM      6  C   UNL     1     162.715 164.737 164.875  1.00  0.00     0.002 C 
BRANCH   6   7
ATOM      7  C   UNL     1     161.266 164.485 165.319  1.00  0.00     0.028 C 
BRANCH   7   8
ATOM      8  C   UNL     1     161.189 164.230 166.827  1.00  0.00     0.156 C 
BRANCH   8   9
ATOM      9  O   UNL     1     159.854 164.253 167.254  1.00  0.00    -0.396 OA
ATOM     10  H   UNL     1     159.772 165.014 167.887  1.00  0.00     0.210 HD
ENDBRANCH   8   9
ENDBRANCH   7   8
ENDBRANCH   6   7
ENDBRANCH   1   6
TORSDOF 7
ENDMDL
MODEL 2
REMARK VINA RESULT:    -3.145      4.591      6.193
REMARK INTER + INTRA:          -4.737
REMARK INTER:                  -4.407
REMARK INTRA:                  -0.330
REMARK UNBOUND:                -0.397
REMARK SMILES CCCCCCCCO
REMARK SMILES IDX 5 1 4 2 3 3 2 4 1 5 6 6 7 7 8 8 9 9
REMARK H PARENT 9 10
REMARK Flexibility Score: inf
ROOT
ATOM      1  C   UNL     1     167.095 166.349 164.875  1.00  0.00     0.000 C 
ENDROOT
BRANCH   1   2
ATOM      2  C   UNL     1     165.860 166.174 165.777  1.00  0.00    -0.000 C 
BRANCH   2   3
ATOM      3  C   UNL     1     166.051 166.782 167.178  1.00  0.00    -0.000 C 
BRANCH   3   4
ATOM      4  C   UNL     1     165.836 165.754 168.299  1.00  0.00    -0.003 C 
ATOM      5  C   UNL     1     165.172 164.470 167.803  1.00  0.00     0.004 C 
ENDBRANCH   3   4
ENDBRANCH   2   3
ENDBRANCH   1   2
BRANCH   1   6
ATOM      6  C   UNL     1     168.184 167.278 165.442  1.00  0.00     0.002 C 
BRANCH   6   7
ATOM      7  C   UNL     1     169.597 166.686 165.323  1.00  0.00     0.028 C 
BRANCH   7   8
ATOM      8  C   UNL     1     170.458 167.071 166.529  1.00  0.00     0.156 C 
BRANCH   8   9
ATOM      9  O   UNL     1     169.835 166.666 167.718  1.00  0.00    -0.396 OA
ATOM     10  H   UNL     1     168.901 167.001 167.678  1.00  0.00     0.210 HD
ENDBRANCH   8   9
ENDBRANCH   7   8
ENDBRANCH   6   7
ENDBRANCH   1   6
TORSDOF 7
ENDMDL
MODEL 3
REMARK VINA RESULT:    -3.135      1.477      2.189
REMARK INTER + INTRA:          -4.723
REMARK INTER:                  -4.410
REMARK INTRA:                  -0.313
REMARK UNBOUND:                -0.397
REMARK SMILES CCCCCCCCO
REMARK SMILES IDX 5 1 4 2 3 3 2 4 1 5 6 6 7 7 8 8 9 9
REMARK H PARENT 9 10
REMARK Flexibility Score: inf
ROOT
ATOM      1  C   UNL     1     164.721 164.176 165.648  1.00  0.00     0.000 C 
ENDROOT
BRANCH   1   2
ATOM      2  C   UNL     1     164.754 164.913 166.999  1.00  0.00    -0.000 C 
BRANCH   2   3
ATOM      3  C   UNL     1     165.975 165.838 167.146  1.00  0.00    -0.000 C 
BRANCH   3   4
ATOM      4  C   UNL     1     166.219 166.693 165.893  1.00  0.00    -0.003 C 
ATOM      5  C   UNL     1     167.699 167.000 165.668  1.00  0.00     0.004 C 
ENDBRANCH   3   4
ENDBRANCH   2   3
ENDBRANCH   1   2
BRANCH   1   6
ATOM      6  C   UNL     1     163.339 163.633 165.240  1.00  0.00     0.002 C 
BRANCH   6   7
ATOM      7  C   UNL     1     162.215 164.664 165.418  1.00  0.00     0.028 C 
BRANCH   7   8
ATOM      8  C   UNL     1     161.060 164.084 166.238  1.00  0.00     0.156 C 
BRANCH   8   9
ATOM      9  O   UNL     1     161.149 164.513 167.570  1.00  0.00    -0.396 OA
ATOM     10  H   UNL     1     161.697 163.839 168.050  1.00  0.00     0.210 HD
ENDBRANCH   8   9
ENDBRANCH   7   8
ENDBRANCH   6   7
ENDBRANCH   1   6
TORSDOF 7
ENDMDL
MODEL 4
REMARK VINA RESULT:    -3.131      3.499      5.202
REMARK INTER + INTRA:          -4.718
REMARK INTER:                  -4.545
REMARK INTRA:                  -0.173
REMARK UNBOUND:                -0.397
REMARK SMILES CCCCCCCCO
REMARK SMILES IDX 5 1 4 2 3 3 2 4 1 5 6 6 7 7 8 8 9 9
REMARK H PARENT 9 10
REMARK Flexibility Score: inf
ROOT
ATOM      1  C   UNL     1     165.168 165.255 165.762  1.00  0.00     0.000 C 
ENDROOT
BRANCH   1   2
ATOM      2  C   UNL     1     163.933 164.405 166.111  1.00  0.00    -0.000 C 
BRANCH   2   3
ATOM      3  C   UNL     1     163.001 164.181 164.908  1.00  0.00    -0.000 C 
BRANCH   3   4
ATOM      4  C   UNL     1     161.546 164.572 165.209  1.00  0.00    -0.003 C 
ATOM      5  C   UNL     1     161.122 164.209 166.633  1.00  0.00     0.004 C 
ENDBRANCH   3   4
ENDBRANCH   2   3
ENDBRANCH   1   2
BRANCH   1   6
ATOM      6  C   UNL     1     165.651 166.188 166.887  1.00  0.00     0.002 C 
BRANCH   6   7
ATOM      7  C   UNL     1     166.789 167.120 166.445  1.00  0.00     0.028 C 
BRANCH   7   8
ATOM      8  C   UNL     1     167.251 166.788 165.024  1.00  0.00     0.156 C 
BRANCH   8   9
ATOM      9  O   UNL     1     168.617 167.072 164.880  1.00  0.00    -0.396 OA
ATOM     10  H   UNL     1     168.786 167.166 163.906  1.00  0.00     0.210 HD
ENDBRANCH   8   9
ENDBRANCH   7   8
ENDBRANCH   6   7
ENDBRANCH   1   6
TORSDOF 7
ENDMDL
MODEL 5
REMARK VINA RESULT:    -3.116      2.281      3.312
REMARK INTER + INTRA:          -4.696
REMARK INTER:                  -4.417
REMARK INTRA:                  -0.280
REMARK UNBOUND:                -0.397
REMARK SMILES CCCCCCCCO
REMARK SMILES IDX 5 1 4 2 3 3 2 4 1 5 6 6 7 7 8 8 9 9
REMARK H PARENT 9 10
REMARK Flexibility Score: inf
ROOT
ATOM      1  C   UNL     1     165.489 165.273 166.841  1.00  0.00     0.000 C 
ENDROOT
BRANCH   1   2
ATOM      2  C   UNL     1     166.286 166.590 166.833  1.00  0.00    -0.000 C 
BRANCH   2   3
ATOM      3  C   UNL     1     166.240 167.309 165.473  1.00  0.00    -0.000 C 
BRANCH   3   4
ATOM      4  C   UNL     1     167.638 167.527 164.875  1.00  0.00    -0.003 C 
ATOM      5  C   UNL     1     168.748 166.938 165.744  1.00  0.00     0.004 C 
ENDBRANCH   3   4
ENDBRANCH   2   3
ENDBRANCH   1   2
BRANCH   1   6
ATOM      6  C   UNL     1     164.868 164.884 165.487  1.00  0.00     0.002 C 
BRANCH   6   7
ATOM      7  C   UNL     1     163.754 163.835 165.618  1.00  0.00     0.028 C 
BRANCH   7   8
ATOM      8  C   UNL     1     162.435 164.360 165.045  1.00  0.00     0.156 C 
BRANCH   8   9
ATOM      9  O   UNL     1     161.430 164.312 166.021  1.00  0.00    -0.396 OA
ATOM     10  H   UNL     1     160.563 164.376 165.540  1.00  0.00     0.210 HD
ENDBRANCH   8   9
ENDBRANCH   7   8
ENDBRANCH   6   7
ENDBRANCH   1   6
TORSDOF 7
ENDMDL
MODEL 6
REMARK VINA RESULT:    -3.109      5.929      7.532
REMARK INTER + INTRA:          -4.687
REMARK INTER:                  -4.309
REMARK INTRA:                  -0.378
REMARK UNBOUND:                -0.397
REMARK SMILES CCCCCCCCO
REMARK SMILES IDX 5 1 4 2 3 3 2 4 1 5 6 6 7 7 8 8 9 9
REMARK H PARENT 9 10
REMARK Flexibility Score: inf
ROOT
ATOM      1  C   UNL     1     168.925 166.585 164.875  1.00  0.00     0.000 C 
ENDROOT
BRANCH   1   2
ATOM      2  C   UNL     1     167.831 167.555 165.356  1.00  0.00    -0.000 C 
BRANCH   2   3
ATOM      3  C   UNL     1     166.499 166.849 165.665  1.00  0.00    -0.000 C 
BRANCH   3   4
ATOM      4  C   UNL     1     166.001 167.131 167.090  1.00  0.00    -0.003 C 
ATOM      5  C   UNL     1     166.540 166.129 168.112  1.00  0.00     0.004 C 
ENDBRANCH   3   4
ENDBRANCH   2   3
ENDBRANCH   1   2
BRANCH   1   6
ATOM      6  C   UNL     1     170.275 166.720 165.604  1.00  0.00     0.002 C 
BRANCH   6   7
ATOM      7  C   UNL     1     170.120 166.931 167.117  1.00  0.00     0.028 C 
BRANCH   7   8
ATOM      8  C   UNL     1     171.309 167.708 167.688  1.00  0.00     0.156 C 
BRANCH   8   9
ATOM      9  O   UNL     1     172.491 166.970 167.529  1.00  0.00    -0.396 OA
ATOM     10  H   UNL     1     172.273 166.211 166.927  1.00  0.00     0.210 HD
ENDBRANCH   8   9
ENDBRANCH   7   8
ENDBRANCH   6   7
ENDBRANCH   1   6
TORSDOF 7
ENDMDL
MODEL 7
REMARK VINA RESULT:    -2.821      4.869      6.542
REMARK INTER + INTRA:          -4.289
REMARK INTER:                  -4.116
REMARK INTRA:                  -0.173
REMARK UNBOUND:                -0.397
REMARK SMILES CCCCCCCCO
REMARK SMILES IDX 5 1 4 2 3 3 2 4 1 5 6 6 7 7 8 8 9 9
REMARK H PARENT 9 10
REMARK Flexibility Score: inf
ROOT
ATOM      1  C   UNL     1     167.109 167.303 165.569  1.00  0.00     0.000 C 
ENDROOT
BRANCH   1   2
ATOM      2  C   UNL     1     166.081 166.391 164.875  1.00  0.00    -0.000 C 
BRANCH   2   3
ATOM      3  C   UNL     1     165.344 165.464 165.858  1.00  0.00    -0.000 C 
BRANCH   3   4
ATOM      4  C   UNL     1     164.308 164.570 165.159  1.00  0.00    -0.003 C 
ATOM      5  C   UNL     1     163.097 164.270 166.042  1.00  0.00     0.004 C 
ENDBRANCH   3   4
ENDBRANCH   2   3
ENDBRANCH   1   2
BRANCH   1   6
ATOM      6  C   UNL     1     167.951 166.616 166.660  1.00  0.00     0.002 C 
BRANCH   6   7
ATOM      7  C   UNL     1     169.462 166.772 166.437  1.00  0.00     0.028 C 
BRANCH   7   8
ATOM      8  C   UNL     1     169.853 166.363 165.014  1.00  0.00     0.156 C 
BRANCH   8   9
ATOM      9  O   UNL     1     171.248 166.360 164.877  1.00  0.00    -0.396 OA
ATOM     10  H   UNL     1     171.617 166.018 165.733  1.00  0.00     0.210 HD
ENDBRANCH   8   9
ENDBRANCH   7   8
ENDBRANCH   6   7
ENDBRANCH   1   6
TORSDOF 7
ENDMDL
MODEL 8
REMARK VINA RESULT:    -2.805      1.609      3.754
REMARK INTER + INTRA:          -4.268
REMARK INTER:                  -3.926
REMARK INTRA:                  -0.342
REMARK UNBOUND:                -0.397
REMARK SMILES CCCCCCCCO
REMARK SMILES IDX 5 1 4 2 3 3 2 4 1 5 6 6 7 7 8 8 9 9
REMARK H PARENT 9 10
REMARK Flexibility Score: inf
ROOT
ATOM      1  C   UNL     1     165.255 164.904 165.947  1.00  0.00     0.000 C 
ENDROOT
BRANCH   1   2
ATOM      2  C   UNL     1     164.154 164.804 164.876  1.00  0.00    -0.000 C 
BRANCH   2   3
ATOM      3  C   UNL     1     163.027 163.831 165.265  1.00  0.00    -0.000 C 
BRANCH   3   4
ATOM      4  C   UNL     1     161.652 164.514 165.317  1.00  0.00    -0.003 C 
ATOM      5  C   UNL     1     160.865 164.156 166.578  1.00  0.00     0.004 C 
ENDBRANCH   3   4
ENDBRANCH   2   3
ENDBRANCH   1   2
BRANCH   1   6
ATOM      6  C   UNL     1     164.898 164.271 167.304  1.00  0.00     0.002 C 
BRANCH   6   7
ATOM      7  C   UNL     1     165.247 165.173 168.496  1.00  0.00     0.028 C 
BRANCH   7   8
ATOM      8  C   UNL     1     164.457 164.767 169.744  1.00  0.00     0.156 C 
BRANCH   8   9
ATOM      9  O   UNL     1     163.167 164.350 169.385  1.00  0.00    -0.396 OA
ATOM     10  H   UNL     1     162.534 164.887 169.929  1.00  0.00     0.210 HD
ENDBRANCH   8   9
ENDBRANCH   7   8
ENDBRANCH   6   7
ENDBRANCH   1   6
TORSDOF 7
ENDMDL
MODEL 9
REMARK VINA RESULT:    -2.783      3.306      4.545
REMARK INTER + INTRA:          -4.237
REMARK INTER:                  -4.063
REMARK INTRA:                  -0.174
REMARK UNBOUND:                -0.397
REMARK SMILES CCCCCCCCO
REMARK SMILES IDX 5 1 4 2 3 3 2 4 1 5 6 6 7 7 8 8 9 9
REMARK H PARENT 9 10
REMARK Flexibility Score: inf
ROOT
ATOM      1  C   UNL     1     165.935 165.771 165.632  1.00  0.00     0.000 C 
ENDROOT
BRANCH   1   2
ATOM      2  C   UNL     1     166.957 166.714 166.292  1.00  0.00    -0.000 C 
BRANCH   2   3
ATOM      3  C   UNL     1     167.878 167.406 165.272  1.00  0.00    -0.000 C 
BRANCH   3   4
ATOM      4  C   UNL     1     169.251 166.726 165.161  1.00  0.00    -0.003 C 
ATOM      5  C   UNL     1     170.136 166.986 166.379  1.00  0.00     0.004 C 
ENDBRANCH   3   4
ENDBRANCH   2   3
ENDBRANCH   1   2
BRANCH   1   6
ATOM      6  C   UNL     1     164.947 165.103 166.606  1.00  0.00     0.002 C 
BRANCH   6   7
ATOM      7  C   UNL     1     165.448 165.098 168.058  1.00  0.00     0.028 C 
BRANCH   7   8
ATOM      8  C   UNL     1     165.297 163.711 168.687  1.00  0.00     0.156 C 
BRANCH   8   9
ATOM      9  O   UNL     1     164.463 163.778 169.812  1.00  0.00    -0.396 OA
ATOM     10  H   UNL     1     163.589 163.390 169.541  1.00  0.00     0.210 HD
ENDBRANCH   8   9
ENDBRANCH   7   8
ENDBRANCH   6   7
ENDBRANCH   1   6
TORSDOF 7
ENDMDL
