MODEL 1
REMARK VINA RESULT:    -2.735      0.000      0.000
REMARK INTER + INTRA:          -4.483
REMARK INTER:                  -4.014
REMARK INTRA:                  -0.468
REMARK UNBOUND:                -0.468
REMARK SMILES CCCCCCCCCC=O
REMARK SMILES IDX 6 1 5 2 4 3 3 4 2 5 1 6 7 7 8 8 9 9 10 10 11 11
REMARK H PARENT
REMARK Flexibility Score: inf
ROOT
ATOM      1  C   UNL     1     145.595 141.184 140.412  1.00  0.00     0.000 C 
ENDROOT
BRANCH   1   2
ATOM      2  C   UNL     1     146.584 140.881 139.272  1.00  0.00     0.000 C 
BRANCH   2   3
ATOM      3  C   UNL     1     147.689 141.941 139.153  1.00  0.00    -0.000 C 
BRANCH   3   4
ATOM      4  C   UNL     1     149.018 141.354 138.645  1.00  0.00    -0.000 C 
BRANCH   4   5
ATOM      5  C   UNL     1     149.184 139.871 139.012  1.00  0.00    -0.003 C 
ATOM      6  C   UNL     1     150.622 139.515 139.391  1.00  0.00     0.004 C 
ENDBRANCH   4   5
ENDBRANCH   3   4
ENDBRANCH   2   3
ENDBRANCH   1   2
BRANCH   1   7
ATOM      7  C   UNL     1     146.239 141.984 141.555  1.00  0.00     0.000 C 
BRANCH   7   8
ATOM      8  C   UNL     1     145.315 142.122 142.774  1.00  0.00     0.008 C 
BRANCH   8   9
ATOM      9  C   UNL     1     145.636 141.057 143.829  1.00  0.00     0.072 C 
BRANCH   9  10
ATOM     10  C   UNL     1     144.459 140.156 144.056  1.00  0.00     0.224 C 
ATOM     11  O   UNL     1     143.487 140.210 143.319  1.00  0.00    -0.303 OA
ENDBRANCH   9  10
ENDBRANCH   8   9
ENDBRANCH   7   8
ENDBRANCH   1   7
TORSDOF 8
ENDMDL
MODEL 2
REMARK VINA RESULT:    -2.719      5.019      7.766
REMARK INTER + INTRA:          -4.460
REMARK INTER:                  -3.803
REMARK INTRA:                  -0.657
REMARK UNBOUND:                -0.468
REMARK SMILES CCCCCCCCCC=O
REMARK SMILES IDX 6 1 5 2 4 3 3 4 2 5 1 6 7 7 8 8 9 9 10 10 11 11
REMARK H PARENT
REMARK Flexibility Score: inf
ROOT
ATOM      1  C   UNL     1     141.061 143.293 142.915  1.00  0.00     0.000 C 
ENDROOT
BRANCH   1   2
ATOM      2  C   UNL     1     140.371 144.075 144.047  1.00  0.00     0.000 C 
BRANCH   2   3
ATOM      3  C   UNL     1     139.939 145.483 143.612  1.00  0.00    -0.000 C 
BRANCH   3   4
ATOM      4  C   UNL     1     139.176 145.480 142.276  1.00  0.00    -0.000 C 
BRANCH   4   5
ATOM      5  C   UNL     1     139.741 146.498 141.274  1.00  0.00    -0.003 C 
ATOM      6  C   UNL     1     140.098 145.865 139.929  1.00  0.00     0.004 C 
ENDBRANCH   4   5
ENDBRANCH   3   4
ENDBRANCH   2   3
ENDBRANCH   1   2
BRANCH   1   7
ATOM      7  C   UNL     1     142.416 143.900 142.518  1.00  0.00     0.000 C 
BRANCH   7   8
ATOM      8  C   UNL     1     143.365 144.061 143.715  1.00  0.00     0.008 C 
BRANCH   8   9
ATOM      9  C   UNL     1     144.187 142.786 143.938  1.00  0.00     0.072 C 
BRANCH   9  10
ATOM     10  C   UNL     1     144.697 142.243 142.637  1.00  0.00     0.224 C 
ATOM     11  O   UNL     1     145.779 142.600 142.199  1.00  0.00    -0.303 OA
ENDBRANCH   9  10
ENDBRANCH   8   9
ENDBRANCH   7   8
ENDBRANCH   1   7
TORSDOF 8
ENDMDL
MODEL 3
REMARK VINA RESULT:    -2.675      8.894     10.579
REMARK INTER + INTRA:          -4.394
REMARK INTER:                  -3.895
REMARK INTRA:                  -0.498
REMARK UNBOUND:                -0.468
REMARK SMILES CCCCCCCCCC=O
REMARK SMILES IDX 6 1 5 2 4 3 3 4 2 5 1 6 7 7 8 8 9 9 10 10 11 11
REMARK H PARENT
REMARK Flexibility Score: inf
ROOT
ATOM      1  C   UNL     1     137.782 141.876 142.111  1.00  0.00     0.000 C 
ENDROOT
BRANCH   1   2
ATOM      2  C   UNL     1     137.337 141.350 143.487  1.00  0.00     0.000 C 
BRANCH   2   3
ATOM      3  C   UNL     1     136.137 140.396 143.393  1.00  0.00    -0.000 C 
BRANCH   3   4
ATOM      4  C   UNL     1     136.183 139.512 142.134  1.00  0.00    -0.000 C 
BRANCH   4   5
ATOM      5  C   UNL     1     134.951 139.704 141.236  1.00  0.00    -0.003 C 
ATOM      6  C   UNL     1     135.318 140.135 139.816  1.00  0.00     0.004 C 
ENDBRANCH   4   5
ENDBRANCH   3   4
ENDBRANCH   2   3
ENDBRANCH   1   2
BRANCH   1   7
ATOM      7  C   UNL     1     138.037 143.391 142.112  1.00  0.00     0.000 C 
BRANCH   7   8
ATOM      8  C   UNL     1     138.518 143.910 143.475  1.00  0.00     0.008 C 
BRANCH   8   9
ATOM      9  C   UNL     1     139.521 145.057 143.302  1.00  0.00     0.072 C 
BRANCH   9  10
ATOM     10  C   UNL     1     139.714 145.386 141.853  1.00  0.00     0.224 C 
ATOM     11  O   UNL     1     139.569 146.531 141.453  1.00  0.00    -0.303 OA
ENDBRANCH   9  10
ENDBRANCH   8   9
ENDBRANCH   7   8
ENDBRANCH   1   7
TORSDOF 8
ENDMDL
MODEL 4
REMARK VINA RESULT:    -2.661      4.049      6.523
REMARK INTER + INTRA:          -4.374
REMARK INTER:                  -3.678
REMARK INTRA:                  -0.697
REMARK UNBOUND:                -0.468
REMARK SMILES CCCCCCCCCC=O
REMARK SMILES IDX 6 1 5 2 4 3 3 4 2 5 1 6 7 7 8 8 9 9 10 10 11 11
REMARK H PARENT
REMARK Flexibility Score: inf
ROOT
ATOM      1  C   UNL     1     143.596 138.905 141.655  1.00  0.00     0.000 C 
ENDROOT
BRANCH   1   2
ATOM      2  C   UNL     1     143.013 137.654 140.976  1.00  0.00     0.000 C 
BRANCH   2   3
ATOM      3  C   UNL     1     141.639 137.262 141.541  1.00  0.00    -0.000 C 
BRANCH   3   4
ATOM      4  C   UNL     1     141.667 135.910 142.276  1.00  0.00    -0.000 C 
BRANCH   4   5
ATOM      5  C   UNL     1     141.194 136.022 143.733  1.00  0.00    -0.003 C 
ATOM      6  C   UNL     1     140.535 137.368 144.038  1.00  0.00     0.004 C 
ENDBRANCH   4   5
ENDBRANCH   3   4
ENDBRANCH   2   3
ENDBRANCH   1   2
BRANCH   1   7
ATOM      7  C   UNL     1     144.000 138.650 143.115  1.00  0.00     0.000 C 
BRANCH   7   8
ATOM      8  C   UNL     1     143.894 139.911 143.987  1.00  0.00     0.008 C 
BRANCH   8   9
ATOM      9  C   UNL     1     145.258 140.597 144.125  1.00  0.00     0.072 C 
BRANCH   9  10
ATOM     10  C   UNL     1     145.356 141.782 143.212  1.00  0.00     0.224 C 
ATOM     11  O   UNL     1     145.969 141.702 142.158  1.00  0.00    -0.303 OA
ENDBRANCH   9  10
ENDBRANCH   8   9
ENDBRANCH   7   8
ENDBRANCH   1   7
TORSDOF 8
ENDMDL
MODEL 5
REMARK VINA RESULT:    -2.661      7.100      8.524
REMARK INTER + INTRA:          -4.374
REMARK INTER:                  -3.635
REMARK INTRA:                  -0.739
REMARK UNBOUND:                -0.468
REMARK SMILES CCCCCCCCCC=O
REMARK SMILES IDX 6 1 5 2 4 3 3 4 2 5 1 6 7 7 8 8 9 9 10 10 11 11
REMARK H PARENT
REMARK Flexibility Score: inf
ROOT
ATOM      1  C   UNL     1     140.226 136.832 144.031  1.00  0.00     0.000 C 
ENDROOT
BRANCH   1   2
ATOM      2  C   UNL     1     141.226 137.816 143.401  1.00  0.00     0.000 C 
BRANCH   2   3
ATOM      3  C   UNL     1     142.221 137.123 142.458  1.00  0.00    -0.000 C 
BRANCH   3   4
ATOM      4  C   UNL     1     141.834 135.663 142.163  1.00  0.00    -0.000 C 
BRANCH   4   5
ATOM      5  C   UNL     1     141.661 135.393 140.660  1.00  0.00    -0.003 C 
ATOM      6  C   UNL     1     140.706 136.380 139.990  1.00  0.00     0.004 C 
ENDBRANCH   4   5
ENDBRANCH   3   4
ENDBRANCH   2   3
ENDBRANCH   1   2
BRANCH   1   7
ATOM      7  C   UNL     1     138.767 137.282 143.860  1.00  0.00     0.000 C 
BRANCH   7   8
ATOM      8  C   UNL     1     138.534 138.050 142.551  1.00  0.00     0.008 C 
BRANCH   8   9
ATOM      9  C   UNL     1     137.996 139.458 142.830  1.00  0.00     0.072 C 
BRANCH   9  10
ATOM     10  C   UNL     1     136.508 139.438 143.005  1.00  0.00     0.224 C 
ATOM     11  O   UNL     1     135.785 139.017 142.116  1.00  0.00    -0.303 OA
ENDBRANCH   9  10
ENDBRANCH   8   9
ENDBRANCH   7   8
ENDBRANCH   1   7
TORSDOF 8
ENDMDL
MODEL 6
REMARK VINA RESULT:    -2.651      4.949      8.014
REMARK INTER + INTRA:          -4.360
REMARK INTER:                  -3.862
REMARK INTRA:                  -0.498
REMARK UNBOUND:                -0.468
REMARK SMILES CCCCCCCCCC=O
REMARK SMILES IDX 6 1 5 2 4 3 3 4 2 5 1 6 7 7 8 8 9 9 10 10 11 11
REMARK H PARENT
REMARK Flexibility Score: inf
ROOT
ATOM      1  C   UNL     1     142.121 144.332 143.853  1.00  0.00     0.000 C 
ENDROOT
BRANCH   1   2
ATOM      2  C   UNL     1     140.816 145.147 143.890  1.00  0.00     0.000 C 
BRANCH   2   3
ATOM      3  C   UNL     1     140.229 145.384 142.490  1.00  0.00    -0.000 C 
BRANCH   3   4
ATOM      4  C   UNL     1     138.738 145.013 142.405  1.00  0.00    -0.000 C 
BRANCH   4   5
ATOM      5  C   UNL     1     138.488 143.519 142.658  1.00  0.00    -0.003 C 
ATOM      6  C   UNL     1     137.567 143.269 143.852  1.00  0.00     0.004 C 
ENDBRANCH   4   5
ENDBRANCH   3   4
ENDBRANCH   2   3
ENDBRANCH   1   2
BRANCH   1   7
ATOM      7  C   UNL     1     142.311 143.582 142.525  1.00  0.00     0.000 C 
BRANCH   7   8
ATOM      8  C   UNL     1     143.784 143.261 142.232  1.00  0.00     0.008 C 
BRANCH   8   9
ATOM      9  C   UNL     1     144.429 142.525 143.412  1.00  0.00     0.072 C 
BRANCH   9  10
ATOM     10  C   UNL     1     145.512 141.602 142.941  1.00  0.00     0.224 C 
ATOM     11  O   UNL     1     146.118 141.836 141.907  1.00  0.00    -0.303 OA
ENDBRANCH   9  10
ENDBRANCH   8   9
ENDBRANCH   7   8
ENDBRANCH   1   7
TORSDOF 8
ENDMDL
MODEL 7
REMARK VINA RESULT:    -2.647      4.267      5.692
REMARK INTER + INTRA:          -4.353
REMARK INTER:                  -4.039
REMARK INTRA:                  -0.314
REMARK UNBOUND:                -0.468
REMARK SMILES CCCCCCCCCC=O
REMARK SMILES IDX 6 1 5 2 4 3 3 4 2 5 1 6 7 7 8 8 9 9 10 10 11 11
REMARK H PARENT
REMARK Flexibility Score: inf
ROOT
ATOM      1  C   UNL     1     143.182 143.681 142.804  1.00  0.00     0.000 C 
ENDROOT
BRANCH   1   2
ATOM      2  C   UNL     1     143.840 142.868 143.933  1.00  0.00     0.000 C 
BRANCH   2   3
ATOM      3  C   UNL     1     144.880 141.866 143.408  1.00  0.00    -0.000 C 
BRANCH   3   4
ATOM      4  C   UNL     1     145.686 142.419 142.220  1.00  0.00    -0.000 C 
BRANCH   4   5
ATOM      5  C   UNL     1     145.648 141.487 140.999  1.00  0.00    -0.003 C 
ATOM      6  C   UNL     1     146.901 141.601 140.131  1.00  0.00     0.004 C 
ENDBRANCH   4   5
ENDBRANCH   3   4
ENDBRANCH   2   3
ENDBRANCH   1   2
BRANCH   1   7
ATOM      7  C   UNL     1     141.659 143.793 142.967  1.00  0.00     0.000 C 
BRANCH   7   8
ATOM      8  C   UNL     1     141.244 144.963 143.871  1.00  0.00     0.008 C 
BRANCH   8   9
ATOM      9  C   UNL     1     139.736 145.223 143.774  1.00  0.00     0.072 C 
BRANCH   9  10
ATOM     10  C   UNL     1     139.308 145.365 142.344  1.00  0.00     0.224 C 
ATOM     11  O   UNL     1     139.593 146.369 141.710  1.00  0.00    -0.303 OA
ENDBRANCH   9  10
ENDBRANCH   8   9
ENDBRANCH   7   8
ENDBRANCH   1   7
TORSDOF 8
ENDMDL
MODEL 8
REMARK VINA RESULT:    -2.645      2.211      3.916
REMARK INTER + INTRA:          -4.351
REMARK INTER:                  -3.610
REMARK INTRA:                  -0.741
REMARK UNBOUND:                -0.468
REMARK SMILES CCCCCCCCCC=O
REMARK SMILES IDX 6 1 5 2 4 3 3 4 2 5 1 6 7 7 8 8 9 9 10 10 11 11
REMARK H PARENT
REMARK Flexibility Score: inf
ROOT
ATOM      1  C   UNL     1     143.698 141.593 143.796  1.00  0.00     0.000 C 
ENDROOT
BRANCH   1   2
ATOM      2  C   UNL     1     145.203 141.574 143.479  1.00  0.00     0.000 C 
BRANCH   2   3
ATOM      3  C   UNL     1     145.572 142.504 142.314  1.00  0.00    -0.000 C 
BRANCH   3   4
ATOM      4  C   UNL     1     146.435 141.803 141.249  1.00  0.00    -0.000 C 
BRANCH   4   5
ATOM      5  C   UNL     1     145.592 141.188 140.122  1.00  0.00    -0.003 C 
ATOM      6  C   UNL     1     146.446 140.510 139.050  1.00  0.00     0.004 C 
ENDBRANCH   4   5
ENDBRANCH   3   4
ENDBRANCH   2   3
ENDBRANCH   1   2
BRANCH   1   7
ATOM      7  C   UNL     1     142.978 140.320 143.324  1.00  0.00     0.000 C 
BRANCH   7   8
ATOM      8  C   UNL     1     143.948 139.162 143.044  1.00  0.00     0.008 C 
BRANCH   8   9
ATOM      9  C   UNL     1     143.653 138.517 141.685  1.00  0.00     0.072 C 
BRANCH   9  10
ATOM     10  C   UNL     1     142.830 137.274 141.849  1.00  0.00     0.224 C 
ATOM     11  O   UNL     1     142.638 136.801 142.958  1.00  0.00    -0.303 OA
ENDBRANCH   9  10
ENDBRANCH   8   9
ENDBRANCH   7   8
ENDBRANCH   1   7
TORSDOF 8
ENDMDL
MODEL 9
REMARK VINA RESULT:    -2.597      8.533      9.650
REMARK INTER + INTRA:          -4.280
REMARK INTER:                  -3.755
REMARK INTRA:                  -0.525
REMARK UNBOUND:                -0.468
REMARK SMILES CCCCCCCCCC=O
REMARK SMILES IDX 6 1 5 2 4 3 3 4 2 5 1 6 7 7 8 8 9 9 10 10 11 11
REMARK H PARENT
REMARK Flexibility Score: inf
ROOT
ATOM      1  C   UNL     1     138.307 142.408 142.384  1.00  0.00     0.000 C 
ENDROOT
BRANCH   1   2
ATOM      2  C   UNL     1     137.974 143.670 143.197  1.00  0.00     0.000 C 
BRANCH   2   3
ATOM      3  C   UNL     1     139.199 144.242 143.927  1.00  0.00    -0.000 C 
BRANCH   3   4
ATOM      4  C   UNL     1     140.221 144.870 142.962  1.00  0.00    -0.000 C 
BRANCH   4   5
ATOM      5  C   UNL     1     139.587 145.918 142.036  1.00  0.00    -0.003 C 
ATOM      6  C   UNL     1     140.041 145.773 140.582  1.00  0.00     0.004 C 
ENDBRANCH   4   5
ENDBRANCH   3   4
ENDBRANCH   2   3
ENDBRANCH   1   2
BRANCH   1   7
ATOM      7  C   UNL     1     138.253 141.127 143.232  1.00  0.00     0.000 C 
BRANCH   7   8
ATOM      8  C   UNL     1     136.928 140.978 143.994  1.00  0.00     0.008 C 
BRANCH   8   9
ATOM      9  C   UNL     1     136.351 139.568 143.818  1.00  0.00     0.072 C 
BRANCH   9  10
ATOM     10  C   UNL     1     136.218 139.221 142.366  1.00  0.00     0.224 C 
ATOM     11  O   UNL     1     135.351 139.742 141.682  1.00  0.00    -0.303 OA
ENDBRANCH   9  10
ENDBRANCH   8   9
ENDBRANCH   7   8
ENDBRANCH   1   7
TORSDOF 8
ENDMDL
