MODEL 1
REMARK VINA RESULT:    -4.258      0.000      0.000
REMARK INTER + INTRA:          -4.898
REMARK INTER:                  -4.881
REMARK INTRA:                  -0.018
REMARK UNBOUND:                -0.018
REMARK SMILES CC(C)[C@H]([NH3+])C(=O)[O-]
REMARK SMILES IDX 4 1 5 2 6 6 7 7 8 8 2 9 1 10 3 11
REMARK H PARENT 5 3 5 4 5 5
REMARK Flexibility Score: inf
ROOT
ATOM      1  C   UNL     1     -42.969 117.898   7.153  1.00  0.00     0.230 C 
ENDROOT
BRANCH   1   2
ATOM      2  N   UNL     1     -42.536 116.573   7.621  1.00  0.00    -0.350 N 
ATOM      3  H   UNL     1     -42.920 115.829   6.995  1.00  0.00     0.345 HD
ATOM      4  H   UNL     1     -41.491 116.516   7.588  1.00  0.00     0.345 HD
ATOM      5  H   UNL     1     -42.848 116.393   8.601  1.00  0.00     0.345 HD
ENDBRANCH   1   2
BRANCH   1   6
ATOM      6  C   UNL     1     -42.667 118.074   5.683  1.00  0.00     0.099 C 
ATOM      7  O   UNL     1     -42.941 117.166   4.855  1.00  0.00    -0.544 OA
ATOM      8  O   UNL     1     -42.052 119.240   5.240  1.00  0.00    -0.544 OA
ENDBRANCH   1   6
BRANCH   1   9
ATOM      9  C   UNL     1     -42.379 119.043   8.031  1.00  0.00     0.047 C 
ATOM     10  C   UNL     1     -40.923 118.751   8.424  1.00  0.00     0.014 C 
ATOM     11  C   UNL     1     -43.212 119.348   9.288  1.00  0.00     0.014 C 
ENDBRANCH   1   9
TORSDOF 3
ENDMDL
MODEL 2
REMARK VINA RESULT:    -4.183      2.255      3.377
REMARK INTER + INTRA:          -4.813
REMARK INTER:                  -4.796
REMARK INTRA:                  -0.016
REMARK UNBOUND:                -0.018
REMARK SMILES CC(C)[C@H]([NH3+])C(=O)[O-]
REMARK SMILES IDX 4 1 5 2 6 6 7 7 8 8 2 9 1 10 3 11
REMARK H PARENT 5 3 5 4 5 5
REMARK Flexibility Score: inf
ROOT
ATOM      1  C   UNL     1     -42.362 117.834   7.460  1.00  0.00     0.230 C 
ENDROOT
BRANCH   1   2
ATOM      2  N   UNL     1     -43.081 116.651   7.955  1.00  0.00    -0.350 N 
ATOM      3  H   UNL     1     -42.937 115.846   7.303  1.00  0.00     0.345 HD
ATOM      4  H   UNL     1     -42.703 116.380   8.892  1.00  0.00     0.345 HD
ATOM      5  H   UNL     1     -44.105 116.837   8.050  1.00  0.00     0.345 HD
ENDBRANCH   1   2
BRANCH   1   6
ATOM      6  C   UNL     1     -42.426 118.961   8.464  1.00  0.00     0.099 C 
ATOM      7  O   UNL     1     -41.421 119.687   8.683  1.00  0.00    -0.544 OA
ATOM      8  O   UNL     1     -43.597 119.183   9.178  1.00  0.00    -0.544 OA
ENDBRANCH   1   6
BRANCH   1   9
ATOM      9  C   UNL     1     -42.854 118.259   6.043  1.00  0.00     0.047 C 
ATOM     10  C   UNL     1     -43.104 117.036   5.149  1.00  0.00     0.014 C 
ATOM     11  C   UNL     1     -41.913 119.248   5.333  1.00  0.00     0.014 C 
ENDBRANCH   1   9
TORSDOF 3
ENDMDL
MODEL 3
REMARK VINA RESULT:    -3.767      2.528      3.450
REMARK INTER + INTRA:          -4.335
REMARK INTER:                  -4.261
REMARK INTRA:                  -0.074
REMARK UNBOUND:                -0.018
REMARK SMILES CC(C)[C@H]([NH3+])C(=O)[O-]
REMARK SMILES IDX 4 1 5 2 6 6 7 7 8 8 2 9 1 10 3 11
REMARK H PARENT 5 3 5 4 5 5
REMARK Flexibility Score: inf
ROOT
ATOM      1  C   UNL     1     -42.603 118.694   6.841  1.00  0.00     0.230 C 
ENDROOT
BRANCH   1   2
ATOM      2  N   UNL     1     -41.922 119.517   5.830  1.00  0.00    -0.350 N 
ATOM      3  H   UNL     1     -41.098 119.999   6.256  1.00  0.00     0.345 HD
ATOM      4  H   UNL     1     -41.574 118.903   5.057  1.00  0.00     0.345 HD
ATOM      5  H   UNL     1     -42.566 120.232   5.421  1.00  0.00     0.345 HD
ENDBRANCH   1   2
BRANCH   1   6
ATOM      6  C   UNL     1     -42.056 118.976   8.220  1.00  0.00     0.099 C 
ATOM      7  O   UNL     1     -40.861 118.700   8.509  1.00  0.00    -0.544 OA
ATOM      8  O   UNL     1     -42.886 119.519   9.194  1.00  0.00    -0.544 OA
ENDBRANCH   1   6
BRANCH   1   9
ATOM      9  C   UNL     1     -42.565 117.180   6.474  1.00  0.00     0.047 C 
ATOM     10  C   UNL     1     -43.160 116.928   5.080  1.00  0.00     0.014 C 
ATOM     11  C   UNL     1     -43.254 116.276   7.512  1.00  0.00     0.014 C 
ENDBRANCH   1   9
TORSDOF 3
ENDMDL
MODEL 4
REMARK VINA RESULT:    -3.531      9.838     10.928
REMARK INTER + INTRA:          -4.065
REMARK INTER:                  -4.039
REMARK INTRA:                  -0.026
REMARK UNBOUND:                -0.018
REMARK SMILES CC(C)[C@H]([NH3+])C(=O)[O-]
REMARK SMILES IDX 4 1 5 2 6 6 7 7 8 8 2 9 1 10 3 11
REMARK H PARENT 5 3 5 4 5 5
REMARK Flexibility Score: inf
ROOT
ATOM      1  C   UNL     1     -47.178 123.540  15.227  1.00  0.00     0.230 C 
ENDROOT
BRANCH   1   2
ATOM      2  N   UNL     1     -48.004 123.826  14.045  1.00  0.00    -0.350 N 
ATOM      3  H   UNL     1     -47.400 123.901  13.195  1.00  0.00     0.345 HD
ATOM      4  H   UNL     1     -48.680 123.042  13.894  1.00  0.00     0.345 HD
ATOM      5  H   UNL     1     -48.544 124.713  14.162  1.00  0.00     0.345 HD
ENDBRANCH   1   2
BRANCH   1   6
ATOM      6  C   UNL     1     -46.235 124.684  15.515  1.00  0.00     0.099 C 
ATOM      7  O   UNL     1     -45.840 124.916  16.688  1.00  0.00    -0.544 OA
ATOM      8  O   UNL     1     -45.820 125.513  14.479  1.00  0.00    -0.544 OA
ENDBRANCH   1   6
BRANCH   1   9
ATOM      9  C   UNL     1     -46.443 122.171  15.102  1.00  0.00     0.047 C 
ATOM     10  C   UNL     1     -46.349 121.461  16.461  1.00  0.00     0.014 C 
ATOM     11  C   UNL     1     -45.047 122.275  14.464  1.00  0.00     0.014 C 
ENDBRANCH   1   9
TORSDOF 3
ENDMDL
MODEL 5
REMARK VINA RESULT:    -3.382      9.723     10.343
REMARK INTER + INTRA:          -3.894
REMARK INTER:                  -3.836
REMARK INTRA:                  -0.058
REMARK UNBOUND:                -0.018
REMARK SMILES CC(C)[C@H]([NH3+])C(=O)[O-]
REMARK SMILES IDX 4 1 5 2 6 6 7 7 8 8 2 9 1 10 3 11
REMARK H PARENT 5 3 5 4 5 5
REMARK Flexibility Score: inf
ROOT
ATOM      1  C   UNL     1     -45.702 123.831  15.194  1.00  0.00     0.230 C 
ENDROOT
BRANCH   1   2
ATOM      2  N   UNL     1     -46.299 124.920  14.408  1.00  0.00    -0.350 N 
ATOM      3  H   UNL     1     -45.553 125.575  14.079  1.00  0.00     0.345 HD
ATOM      4  H   UNL     1     -46.774 124.522  13.565  1.00  0.00     0.345 HD
ATOM      5  H   UNL     1     -47.003 125.453  14.966  1.00  0.00     0.345 HD
ENDBRANCH   1   2
BRANCH   1   6
ATOM      6  C   UNL     1     -44.223 123.712  14.912  1.00  0.00     0.099 C 
ATOM      7  O   UNL     1     -43.809 123.174  13.851  1.00  0.00    -0.544 OA
ATOM      8  O   UNL     1     -43.303 124.174  15.847  1.00  0.00    -0.544 OA
ENDBRANCH   1   6
BRANCH   1   9
ATOM      9  C   UNL     1     -46.464 122.486  14.991  1.00  0.00     0.047 C 
ATOM     10  C   UNL     1     -47.944 122.729  14.659  1.00  0.00     0.014 C 
ATOM     11  C   UNL     1     -46.343 121.521  16.184  1.00  0.00     0.014 C 
ENDBRANCH   1   9
TORSDOF 3
ENDMDL
MODEL 6
REMARK VINA RESULT:    -3.360      9.528     10.274
REMARK INTER + INTRA:          -3.869
REMARK INTER:                  -3.821
REMARK INTRA:                  -0.048
REMARK UNBOUND:                -0.018
REMARK SMILES CC(C)[C@H]([NH3+])C(=O)[O-]
REMARK SMILES IDX 4 1 5 2 6 6 7 7 8 8 2 9 1 10 3 11
REMARK H PARENT 5 3 5 4 5 5
REMARK Flexibility Score: inf
ROOT
ATOM      1  C   UNL     1     -44.406 124.183  14.523  1.00  0.00     0.230 C 
ENDROOT
BRANCH   1   2
ATOM      2  N   UNL     1     -43.709 123.957  13.248  1.00  0.00    -0.350 N 
ATOM      3  H   UNL     1     -44.336 124.203  12.448  1.00  0.00     0.345 HD
ATOM      4  H   UNL     1     -42.864 124.573  13.198  1.00  0.00     0.345 HD
ATOM      5  H   UNL     1     -43.402 122.963  13.151  1.00  0.00     0.345 HD
ENDBRANCH   1   2
BRANCH   1   6
ATOM      6  C   UNL     1     -45.218 122.971  14.914  1.00  0.00     0.099 C 
ATOM      7  O   UNL     1     -44.697 121.824  14.932  1.00  0.00    -0.544 OA
ATOM      8  O   UNL     1     -46.564 123.115  15.230  1.00  0.00    -0.544 OA
ENDBRANCH   1   6
BRANCH   1   9
ATOM      9  C   UNL     1     -45.252 125.492  14.495  1.00  0.00     0.047 C 
ATOM     10  C   UNL     1     -44.874 126.376  13.297  1.00  0.00     0.014 C 
ATOM     11  C   UNL     1     -45.171 126.308  15.797  1.00  0.00     0.014 C 
ENDBRANCH   1   9
TORSDOF 3
ENDMDL
MODEL 7
REMARK VINA RESULT:    -3.350     10.006     10.987
REMARK INTER + INTRA:          -3.858
REMARK INTER:                  -3.783
REMARK INTRA:                  -0.075
REMARK UNBOUND:                -0.018
REMARK SMILES CC(C)[C@H]([NH3+])C(=O)[O-]
REMARK SMILES IDX 4 1 5 2 6 6 7 7 8 8 2 9 1 10 3 11
REMARK H PARENT 5 3 5 4 5 5
REMARK Flexibility Score: inf
ROOT
ATOM      1  C   UNL     1     -45.958 124.477  15.207  1.00  0.00     0.230 C 
ENDROOT
BRANCH   1   2
ATOM      2  N   UNL     1     -47.171 124.217  14.418  1.00  0.00    -0.350 N 
ATOM      3  H   UNL     1     -48.009 124.206  15.042  1.00  0.00     0.345 HD
ATOM      4  H   UNL     1     -47.300 124.982  13.715  1.00  0.00     0.345 HD
ATOM      5  H   UNL     1     -47.109 123.306  13.910  1.00  0.00     0.345 HD
ENDBRANCH   1   2
BRANCH   1   6
ATOM      6  C   UNL     1     -45.527 125.918  15.073  1.00  0.00     0.099 C 
ATOM      7  O   UNL     1     -45.197 126.391  13.953  1.00  0.00    -0.544 OA
ATOM      8  O   UNL     1     -45.466 126.728  16.201  1.00  0.00    -0.544 OA
ENDBRANCH   1   6
BRANCH   1   9
ATOM      9  C   UNL     1     -44.817 123.472  14.862  1.00  0.00     0.047 C 
ATOM     10  C   UNL     1     -45.339 122.028  14.821  1.00  0.00     0.014 C 
ATOM     11  C   UNL     1     -43.604 123.567  15.804  1.00  0.00     0.014 C 
ENDBRANCH   1   9
TORSDOF 3
ENDMDL
MODEL 8
REMARK VINA RESULT:    -3.334     10.135     10.929
REMARK INTER + INTRA:          -3.840
REMARK INTER:                  -3.848
REMARK INTRA:                   0.009
REMARK UNBOUND:                -0.018
REMARK SMILES CC(C)[C@H]([NH3+])C(=O)[O-]
REMARK SMILES IDX 4 1 5 2 6 6 7 7 8 8 2 9 1 10 3 11
REMARK H PARENT 5 3 5 4 5 5
REMARK Flexibility Score: inf
ROOT
ATOM      1  C   UNL     1     -45.410 126.031  14.412  1.00  0.00     0.230 C 
ENDROOT
BRANCH   1   2
ATOM      2  N   UNL     1     -46.362 124.910  14.391  1.00  0.00    -0.350 N 
ATOM      3  H   UNL     1     -45.865 124.022  14.154  1.00  0.00     0.345 HD
ATOM      4  H   UNL     1     -46.789 124.798  15.340  1.00  0.00     0.345 HD
ATOM      5  H   UNL     1     -47.128 125.071  13.699  1.00  0.00     0.345 HD
ENDBRANCH   1   2
BRANCH   1   6
ATOM      6  C   UNL     1     -44.673 126.134  13.098  1.00  0.00     0.099 C 
ATOM      7  O   UNL     1     -43.759 125.318  12.804  1.00  0.00    -0.544 OA
ATOM      8  O   UNL     1     -44.983 127.158  12.211  1.00  0.00    -0.544 OA
ENDBRANCH   1   6
BRANCH   1   9
ATOM      9  C   UNL     1     -44.450 125.951  15.637  1.00  0.00     0.047 C 
ATOM     10  C   UNL     1     -44.182 124.494  16.043  1.00  0.00     0.014 C 
ATOM     11  C   UNL     1     -44.935 126.756  16.855  1.00  0.00     0.014 C 
ENDBRANCH   1   9
TORSDOF 3
ENDMDL
MODEL 9
REMARK VINA RESULT:    -3.304      9.304     10.392
REMARK INTER + INTRA:          -3.805
REMARK INTER:                  -3.804
REMARK INTRA:                  -0.001
REMARK UNBOUND:                -0.018
REMARK SMILES CC(C)[C@H]([NH3+])C(=O)[O-]
REMARK SMILES IDX 4 1 5 2 6 6 7 7 8 8 2 9 1 10 3 11
REMARK H PARENT 5 3 5 4 5 5
REMARK Flexibility Score: inf
ROOT
ATOM      1  C   UNL     1     -44.129 124.742  14.355  1.00  0.00     0.230 C 
ENDROOT
BRANCH   1   2
ATOM      2  N   UNL     1     -43.914 124.789  12.901  1.00  0.00    -0.350 N 
ATOM      3  H   UNL     1     -43.324 125.616  12.653  1.00  0.00     0.345 HD
ATOM      4  H   UNL     1     -43.407 123.927  12.595  1.00  0.00     0.345 HD
ATOM      5  H   UNL     1     -44.819 124.844  12.382  1.00  0.00     0.345 HD
ENDBRANCH   1   2
BRANCH   1   6
ATOM      6  C   UNL     1     -44.042 123.323  14.865  1.00  0.00     0.099 C 
ATOM      7  O   UNL     1     -43.643 123.081  16.035  1.00  0.00    -0.544 OA
ATOM      8  O   UNL     1     -44.376 122.266  14.027  1.00  0.00    -0.544 OA
ENDBRANCH   1   6
BRANCH   1   9
ATOM      9  C   UNL     1     -45.455 125.450  14.767  1.00  0.00     0.047 C 
ATOM     10  C   UNL     1     -45.245 126.363  15.985  1.00  0.00     0.014 C 
ATOM     11  C   UNL     1     -46.618 124.479  15.031  1.00  0.00     0.014 C 
ENDBRANCH   1   9
TORSDOF 3
ENDMDL
