MODEL 1
REMARK VINA RESULT:    -6.532      0.000      0.000
REMARK INTER + INTRA:         -17.073
REMARK INTER:                 -14.169
REMARK INTRA:                  -2.904
REMARK UNBOUND:                -2.904
REMARK SMILES CCCCCCCCCCCCCCCCCCCCCC(=O)[O-]
REMARK SMILES IDX 12 1 11 2 10 3 9 4 8 5 7 6 6 7 5 8 4 9 3 10 2 11 1 12 13 13
REMARK SMILES IDX 14 14 15 15 16 16 17 17 18 18 19 19 20 20 21 21 22 22 23 23
REMARK SMILES IDX 24 24
REMARK H PARENT
REMARK Flexibility Score: inf
ROOT
ATOM      1  C   UNL     1      13.233   2.199  15.608  1.00  0.00     0.000 C 
ENDROOT
BRANCH   1   2
ATOM      2  C   UNL     1      13.570   3.457  16.439  1.00  0.00     0.000 C 
BRANCH   2   3
ATOM      3  C   UNL     1      12.931   3.428  17.838  1.00  0.00     0.000 C 
BRANCH   3   4
ATOM      4  C   UNL     1      13.973   3.337  18.965  1.00  0.00    -0.000 C 
BRANCH   4   5
ATOM      5  C   UNL     1      14.806   2.045  18.897  1.00  0.00    -0.000 C 
BRANCH   5   6
ATOM      6  C   UNL     1      14.763   1.251  20.214  1.00  0.00    -0.000 C 
BRANCH   6   7
ATOM      7  C   UNL     1      13.960  -0.056  20.088  1.00  0.00    -0.000 C 
BRANCH   7   8
ATOM      8  C   UNL     1      13.735  -0.480  18.625  1.00  0.00    -0.000 C 
BRANCH   8   9
ATOM      9  C   UNL     1      14.476  -1.760  18.199  1.00  0.00    -0.000 C 
BRANCH   9  10
ATOM     10  C   UNL     1      15.729  -1.471  17.355  1.00  0.00    -0.000 C 
BRANCH  10  11
ATOM     11  C   UNL     1      17.028  -1.856  18.080  1.00  0.00    -0.003 C 
ATOM     12  C   UNL     1      17.601  -0.708  18.911  1.00  0.00     0.004 C 
ENDBRANCH  10  11
ENDBRANCH   9  10
ENDBRANCH   8   9
ENDBRANCH   7   8
ENDBRANCH   6   7
ENDBRANCH   5   6
ENDBRANCH   4   5
ENDBRANCH   3   4
ENDBRANCH   2   3
ENDBRANCH   1   2
BRANCH   1  13
ATOM     13  C   UNL     1      14.429   1.636  14.819  1.00  0.00     0.000 C 
BRANCH  13  14
ATOM     14  C   UNL     1      15.489   2.675  14.414  1.00  0.00     0.000 C 
BRANCH  14  15
ATOM     15  C   UNL     1      15.496   3.056  12.919  1.00  0.00     0.000 C 
BRANCH  15  16
ATOM     16  C   UNL     1      15.552   1.868  11.943  1.00  0.00     0.000 C 
BRANCH  16  17
ATOM     17  C   UNL     1      16.781   1.903  11.024  1.00  0.00     0.000 C 
BRANCH  17  18
ATOM     18  C   UNL     1      17.819   0.857  11.459  1.00  0.00     0.000 C 
BRANCH  18  19
ATOM     19  C   UNL     1      17.360   0.027  12.668  1.00  0.00     0.000 C 
BRANCH  19  20
ATOM     20  C   UNL     1      18.534  -0.580  13.450  1.00  0.00     0.006 C 
BRANCH  20  21
ATOM     21  C   UNL     1      18.343  -0.402  14.959  1.00  0.00     0.053 C 
BRANCH  21  22
ATOM     22  C   UNL     1      19.658  -0.491  15.666  1.00  0.00     0.041 C 
ATOM     23  O   UNL     1      20.150  -1.617  15.952  1.00  0.00    -0.550 OA
ATOM     24  O   UNL     1      20.373   0.665  15.953  1.00  0.00    -0.550 OA
ENDBRANCH  21  22
ENDBRANCH  20  21
ENDBRANCH  19  20
ENDBRANCH  18  19
ENDBRANCH  17  18
ENDBRANCH  16  17
ENDBRANCH  15  16
ENDBRANCH  14  15
ENDBRANCH  13  14
ENDBRANCH   1  13
TORSDOF 20
ENDMDL
MODEL 2
REMARK VINA RESULT:    -6.376      2.320      4.852
REMARK INTER + INTRA:         -16.734
REMARK INTER:                 -13.465
REMARK INTRA:                  -3.269
REMARK UNBOUND:                -2.904
REMARK SMILES CCCCCCCCCCCCCCCCCCCCCC(=O)[O-]
REMARK SMILES IDX 12 1 11 2 10 3 9 4 8 5 7 6 6 7 5 8 4 9 3 10 2 11 1 12 13 13
REMARK SMILES IDX 14 14 15 15 16 16 17 17 18 18 19 19 20 20 21 21 22 22 23 23
REMARK SMILES IDX 24 24
REMARK H PARENT
REMARK Flexibility Score: inf
ROOT
ATOM      1  C   UNL     1      19.369  -1.432  15.948  1.00  0.00     0.000 C 
ENDROOT
BRANCH   1   2
ATOM      2  C   UNL     1      18.209  -2.249  16.561  1.00  0.00     0.000 C 
BRANCH   2   3
ATOM      3  C   UNL     1      17.563  -1.543  17.765  1.00  0.00     0.000 C 
BRANCH   3   4
ATOM      4  C   UNL     1      17.835  -0.030  17.783  1.00  0.00    -0.000 C 
BRANCH   4   5
ATOM      5  C   UNL     1      17.131   0.683  18.951  1.00  0.00    -0.000 C 
BRANCH   5   6
ATOM      6  C   UNL     1      16.231  -0.267  19.760  1.00  0.00    -0.000 C 
BRANCH   6   7
ATOM      7  C   UNL     1      14.766   0.205  19.804  1.00  0.00    -0.000 C 
BRANCH   7   8
ATOM      8  C   UNL     1      14.019  -0.041  18.481  1.00  0.00    -0.000 C 
BRANCH   8   9
ATOM      9  C   UNL     1      13.704   1.228  17.669  1.00  0.00    -0.000 C 
BRANCH   9  10
ATOM     10  C   UNL     1      13.695   2.502  18.531  1.00  0.00    -0.000 C 
BRANCH  10  11
ATOM     11  C   UNL     1      14.245   3.725  17.780  1.00  0.00    -0.003 C 
ATOM     12  C   UNL     1      15.568   3.434  17.072  1.00  0.00     0.004 C 
ENDBRANCH  10  11
ENDBRANCH   9  10
ENDBRANCH   8   9
ENDBRANCH   7   8
ENDBRANCH   6   7
ENDBRANCH   5   6
ENDBRANCH   4   5
ENDBRANCH   3   4
ENDBRANCH   2   3
ENDBRANCH   1   2
BRANCH   1  13
ATOM     13  C   UNL     1      19.195  -1.136  14.447  1.00  0.00     0.000 C 
BRANCH  13  14
ATOM     14  C   UNL     1      18.179  -0.029  14.115  1.00  0.00     0.000 C 
BRANCH  14  15
ATOM     15  C   UNL     1      16.705  -0.483  14.073  1.00  0.00     0.000 C 
BRANCH  15  16
ATOM     16  C   UNL     1      15.713   0.454  14.783  1.00  0.00     0.000 C 
BRANCH  16  17
ATOM     17  C   UNL     1      14.753   1.158  13.813  1.00  0.00     0.000 C 
BRANCH  17  18
ATOM     18  C   UNL     1      15.082   2.656  13.710  1.00  0.00     0.000 C 
BRANCH  18  19
ATOM     19  C   UNL     1      15.594   3.060  12.319  1.00  0.00     0.000 C 
BRANCH  19  20
ATOM     20  C   UNL     1      15.883   1.850  11.419  1.00  0.00     0.006 C 
BRANCH  20  21
ATOM     21  C   UNL     1      17.350   1.830  10.975  1.00  0.00     0.053 C 
BRANCH  21  22
ATOM     22  C   UNL     1      17.630   0.609  10.157  1.00  0.00     0.041 C 
ATOM     23  O   UNL     1      17.263  -0.526  10.564  1.00  0.00    -0.550 OA
ATOM     24  O   UNL     1      18.242   0.731   8.916  1.00  0.00    -0.550 OA
ENDBRANCH  21  22
ENDBRANCH  20  21
ENDBRANCH  19  20
ENDBRANCH  18  19
ENDBRANCH  17  18
ENDBRANCH  16  17
ENDBRANCH  15  16
ENDBRANCH  14  15
ENDBRANCH  13  14
ENDBRANCH   1  13
TORSDOF 20
ENDMDL
MODEL 3
REMARK VINA RESULT:    -6.374      2.369      7.158
REMARK INTER + INTRA:         -16.729
REMARK INTER:                 -13.377
REMARK INTRA:                  -3.352
REMARK UNBOUND:                -2.904
REMARK SMILES CCCCCCCCCCCCCCCCCCCCCC(=O)[O-]
REMARK SMILES IDX 12 1 11 2 10 3 9 4 8 5 7 6 6 7 5 8 4 9 3 10 2 11 1 12 13 13
REMARK SMILES IDX 14 14 15 15 16 16 17 17 18 18 19 19 20 20 21 21 22 22 23 23
REMARK SMILES IDX 24 24
REMARK H PARENT
REMARK Flexibility Score: inf
ROOT
ATOM      1  C   UNL     1      19.604  -0.767  15.133  1.00  0.00     0.000 C 
ENDROOT
BRANCH   1   2
ATOM      2  C   UNL     1      18.873  -0.445  13.810  1.00  0.00     0.000 C 
BRANCH   2   3
ATOM      3  C   UNL     1      17.350  -0.329  13.992  1.00  0.00     0.000 C 
BRANCH   3   4
ATOM      4  C   UNL     1      16.959   0.551  15.189  1.00  0.00    -0.000 C 
BRANCH   4   5
ATOM      5  C   UNL     1      15.435   0.683  15.353  1.00  0.00    -0.000 C 
BRANCH   5   6
ATOM      6  C   UNL     1      14.744   1.143  14.058  1.00  0.00    -0.000 C 
BRANCH   6   7
ATOM      7  C   UNL     1      14.831   2.666  13.853  1.00  0.00    -0.000 C 
BRANCH   7   8
ATOM      8  C   UNL     1      15.554   3.053  12.550  1.00  0.00    -0.000 C 
BRANCH   8   9
ATOM      9  C   UNL     1      15.766   1.896  11.557  1.00  0.00    -0.000 C 
BRANCH   9  10
ATOM     10  C   UNL     1      17.204   1.831  11.014  1.00  0.00    -0.000 C 
BRANCH  10  11
ATOM     11  C   UNL     1      17.532   0.472  10.378  1.00  0.00    -0.003 C 
ATOM     12  C   UNL     1      18.089   0.605   8.961  1.00  0.00     0.004 C 
ENDBRANCH  10  11
ENDBRANCH   9  10
ENDBRANCH   8   9
ENDBRANCH   7   8
ENDBRANCH   6   7
ENDBRANCH   5   6
ENDBRANCH   4   5
ENDBRANCH   3   4
ENDBRANCH   2   3
ENDBRANCH   1   2
BRANCH   1  13
ATOM     13  C   UNL     1      19.560  -2.256  15.521  1.00  0.00     0.000 C 
BRANCH  13  14
ATOM     14  C   UNL     1      18.912  -2.555  16.884  1.00  0.00     0.000 C 
BRANCH  14  15
ATOM     15  C   UNL     1      17.369  -2.538  16.894  1.00  0.00     0.000 C 
BRANCH  15  16
ATOM     16  C   UNL     1      16.733  -1.819  18.096  1.00  0.00     0.000 C 
BRANCH  16  17
ATOM     17  C   UNL     1      17.587  -0.657  18.622  1.00  0.00     0.000 C 
BRANCH  17  18
ATOM     18  C   UNL     1      16.698   0.485  19.139  1.00  0.00     0.000 C 
BRANCH  18  19
ATOM     19  C   UNL     1      15.299   0.009  19.559  1.00  0.00     0.000 C 
BRANCH  19  20
ATOM     20  C   UNL     1      14.174   0.825  18.905  1.00  0.00     0.006 C 
BRANCH  20  21
ATOM     21  C   UNL     1      14.429   2.329  19.049  1.00  0.00     0.053 C 
BRANCH  21  22
ATOM     22  C   UNL     1      14.212   3.022  17.741  1.00  0.00     0.041 C 
ATOM     23  O   UNL     1      15.092   3.800  17.282  1.00  0.00    -0.550 OA
ATOM     24  O   UNL     1      13.068   2.762  16.999  1.00  0.00    -0.550 OA
ENDBRANCH  21  22
ENDBRANCH  20  21
ENDBRANCH  19  20
ENDBRANCH  18  19
ENDBRANCH  17  18
ENDBRANCH  16  17
ENDBRANCH  15  16
ENDBRANCH  14  15
ENDBRANCH  13  14
ENDBRANCH   1  13
TORSDOF 20
ENDMDL
MODEL 4
REMARK VINA RESULT:    -6.346      1.068      3.574
REMARK INTER + INTRA:         -16.670
REMARK INTER:                 -13.634
REMARK INTRA:                  -3.036
REMARK UNBOUND:                -2.904
REMARK SMILES CCCCCCCCCCCCCCCCCCCCCC(=O)[O-]
REMARK SMILES IDX 12 1 11 2 10 3 9 4 8 5 7 6 6 7 5 8 4 9 3 10 2 11 1 12 13 13
REMARK SMILES IDX 14 14 15 15 16 16 17 17 18 18 19 19 20 20 21 21 22 22 23 23
REMARK SMILES IDX 24 24
REMARK H PARENT
REMARK Flexibility Score: inf
ROOT
ATOM      1  C   UNL     1      15.772  -1.335  16.638  1.00  0.00     0.000 C 
ENDROOT
BRANCH   1   2
ATOM      2  C   UNL     1      16.927  -2.295  16.999  1.00  0.00     0.000 C 
BRANCH   2   3
ATOM      3  C   UNL     1      17.666  -1.874  18.282  1.00  0.00     0.000 C 
BRANCH   3   4
ATOM      4  C   UNL     1      17.937  -0.363  18.341  1.00  0.00    -0.000 C 
BRANCH   4   5
ATOM      5  C   UNL     1      17.212   0.322  19.513  1.00  0.00    -0.000 C 
BRANCH   5   6
ATOM      6  C   UNL     1      16.088  -0.551  20.096  1.00  0.00    -0.000 C 
BRANCH   6   7
ATOM      7  C   UNL     1      14.860   0.275  20.520  1.00  0.00    -0.000 C 
BRANCH   7   8
ATOM      8  C   UNL     1      13.666   0.106  19.563  1.00  0.00    -0.000 C 
BRANCH   8   9
ATOM      9  C   UNL     1      13.617   1.115  18.403  1.00  0.00    -0.000 C 
BRANCH   9  10
ATOM     10  C   UNL     1      14.360   2.425  18.719  1.00  0.00    -0.000 C 
BRANCH  10  11
ATOM     11  C   UNL     1      13.514   3.670  18.413  1.00  0.00    -0.003 C 
ATOM     12  C   UNL     1      12.907   3.639  17.010  1.00  0.00     0.004 C 
ENDBRANCH  10  11
ENDBRANCH   9  10
ENDBRANCH   8   9
ENDBRANCH   7   8
ENDBRANCH   6   7
ENDBRANCH   5   6
ENDBRANCH   4   5
ENDBRANCH   3   4
ENDBRANCH   2   3
ENDBRANCH   1   2
BRANCH   1  13
ATOM     13  C   UNL     1      16.024  -0.513  15.360  1.00  0.00     0.000 C 
BRANCH  13  14
ATOM     14  C   UNL     1      15.694   0.986  15.474  1.00  0.00     0.000 C 
BRANCH  14  15
ATOM     15  C   UNL     1      14.872   1.566  14.304  1.00  0.00     0.000 C 
BRANCH  15  16
ATOM     16  C   UNL     1      15.615   2.591  13.430  1.00  0.00     0.000 C 
BRANCH  16  17
ATOM     17  C   UNL     1      15.647   2.202  11.945  1.00  0.00     0.000 C 
BRANCH  17  18
ATOM     18  C   UNL     1      17.039   1.689  11.543  1.00  0.00     0.000 C 
BRANCH  18  19
ATOM     19  C   UNL     1      17.336   0.281  12.084  1.00  0.00     0.000 C 
BRANCH  19  20
ATOM     20  C   UNL     1      18.578   0.243  12.985  1.00  0.00     0.006 C 
BRANCH  20  21
ATOM     21  C   UNL     1      18.849  -1.178  13.491  1.00  0.00     0.053 C 
BRANCH  21  22
ATOM     22  C   UNL     1      19.578  -1.137  14.796  1.00  0.00     0.041 C 
ATOM     23  O   UNL     1      19.972  -2.206  15.337  1.00  0.00    -0.550 OA
ATOM     24  O   UNL     1      19.879   0.085  15.386  1.00  0.00    -0.550 OA
ENDBRANCH  21  22
ENDBRANCH  20  21
ENDBRANCH  19  20
ENDBRANCH  18  19
ENDBRANCH  17  18
ENDBRANCH  16  17
ENDBRANCH  15  16
ENDBRANCH  14  15
ENDBRANCH  13  14
ENDBRANCH   1  13
TORSDOF 20
ENDMDL
MODEL 5
REMARK VINA RESULT:    -6.313      1.747      5.843
REMARK INTER + INTRA:         -16.598
REMARK INTER:                 -13.914
REMARK INTRA:                  -2.684
REMARK UNBOUND:                -2.904
REMARK SMILES CCCCCCCCCCCCCCCCCCCCCC(=O)[O-]
REMARK SMILES IDX 12 1 11 2 10 3 9 4 8 5 7 6 6 7 5 8 4 9 3 10 2 11 1 12 13 13
REMARK SMILES IDX 14 14 15 15 16 16 17 17 18 18 19 19 20 20 21 21 22 22 23 23
REMARK SMILES IDX 24 24
REMARK H PARENT
REMARK Flexibility Score: inf
ROOT
ATOM      1  C   UNL     1      13.584   3.739  16.988  1.00  0.00     0.000 C 
ENDROOT
BRANCH   1   2
ATOM      2  C   UNL     1      13.672   2.822  15.748  1.00  0.00     0.000 C 
BRANCH   2   3
ATOM      3  C   UNL     1      15.104   2.709  15.198  1.00  0.00     0.000 C 
BRANCH   3   4
ATOM      4  C   UNL     1      15.182   2.973  13.686  1.00  0.00    -0.000 C 
BRANCH   4   5
ATOM      5  C   UNL     1      15.173   1.676  12.859  1.00  0.00    -0.000 C 
BRANCH   5   6
ATOM      6  C   UNL     1      15.951   1.818  11.539  1.00  0.00    -0.000 C 
BRANCH   6   7
ATOM      7  C   UNL     1      17.215   0.941  11.504  1.00  0.00    -0.000 C 
BRANCH   7   8
ATOM      8  C   UNL     1      17.305  -0.027  12.697  1.00  0.00    -0.000 C 
BRANCH   8   9
ATOM      9  C   UNL     1      18.679  -0.077  13.390  1.00  0.00    -0.000 C 
BRANCH   9  10
ATOM     10  C   UNL     1      18.923  -1.400  14.136  1.00  0.00    -0.000 C 
BRANCH  10  11
ATOM     11  C   UNL     1      20.050  -1.291  15.174  1.00  0.00    -0.003 C 
ATOM     12  C   UNL     1      20.231   0.134  15.698  1.00  0.00     0.004 C 
ENDBRANCH  10  11
ENDBRANCH   9  10
ENDBRANCH   8   9
ENDBRANCH   7   8
ENDBRANCH   6   7
ENDBRANCH   5   6
ENDBRANCH   4   5
ENDBRANCH   3   4
ENDBRANCH   2   3
ENDBRANCH   1   2
BRANCH   1  13
ATOM     13  C   UNL     1      13.541   2.975  18.325  1.00  0.00     0.000 C 
BRANCH  13  14
ATOM     14  C   UNL     1      13.567   1.442  18.200  1.00  0.00     0.000 C 
BRANCH  14  15
ATOM     15  C   UNL     1      13.862   0.683  19.510  1.00  0.00     0.000 C 
BRANCH  15  16
ATOM     16  C   UNL     1      15.203   1.033  20.179  1.00  0.00     0.000 C 
BRANCH  16  17
ATOM     17  C   UNL     1      16.241  -0.093  20.067  1.00  0.00     0.000 C 
BRANCH  17  18
ATOM     18  C   UNL     1      17.444   0.355  19.223  1.00  0.00     0.000 C 
BRANCH  18  19
ATOM     19  C   UNL     1      17.031   1.070  17.927  1.00  0.00     0.000 C 
BRANCH  19  20
ATOM     20  C   UNL     1      17.200   0.187  16.682  1.00  0.00     0.006 C 
BRANCH  20  21
ATOM     21  C   UNL     1      15.899  -0.548  16.346  1.00  0.00     0.053 C 
BRANCH  21  22
ATOM     22  C   UNL     1      15.875  -1.892  17.002  1.00  0.00     0.041 C 
ATOM     23  O   UNL     1      16.890  -2.640  16.953  1.00  0.00    -0.550 OA
ATOM     24  O   UNL     1      14.757  -2.295  17.720  1.00  0.00    -0.550 OA
ENDBRANCH  21  22
ENDBRANCH  20  21
ENDBRANCH  19  20
ENDBRANCH  18  19
ENDBRANCH  17  18
ENDBRANCH  16  17
ENDBRANCH  15  16
ENDBRANCH  14  15
ENDBRANCH  13  14
ENDBRANCH   1  13
TORSDOF 20
ENDMDL
MODEL 6
REMARK VINA RESULT:    -6.278      2.152      6.984
REMARK INTER + INTRA:         -16.521
REMARK INTER:                 -13.366
REMARK INTRA:                  -3.155
REMARK UNBOUND:                -2.904
REMARK SMILES CCCCCCCCCCCCCCCCCCCCCC(=O)[O-]
REMARK SMILES IDX 12 1 11 2 10 3 9 4 8 5 7 6 6 7 5 8 4 9 3 10 2 11 1 12 13 13
REMARK SMILES IDX 14 14 15 15 16 16 17 17 18 18 19 19 20 20 21 21 22 22 23 23
REMARK SMILES IDX 24 24
REMARK H PARENT
REMARK Flexibility Score: inf
ROOT
ATOM      1  C   UNL     1      15.884  -2.132  17.826  1.00  0.00     0.000 C 
ENDROOT
BRANCH   1   2
ATOM      2  C   UNL     1      17.132  -1.869  18.698  1.00  0.00     0.000 C 
BRANCH   2   3
ATOM      3  C   UNL     1      17.421  -0.368  18.877  1.00  0.00     0.000 C 
BRANCH   3   4
ATOM      4  C   UNL     1      18.321   0.199  17.769  1.00  0.00    -0.000 C 
BRANCH   4   5
ATOM      5  C   UNL     1      17.550   1.092  16.780  1.00  0.00    -0.000 C 
BRANCH   5   6
ATOM      6  C   UNL     1      17.172   0.344  15.489  1.00  0.00    -0.000 C 
BRANCH   6   7
ATOM      7  C   UNL     1      18.202  -0.734  15.110  1.00  0.00    -0.000 C 
BRANCH   7   8
ATOM      8  C   UNL     1      18.682  -0.616  13.652  1.00  0.00    -0.000 C 
BRANCH   8   9
ATOM      9  C   UNL     1      17.585  -0.252  12.636  1.00  0.00    -0.000 C 
BRANCH   9  10
ATOM     10  C   UNL     1      17.976   0.931  11.734  1.00  0.00    -0.000 C 
BRANCH  10  11
ATOM     11  C   UNL     1      16.761   1.573  11.046  1.00  0.00    -0.003 C 
ATOM     12  C   UNL     1      15.692   2.023  12.041  1.00  0.00     0.004 C 
ENDBRANCH  10  11
ENDBRANCH   9  10
ENDBRANCH   8   9
ENDBRANCH   7   8
ENDBRANCH   6   7
ENDBRANCH   5   6
ENDBRANCH   4   5
ENDBRANCH   3   4
ENDBRANCH   2   3
ENDBRANCH   1   2
BRANCH   1  13
ATOM     13  C   UNL     1      14.788  -1.060  17.969  1.00  0.00     0.000 C 
BRANCH  13  14
ATOM     14  C   UNL     1      13.643  -1.422  18.930  1.00  0.00     0.000 C 
BRANCH  14  15
ATOM     15  C   UNL     1      13.325  -0.357  20.000  1.00  0.00     0.000 C 
BRANCH  15  16
ATOM     16  C   UNL     1      14.502   0.020  20.916  1.00  0.00     0.000 C 
BRANCH  16  17
ATOM     17  C   UNL     1      14.816   1.523  20.902  1.00  0.00     0.000 C 
BRANCH  17  18
ATOM     18  C   UNL     1      14.908   2.049  19.461  1.00  0.00     0.000 C 
BRANCH  18  19
ATOM     19  C   UNL     1      14.099   3.337  19.243  1.00  0.00     0.000 C 
BRANCH  19  20
ATOM     20  C   UNL     1      13.240   3.288  17.971  1.00  0.00     0.006 C 
BRANCH  20  21
ATOM     21  C   UNL     1      13.564   2.047  17.133  1.00  0.00     0.053 C 
BRANCH  21  22
ATOM     22  C   UNL     1      13.898   2.439  15.728  1.00  0.00     0.041 C 
ATOM     23  O   UNL     1      13.074   2.226  14.797  1.00  0.00    -0.550 OA
ATOM     24  O   UNL     1      15.091   3.095  15.455  1.00  0.00    -0.550 OA
ENDBRANCH  21  22
ENDBRANCH  20  21
ENDBRANCH  19  20
ENDBRANCH  18  19
ENDBRANCH  17  18
ENDBRANCH  16  17
ENDBRANCH  15  16
ENDBRANCH  14  15
ENDBRANCH  13  14
ENDBRANCH   1  13
TORSDOF 20
ENDMDL
MODEL 7
REMARK VINA RESULT:    -6.253      1.345      5.927
REMARK INTER + INTRA:         -16.468
REMARK INTER:                 -13.414
REMARK INTRA:                  -3.055
REMARK UNBOUND:                -2.904
REMARK SMILES CCCCCCCCCCCCCCCCCCCCCC(=O)[O-]
REMARK SMILES IDX 12 1 11 2 10 3 9 4 8 5 7 6 6 7 5 8 4 9 3 10 2 11 1 12 13 13
REMARK SMILES IDX 14 14 15 15 16 16 17 17 18 18 19 19 20 20 21 21 22 22 23 23
REMARK SMILES IDX 24 24
REMARK H PARENT
REMARK Flexibility Score: inf
ROOT
ATOM      1  C   UNL     1      14.864   2.861  15.888  1.00  0.00     0.000 C 
ENDROOT
BRANCH   1   2
ATOM      2  C   UNL     1      15.049   1.530  15.125  1.00  0.00     0.000 C 
BRANCH   2   3
ATOM      3  C   UNL     1      14.520   1.598  13.683  1.00  0.00     0.000 C 
BRANCH   3   4
ATOM      4  C   UNL     1      15.421   2.432  12.758  1.00  0.00    -0.000 C 
BRANCH   4   5
ATOM      5  C   UNL     1      15.846   1.661  11.495  1.00  0.00    -0.000 C 
BRANCH   5   6
ATOM      6  C   UNL     1      17.330   1.874  11.152  1.00  0.00    -0.000 C 
BRANCH   6   7
ATOM      7  C   UNL     1      18.242   0.820  11.804  1.00  0.00    -0.000 C 
BRANCH   7   8
ATOM      8  C   UNL     1      17.454  -0.300  12.507  1.00  0.00    -0.000 C 
BRANCH   8   9
ATOM      9  C   UNL     1      17.871  -0.571  13.964  1.00  0.00    -0.000 C 
BRANCH   9  10
ATOM     10  C   UNL     1      19.289  -0.067  14.282  1.00  0.00    -0.000 C 
BRANCH  10  11
ATOM     11  C   UNL     1      19.947  -0.848  15.430  1.00  0.00    -0.003 C 
ATOM     12  C   UNL     1      19.918  -2.360  15.205  1.00  0.00     0.004 C 
ENDBRANCH  10  11
ENDBRANCH   9  10
ENDBRANCH   8   9
ENDBRANCH   7   8
ENDBRANCH   6   7
ENDBRANCH   5   6
ENDBRANCH   4   5
ENDBRANCH   3   4
ENDBRANCH   2   3
ENDBRANCH   1   2
BRANCH   1  13
ATOM     13  C   UNL     1      13.504   2.987  16.598  1.00  0.00     0.000 C 
BRANCH  13  14
ATOM     14  C   UNL     1      13.552   2.840  18.129  1.00  0.00     0.000 C 
BRANCH  14  15
ATOM     15  C   UNL     1      14.689   1.945  18.665  1.00  0.00     0.000 C 
BRANCH  15  16
ATOM     16  C   UNL     1      14.399   1.259  20.011  1.00  0.00     0.000 C 
BRANCH  16  17
ATOM     17  C   UNL     1      14.262  -0.266  19.890  1.00  0.00     0.000 C 
BRANCH  17  18
ATOM     18  C   UNL     1      13.972  -0.676  18.438  1.00  0.00     0.000 C 
BRANCH  18  19
ATOM     19  C   UNL     1      14.867  -1.826  17.952  1.00  0.00     0.000 C 
BRANCH  19  20
ATOM     20  C   UNL     1      16.034  -1.340  17.079  1.00  0.00     0.006 C 
BRANCH  20  21
ATOM     21  C   UNL     1      17.351  -1.352  17.863  1.00  0.00     0.053 C 
BRANCH  21  22
ATOM     22  C   UNL     1      17.682   0.025  18.346  1.00  0.00     0.041 C 
ATOM     23  O   UNL     1      17.824   0.248  19.579  1.00  0.00    -0.550 OA
ATOM     24  O   UNL     1      17.896   1.049  17.432  1.00  0.00    -0.550 OA
ENDBRANCH  21  22
ENDBRANCH  20  21
ENDBRANCH  19  20
ENDBRANCH  18  19
ENDBRANCH  17  18
ENDBRANCH  16  17
ENDBRANCH  15  16
ENDBRANCH  14  15
ENDBRANCH  13  14
ENDBRANCH   1  13
TORSDOF 20
ENDMDL
MODEL 8
REMARK VINA RESULT:    -6.210      2.127      4.451
REMARK INTER + INTRA:         -16.375
REMARK INTER:                 -13.556
REMARK INTRA:                  -2.819
REMARK UNBOUND:                -2.904
REMARK SMILES CCCCCCCCCCCCCCCCCCCCCC(=O)[O-]
REMARK SMILES IDX 12 1 11 2 10 3 9 4 8 5 7 6 6 7 5 8 4 9 3 10 2 11 1 12 13 13
REMARK SMILES IDX 14 14 15 15 16 16 17 17 18 18 19 19 20 20 21 21 22 22 23 23
REMARK SMILES IDX 24 24
REMARK H PARENT
REMARK Flexibility Score: inf
ROOT
ATOM      1  C   UNL     1      14.713   2.390  18.782  1.00  0.00     0.000 C 
ENDROOT
BRANCH   1   2
ATOM      2  C   UNL     1      14.656   1.737  20.181  1.00  0.00     0.000 C 
BRANCH   2   3
ATOM      3  C   UNL     1      14.429   0.217  20.114  1.00  0.00     0.000 C 
BRANCH   3   4
ATOM      4  C   UNL     1      14.168  -0.282  18.684  1.00  0.00    -0.000 C 
BRANCH   4   5
ATOM      5  C   UNL     1      15.227  -1.292  18.208  1.00  0.00    -0.000 C 
BRANCH   5   6
ATOM      6  C   UNL     1      16.347  -1.497  19.242  1.00  0.00    -0.000 C 
BRANCH   6   7
ATOM      7  C   UNL     1      17.723  -1.052  18.715  1.00  0.00    -0.000 C 
BRANCH   7   8
ATOM      8  C   UNL     1      17.741   0.418  18.258  1.00  0.00    -0.000 C 
BRANCH   8   9
ATOM      9  C   UNL     1      18.159   0.637  16.793  1.00  0.00    -0.000 C 
BRANCH   9  10
ATOM     10  C   UNL     1      18.862  -0.588  16.184  1.00  0.00    -0.000 C 
BRANCH  10  11
ATOM     11  C   UNL     1      19.507  -0.281  14.824  1.00  0.00    -0.003 C 
ATOM     12  C   UNL     1      18.566  -0.557  13.651  1.00  0.00     0.004 C 
ENDBRANCH  10  11
ENDBRANCH   9  10
ENDBRANCH   8   9
ENDBRANCH   7   8
ENDBRANCH   6   7
ENDBRANCH   5   6
ENDBRANCH   4   5
ENDBRANCH   3   4
ENDBRANCH   2   3
ENDBRANCH   1   2
BRANCH   1  13
ATOM     13  C   UNL     1      13.753   3.582  18.613  1.00  0.00     0.000 C 
BRANCH  13  14
ATOM     14  C   UNL     1      12.875   3.537  17.349  1.00  0.00     0.000 C 
BRANCH  14  15
ATOM     15  C   UNL     1      13.646   3.389  16.021  1.00  0.00     0.000 C 
BRANCH  15  16
ATOM     16  C   UNL     1      13.521   2.014  15.344  1.00  0.00     0.000 C 
BRANCH  16  17
ATOM     17  C   UNL     1      14.880   1.349  15.079  1.00  0.00     0.000 C 
BRANCH  17  18
ATOM     18  C   UNL     1      15.106   1.149  13.573  1.00  0.00     0.000 C 
BRANCH  18  19
ATOM     19  C   UNL     1      15.713   2.386  12.891  1.00  0.00     0.000 C 
BRANCH  19  20
ATOM     20  C   UNL     1      15.952   2.176  11.389  1.00  0.00     0.006 C 
BRANCH  20  21
ATOM     21  C   UNL     1      17.432   1.907  11.098  1.00  0.00     0.053 C 
BRANCH  21  22
ATOM     22  C   UNL     1      17.582   0.708  10.216  1.00  0.00     0.041 C 
ATOM     23  O   UNL     1      18.206   0.797   9.124  1.00  0.00    -0.550 OA
ATOM     24  O   UNL     1      17.087  -0.523  10.628  1.00  0.00    -0.550 OA
ENDBRANCH  21  22
ENDBRANCH  20  21
ENDBRANCH  19  20
ENDBRANCH  18  19
ENDBRANCH  17  18
ENDBRANCH  16  17
ENDBRANCH  15  16
ENDBRANCH  14  15
ENDBRANCH  13  14
ENDBRANCH   1  13
TORSDOF 20
ENDMDL
MODEL 9
REMARK VINA RESULT:    -6.208      2.164      4.793
REMARK INTER + INTRA:         -16.369
REMARK INTER:                 -13.102
REMARK INTRA:                  -3.268
REMARK UNBOUND:                -2.904
REMARK SMILES CCCCCCCCCCCCCCCCCCCCCC(=O)[O-]
REMARK SMILES IDX 12 1 11 2 10 3 9 4 8 5 7 6 6 7 5 8 4 9 3 10 2 11 1 12 13 13
REMARK SMILES IDX 14 14 15 15 16 16 17 17 18 18 19 19 20 20 21 21 22 22 23 23
REMARK SMILES IDX 24 24
REMARK H PARENT
REMARK Flexibility Score: inf
ROOT
ATOM      1  C   UNL     1      15.198  -1.061  19.081  1.00  0.00     0.000 C 
ENDROOT
BRANCH   1   2
ATOM      2  C   UNL     1      14.332  -0.167  19.997  1.00  0.00     0.000 C 
BRANCH   2   3
ATOM      3  C   UNL     1      15.140   0.970  20.646  1.00  0.00     0.000 C 
BRANCH   3   4
ATOM      4  C   UNL     1      14.700   2.362  20.163  1.00  0.00    -0.000 C 
BRANCH   4   5
ATOM      5  C   UNL     1      13.849   2.301  18.883  1.00  0.00    -0.000 C 
BRANCH   5   6
ATOM      6  C   UNL     1      13.430   3.697  18.391  1.00  0.00    -0.000 C 
BRANCH   6   7
ATOM      7  C   UNL     1      12.976   3.692  16.921  1.00  0.00    -0.000 C 
BRANCH   7   8
ATOM      8  C   UNL     1      13.357   2.397  16.182  1.00  0.00    -0.000 C 
BRANCH   8   9
ATOM      9  C   UNL     1      14.131   2.604  14.868  1.00  0.00    -0.000 C 
BRANCH   9  10
ATOM     10  C   UNL     1      15.585   2.106  14.947  1.00  0.00    -0.000 C 
BRANCH  10  11
ATOM     11  C   UNL     1      15.851   1.267  16.206  1.00  0.00    -0.003 C 
ATOM     12  C   UNL     1      16.929   1.877  17.102  1.00  0.00     0.004 C 
ENDBRANCH  10  11
ENDBRANCH   9  10
ENDBRANCH   8   9
ENDBRANCH   7   8
ENDBRANCH   6   7
ENDBRANCH   5   6
ENDBRANCH   4   5
ENDBRANCH   3   4
ENDBRANCH   2   3
ENDBRANCH   1   2
BRANCH   1  13
ATOM     13  C   UNL     1      16.700  -1.027  19.420  1.00  0.00     0.000 C 
BRANCH  13  14
ATOM     14  C   UNL     1      17.590  -1.907  18.525  1.00  0.00     0.000 C 
BRANCH  14  15
ATOM     15  C   UNL     1      16.958  -2.324  17.181  1.00  0.00     0.000 C 
BRANCH  15  16
ATOM     16  C   UNL     1      17.547  -1.632  15.940  1.00  0.00     0.000 C 
BRANCH  16  17
ATOM     17  C   UNL     1      18.993  -1.158  16.147  1.00  0.00     0.000 C 
BRANCH  17  18
ATOM     18  C   UNL     1      19.511  -0.423  14.901  1.00  0.00     0.000 C 
BRANCH  18  19
ATOM     19  C   UNL     1      18.780  -0.838  13.615  1.00  0.00     0.000 C 
BRANCH  19  20
ATOM     20  C   UNL     1      18.454   0.356  12.707  1.00  0.00     0.006 C 
BRANCH  20  21
ATOM     21  C   UNL     1      16.974   0.359  12.309  1.00  0.00     0.053 C 
BRANCH  21  22
ATOM     22  C   UNL     1      16.670   1.540  11.442  1.00  0.00     0.041 C 
ATOM     23  O   UNL     1      15.477   1.914  11.276  1.00  0.00    -0.550 OA
ATOM     24  O   UNL     1      17.705   2.266  10.869  1.00  0.00    -0.550 OA
ENDBRANCH  21  22
ENDBRANCH  20  21
ENDBRANCH  19  20
ENDBRANCH  18  19
ENDBRANCH  17  18
ENDBRANCH  16  17
ENDBRANCH  15  16
ENDBRANCH  14  15
ENDBRANCH  13  14
ENDBRANCH   1  13
TORSDOF 20
ENDMDL
