MODEL 1
REMARK VINA RESULT:    -5.253      0.000      0.000
REMARK INTER + INTRA:          -5.407
REMARK INTER:                  -5.407
REMARK INTRA:                   0.000
REMARK UNBOUND:                 0.000
REMARK SMILES O=c1ccc2ccc(O)cc2o1
REMARK SMILES IDX 6 1 7 2 8 3 10 4 11 5 5 6 4 7 3 8 2 9 1 10 12 11 9 12
REMARK H PARENT 9 13
REMARK Flexibility Score: inf
ROOT
ATOM      1  C   UNL     1      29.256   0.862  31.511  1.00  0.00     0.016 A 
ATOM      2  C   UNL     1      29.293  -0.264  30.683  1.00  0.00     0.047 A 
ATOM      3  C   UNL     1      28.784  -0.200  29.378  1.00  0.00     0.119 A 
ATOM      4  C   UNL     1      28.234   0.996  28.901  1.00  0.00     0.094 A 
ATOM      5  C   UNL     1      28.191   2.128  29.723  1.00  0.00     0.142 A 
ATOM      6  C   UNL     1      28.705   2.061  31.037  1.00  0.00     0.018 A 
ATOM      7  C   UNL     1      28.650   3.208  31.834  1.00  0.00     0.019 A 
ATOM      8  C   UNL     1      28.093   4.376  31.314  1.00  0.00     0.094 A 
ATOM      9  C   UNL     1      27.604   4.370  30.003  1.00  0.00     0.336 A 
ATOM     10  O   UNL     1      27.097   5.414  29.517  1.00  0.00    -0.246 OA
ATOM     11  O   UNL     1      27.669   3.264  29.266  1.00  0.00    -0.423 OA
ENDROOT
BRANCH   3  12
ATOM     12  O   UNL     1      28.818  -1.318  28.547  1.00  0.00    -0.508 OA
ATOM     13  H   UNL     1      28.666  -1.240  27.548  1.00  0.00     0.293 HD
ENDBRANCH   3  12
TORSDOF 1
ENDMDL
MODEL 2
REMARK VINA RESULT:    -5.234      1.767      2.474
REMARK INTER + INTRA:          -5.387
REMARK INTER:                  -5.387
REMARK INTRA:                   0.000
REMARK UNBOUND:                 0.000
REMARK SMILES O=c1ccc2ccc(O)cc2o1
REMARK SMILES IDX 6 1 7 2 8 3 10 4 11 5 5 6 4 7 3 8 2 9 1 10 12 11 9 12
REMARK H PARENT 9 13
REMARK Flexibility Score: inf
ROOT
ATOM      1  C   UNL     1      27.002   0.538  29.019  1.00  0.00     0.016 A 
ATOM      2  C   UNL     1      27.128  -0.603  29.817  1.00  0.00     0.047 A 
ATOM      3  C   UNL     1      27.565  -0.491  31.146  1.00  0.00     0.119 A 
ATOM      4  C   UNL     1      27.877   0.767  31.675  1.00  0.00     0.094 A 
ATOM      5  C   UNL     1      27.754   1.914  30.883  1.00  0.00     0.142 A 
ATOM      6  C   UNL     1      27.314   1.799  29.546  1.00  0.00     0.018 A 
ATOM      7  C   UNL     1      27.201   2.962  28.779  1.00  0.00     0.019 A 
ATOM      8  C   UNL     1      27.522   4.193  29.351  1.00  0.00     0.094 A 
ATOM      9  C   UNL     1      27.952   4.231  30.682  1.00  0.00     0.336 A 
ATOM     10  O   UNL     1      28.247   5.331  31.216  1.00  0.00    -0.246 OA
ATOM     11  O   UNL     1      28.051   3.108  31.390  1.00  0.00    -0.423 OA
ENDROOT
BRANCH   3  12
ATOM     12  O   UNL     1      27.693  -1.623  31.947  1.00  0.00    -0.508 OA
ATOM     13  H   UNL     1      28.533  -1.797  32.487  1.00  0.00     0.293 HD
ENDBRANCH   3  12
TORSDOF 1
ENDMDL
MODEL 3
REMARK VINA RESULT:    -5.227      2.478      5.564
REMARK INTER + INTRA:          -5.380
REMARK INTER:                  -5.380
REMARK INTRA:                   0.000
REMARK UNBOUND:                 0.000
REMARK SMILES O=c1ccc2ccc(O)cc2o1
REMARK SMILES IDX 6 1 7 2 8 3 10 4 11 5 5 6 4 7 3 8 2 9 1 10 12 11 9 12
REMARK H PARENT 9 13
REMARK Flexibility Score: inf
ROOT
ATOM      1  C   UNL     1      29.942   0.142  30.403  1.00  0.00     0.016 A 
ATOM      2  C   UNL     1      29.229   1.243  30.890  1.00  0.00     0.047 A 
ATOM      3  C   UNL     1      27.916   1.084  31.358  1.00  0.00     0.119 A 
ATOM      4  C   UNL     1      27.316  -0.181  31.338  1.00  0.00     0.094 A 
ATOM      5  C   UNL     1      28.022  -1.287  30.853  1.00  0.00     0.142 A 
ATOM      6  C   UNL     1      29.343  -1.125  30.382  1.00  0.00     0.018 A 
ATOM      7  C   UNL     1      30.023  -2.249  29.903  1.00  0.00     0.019 A 
ATOM      8  C   UNL     1      29.383  -3.488  29.904  1.00  0.00     0.094 A 
ATOM      9  C   UNL     1      28.072  -3.574  30.386  1.00  0.00     0.336 A 
ATOM     10  O   UNL     1      27.477  -4.683  30.395  1.00  0.00    -0.246 OA
ATOM     11  O   UNL     1      27.447  -2.488  30.836  1.00  0.00    -0.423 OA
ENDROOT
BRANCH   3  12
ATOM     12  O   UNL     1      27.200   2.175  31.844  1.00  0.00    -0.508 OA
ATOM     13  H   UNL     1      27.036   2.301  32.837  1.00  0.00     0.293 HD
ENDBRANCH   3  12
TORSDOF 1
ENDMDL
MODEL 4
REMARK VINA RESULT:    -5.153      2.414      5.515
REMARK INTER + INTRA:          -5.304
REMARK INTER:                  -5.304
REMARK INTRA:                   0.000
REMARK UNBOUND:                 0.000
REMARK SMILES O=c1ccc2ccc(O)cc2o1
REMARK SMILES IDX 6 1 7 2 8 3 10 4 11 5 5 6 4 7 3 8 2 9 1 10 12 11 9 12
REMARK H PARENT 9 13
REMARK Flexibility Score: inf
ROOT
ATOM      1  C   UNL     1      26.350  -0.113  30.250  1.00  0.00     0.016 A 
ATOM      2  C   UNL     1      26.869   1.095  29.773  1.00  0.00     0.047 A 
ATOM      3  C   UNL     1      28.189   1.160  29.301  1.00  0.00     0.119 A 
ATOM      4  C   UNL     1      28.990   0.012  29.309  1.00  0.00     0.094 A 
ATOM      5  C   UNL     1      28.479  -1.200  29.785  1.00  0.00     0.142 A 
ATOM      6  C   UNL     1      27.150  -1.263  30.259  1.00  0.00     0.018 A 
ATOM      7  C   UNL     1      26.667  -2.488  30.728  1.00  0.00     0.019 A 
ATOM      8  C   UNL     1      27.504  -3.604  30.715  1.00  0.00     0.094 A 
ATOM      9  C   UNL     1      28.809  -3.467  30.230  1.00  0.00     0.336 A 
ATOM     10  O   UNL     1      29.579  -4.462  30.211  1.00  0.00    -0.246 OA
ATOM     11  O   UNL     1      29.244  -2.289  29.790  1.00  0.00    -0.423 OA
ENDROOT
BRANCH   3  12
ATOM     12  O   UNL     1      28.713   2.359  28.824  1.00  0.00    -0.508 OA
ATOM     13  H   UNL     1      28.422   3.253  29.204  1.00  0.00     0.293 HD
ENDBRANCH   3  12
TORSDOF 1
ENDMDL
MODEL 5
REMARK VINA RESULT:    -5.043      2.183      5.043
REMARK INTER + INTRA:          -5.190
REMARK INTER:                  -5.190
REMARK INTRA:                   0.000
REMARK UNBOUND:                 0.000
REMARK SMILES O=c1ccc2ccc(O)cc2o1
REMARK SMILES IDX 6 1 7 2 8 3 10 4 11 5 5 6 4 7 3 8 2 9 1 10 12 11 9 12
REMARK H PARENT 9 13
REMARK Flexibility Score: inf
ROOT
ATOM      1  C   UNL     1      29.354   0.572  29.364  1.00  0.00     0.016 A 
ATOM      2  C   UNL     1      28.699   1.789  29.149  1.00  0.00     0.047 A 
ATOM      3  C   UNL     1      27.315   1.892  29.353  1.00  0.00     0.119 A 
ATOM      4  C   UNL     1      26.585   0.773  29.773  1.00  0.00     0.094 A 
ATOM      5  C   UNL     1      27.233  -0.448  29.990  1.00  0.00     0.142 A 
ATOM      6  C   UNL     1      28.626  -0.550  29.784  1.00  0.00     0.018 A 
ATOM      7  C   UNL     1      29.245  -1.783  30.010  1.00  0.00     0.019 A 
ATOM      8  C   UNL     1      28.476  -2.869  30.428  1.00  0.00     0.094 A 
ATOM      9  C   UNL     1      27.099  -2.694  30.612  1.00  0.00     0.336 A 
ATOM     10  O   UNL     1      26.389  -3.661  30.989  1.00  0.00    -0.246 OA
ATOM     11  O   UNL     1      26.535  -1.509  30.390  1.00  0.00    -0.423 OA
ENDROOT
BRANCH   3  12
ATOM     12  O   UNL     1      26.655   3.101  29.141  1.00  0.00    -0.508 OA
ATOM     13  H   UNL     1      26.133   3.276  28.290  1.00  0.00     0.293 HD
ENDBRANCH   3  12
TORSDOF 1
ENDMDL
MODEL 6
REMARK VINA RESULT:    -4.885      1.846      4.869
REMARK INTER + INTRA:          -5.028
REMARK INTER:                  -5.028
REMARK INTRA:                   0.000
REMARK UNBOUND:                 0.000
REMARK SMILES O=c1ccc2ccc(O)cc2o1
REMARK SMILES IDX 6 1 7 2 8 3 10 4 11 5 5 6 4 7 3 8 2 9 1 10 12 11 9 12
REMARK H PARENT 9 13
REMARK Flexibility Score: inf
ROOT
ATOM      1  C   UNL     1      27.311   3.980  28.892  1.00  0.00     0.016 A 
ATOM      2  C   UNL     1      27.008   5.258  29.375  1.00  0.00     0.047 A 
ATOM      3  C   UNL     1      27.364   5.622  30.682  1.00  0.00     0.119 A 
ATOM      4  C   UNL     1      28.025   4.704  31.507  1.00  0.00     0.094 A 
ATOM      5  C   UNL     1      28.331   3.424  31.033  1.00  0.00     0.142 A 
ATOM      6  C   UNL     1      27.972   3.059  29.717  1.00  0.00     0.018 A 
ATOM      7  C   UNL     1      28.292   1.774  29.270  1.00  0.00     0.019 A 
ATOM      8  C   UNL     1      28.951   0.895  30.129  1.00  0.00     0.094 A 
ATOM      9  C   UNL     1      29.277   1.326  31.420  1.00  0.00     0.336 A 
ATOM     10  O   UNL     1      29.871   0.547  32.210  1.00  0.00    -0.246 OA
ATOM     11  O   UNL     1      28.960   2.555  31.820  1.00  0.00    -0.423 OA
ENDROOT
BRANCH   3  12
ATOM     12  O   UNL     1      27.066   6.892  31.170  1.00  0.00    -0.508 OA
ATOM     13  H   UNL     1      26.510   7.020  32.009  1.00  0.00     0.293 HD
ENDBRANCH   3  12
TORSDOF 1
ENDMDL
MODEL 7
REMARK VINA RESULT:    -4.884      3.362      5.047
REMARK INTER + INTRA:          -5.027
REMARK INTER:                  -5.027
REMARK INTRA:                   0.000
REMARK UNBOUND:                 0.000
REMARK SMILES O=c1ccc2ccc(O)cc2o1
REMARK SMILES IDX 6 1 7 2 8 3 10 4 11 5 5 6 4 7 3 8 2 9 1 10 12 11 9 12
REMARK H PARENT 9 13
REMARK Flexibility Score: inf
ROOT
ATOM      1  C   UNL     1      26.974  -3.470  30.825  1.00  0.00     0.016 A 
ATOM      2  C   UNL     1      27.315  -4.749  30.375  1.00  0.00     0.047 A 
ATOM      3  C   UNL     1      28.579  -4.988  29.814  1.00  0.00     0.119 A 
ATOM      4  C   UNL     1      29.503  -3.942  29.704  1.00  0.00     0.094 A 
ATOM      5  C   UNL     1      29.170  -2.658  30.151  1.00  0.00     0.142 A 
ATOM      6  C   UNL     1      27.897  -2.420  30.715  1.00  0.00     0.018 A 
ATOM      7  C   UNL     1      27.593  -1.128  31.154  1.00  0.00     0.019 A 
ATOM      8  C   UNL     1      28.546  -0.119  31.023  1.00  0.00     0.094 A 
ATOM      9  C   UNL     1      29.788  -0.428  30.455  1.00  0.00     0.336 A 
ATOM     10  O   UNL     1      30.661   0.469  30.328  1.00  0.00    -0.246 OA
ATOM     11  O   UNL     1      30.051  -1.667  30.045  1.00  0.00    -0.423 OA
ENDROOT
BRANCH   3  12
ATOM     12  O   UNL     1      28.926  -6.260  29.364  1.00  0.00    -0.508 OA
ATOM     13  H   UNL     1      28.539  -7.095  29.788  1.00  0.00     0.293 HD
ENDBRANCH   3  12
TORSDOF 1
ENDMDL
MODEL 8
REMARK VINA RESULT:    -4.861      1.627      4.340
REMARK INTER + INTRA:          -5.004
REMARK INTER:                  -5.004
REMARK INTRA:                   0.000
REMARK UNBOUND:                 0.000
REMARK SMILES O=c1ccc2ccc(O)cc2o1
REMARK SMILES IDX 6 1 7 2 8 3 10 4 11 5 5 6 4 7 3 8 2 9 1 10 12 11 9 12
REMARK H PARENT 9 13
REMARK Flexibility Score: inf
ROOT
ATOM      1  C   UNL     1      28.360   4.033  31.764  1.00  0.00     0.016 A 
ATOM      2  C   UNL     1      28.435   5.349  31.296  1.00  0.00     0.047 A 
ATOM      3  C   UNL     1      28.029   5.658  29.989  1.00  0.00     0.119 A 
ATOM      4  C   UNL     1      27.547   4.646  29.150  1.00  0.00     0.094 A 
ATOM      5  C   UNL     1      27.468   3.327  29.610  1.00  0.00     0.142 A 
ATOM      6  C   UNL     1      27.878   3.018  30.926  1.00  0.00     0.018 A 
ATOM      7  C   UNL     1      27.788   1.691  31.358  1.00  0.00     0.019 A 
ATOM      8  C   UNL     1      27.301   0.719  30.485  1.00  0.00     0.094 A 
ATOM      9  C   UNL     1      26.913   1.098  29.195  1.00  0.00     0.336 A 
ATOM     10  O   UNL     1      26.471   0.235  28.393  1.00  0.00    -0.246 OA
ATOM     11  O   UNL     1      27.009   2.368  28.809  1.00  0.00    -0.423 OA
ENDROOT
BRANCH   3  12
ATOM     12  O   UNL     1      28.100   6.966  29.515  1.00  0.00    -0.508 OA
ATOM     13  H   UNL     1      28.627   7.679  30.007  1.00  0.00     0.293 HD
ENDBRANCH   3  12
TORSDOF 1
ENDMDL
MODEL 9
REMARK VINA RESULT:    -4.733      2.566      3.726
REMARK INTER + INTRA:          -4.872
REMARK INTER:                  -4.872
REMARK INTRA:                   0.000
REMARK UNBOUND:                 0.000
REMARK SMILES O=c1ccc2ccc(O)cc2o1
REMARK SMILES IDX 6 1 7 2 8 3 10 4 11 5 5 6 4 7 3 8 2 9 1 10 12 11 9 12
REMARK H PARENT 9 13
REMARK Flexibility Score: inf
ROOT
ATOM      1  C   UNL     1      26.650  -2.647  30.740  1.00  0.00     0.016 A 
ATOM      2  C   UNL     1      27.598  -3.675  30.734  1.00  0.00     0.047 A 
ATOM      3  C   UNL     1      28.918  -3.417  30.336  1.00  0.00     0.119 A 
ATOM      4  C   UNL     1      29.289  -2.126  29.941  1.00  0.00     0.094 A 
ATOM      5  C   UNL     1      28.346  -1.091  29.943  1.00  0.00     0.142 A 
ATOM      6  C   UNL     1      27.018  -1.353  30.345  1.00  0.00     0.018 A 
ATOM      7  C   UNL     1      26.099  -0.300  30.337  1.00  0.00     0.019 A 
ATOM      8  C   UNL     1      26.516   0.969  29.936  1.00  0.00     0.094 A 
ATOM      9  C   UNL     1      27.849   1.155  29.552  1.00  0.00     0.336 A 
ATOM     10  O   UNL     1      28.244   2.293  29.187  1.00  0.00    -0.246 OA
ATOM     11  O   UNL     1      28.703   0.135  29.568  1.00  0.00    -0.423 OA
ENDROOT
BRANCH   3  12
ATOM     12  O   UNL     1      29.868  -4.436  30.328  1.00  0.00    -0.508 OA
ATOM     13  H   UNL     1      30.589  -4.493  31.038  1.00  0.00     0.293 HD
ENDBRANCH   3  12
TORSDOF 1
ENDMDL
