MODEL 1
REMARK VINA RESULT:    -4.461      0.000      0.000
REMARK INTER + INTRA:          -6.519
REMARK INTER:                  -6.026
REMARK INTRA:                  -0.492
REMARK UNBOUND:                -0.492
REMARK SMILES [NH3+]CCCC[C@@H]([NH3+])C(=O)[O-]
REMARK SMILES IDX 4 1 3 2 2 3 1 4 5 8 6 9 7 10 8 14 9 15 10 16
REMARK H PARENT 1 5 1 6 1 7 7 11 7 12 7 13
REMARK Flexibility Score: inf
ROOT
ATOM      1  C   UNL     1     -10.851   3.635 -16.691  1.00  0.00     0.012 C 
ENDROOT
BRANCH   1   2
ATOM      2  C   UNL     1     -12.140   2.939 -17.162  1.00  0.00     0.061 C 
BRANCH   2   3
ATOM      3  C   UNL     1     -13.291   3.932 -17.398  1.00  0.00     0.258 C 
BRANCH   3   4
ATOM      4  N   UNL     1     -13.729   3.950 -18.796  1.00  0.00    -0.358 N 
ATOM      5  H   UNL     1     -14.764   3.813 -18.857  1.00  0.00     0.344 HD
ATOM      6  H   UNL     1     -13.490   4.879 -19.213  1.00  0.00     0.344 HD
ATOM      7  H   UNL     1     -13.236   3.209 -19.343  1.00  0.00     0.344 HD
ENDBRANCH   3   4
ENDBRANCH   2   3
ENDBRANCH   1   2
BRANCH   1   8
ATOM      8  C   UNL     1      -9.788   3.738 -17.802  1.00  0.00     0.072 C 
BRANCH   8   9
ATOM      9  C   UNL     1     -10.003   4.916 -18.783  1.00  0.00     0.227 C 
BRANCH   9  10
ATOM     10  N   UNL     1      -8.857   5.833 -18.735  1.00  0.00    -0.350 N 
ATOM     11  H   UNL     1      -8.981   6.590 -19.448  1.00  0.00     0.345 HD
ATOM     12  H   UNL     1      -7.977   5.314 -18.960  1.00  0.00     0.345 HD
ATOM     13  H   UNL     1      -8.768   6.268 -17.788  1.00  0.00     0.345 HD
ENDBRANCH   9  10
BRANCH   9  14
ATOM     14  C   UNL     1     -10.213   4.425 -20.191  1.00  0.00     0.099 C 
ATOM     15  O   UNL     1     -11.377   4.305 -20.661  1.00  0.00    -0.544 OA
ATOM     16  O   UNL     1      -9.119   4.114 -20.988  1.00  0.00    -0.544 OA
ENDBRANCH   9  14
ENDBRANCH   8   9
ENDBRANCH   1   8
TORSDOF 7
ENDMDL
MODEL 2
REMARK VINA RESULT:    -4.142      2.237      3.157
REMARK INTER + INTRA:          -6.087
REMARK INTER:                  -5.669
REMARK INTRA:                  -0.418
REMARK UNBOUND:                -0.492
REMARK SMILES [NH3+]CCCC[C@@H]([NH3+])C(=O)[O-]
REMARK SMILES IDX 4 1 3 2 2 3 1 4 5 8 6 9 7 10 8 14 9 15 10 16
REMARK H PARENT 1 5 1 6 1 7 7 11 7 12 7 13
REMARK Flexibility Score: inf
ROOT
ATOM      1  C   UNL     1     -10.960   3.960 -20.858  1.00  0.00     0.012 C 
ENDROOT
BRANCH   1   2
ATOM      2  C   UNL     1     -12.446   4.095 -21.235  1.00  0.00     0.061 C 
BRANCH   2   3
ATOM      3  C   UNL     1     -13.355   3.200 -20.375  1.00  0.00     0.258 C 
BRANCH   3   4
ATOM      4  N   UNL     1     -13.959   3.933 -19.259  1.00  0.00    -0.358 N 
ATOM      5  H   UNL     1     -14.410   3.270 -18.587  1.00  0.00     0.344 HD
ATOM      6  H   UNL     1     -13.210   4.461 -18.756  1.00  0.00     0.344 HD
ATOM      7  H   UNL     1     -14.663   4.619 -19.612  1.00  0.00     0.344 HD
ENDBRANCH   3   4
ENDBRANCH   2   3
ENDBRANCH   1   2
BRANCH   1   8
ATOM      8  C   UNL     1     -10.540   4.927 -19.735  1.00  0.00     0.072 C 
BRANCH   8   9
ATOM      9  C   UNL     1      -9.511   4.341 -18.738  1.00  0.00     0.227 C 
BRANCH   9  10
ATOM     10  N   UNL     1      -8.538   5.368 -18.347  1.00  0.00    -0.350 N 
ATOM     11  H   UNL     1      -8.497   5.437 -17.304  1.00  0.00     0.345 HD
ATOM     12  H   UNL     1      -8.832   6.299 -18.724  1.00  0.00     0.345 HD
ATOM     13  H   UNL     1      -7.585   5.136 -18.711  1.00  0.00     0.345 HD
ENDBRANCH   9  10
BRANCH   9  14
ATOM     14  C   UNL     1     -10.190   3.781 -17.515  1.00  0.00     0.099 C 
ATOM     15  O   UNL     1      -9.514   3.238 -16.600  1.00  0.00    -0.544 OA
ATOM     16  O   UNL     1     -11.570   3.872 -17.385  1.00  0.00    -0.544 OA
ENDBRANCH   9  14
ENDBRANCH   8   9
ENDBRANCH   1   8
TORSDOF 7
ENDMDL
MODEL 3
REMARK VINA RESULT:    -4.102      2.228      2.709
REMARK INTER + INTRA:          -6.034
REMARK INTER:                  -5.655
REMARK INTRA:                  -0.378
REMARK UNBOUND:                -0.492
REMARK SMILES [NH3+]CCCC[C@@H]([NH3+])C(=O)[O-]
REMARK SMILES IDX 4 1 3 2 2 3 1 4 5 8 6 9 7 10 8 14 9 15 10 16
REMARK H PARENT 1 5 1 6 1 7 7 11 7 12 7 13
REMARK Flexibility Score: inf
ROOT
ATOM      1  C   UNL     1     -12.722   4.036 -17.922  1.00  0.00     0.012 C 
ENDROOT
BRANCH   1   2
ATOM      2  C   UNL     1     -13.534   3.237 -18.955  1.00  0.00     0.061 C 
BRANCH   2   3
ATOM      3  C   UNL     1     -13.180   3.617 -20.403  1.00  0.00     0.258 C 
BRANCH   3   4
ATOM      4  N   UNL     1     -11.993   4.473 -20.477  1.00  0.00    -0.358 N 
ATOM      5  H   UNL     1     -12.248   5.421 -20.837  1.00  0.00     0.344 HD
ATOM      6  H   UNL     1     -11.590   4.576 -19.518  1.00  0.00     0.344 HD
ATOM      7  H   UNL     1     -11.268   4.039 -21.091  1.00  0.00     0.344 HD
ENDBRANCH   3   4
ENDBRANCH   2   3
ENDBRANCH   1   2
BRANCH   1   8
ATOM      8  C   UNL     1     -11.777   3.148 -17.089  1.00  0.00     0.072 C 
BRANCH   8   9
ATOM      9  C   UNL     1     -10.372   3.753 -16.856  1.00  0.00     0.227 C 
BRANCH   9  10
ATOM     10  N   UNL     1      -9.464   2.736 -16.308  1.00  0.00    -0.350 N 
ATOM     11  H   UNL     1      -9.625   2.638 -15.278  1.00  0.00     0.345 HD
ATOM     12  H   UNL     1      -8.471   3.030 -16.456  1.00  0.00     0.345 HD
ATOM     13  H   UNL     1      -9.622   1.810 -16.768  1.00  0.00     0.345 HD
ENDBRANCH   9  10
BRANCH   9  14
ATOM     14  C   UNL     1      -9.801   4.321 -18.129  1.00  0.00     0.099 C 
ATOM     15  O   UNL     1      -9.333   3.559 -19.017  1.00  0.00    -0.544 OA
ATOM     16  O   UNL     1      -9.799   5.695 -18.336  1.00  0.00    -0.544 OA
ENDBRANCH   9  14
ENDBRANCH   8   9
ENDBRANCH   1   8
TORSDOF 7
ENDMDL
MODEL 4
REMARK VINA RESULT:    -4.050      9.656     10.732
REMARK INTER + INTRA:          -5.964
REMARK INTER:                  -5.719
REMARK INTRA:                  -0.244
REMARK UNBOUND:                -0.492
REMARK SMILES [NH3+]CCCC[C@@H]([NH3+])C(=O)[O-]
REMARK SMILES IDX 4 1 3 2 2 3 1 4 5 8 6 9 7 10 8 14 9 15 10 16
REMARK H PARENT 1 5 1 6 1 7 7 11 7 12 7 13
REMARK Flexibility Score: inf
ROOT
ATOM      1  C   UNL     1      -8.787   6.292 -10.428  1.00  0.00     0.012 C 
ENDROOT
BRANCH   1   2
ATOM      2  C   UNL     1      -8.110   6.991 -11.620  1.00  0.00     0.061 C 
BRANCH   2   3
ATOM      3  C   UNL     1      -6.580   6.831 -11.604  1.00  0.00     0.258 C 
BRANCH   3   4
ATOM      4  N   UNL     1      -6.077   6.185 -12.819  1.00  0.00    -0.358 N 
ATOM      5  H   UNL     1      -6.341   6.740 -13.665  1.00  0.00     0.344 HD
ATOM      6  H   UNL     1      -5.034   6.131 -12.766  1.00  0.00     0.344 HD
ATOM      7  H   UNL     1      -6.452   5.213 -12.897  1.00  0.00     0.344 HD
ENDBRANCH   3   4
ENDBRANCH   2   3
ENDBRANCH   1   2
BRANCH   1   8
ATOM      8  C   UNL     1      -9.804   7.196  -9.706  1.00  0.00     0.072 C 
BRANCH   8   9
ATOM      9  C   UNL     1      -9.287   7.811  -8.384  1.00  0.00     0.227 C 
BRANCH   9  10
ATOM     10  N   UNL     1      -8.145   7.039  -7.876  1.00  0.00    -0.350 N 
ATOM     11  H   UNL     1      -8.370   6.658  -6.928  1.00  0.00     0.345 HD
ATOM     12  H   UNL     1      -7.307   7.660  -7.787  1.00  0.00     0.345 HD
ATOM     13  H   UNL     1      -7.918   6.245  -8.518  1.00  0.00     0.345 HD
ENDBRANCH   9  10
BRANCH   9  14
ATOM     14  C   UNL     1      -8.893   9.254  -8.567  1.00  0.00     0.099 C 
ATOM     15  O   UNL     1      -7.820   9.555  -9.154  1.00  0.00    -0.544 OA
ATOM     16  O   UNL     1      -9.723  10.264  -8.097  1.00  0.00    -0.544 OA
ENDBRANCH   9  14
ENDBRANCH   8   9
ENDBRANCH   1   8
TORSDOF 7
ENDMDL
MODEL 5
REMARK VINA RESULT:    -4.045      2.795      4.511
REMARK INTER + INTRA:          -5.956
REMARK INTER:                  -5.854
REMARK INTRA:                  -0.103
REMARK UNBOUND:                -0.492
REMARK SMILES [NH3+]CCCC[C@@H]([NH3+])C(=O)[O-]
REMARK SMILES IDX 4 1 3 2 2 3 1 4 5 8 6 9 7 10 8 14 9 15 10 16
REMARK H PARENT 1 5 1 6 1 7 7 11 7 12 7 13
REMARK Flexibility Score: inf
ROOT
ATOM      1  C   UNL     1     -11.168   4.111 -19.678  1.00  0.00     0.012 C 
ENDROOT
BRANCH   1   2
ATOM      2  C   UNL     1      -9.745   4.491 -20.123  1.00  0.00     0.061 C 
BRANCH   2   3
ATOM      3  C   UNL     1      -9.119   5.576 -19.231  1.00  0.00     0.258 C 
BRANCH   3   4
ATOM      4  N   UNL     1      -9.981   6.753 -19.102  1.00  0.00    -0.358 N 
ATOM      5  H   UNL     1      -9.705   7.486 -19.795  1.00  0.00     0.344 HD
ATOM      6  H   UNL     1     -10.970   6.471 -19.289  1.00  0.00     0.344 HD
ATOM      7  H   UNL     1      -9.929   7.140 -18.133  1.00  0.00     0.344 HD
ENDBRANCH   3   4
ENDBRANCH   2   3
ENDBRANCH   1   2
BRANCH   1   8
ATOM      8  C   UNL     1     -12.165   4.051 -20.851  1.00  0.00     0.072 C 
BRANCH   8   9
ATOM      9  C   UNL     1     -13.593   3.609 -20.454  1.00  0.00     0.227 C 
BRANCH   9  10
ATOM     10  N   UNL     1     -13.858   3.945 -19.049  1.00  0.00    -0.350 N 
ATOM     11  H   UNL     1     -14.257   3.113 -18.556  1.00  0.00     0.345 HD
ATOM     12  H   UNL     1     -14.558   4.722 -18.995  1.00  0.00     0.345 HD
ATOM     13  H   UNL     1     -12.979   4.240 -18.565  1.00  0.00     0.345 HD
ENDBRANCH   9  10
BRANCH   9  14
ATOM     14  C   UNL     1     -14.631   4.244 -21.341  1.00  0.00     0.099 C 
ATOM     15  O   UNL     1     -15.825   3.838 -21.323  1.00  0.00    -0.544 OA
ATOM     16  O   UNL     1     -14.279   5.295 -22.179  1.00  0.00    -0.544 OA
ENDBRANCH   9  14
ENDBRANCH   8   9
ENDBRANCH   1   8
TORSDOF 7
ENDMDL
MODEL 6
REMARK VINA RESULT:    -4.033      2.141      2.448
REMARK INTER + INTRA:          -5.940
REMARK INTER:                  -5.790
REMARK INTRA:                  -0.150
REMARK UNBOUND:                -0.492
REMARK SMILES [NH3+]CCCC[C@@H]([NH3+])C(=O)[O-]
REMARK SMILES IDX 4 1 3 2 2 3 1 4 5 8 6 9 7 10 8 14 9 15 10 16
REMARK H PARENT 1 5 1 6 1 7 7 11 7 12 7 13
REMARK Flexibility Score: inf
ROOT
ATOM      1  C   UNL     1     -11.766   3.852 -17.809  1.00  0.00     0.012 C 
ENDROOT
BRANCH   1   2
ATOM      2  C   UNL     1     -13.275   3.612 -17.982  1.00  0.00     0.061 C 
BRANCH   2   3
ATOM      3  C   UNL     1     -13.646   3.211 -19.420  1.00  0.00     0.258 C 
BRANCH   3   4
ATOM      4  N   UNL     1     -15.038   3.533 -19.744  1.00  0.00    -0.358 N 
ATOM      5  H   UNL     1     -15.276   4.497 -19.416  1.00  0.00     0.344 HD
ATOM      6  H   UNL     1     -15.162   3.493 -20.782  1.00  0.00     0.344 HD
ATOM      7  H   UNL     1     -15.685   2.837 -19.310  1.00  0.00     0.344 HD
ENDBRANCH   3   4
ENDBRANCH   2   3
ENDBRANCH   1   2
BRANCH   1   8
ATOM      8  C   UNL     1     -11.036   4.052 -19.152  1.00  0.00     0.072 C 
BRANCH   8   9
ATOM      9  C   UNL     1      -9.500   4.196 -19.028  1.00  0.00     0.227 C 
BRANCH   9  10
ATOM     10  N   UNL     1      -8.870   4.083 -20.350  1.00  0.00    -0.350 N 
ATOM     11  H   UNL     1      -8.979   4.983 -20.872  1.00  0.00     0.345 HD
ATOM     12  H   UNL     1      -9.337   3.327 -20.903  1.00  0.00     0.345 HD
ATOM     13  H   UNL     1      -7.851   3.863 -20.259  1.00  0.00     0.345 HD
ENDBRANCH   9  10
BRANCH   9  14
ATOM     14  C   UNL     1      -9.122   5.506 -18.387  1.00  0.00     0.099 C 
ATOM     15  O   UNL     1      -8.417   5.527 -17.342  1.00  0.00    -0.544 OA
ATOM     16  O   UNL     1      -9.539   6.703 -18.955  1.00  0.00    -0.544 OA
ENDBRANCH   9  14
ENDBRANCH   8   9
ENDBRANCH   1   8
TORSDOF 7
ENDMDL
MODEL 7
REMARK VINA RESULT:    -3.989      5.392      6.460
REMARK INTER + INTRA:          -5.881
REMARK INTER:                  -5.428
REMARK INTRA:                  -0.452
REMARK UNBOUND:                -0.492
REMARK SMILES [NH3+]CCCC[C@@H]([NH3+])C(=O)[O-]
REMARK SMILES IDX 4 1 3 2 2 3 1 4 5 8 6 9 7 10 8 14 9 15 10 16
REMARK H PARENT 1 5 1 6 1 7 7 11 7 12 7 13
REMARK Flexibility Score: inf
ROOT
ATOM      1  C   UNL     1     -12.561   2.740 -22.774  1.00  0.00     0.012 C 
ENDROOT
BRANCH   1   2
ATOM      2  C   UNL     1     -12.754   4.044 -21.980  1.00  0.00     0.061 C 
BRANCH   2   3
ATOM      3  C   UNL     1     -14.222   4.501 -21.948  1.00  0.00     0.258 C 
BRANCH   3   4
ATOM      4  N   UNL     1     -14.516   5.494 -22.984  1.00  0.00    -0.358 N 
ATOM      5  H   UNL     1     -15.508   5.817 -22.910  1.00  0.00     0.344 HD
ATOM      6  H   UNL     1     -13.886   6.318 -22.852  1.00  0.00     0.344 HD
ATOM      7  H   UNL     1     -14.340   5.095 -23.933  1.00  0.00     0.344 HD
ENDBRANCH   3   4
ENDBRANCH   2   3
ENDBRANCH   1   2
BRANCH   1   8
ATOM      8  C   UNL     1     -11.723   2.938 -24.052  1.00  0.00     0.072 C 
BRANCH   8   9
ATOM      9  C   UNL     1     -12.378   2.379 -25.338  1.00  0.00     0.227 C 
BRANCH   9  10
ATOM     10  N   UNL     1     -12.053   0.956 -25.498  1.00  0.00    -0.350 N 
ATOM     11  H   UNL     1     -11.293   0.845 -26.209  1.00  0.00     0.345 HD
ATOM     12  H   UNL     1     -12.895   0.435 -25.835  1.00  0.00     0.345 HD
ATOM     13  H   UNL     1     -11.733   0.543 -24.591  1.00  0.00     0.345 HD
ENDBRANCH   9  10
BRANCH   9  14
ATOM     14  C   UNL     1     -13.872   2.568 -25.319  1.00  0.00     0.099 C 
ATOM     15  O   UNL     1     -14.377   3.703 -25.531  1.00  0.00    -0.544 OA
ATOM     16  O   UNL     1     -14.706   1.483 -25.079  1.00  0.00    -0.544 OA
ENDBRANCH   9  14
ENDBRANCH   8   9
ENDBRANCH   1   8
TORSDOF 7
ENDMDL
MODEL 8
REMARK VINA RESULT:    -3.976      4.667      5.981
REMARK INTER + INTRA:          -5.863
REMARK INTER:                  -5.629
REMARK INTRA:                  -0.234
REMARK UNBOUND:                -0.492
REMARK SMILES [NH3+]CCCC[C@@H]([NH3+])C(=O)[O-]
REMARK SMILES IDX 4 1 3 2 2 3 1 4 5 8 6 9 7 10 8 14 9 15 10 16
REMARK H PARENT 1 5 1 6 1 7 7 11 7 12 7 13
REMARK Flexibility Score: inf
ROOT
ATOM      1  C   UNL     1     -12.128   2.833 -23.434  1.00  0.00     0.012 C 
ENDROOT
BRANCH   1   2
ATOM      2  C   UNL     1     -12.408   1.507 -24.162  1.00  0.00     0.061 C 
BRANCH   2   3
ATOM      3  C   UNL     1     -13.343   0.583 -23.363  1.00  0.00     0.258 C 
BRANCH   3   4
ATOM      4  N   UNL     1     -12.934  -0.822 -23.442  1.00  0.00    -0.358 N 
ATOM      5  H   UNL     1     -13.748  -1.451 -23.254  1.00  0.00     0.344 HD
ATOM      6  H   UNL     1     -12.577  -1.016 -24.406  1.00  0.00     0.344 HD
ATOM      7  H   UNL     1     -12.165  -1.017 -22.763  1.00  0.00     0.344 HD
ENDBRANCH   3   4
ENDBRANCH   2   3
ENDBRANCH   1   2
BRANCH   1   8
ATOM      8  C   UNL     1     -13.293   3.835 -23.551  1.00  0.00     0.072 C 
BRANCH   8   9
ATOM      9  C   UNL     1     -13.601   4.610 -22.247  1.00  0.00     0.227 C 
BRANCH   9  10
ATOM     10  N   UNL     1     -14.677   5.583 -22.476  1.00  0.00    -0.350 N 
ATOM     11  H   UNL     1     -14.315   6.553 -22.322  1.00  0.00     0.345 HD
ATOM     12  H   UNL     1     -15.458   5.416 -21.799  1.00  0.00     0.345 HD
ATOM     13  H   UNL     1     -15.046   5.507 -23.452  1.00  0.00     0.345 HD
ENDBRANCH   9  10
BRANCH   9  14
ATOM     14  C   UNL     1     -13.981   3.675 -21.129  1.00  0.00     0.099 C 
ATOM     15  O   UNL     1     -15.018   2.964 -21.213  1.00  0.00    -0.544 OA
ATOM     16  O   UNL     1     -13.178   3.582 -19.999  1.00  0.00    -0.544 OA
ENDBRANCH   9  14
ENDBRANCH   8   9
ENDBRANCH   1   8
TORSDOF 7
ENDMDL
MODEL 9
REMARK VINA RESULT:    -3.905      2.738      3.404
REMARK INTER + INTRA:          -5.767
REMARK INTER:                  -5.739
REMARK INTRA:                  -0.028
REMARK UNBOUND:                -0.492
REMARK SMILES [NH3+]CCCC[C@@H]([NH3+])C(=O)[O-]
REMARK SMILES IDX 4 1 3 2 2 3 1 4 5 8 6 9 7 10 8 14 9 15 10 16
REMARK H PARENT 1 5 1 6 1 7 7 11 7 12 7 13
REMARK Flexibility Score: inf
ROOT
ATOM      1  C   UNL     1     -11.563   4.363 -20.199  1.00  0.00     0.012 C 
ENDROOT
BRANCH   1   2
ATOM      2  C   UNL     1     -12.202   3.991 -21.548  1.00  0.00     0.061 C 
BRANCH   2   3
ATOM      3  C   UNL     1     -13.705   4.315 -21.596  1.00  0.00     0.258 C 
BRANCH   3   4
ATOM      4  N   UNL     1     -14.046   5.202 -22.711  1.00  0.00    -0.358 N 
ATOM      5  H   UNL     1     -13.500   6.092 -22.651  1.00  0.00     0.344 HD
ATOM      6  H   UNL     1     -13.807   4.723 -23.610  1.00  0.00     0.344 HD
ATOM      7  H   UNL     1     -15.070   5.410 -22.713  1.00  0.00     0.344 HD
ENDBRANCH   3   4
ENDBRANCH   2   3
ENDBRANCH   1   2
BRANCH   1   8
ATOM      8  C   UNL     1     -10.023   4.354 -20.246  1.00  0.00     0.072 C 
BRANCH   8   9
ATOM      9  C   UNL     1      -9.349   5.371 -19.294  1.00  0.00     0.227 C 
BRANCH   9  10
ATOM     10  N   UNL     1     -10.178   6.577 -19.168  1.00  0.00    -0.350 N 
ATOM     11  H   UNL     1     -11.057   6.461 -19.722  1.00  0.00     0.345 HD
ATOM     12  H   UNL     1      -9.660   7.404 -19.546  1.00  0.00     0.345 HD
ATOM     13  H   UNL     1     -10.426   6.754 -18.167  1.00  0.00     0.345 HD
ENDBRANCH   9  10
BRANCH   9  14
ATOM     14  C   UNL     1      -9.103   4.770 -17.934  1.00  0.00     0.099 C 
ATOM     15  O   UNL     1      -9.599   3.652 -17.629  1.00  0.00    -0.544 OA
ATOM     16  O   UNL     1      -8.313   5.443 -17.011  1.00  0.00    -0.544 OA
ENDBRANCH   9  14
ENDBRANCH   8   9
ENDBRANCH   1   8
TORSDOF 7
ENDMDL
