MODEL 1
REMARK VINA RESULT:    -6.268      0.000      0.000
REMARK INTER + INTRA:          -8.038
REMARK INTER:                  -7.734
REMARK INTRA:                  -0.304
REMARK UNBOUND:                -0.304
REMARK SMILES O=c1c(O)c(-c2cc(O)c(O)c(O)c2)oc2cc(O)cc(O)c12
REMARK SMILES IDX 5 1 3 2 2 3 1 4 23 5 21 6 20 7 18 8 17 9 16 10 15 11 6 12
REMARK SMILES IDX 7 13 8 14 14 15 10 16 12 17 9 18 11 20 13 22 4 24 22 26
REMARK SMILES IDX 19 28
REMARK H PARENT 9 19 11 21 13 23 4 25 22 27 19 29
REMARK Flexibility Score: inf
ROOT
ATOM      1  C   UNL     1       9.316  10.784  38.477  1.00  0.00     0.180 A 
ATOM      2  C   UNL     1       9.217  11.420  39.725  1.00  0.00     0.208 A 
ATOM      3  C   UNL     1       9.190  12.823  39.774  1.00  0.00     0.238 A 
ATOM      4  O   UNL     1       9.177  13.388  40.899  1.00  0.00    -0.285 OA
ATOM      5  C   UNL     1       9.206  13.571  38.572  1.00  0.00     0.111 A 
ATOM      6  C   UNL     1       9.137  14.996  38.499  1.00  0.00     0.134 A 
ATOM      7  C   UNL     1       9.267  15.631  37.259  1.00  0.00     0.093 A 
ATOM      8  C   UNL     1       9.401  14.893  36.080  1.00  0.00     0.123 A 
ATOM      9  C   UNL     1       9.413  13.501  36.135  1.00  0.00     0.094 A 
ATOM     10  C   UNL     1       9.324  12.838  37.361  1.00  0.00     0.146 A 
ATOM     11  O   UNL     1       9.362  11.511  37.369  1.00  0.00    -0.452 OA
ENDROOT
BRANCH   1  12
ATOM     12  C   UNL     1       9.364   9.309  38.347  1.00  0.00     0.029 A 
ATOM     13  C   UNL     1       8.209   8.523  38.500  1.00  0.00     0.062 A 
ATOM     14  C   UNL     1       8.280   7.127  38.397  1.00  0.00     0.162 A 
ATOM     15  C   UNL     1      10.597   8.676  38.125  1.00  0.00     0.062 A 
ATOM     16  C   UNL     1       9.515   6.504  38.151  1.00  0.00     0.200 A 
ATOM     17  C   UNL     1      10.673   7.281  38.019  1.00  0.00     0.162 A 
BRANCH  14  18
ATOM     18  O   UNL     1       7.127   6.356  38.542  1.00  0.00    -0.504 OA
ATOM     19  H   UNL     1       6.219   6.781  38.690  1.00  0.00     0.293 HD
ENDBRANCH  14  18
BRANCH  16  20
ATOM     20  O   UNL     1       9.609   5.117  38.040  1.00  0.00    -0.502 OA
ATOM     21  H   UNL     1      10.493   4.628  38.117  1.00  0.00     0.293 HD
ENDBRANCH  16  20
BRANCH  17  22
ATOM     22  O   UNL     1      11.898   6.658  37.784  1.00  0.00    -0.504 OA
ATOM     23  H   UNL     1      12.354   6.098  38.494  1.00  0.00     0.293 HD
ENDBRANCH  17  22
ENDBRANCH   1  12
BRANCH   2  24
ATOM     24  O   UNL     1       9.125  10.663  40.897  1.00  0.00    -0.502 OA
ATOM     25  H   UNL     1       8.435   9.931  41.019  1.00  0.00     0.293 HD
ENDBRANCH   2  24
BRANCH   6  26
ATOM     26  O   UNL     1       8.917  15.826  39.603  1.00  0.00    -0.507 OA
ATOM     27  H   UNL     1       9.326  15.696  40.515  1.00  0.00     0.293 HD
ENDBRANCH   6  26
BRANCH   8  28
ATOM     28  O   UNL     1       9.513  15.533  34.848  1.00  0.00    -0.508 OA
ATOM     29  H   UNL     1       9.164  16.474  34.706  1.00  0.00     0.293 HD
ENDBRANCH   8  28
TORSDOF 7
ENDMDL
MODEL 2
REMARK VINA RESULT:    -6.217      1.597      6.739
REMARK INTER + INTRA:          -7.975
REMARK INTER:                  -7.973
REMARK INTRA:                  -0.002
REMARK UNBOUND:                -0.304
REMARK SMILES O=c1c(O)c(-c2cc(O)c(O)c(O)c2)oc2cc(O)cc(O)c12
REMARK SMILES IDX 5 1 3 2 2 3 1 4 23 5 21 6 20 7 18 8 17 9 16 10 15 11 6 12
REMARK SMILES IDX 7 13 8 14 14 15 10 16 12 17 9 18 11 20 13 22 4 24 22 26
REMARK SMILES IDX 19 28
REMARK H PARENT 9 19 11 21 13 23 4 25 22 27 19 29
REMARK Flexibility Score: inf
ROOT
ATOM      1  C   UNL     1       9.439  11.579  38.153  1.00  0.00     0.180 A 
ATOM      2  C   UNL     1       9.098  11.292  39.486  1.00  0.00     0.208 A 
ATOM      3  C   UNL     1       9.227   9.975  39.953  1.00  0.00     0.238 A 
ATOM      4  O   UNL     1       8.849   9.711  41.125  1.00  0.00    -0.285 OA
ATOM      5  C   UNL     1       9.748   8.972  39.100  1.00  0.00     0.111 A 
ATOM      6  C   UNL     1       9.964   7.612  39.481  1.00  0.00     0.134 A 
ATOM      7  C   UNL     1      10.385   6.684  38.521  1.00  0.00     0.093 A 
ATOM      8  C   UNL     1      10.659   7.078  37.209  1.00  0.00     0.123 A 
ATOM      9  C   UNL     1      10.504   8.413  36.841  1.00  0.00     0.094 A 
ATOM     10  C   UNL     1      10.048   9.355  37.766  1.00  0.00     0.146 A 
ATOM     11  O   UNL     1       9.894  10.612  37.368  1.00  0.00    -0.452 OA
ENDROOT
BRANCH   1  12
ATOM     12  C   UNL     1       9.317  12.941  37.584  1.00  0.00     0.029 A 
ATOM     13  C   UNL     1       8.158  13.712  37.776  1.00  0.00     0.062 A 
ATOM     14  C   UNL     1       8.051  14.990  37.208  1.00  0.00     0.162 A 
ATOM     15  C   UNL     1      10.353  13.451  36.788  1.00  0.00     0.062 A 
ATOM     16  C   UNL     1       9.104  15.502  36.432  1.00  0.00     0.200 A 
ATOM     17  C   UNL     1      10.253  14.728  36.219  1.00  0.00     0.162 A 
BRANCH  14  18
ATOM     18  O   UNL     1       6.900  15.751  37.411  1.00  0.00    -0.504 OA
ATOM     19  H   UNL     1       6.310  15.616  38.224  1.00  0.00     0.293 HD
ENDBRANCH  14  18
BRANCH  16  20
ATOM     20  O   UNL     1       9.023  16.772  35.860  1.00  0.00    -0.502 OA
ATOM     21  H   UNL     1       8.191  17.345  35.936  1.00  0.00     0.293 HD
ENDBRANCH  16  20
BRANCH  17  22
ATOM     22  O   UNL     1      11.292  15.236  35.441  1.00  0.00    -0.504 OA
ATOM     23  H   UNL     1      11.299  16.199  35.129  1.00  0.00     0.293 HD
ENDBRANCH  17  22
ENDBRANCH   1  12
BRANCH   2  24
ATOM     24  O   UNL     1       8.658  12.312  40.335  1.00  0.00    -0.502 OA
ATOM     25  H   UNL     1       9.287  12.824  40.942  1.00  0.00     0.293 HD
ENDBRANCH   2  24
BRANCH   6  26
ATOM     26  O   UNL     1       9.807   7.131  40.785  1.00  0.00    -0.507 OA
ATOM     27  H   UNL     1       9.221   7.550  41.490  1.00  0.00     0.293 HD
ENDBRANCH   6  26
BRANCH   8  28
ATOM     28  O   UNL     1      11.093   6.152  36.264  1.00  0.00    -0.508 OA
ATOM     29  H   UNL     1      10.444   5.536  35.787  1.00  0.00     0.293 HD
ENDBRANCH   8  28
TORSDOF 7
ENDMDL
MODEL 3
REMARK VINA RESULT:    -6.112      8.499     11.036
REMARK INTER + INTRA:          -7.845
REMARK INTER:                  -7.488
REMARK INTRA:                  -0.357
REMARK UNBOUND:                -0.304
REMARK SMILES O=c1c(O)c(-c2cc(O)c(O)c(O)c2)oc2cc(O)cc(O)c12
REMARK SMILES IDX 5 1 3 2 2 3 1 4 23 5 21 6 20 7 18 8 17 9 16 10 15 11 6 12
REMARK SMILES IDX 7 13 8 14 14 15 10 16 12 17 9 18 11 20 13 22 4 24 22 26
REMARK SMILES IDX 19 28
REMARK H PARENT 9 19 11 21 13 23 4 25 22 27 19 29
REMARK Flexibility Score: inf
ROOT
ATOM      1  C   UNL     1       0.906  13.530  38.096  1.00  0.00     0.180 A 
ATOM      2  C   UNL     1       2.129  14.003  37.591  1.00  0.00     0.208 A 
ATOM      3  C   UNL     1       3.176  13.092  37.379  1.00  0.00     0.238 A 
ATOM      4  O   UNL     1       4.292  13.533  36.998  1.00  0.00    -0.285 OA
ATOM      5  C   UNL     1       2.970  11.712  37.620  1.00  0.00     0.111 A 
ATOM      6  C   UNL     1       3.946  10.693  37.397  1.00  0.00     0.134 A 
ATOM      7  C   UNL     1       3.664   9.373  37.771  1.00  0.00     0.093 A 
ATOM      8  C   UNL     1       2.420   9.024  38.302  1.00  0.00     0.123 A 
ATOM      9  C   UNL     1       1.442  10.001  38.472  1.00  0.00     0.094 A 
ATOM     10  C   UNL     1       1.705  11.333  38.144  1.00  0.00     0.146 A 
ATOM     11  O   UNL     1       0.752  12.235  38.343  1.00  0.00    -0.452 OA
ENDROOT
BRANCH   1  12
ATOM     12  C   UNL     1      -0.239  14.431  38.359  1.00  0.00     0.029 A 
ATOM     13  C   UNL     1      -1.188  14.718  37.363  1.00  0.00     0.062 A 
ATOM     14  C   UNL     1      -2.252  15.593  37.625  1.00  0.00     0.162 A 
ATOM     15  C   UNL     1      -0.348  15.061  39.609  1.00  0.00     0.062 A 
ATOM     16  C   UNL     1      -2.366  16.200  38.886  1.00  0.00     0.200 A 
ATOM     17  C   UNL     1      -1.410  15.935  39.876  1.00  0.00     0.162 A 
BRANCH  14  18
ATOM     18  O   UNL     1      -3.194  15.865  36.632  1.00  0.00    -0.504 OA
ATOM     19  H   UNL     1      -2.955  16.401  35.806  1.00  0.00     0.293 HD
ENDBRANCH  14  18
BRANCH  16  20
ATOM     20  O   UNL     1      -3.418  17.071  39.171  1.00  0.00    -0.502 OA
ATOM     21  H   UNL     1      -3.296  18.077  39.186  1.00  0.00     0.293 HD
ENDBRANCH  16  20
BRANCH  17  22
ATOM     22  O   UNL     1      -1.522  16.546  41.124  1.00  0.00    -0.504 OA
ATOM     23  H   UNL     1      -1.464  16.013  41.983  1.00  0.00     0.293 HD
ENDBRANCH  17  22
ENDBRANCH   1  12
BRANCH   2  24
ATOM     24  O   UNL     1       2.288  15.358  37.287  1.00  0.00    -0.502 OA
ATOM     25  H   UNL     1       2.580  15.680  36.372  1.00  0.00     0.293 HD
ENDBRANCH   2  24
BRANCH   6  26
ATOM     26  O   UNL     1       5.186  10.916  36.791  1.00  0.00    -0.507 OA
ATOM     27  H   UNL     1       6.071  10.934  37.274  1.00  0.00     0.293 HD
ENDBRANCH   6  26
BRANCH   8  28
ATOM     28  O   UNL     1       2.143   7.706  38.657  1.00  0.00    -0.508 OA
ATOM     29  H   UNL     1       1.220   7.422  38.967  1.00  0.00     0.293 HD
ENDBRANCH   8  28
TORSDOF 7
ENDMDL
MODEL 4
REMARK VINA RESULT:    -6.092      8.547     11.148
REMARK INTER + INTRA:          -7.820
REMARK INTER:                  -7.455
REMARK INTRA:                  -0.366
REMARK UNBOUND:                -0.304
REMARK SMILES O=c1c(O)c(-c2cc(O)c(O)c(O)c2)oc2cc(O)cc(O)c12
REMARK SMILES IDX 5 1 3 2 2 3 1 4 23 5 21 6 20 7 18 8 17 9 16 10 15 11 6 12
REMARK SMILES IDX 7 13 8 14 14 15 10 16 12 17 9 18 11 20 13 22 4 24 22 26
REMARK SMILES IDX 19 28
REMARK H PARENT 9 19 11 21 13 23 4 25 22 27 19 29
REMARK Flexibility Score: inf
ROOT
ATOM      1  C   UNL     1       0.856  13.428  38.101  1.00  0.00     0.180 A 
ATOM      2  C   UNL     1       2.107  13.822  37.598  1.00  0.00     0.208 A 
ATOM      3  C   UNL     1       3.088  12.843  37.374  1.00  0.00     0.238 A 
ATOM      4  O   UNL     1       4.231  13.211  36.995  1.00  0.00    -0.285 OA
ATOM      5  C   UNL     1       2.789  11.478  37.602  1.00  0.00     0.111 A 
ATOM      6  C   UNL     1       3.692  10.398  37.367  1.00  0.00     0.134 A 
ATOM      7  C   UNL     1       3.322   9.097  37.728  1.00  0.00     0.093 A 
ATOM      8  C   UNL     1       2.058   8.828  38.259  1.00  0.00     0.123 A 
ATOM      9  C   UNL     1       1.149   9.868  38.441  1.00  0.00     0.094 A 
ATOM     10  C   UNL     1       1.503  11.182  38.126  1.00  0.00     0.146 A 
ATOM     11  O   UNL     1       0.614  12.145  38.336  1.00  0.00    -0.452 OA
ENDROOT
BRANCH   1  12
ATOM     12  C   UNL     1      -0.225  14.403  38.376  1.00  0.00     0.029 A 
ATOM     13  C   UNL     1      -0.347  15.026  39.630  1.00  0.00     0.062 A 
ATOM     14  C   UNL     1      -1.392  15.927  39.879  1.00  0.00     0.162 A 
ATOM     15  C   UNL     1      -1.183  14.669  37.385  1.00  0.00     0.062 A 
ATOM     16  C   UNL     1      -2.332  16.205  38.873  1.00  0.00     0.200 A 
ATOM     17  C   UNL     1      -2.228  15.571  37.628  1.00  0.00     0.162 A 
BRANCH  14  18
ATOM     18  O   UNL     1      -1.500  16.546  41.124  1.00  0.00    -0.504 OA
ATOM     19  H   UNL     1      -1.058  16.158  41.950  1.00  0.00     0.293 HD
ENDBRANCH  14  18
BRANCH  16  20
ATOM     20  O   UNL     1      -3.377  17.101  39.095  1.00  0.00    -0.502 OA
ATOM     21  H   UNL     1      -3.325  17.826  39.801  1.00  0.00     0.293 HD
ENDBRANCH  16  20
BRANCH  17  22
ATOM     22  O   UNL     1      -3.168  15.842  36.635  1.00  0.00    -0.504 OA
ATOM     23  H   UNL     1      -3.815  16.617  36.714  1.00  0.00     0.293 HD
ENDBRANCH  17  22
ENDBRANCH   1  12
BRANCH   2  24
ATOM     24  O   UNL     1       2.358  15.166  37.307  1.00  0.00    -0.502 OA
ATOM     25  H   UNL     1       2.027  15.610  36.458  1.00  0.00     0.293 HD
ENDBRANCH   2  24
BRANCH   6  26
ATOM     26  O   UNL     1       4.944  10.542  36.760  1.00  0.00    -0.507 OA
ATOM     27  H   UNL     1       5.359   9.878  36.126  1.00  0.00     0.293 HD
ENDBRANCH   6  26
BRANCH   8  28
ATOM     28  O   UNL     1       1.692   7.528  38.601  1.00  0.00    -0.508 OA
ATOM     29  H   UNL     1       0.904   7.066  38.162  1.00  0.00     0.293 HD
ENDBRANCH   8  28
TORSDOF 7
ENDMDL
MODEL 5
REMARK VINA RESULT:    -5.937      3.213      7.145
REMARK INTER + INTRA:          -7.629
REMARK INTER:                  -7.390
REMARK INTRA:                  -0.239
REMARK UNBOUND:                -0.304
REMARK SMILES O=c1c(O)c(-c2cc(O)c(O)c(O)c2)oc2cc(O)cc(O)c12
REMARK SMILES IDX 5 1 3 2 2 3 1 4 23 5 21 6 20 7 18 8 17 9 16 10 15 11 6 12
REMARK SMILES IDX 7 13 8 14 14 15 10 16 12 17 9 18 11 20 13 22 4 24 22 26
REMARK SMILES IDX 19 28
REMARK H PARENT 9 19 11 21 13 23 4 25 22 27 19 29
REMARK Flexibility Score: inf
ROOT
ATOM      1  C   UNL     1       7.253   7.750  38.638  1.00  0.00     0.180 A 
ATOM      2  C   UNL     1       6.610   8.217  39.796  1.00  0.00     0.208 A 
ATOM      3  C   UNL     1       5.347   7.701  40.128  1.00  0.00     0.238 A 
ATOM      4  O   UNL     1       4.744   8.178  41.125  1.00  0.00    -0.285 OA
ATOM      5  C   UNL     1       4.769   6.684  39.330  1.00  0.00     0.111 A 
ATOM      6  C   UNL     1       3.514   6.056  39.597  1.00  0.00     0.134 A 
ATOM      7  C   UNL     1       2.993   5.137  38.679  1.00  0.00     0.093 A 
ATOM      8  C   UNL     1       3.708   4.775  37.535  1.00  0.00     0.123 A 
ATOM      9  C   UNL     1       4.958   5.341  37.294  1.00  0.00     0.094 A 
ATOM     10  C   UNL     1       5.488   6.290  38.171  1.00  0.00     0.146 A 
ATOM     11  O   UNL     1       6.673   6.820  37.891  1.00  0.00    -0.452 OA
ENDROOT
BRANCH   1  12
ATOM     12  C   UNL     1       8.579   8.257  38.215  1.00  0.00     0.029 A 
ATOM     13  C   UNL     1       8.754   9.586  37.792  1.00  0.00     0.062 A 
ATOM     14  C   UNL     1      10.012  10.040  37.372  1.00  0.00     0.162 A 
ATOM     15  C   UNL     1       9.674   7.379  38.178  1.00  0.00     0.062 A 
ATOM     16  C   UNL     1      11.107   9.160  37.361  1.00  0.00     0.200 A 
ATOM     17  C   UNL     1      10.934   7.828  37.761  1.00  0.00     0.162 A 
BRANCH  14  18
ATOM     18  O   UNL     1      10.177  11.363  36.962  1.00  0.00    -0.504 OA
ATOM     19  H   UNL     1      10.302  12.114  37.631  1.00  0.00     0.293 HD
ENDBRANCH  14  18
BRANCH  16  20
ATOM     20  O   UNL     1      12.369   9.589  36.952  1.00  0.00    -0.502 OA
ATOM     21  H   UNL     1      12.495  10.245  36.190  1.00  0.00     0.293 HD
ENDBRANCH  16  20
BRANCH  17  22
ATOM     22  O   UNL     1      12.021   6.955  37.740  1.00  0.00    -0.504 OA
ATOM     23  H   UNL     1      12.465   6.681  36.872  1.00  0.00     0.293 HD
ENDBRANCH  17  22
ENDBRANCH   1  12
BRANCH   2  24
ATOM     24  O   UNL     1       7.232   9.166  40.613  1.00  0.00    -0.502 OA
ATOM     25  H   UNL     1       8.092   8.974  41.113  1.00  0.00     0.293 HD
ENDBRANCH   2  24
BRANCH   6  26
ATOM     26  O   UNL     1       2.758   6.278  40.753  1.00  0.00    -0.507 OA
ATOM     27  H   UNL     1       3.028   5.997  41.683  1.00  0.00     0.293 HD
ENDBRANCH   6  26
BRANCH   8  28
ATOM     28  O   UNL     1       3.190   3.847  36.635  1.00  0.00    -0.508 OA
ATOM     29  H   UNL     1       3.120   4.050  35.645  1.00  0.00     0.293 HD
ENDBRANCH   8  28
TORSDOF 7
ENDMDL
MODEL 6
REMARK VINA RESULT:    -5.906      8.878      9.804
REMARK INTER + INTRA:          -7.590
REMARK INTER:                  -7.244
REMARK INTRA:                  -0.346
REMARK UNBOUND:                -0.304
REMARK SMILES O=c1c(O)c(-c2cc(O)c(O)c(O)c2)oc2cc(O)cc(O)c12
REMARK SMILES IDX 5 1 3 2 2 3 1 4 23 5 21 6 20 7 18 8 17 9 16 10 15 11 6 12
REMARK SMILES IDX 7 13 8 14 14 15 10 16 12 17 9 18 11 20 13 22 4 24 22 26
REMARK SMILES IDX 19 28
REMARK H PARENT 9 19 11 21 13 23 4 25 22 27 19 29
REMARK Flexibility Score: inf
ROOT
ATOM      1  C   UNL     1       0.642  12.487  37.750  1.00  0.00     0.180 A 
ATOM      2  C   UNL     1      -0.086  12.634  36.558  1.00  0.00     0.208 A 
ATOM      3  C   UNL     1      -1.093  13.610  36.491  1.00  0.00     0.238 A 
ATOM      4  O   UNL     1      -1.792  13.685  35.446  1.00  0.00    -0.285 OA
ATOM      5  C   UNL     1      -1.322  14.465  37.596  1.00  0.00     0.111 A 
ATOM      6  C   UNL     1      -2.286  15.518  37.624  1.00  0.00     0.134 A 
ATOM      7  C   UNL     1      -2.497  16.230  38.811  1.00  0.00     0.093 A 
ATOM      8  C   UNL     1      -1.735  15.970  39.954  1.00  0.00     0.123 A 
ATOM      9  C   UNL     1      -0.754  14.982  39.920  1.00  0.00     0.094 A 
ATOM     10  C   UNL     1      -0.546  14.228  38.762  1.00  0.00     0.146 A 
ATOM     11  O   UNL     1       0.384  13.281  38.781  1.00  0.00    -0.452 OA
ENDROOT
BRANCH   1  12
ATOM     12  C   UNL     1       1.709  11.471  37.901  1.00  0.00     0.029 A 
ATOM     13  C   UNL     1       3.057  11.785  37.657  1.00  0.00     0.062 A 
ATOM     14  C   UNL     1       4.050  10.803  37.782  1.00  0.00     0.162 A 
ATOM     15  C   UNL     1       1.364  10.153  38.237  1.00  0.00     0.062 A 
ATOM     16  C   UNL     1       3.698   9.491  38.142  1.00  0.00     0.200 A 
ATOM     17  C   UNL     1       2.353   9.168  38.365  1.00  0.00     0.162 A 
BRANCH  14  18
ATOM     18  O   UNL     1       5.386  11.125  37.546  1.00  0.00    -0.504 OA
ATOM     19  H   UNL     1       5.980  11.498  38.278  1.00  0.00     0.293 HD
ENDBRANCH  14  18
BRANCH  16  20
ATOM     20  O   UNL     1       4.668   8.499  38.276  1.00  0.00    -0.502 OA
ATOM     21  H   UNL     1       4.560   7.722  38.918  1.00  0.00     0.293 HD
ENDBRANCH  16  20
BRANCH  17  22
ATOM     22  O   UNL     1       2.005   7.863  38.713  1.00  0.00    -0.504 OA
ATOM     23  H   UNL     1       1.915   7.578  39.680  1.00  0.00     0.293 HD
ENDBRANCH  17  22
ENDBRANCH   1  12
BRANCH   2  24
ATOM     24  O   UNL     1       0.206  11.832  35.451  1.00  0.00    -0.502 OA
ATOM     25  H   UNL     1      -0.337  11.864  34.597  1.00  0.00     0.293 HD
ENDBRANCH   2  24
BRANCH   6  26
ATOM     26  O   UNL     1      -3.038  15.920  36.516  1.00  0.00    -0.507 OA
ATOM     27  H   UNL     1      -4.027  15.766  36.401  1.00  0.00     0.293 HD
ENDBRANCH   6  26
BRANCH   8  28
ATOM     28  O   UNL     1      -1.940  16.695  41.125  1.00  0.00    -0.508 OA
ATOM     29  H   UNL     1      -2.316  16.259  41.959  1.00  0.00     0.293 HD
ENDBRANCH   8  28
TORSDOF 7
ENDMDL
MODEL 7
REMARK VINA RESULT:    -5.899      5.049      8.372
REMARK INTER + INTRA:          -7.582
REMARK INTER:                  -7.241
REMARK INTRA:                  -0.341
REMARK UNBOUND:                -0.304
REMARK SMILES O=c1c(O)c(-c2cc(O)c(O)c(O)c2)oc2cc(O)cc(O)c12
REMARK SMILES IDX 5 1 3 2 2 3 1 4 23 5 21 6 20 7 18 8 17 9 16 10 15 11 6 12
REMARK SMILES IDX 7 13 8 14 14 15 10 16 12 17 9 18 11 20 13 22 4 24 22 26
REMARK SMILES IDX 19 28
REMARK H PARENT 9 19 11 21 13 23 4 25 22 27 19 29
REMARK Flexibility Score: inf
ROOT
ATOM      1  C   UNL     1       4.434   7.730  38.667  1.00  0.00     0.180 A 
ATOM      2  C   UNL     1       3.564   7.843  39.764  1.00  0.00     0.208 A 
ATOM      3  C   UNL     1       2.276   7.293  39.671  1.00  0.00     0.238 A 
ATOM      4  O   UNL     1       1.476   7.464  40.628  1.00  0.00    -0.285 OA
ATOM      5  C   UNL     1       1.893   6.586  38.505  1.00  0.00     0.111 A 
ATOM      6  C   UNL     1       0.629   5.948  38.319  1.00  0.00     0.134 A 
ATOM      7  C   UNL     1       0.323   5.369  37.082  1.00  0.00     0.093 A 
ATOM      8  C   UNL     1       1.258   5.348  36.044  1.00  0.00     0.123 A 
ATOM      9  C   UNL     1       2.514   5.919  36.234  1.00  0.00     0.094 A 
ATOM     10  C   UNL     1       2.836   6.539  37.444  1.00  0.00     0.146 A 
ATOM     11  O   UNL     1       4.036   7.090  37.575  1.00  0.00    -0.452 OA
ENDROOT
BRANCH   1  12
ATOM     12  C   UNL     1       5.802   8.297  38.684  1.00  0.00     0.029 A 
ATOM     13  C   UNL     1       6.029   9.665  38.457  1.00  0.00     0.062 A 
ATOM     14  C   UNL     1       7.334  10.179  38.453  1.00  0.00     0.162 A 
ATOM     15  C   UNL     1       6.900   7.444  38.873  1.00  0.00     0.062 A 
ATOM     16  C   UNL     1       8.425   9.321  38.666  1.00  0.00     0.200 A 
ATOM     17  C   UNL     1       8.206   7.952  38.872  1.00  0.00     0.162 A 
BRANCH  14  18
ATOM     18  O   UNL     1       7.549  11.539  38.234  1.00  0.00    -0.504 OA
ATOM     19  H   UNL     1       8.277  11.868  37.610  1.00  0.00     0.293 HD
ENDBRANCH  14  18
BRANCH  16  20
ATOM     20  O   UNL     1       9.732   9.809  38.671  1.00  0.00    -0.502 OA
ATOM     21  H   UNL     1      10.518   9.248  38.366  1.00  0.00     0.293 HD
ENDBRANCH  16  20
BRANCH  17  22
ATOM     22  O   UNL     1       9.292   7.102  39.074  1.00  0.00    -0.504 OA
ATOM     23  H   UNL     1      10.233   7.461  39.186  1.00  0.00     0.293 HD
ENDBRANCH  17  22
ENDBRANCH   1  12
BRANCH   2  24
ATOM     24  O   UNL     1       3.987   8.479  40.935  1.00  0.00    -0.502 OA
ATOM     25  H   UNL     1       4.911   8.882  41.032  1.00  0.00     0.293 HD
ENDBRANCH   2  24
BRANCH   6  26
ATOM     26  O   UNL     1      -0.344   5.833  39.318  1.00  0.00    -0.507 OA
ATOM     27  H   UNL     1      -1.045   6.526  39.525  1.00  0.00     0.293 HD
ENDBRANCH   6  26
BRANCH   8  28
ATOM     28  O   UNL     1       0.951   4.755  34.822  1.00  0.00    -0.508 OA
ATOM     29  H   UNL     1       0.454   3.873  34.771  1.00  0.00     0.293 HD
ENDBRANCH   8  28
TORSDOF 7
ENDMDL
MODEL 8
REMARK VINA RESULT:    -5.803      4.505      6.353
REMARK INTER + INTRA:          -7.464
REMARK INTER:                  -7.121
REMARK INTRA:                  -0.343
REMARK UNBOUND:                -0.304
REMARK SMILES O=c1c(O)c(-c2cc(O)c(O)c(O)c2)oc2cc(O)cc(O)c12
REMARK SMILES IDX 5 1 3 2 2 3 1 4 23 5 21 6 20 7 18 8 17 9 16 10 15 11 6 12
REMARK SMILES IDX 7 13 8 14 14 15 10 16 12 17 9 18 11 20 13 22 4 24 22 26
REMARK SMILES IDX 19 28
REMARK H PARENT 9 19 11 21 13 23 4 25 22 27 19 29
REMARK Flexibility Score: inf
ROOT
ATOM      1  C   UNL     1       4.761   8.239  38.757  1.00  0.00     0.180 A 
ATOM      2  C   UNL     1       5.878   7.788  39.479  1.00  0.00     0.208 A 
ATOM      3  C   UNL     1       7.070   8.527  39.419  1.00  0.00     0.238 A 
ATOM      4  O   UNL     1       8.089   8.078  40.007  1.00  0.00    -0.285 OA
ATOM      5  C   UNL     1       7.114   9.738  38.686  1.00  0.00     0.111 A 
ATOM      6  C   UNL     1       8.255  10.591  38.593  1.00  0.00     0.134 A 
ATOM      7  C   UNL     1       8.215  11.710  37.751  1.00  0.00     0.093 A 
ATOM      8  C   UNL     1       7.054  12.041  37.048  1.00  0.00     0.123 A 
ATOM      9  C   UNL     1       5.918  11.245  37.175  1.00  0.00     0.094 A 
ATOM     10  C   UNL     1       5.939  10.102  37.976  1.00  0.00     0.146 A 
ATOM     11  O   UNL     1       4.841   9.360  38.052  1.00  0.00    -0.452 OA
ENDROOT
BRANCH   1  12
ATOM     12  C   UNL     1       3.474   7.506  38.759  1.00  0.00     0.029 A 
ATOM     13  C   UNL     1       3.116   6.654  37.701  1.00  0.00     0.062 A 
ATOM     14  C   UNL     1       1.882   5.988  37.709  1.00  0.00     0.162 A 
ATOM     15  C   UNL     1       2.565   7.710  39.809  1.00  0.00     0.062 A 
ATOM     16  C   UNL     1       0.989   6.180  38.776  1.00  0.00     0.200 A 
ATOM     17  C   UNL     1       1.332   7.046  39.824  1.00  0.00     0.162 A 
BRANCH  14  18
ATOM     18  O   UNL     1       1.539   5.137  36.658  1.00  0.00    -0.504 OA
ATOM     19  H   UNL     1       1.966   4.224  36.553  1.00  0.00     0.293 HD
ENDBRANCH  14  18
BRANCH  16  20
ATOM     20  O   UNL     1      -0.242   5.525  38.809  1.00  0.00    -0.502 OA
ATOM     21  H   UNL     1      -1.107   5.989  38.558  1.00  0.00     0.293 HD
ENDBRANCH  16  20
BRANCH  17  22
ATOM     22  O   UNL     1       0.439   7.241  40.877  1.00  0.00    -0.504 OA
ATOM     23  H   UNL     1       0.722   7.119  41.842  1.00  0.00     0.293 HD
ENDBRANCH  17  22
ENDBRANCH   1  12
BRANCH   2  24
ATOM     24  O   UNL     1       5.793   6.631  40.260  1.00  0.00    -0.502 OA
ATOM     25  H   UNL     1       5.482   6.648  41.223  1.00  0.00     0.293 HD
ENDBRANCH   2  24
BRANCH   6  26
ATOM     26  O   UNL     1       9.435  10.403  39.320  1.00  0.00    -0.507 OA
ATOM     27  H   UNL     1       9.914  11.121  39.840  1.00  0.00     0.293 HD
ENDBRANCH   6  26
BRANCH   8  28
ATOM     28  O   UNL     1       7.017  13.165  36.226  1.00  0.00    -0.508 OA
ATOM     29  H   UNL     1       6.903  13.084  35.222  1.00  0.00     0.293 HD
ENDBRANCH   8  28
TORSDOF 7
ENDMDL
MODEL 9
REMARK VINA RESULT:    -5.769      4.447      7.024
REMARK INTER + INTRA:          -7.421
REMARK INTER:                  -7.117
REMARK INTRA:                  -0.304
REMARK UNBOUND:                -0.304
REMARK SMILES O=c1c(O)c(-c2cc(O)c(O)c(O)c2)oc2cc(O)cc(O)c12
REMARK SMILES IDX 5 1 3 2 2 3 1 4 23 5 21 6 20 7 18 8 17 9 16 10 15 11 6 12
REMARK SMILES IDX 7 13 8 14 14 15 10 16 12 17 9 18 11 20 13 22 4 24 22 26
REMARK SMILES IDX 19 28
REMARK H PARENT 9 19 11 21 13 23 4 25 22 27 19 29
REMARK Flexibility Score: inf
ROOT
ATOM      1  C   UNL     1       4.924   8.290  38.745  1.00  0.00     0.180 A 
ATOM      2  C   UNL     1       5.138   9.460  37.998  1.00  0.00     0.208 A 
ATOM      3  C   UNL     1       6.414  10.045  38.001  1.00  0.00     0.238 A 
ATOM      4  O   UNL     1       6.580  11.134  37.391  1.00  0.00    -0.285 OA
ATOM      5  C   UNL     1       7.474   9.422  38.703  1.00  0.00     0.111 A 
ATOM      6  C   UNL     1       8.819   9.902  38.738  1.00  0.00     0.134 A 
ATOM      7  C   UNL     1       9.760   9.261  39.553  1.00  0.00     0.093 A 
ATOM      8  C   UNL     1       9.422   8.121  40.287  1.00  0.00     0.123 A 
ATOM      9  C   UNL     1       8.127   7.613  40.216  1.00  0.00     0.094 A 
ATOM     10  C   UNL     1       7.155   8.252  39.442  1.00  0.00     0.146 A 
ATOM     11  O   UNL     1       5.928   7.746  39.421  1.00  0.00    -0.452 OA
ENDROOT
BRANCH   1  12
ATOM     12  C   UNL     1       3.602   7.623  38.803  1.00  0.00     0.029 A 
ATOM     13  C   UNL     1       3.123   6.854  37.729  1.00  0.00     0.062 A 
ATOM     14  C   UNL     1       1.859   6.251  37.793  1.00  0.00     0.162 A 
ATOM     15  C   UNL     1       2.784   7.810  39.928  1.00  0.00     0.062 A 
ATOM     16  C   UNL     1       1.057   6.424  38.934  1.00  0.00     0.200 A 
ATOM     17  C   UNL     1       1.521   7.208  39.999  1.00  0.00     0.162 A 
BRANCH  14  18
ATOM     18  O   UNL     1       1.396   5.483  36.725  1.00  0.00    -0.504 OA
ATOM     19  H   UNL     1       0.560   4.914  36.804  1.00  0.00     0.293 HD
ENDBRANCH  14  18
BRANCH  16  20
ATOM     20  O   UNL     1      -0.202   5.831  39.022  1.00  0.00    -0.502 OA
ATOM     21  H   UNL     1      -0.398   5.076  39.668  1.00  0.00     0.293 HD
ENDBRANCH  16  20
BRANCH  17  22
ATOM     22  O   UNL     1       0.718   7.385  41.125  1.00  0.00    -0.504 OA
ATOM     23  H   UNL     1       0.375   6.597  41.661  1.00  0.00     0.293 HD
ENDBRANCH  17  22
ENDBRANCH   1  12
BRANCH   2  24
ATOM     24  O   UNL     1       4.097  10.017  37.249  1.00  0.00    -0.502 OA
ATOM     25  H   UNL     1       3.437   9.451  36.730  1.00  0.00     0.293 HD
ENDBRANCH   2  24
BRANCH   6  26
ATOM     26  O   UNL     1       9.286  10.979  37.977  1.00  0.00    -0.507 OA
ATOM     27  H   UNL     1       8.764  11.818  37.782  1.00  0.00     0.293 HD
ENDBRANCH   6  26
BRANCH   8  28
ATOM     28  O   UNL     1      10.369   7.480  41.082  1.00  0.00    -0.508 OA
ATOM     29  H   UNL     1      11.318   7.827  41.160  1.00  0.00     0.293 HD
ENDBRANCH   8  28
TORSDOF 7
ENDMDL
