MODEL 1
REMARK VINA RESULT:    -4.437      0.000      0.000
REMARK INTER + INTRA:          -7.282
REMARK INTER:                  -6.771
REMARK INTRA:                  -0.511
REMARK UNBOUND:                -0.511
REMARK SMILES O=C([O-])CCCCCCCCC(=O)[O-]
REMARK SMILES IDX 7 1 6 2 5 3 4 4 2 5 1 6 3 7 8 8 9 9 10 10 11 11 12 12 13 13
REMARK SMILES IDX 14 14
REMARK H PARENT
REMARK Flexibility Score: inf
ROOT
ATOM      1  C   UNL     1       5.876 -16.406   4.258  1.00  0.00     0.000 C 
ENDROOT
BRANCH   1   2
ATOM      2  C   UNL     1       6.724 -15.290   4.900  1.00  0.00     0.000 C 
BRANCH   2   3
ATOM      3  C   UNL     1       7.890 -15.778   5.784  1.00  0.00     0.006 C 
BRANCH   3   4
ATOM      4  C   UNL     1       8.108 -14.949   7.058  1.00  0.00     0.053 C 
BRANCH   4   5
ATOM      5  C   UNL     1       8.497 -13.536   6.746  1.00  0.00     0.041 C 
ATOM      6  O   UNL     1       9.496 -13.300   6.017  1.00  0.00    -0.550 OA
ATOM      7  O   UNL     1       7.736 -12.482   7.234  1.00  0.00    -0.550 OA
ENDBRANCH   4   5
ENDBRANCH   3   4
ENDBRANCH   2   3
ENDBRANCH   1   2
BRANCH   1   8
ATOM      8  C   UNL     1       4.422 -16.016   3.940  1.00  0.00     0.000 C 
BRANCH   8   9
ATOM      9  C   UNL     1       3.458 -17.214   4.000  1.00  0.00     0.000 C 
BRANCH   9  10
ATOM     10  C   UNL     1       4.147 -18.543   3.652  1.00  0.00     0.006 C 
BRANCH  10  11
ATOM     11  C   UNL     1       3.643 -19.138   2.330  1.00  0.00     0.053 C 
BRANCH  11  12
ATOM     12  C   UNL     1       4.215 -18.387   1.169  1.00  0.00     0.041 C 
ATOM     13  O   UNL     1       3.464 -17.988   0.241  1.00  0.00    -0.550 OA
ATOM     14  O   UNL     1       5.584 -18.169   1.089  1.00  0.00    -0.550 OA
ENDBRANCH  11  12
ENDBRANCH  10  11
ENDBRANCH   9  10
ENDBRANCH   8   9
ENDBRANCH   1   8
TORSDOF 9
ENDMDL
MODEL 2
REMARK VINA RESULT:    -4.437     12.025     14.426
REMARK INTER + INTRA:          -7.282
REMARK INTER:                  -6.793
REMARK INTRA:                  -0.489
REMARK UNBOUND:                -0.511
REMARK SMILES O=C([O-])CCCCCCCCC(=O)[O-]
REMARK SMILES IDX 7 1 6 2 5 3 4 4 2 5 1 6 3 7 8 8 9 9 10 10 11 11 12 12 13 13
REMARK SMILES IDX 14 14
REMARK H PARENT
REMARK Flexibility Score: inf
ROOT
ATOM      1  C   UNL     1       9.037 -12.029  -7.678  1.00  0.00     0.000 C 
ENDROOT
BRANCH   1   2
ATOM      2  C   UNL     1       7.792 -12.934  -7.579  1.00  0.00     0.000 C 
BRANCH   2   3
ATOM      3  C   UNL     1       7.923 -14.307  -8.271  1.00  0.00     0.006 C 
BRANCH   3   4
ATOM      4  C   UNL     1       6.627 -14.814  -8.921  1.00  0.00     0.053 C 
BRANCH   4   5
ATOM      5  C   UNL     1       5.512 -14.931  -7.928  1.00  0.00     0.041 C 
ATOM      6  O   UNL     1       5.645 -15.657  -6.908  1.00  0.00    -0.550 OA
ATOM      7  O   UNL     1       4.338 -14.212  -8.113  1.00  0.00    -0.550 OA
ENDBRANCH   4   5
ENDBRANCH   3   4
ENDBRANCH   2   3
ENDBRANCH   1   2
BRANCH   1   8
ATOM      8  C   UNL     1       8.771 -10.532  -7.443  1.00  0.00     0.000 C 
BRANCH   8   9
ATOM      9  C   UNL     1       9.808  -9.629  -8.133  1.00  0.00     0.000 C 
BRANCH   9  10
ATOM     10  C   UNL     1      11.200 -10.276  -8.205  1.00  0.00     0.006 C 
BRANCH  10  11
ATOM     11  C   UNL     1      12.256  -9.489  -7.416  1.00  0.00     0.053 C 
BRANCH  11  12
ATOM     12  C   UNL     1      12.063  -9.689  -5.945  1.00  0.00     0.041 C 
ATOM     13  O   UNL     1      11.861 -10.842  -5.483  1.00  0.00    -0.550 OA
ATOM     14  O   UNL     1      12.058  -8.594  -5.090  1.00  0.00    -0.550 OA
ENDBRANCH  11  12
ENDBRANCH  10  11
ENDBRANCH   9  10
ENDBRANCH   8   9
ENDBRANCH   1   8
TORSDOF 9
ENDMDL
MODEL 3
REMARK VINA RESULT:    -4.386      4.015      8.385
REMARK INTER + INTRA:          -7.205
REMARK INTER:                  -6.740
REMARK INTRA:                  -0.465
REMARK UNBOUND:                -0.511
REMARK SMILES O=C([O-])CCCCCCCCC(=O)[O-]
REMARK SMILES IDX 7 1 6 2 5 3 4 4 2 5 1 6 3 7 8 8 9 9 10 10 11 11 12 12 13 13
REMARK SMILES IDX 14 14
REMARK H PARENT
REMARK Flexibility Score: inf
ROOT
ATOM      1  C   UNL     1       2.949 -17.085  -1.494  1.00  0.00     0.000 C 
ENDROOT
BRANCH   1   2
ATOM      2  C   UNL     1       2.230 -17.707  -2.708  1.00  0.00     0.000 C 
BRANCH   2   3
ATOM      3  C   UNL     1       2.930 -18.935  -3.327  1.00  0.00     0.006 C 
BRANCH   3   4
ATOM      4  C   UNL     1       3.494 -18.698  -4.736  1.00  0.00     0.053 C 
BRANCH   4   5
ATOM      5  C   UNL     1       4.458 -17.552  -4.767  1.00  0.00     0.041 C 
ATOM      6  O   UNL     1       4.246 -16.565  -5.520  1.00  0.00    -0.550 OA
ATOM      7  O   UNL     1       5.573 -17.559  -3.939  1.00  0.00    -0.550 OA
ENDBRANCH   4   5
ENDBRANCH   3   4
ENDBRANCH   2   3
ENDBRANCH   1   2
BRANCH   1   8
ATOM      8  C   UNL     1       3.778 -18.073  -0.654  1.00  0.00     0.000 C 
BRANCH   8   9
ATOM      9  C   UNL     1       3.795 -17.713   0.842  1.00  0.00     0.000 C 
BRANCH   9  10
ATOM     10  C   UNL     1       4.405 -18.826   1.709  1.00  0.00     0.006 C 
BRANCH  10  11
ATOM     11  C   UNL     1       3.815 -18.857   3.126  1.00  0.00     0.053 C 
BRANCH  11  12
ATOM     12  C   UNL     1       3.955 -17.518   3.778  1.00  0.00     0.041 C 
ATOM     13  O   UNL     1       2.931 -16.868   4.116  1.00  0.00    -0.550 OA
ATOM     14  O   UNL     1       5.214 -16.965   3.967  1.00  0.00    -0.550 OA
ENDBRANCH  11  12
ENDBRANCH  10  11
ENDBRANCH   9  10
ENDBRANCH   8   9
ENDBRANCH   1   8
TORSDOF 9
ENDMDL
MODEL 4
REMARK VINA RESULT:    -4.381      4.089      6.535
REMARK INTER + INTRA:          -7.197
REMARK INTER:                  -6.638
REMARK INTRA:                  -0.559
REMARK UNBOUND:                -0.511
REMARK SMILES O=C([O-])CCCCCCCCC(=O)[O-]
REMARK SMILES IDX 7 1 6 2 5 3 4 4 2 5 1 6 3 7 8 8 9 9 10 10 11 11 12 12 13 13
REMARK SMILES IDX 14 14
REMARK H PARENT
REMARK Flexibility Score: inf
ROOT
ATOM      1  C   UNL     1      10.264 -12.769   5.282  1.00  0.00     0.000 C 
ENDROOT
BRANCH   1   2
ATOM      2  C   UNL     1      11.267 -11.843   4.566  1.00  0.00     0.000 C 
BRANCH   2   3
ATOM      3  C   UNL     1      11.998 -10.836   5.479  1.00  0.00     0.006 C 
BRANCH   3   4
ATOM      4  C   UNL     1      13.157 -10.092   4.801  1.00  0.00     0.053 C 
BRANCH   4   5
ATOM      5  C   UNL     1      12.670  -9.122   3.768  1.00  0.00     0.041 C 
ATOM      6  O   UNL     1      12.077  -8.068   4.118  1.00  0.00    -0.550 OA
ATOM      7  O   UNL     1      12.901  -9.367   2.420  1.00  0.00    -0.550 OA
ENDBRANCH   4   5
ENDBRANCH   3   4
ENDBRANCH   2   3
ENDBRANCH   1   2
BRANCH   1   8
ATOM      8  C   UNL     1       9.056 -12.055   5.912  1.00  0.00     0.000 C 
BRANCH   8   9
ATOM      9  C   UNL     1       8.225 -12.979   6.819  1.00  0.00     0.000 C 
BRANCH   9  10
ATOM     10  C   UNL     1       8.900 -14.341   7.051  1.00  0.00     0.006 C 
BRANCH  10  11
ATOM     11  C   UNL     1       7.930 -15.516   6.868  1.00  0.00     0.053 C 
BRANCH  11  12
ATOM     12  C   UNL     1       7.471 -15.597   5.446  1.00  0.00     0.041 C 
ATOM     13  O   UNL     1       6.242 -15.632   5.179  1.00  0.00    -0.550 OA
ATOM     14  O   UNL     1       8.401 -15.684   4.419  1.00  0.00    -0.550 OA
ENDBRANCH  11  12
ENDBRANCH  10  11
ENDBRANCH   9  10
ENDBRANCH   8   9
ENDBRANCH   1   8
TORSDOF 9
ENDMDL
MODEL 5
REMARK VINA RESULT:    -4.359     12.135     14.470
REMARK INTER + INTRA:          -7.164
REMARK INTER:                  -6.679
REMARK INTRA:                  -0.485
REMARK UNBOUND:                -0.511
REMARK SMILES O=C([O-])CCCCCCCCC(=O)[O-]
REMARK SMILES IDX 7 1 6 2 5 3 4 4 2 5 1 6 3 7 8 8 9 9 10 10 11 11 12 12 13 13
REMARK SMILES IDX 14 14
REMARK H PARENT
REMARK Flexibility Score: inf
ROOT
ATOM      1  C   UNL     1      12.517  -9.020  -4.368  1.00  0.00     0.000 C 
ENDROOT
BRANCH   1   2
ATOM      2  C   UNL     1      11.601  -9.473  -5.523  1.00  0.00     0.000 C 
BRANCH   2   3
ATOM      3  C   UNL     1      12.226  -9.383  -6.930  1.00  0.00     0.006 C 
BRANCH   3   4
ATOM      4  C   UNL     1      11.619 -10.352  -7.956  1.00  0.00     0.053 C 
BRANCH   4   5
ATOM      5  C   UNL     1      10.122 -10.326  -7.930  1.00  0.00     0.041 C 
ATOM      6  O   UNL     1       9.475 -11.358  -7.612  1.00  0.00    -0.550 OA
ATOM      7  O   UNL     1       9.441  -9.152  -8.226  1.00  0.00    -0.550 OA
ENDBRANCH   4   5
ENDBRANCH   3   4
ENDBRANCH   2   3
ENDBRANCH   1   2
BRANCH   1   8
ATOM      8  C   UNL     1      11.972  -7.853  -3.526  1.00  0.00     0.000 C 
BRANCH   8   9
ATOM      9  C   UNL     1      13.088  -6.993  -2.908  1.00  0.00     0.000 C 
BRANCH   9  10
ATOM     10  C   UNL     1      14.323  -7.822  -2.519  1.00  0.00     0.006 C 
BRANCH  10  11
ATOM     11  C   UNL     1      14.585  -7.813  -1.007  1.00  0.00     0.053 C 
BRANCH  11  12
ATOM     12  C   UNL     1      13.628  -8.726  -0.307  1.00  0.00     0.041 C 
ATOM     13  O   UNL     1      13.119  -8.387   0.793  1.00  0.00    -0.550 OA
ATOM     14  O   UNL     1      13.336  -9.972  -0.846  1.00  0.00    -0.550 OA
ENDBRANCH  11  12
ENDBRANCH  10  11
ENDBRANCH   9  10
ENDBRANCH   8   9
ENDBRANCH   1   8
TORSDOF 9
ENDMDL
MODEL 6
REMARK VINA RESULT:    -4.336      8.565     11.152
REMARK INTER + INTRA:          -7.129
REMARK INTER:                  -6.650
REMARK INTRA:                  -0.479
REMARK UNBOUND:                -0.511
REMARK SMILES O=C([O-])CCCCCCCCC(=O)[O-]
REMARK SMILES IDX 7 1 6 2 5 3 4 4 2 5 1 6 3 7 8 8 9 9 10 10 11 11 12 12 13 13
REMARK SMILES IDX 14 14
REMARK H PARENT
REMARK Flexibility Score: inf
ROOT
ATOM      1  C   UNL     1      11.649  -8.514   2.363  1.00  0.00     0.000 C 
ENDROOT
BRANCH   1   2
ATOM      2  C   UNL     1      11.832  -8.442   3.892  1.00  0.00     0.000 C 
BRANCH   2   3
ATOM      3  C   UNL     1      12.993  -9.288   4.454  1.00  0.00     0.006 C 
BRANCH   3   4
ATOM      4  C   UNL     1      12.557 -10.400   5.419  1.00  0.00     0.053 C 
BRANCH   4   5
ATOM      5  C   UNL     1      11.515 -11.289   4.812  1.00  0.00     0.041 C 
ATOM      6  O   UNL     1      11.761 -11.924   3.753  1.00  0.00    -0.550 OA
ATOM      7  O   UNL     1      10.283 -11.442   5.435  1.00  0.00    -0.550 OA
ENDBRANCH   4   5
ENDBRANCH   3   4
ENDBRANCH   2   3
ENDBRANCH   1   2
BRANCH   1   8
ATOM      8  C   UNL     1      12.901  -8.944   1.579  1.00  0.00     0.000 C 
BRANCH   8   9
ATOM      9  C   UNL     1      12.880  -8.467   0.116  1.00  0.00     0.000 C 
BRANCH   9  10
ATOM     10  C   UNL     1      14.185  -8.792  -0.629  1.00  0.00     0.006 C 
BRANCH  10  11
ATOM     11  C   UNL     1      14.575  -7.702  -1.637  1.00  0.00     0.053 C 
BRANCH  11  12
ATOM     12  C   UNL     1      13.521  -7.565  -2.690  1.00  0.00     0.041 C 
ATOM     13  O   UNL     1      13.262  -8.530  -3.456  1.00  0.00    -0.550 OA
ATOM     14  O   UNL     1      12.858  -6.356  -2.858  1.00  0.00    -0.550 OA
ENDBRANCH  11  12
ENDBRANCH  10  11
ENDBRANCH   9  10
ENDBRANCH   8   9
ENDBRANCH   1   8
TORSDOF 9
ENDMDL
MODEL 7
REMARK VINA RESULT:    -4.318      4.138      8.560
REMARK INTER + INTRA:          -7.101
REMARK INTER:                  -6.651
REMARK INTRA:                  -0.450
REMARK UNBOUND:                -0.511
REMARK SMILES O=C([O-])CCCCCCCCC(=O)[O-]
REMARK SMILES IDX 7 1 6 2 5 3 4 4 2 5 1 6 3 7 8 8 9 9 10 10 11 11 12 12 13 13
REMARK SMILES IDX 14 14
REMARK H PARENT
REMARK Flexibility Score: inf
ROOT
ATOM      1  C   UNL     1       8.619 -12.197   5.871  1.00  0.00     0.000 C 
ENDROOT
BRANCH   1   2
ATOM      2  C   UNL     1       8.145 -13.054   7.062  1.00  0.00     0.000 C 
BRANCH   2   3
ATOM      3  C   UNL     1       8.736 -14.478   7.122  1.00  0.00     0.006 C 
BRANCH   3   4
ATOM      4  C   UNL     1       7.738 -15.592   6.776  1.00  0.00     0.053 C 
BRANCH   4   5
ATOM      5  C   UNL     1       7.591 -15.771   5.296  1.00  0.00     0.041 C 
ATOM      6  O   UNL     1       8.570 -15.563   4.532  1.00  0.00    -0.550 OA
ATOM      7  O   UNL     1       6.381 -16.198   4.764  1.00  0.00    -0.550 OA
ENDBRANCH   4   5
ENDBRANCH   3   4
ENDBRANCH   2   3
ENDBRANCH   1   2
BRANCH   1   8
ATOM      8  C   UNL     1      10.113 -12.334   5.527  1.00  0.00     0.000 C 
BRANCH   8   9
ATOM      9  C   UNL     1      10.687 -11.072   4.859  1.00  0.00     0.000 C 
BRANCH   9  10
ATOM     10  C   UNL     1      12.218 -11.122   4.723  1.00  0.00     0.006 C 
BRANCH  10  11
ATOM     11  C   UNL     1      12.875  -9.757   4.972  1.00  0.00     0.053 C 
BRANCH  11  12
ATOM     12  C   UNL     1      12.520  -8.800   3.878  1.00  0.00     0.041 C 
ATOM     13  O   UNL     1      12.900  -9.018   2.698  1.00  0.00    -0.550 OA
ATOM     14  O   UNL     1      11.812  -7.642   4.170  1.00  0.00    -0.550 OA
ENDBRANCH  11  12
ENDBRANCH  10  11
ENDBRANCH   9  10
ENDBRANCH   8   9
ENDBRANCH   1   8
TORSDOF 9
ENDMDL
MODEL 8
REMARK VINA RESULT:    -4.289      3.505      8.172
REMARK INTER + INTRA:          -7.056
REMARK INTER:                  -6.645
REMARK INTRA:                  -0.411
REMARK UNBOUND:                -0.511
REMARK SMILES O=C([O-])CCCCCCCCC(=O)[O-]
REMARK SMILES IDX 7 1 6 2 5 3 4 4 2 5 1 6 3 7 8 8 9 9 10 10 11 11 12 12 13 13
REMARK SMILES IDX 14 14
REMARK H PARENT
REMARK Flexibility Score: inf
ROOT
ATOM      1  C   UNL     1       3.540 -17.655   0.284  1.00  0.00     0.000 C 
ENDROOT
BRANCH   1   2
ATOM      2  C   UNL     1       3.780 -17.712  -1.238  1.00  0.00     0.000 C 
BRANCH   2   3
ATOM      3  C   UNL     1       2.599 -17.231  -2.107  1.00  0.00     0.006 C 
BRANCH   3   4
ATOM      4  C   UNL     1       2.076 -18.280  -3.100  1.00  0.00     0.053 C 
BRANCH   4   5
ATOM      5  C   UNL     1       3.190 -18.943  -3.851  1.00  0.00     0.041 C 
ATOM      6  O   UNL     1       3.802 -18.320  -4.757  1.00  0.00    -0.550 OA
ATOM      7  O   UNL     1       3.572 -20.238  -3.526  1.00  0.00    -0.550 OA
ENDBRANCH   4   5
ENDBRANCH   3   4
ENDBRANCH   2   3
ENDBRANCH   1   2
BRANCH   1   8
ATOM      8  C   UNL     1       4.379 -18.644   1.112  1.00  0.00     0.000 C 
BRANCH   8   9
ATOM      9  C   UNL     1       3.623 -19.184   2.338  1.00  0.00     0.000 C 
BRANCH   9  10
ATOM     10  C   UNL     1       4.121 -18.568   3.656  1.00  0.00     0.006 C 
BRANCH  10  11
ATOM     11  C   UNL     1       3.395 -17.261   4.005  1.00  0.00     0.053 C 
BRANCH  11  12
ATOM     12  C   UNL     1       4.287 -16.086   3.754  1.00  0.00     0.041 C 
ATOM     13  O   UNL     1       5.379 -15.977   4.371  1.00  0.00    -0.550 OA
ATOM     14  O   UNL     1       3.889 -15.087   2.875  1.00  0.00    -0.550 OA
ENDBRANCH  11  12
ENDBRANCH  10  11
ENDBRANCH   9  10
ENDBRANCH   8   9
ENDBRANCH   1   8
TORSDOF 9
ENDMDL
MODEL 9
REMARK VINA RESULT:    -4.267      0.311      6.990
REMARK INTER + INTRA:          -7.023
REMARK INTER:                  -6.573
REMARK INTRA:                  -0.449
REMARK UNBOUND:                -0.511
REMARK SMILES O=C([O-])CCCCCCCCC(=O)[O-]
REMARK SMILES IDX 7 1 6 2 5 3 4 4 2 5 1 6 3 7 8 8 9 9 10 10 11 11 12 12 13 13
REMARK SMILES IDX 14 14
REMARK H PARENT
REMARK Flexibility Score: inf
ROOT
ATOM      1  C   UNL     1       4.690 -16.012   3.821  1.00  0.00     0.000 C 
ENDROOT
BRANCH   1   2
ATOM      2  C   UNL     1       3.686 -17.169   4.003  1.00  0.00     0.000 C 
BRANCH   2   3
ATOM      3  C   UNL     1       4.219 -18.565   3.619  1.00  0.00     0.006 C 
BRANCH   3   4
ATOM      4  C   UNL     1       3.682 -19.102   2.283  1.00  0.00     0.053 C 
BRANCH   4   5
ATOM      5  C   UNL     1       4.302 -18.405   1.111  1.00  0.00     0.041 C 
ATOM      6  O   UNL     1       5.543 -18.195   1.082  1.00  0.00    -0.550 OA
ATOM      7  O   UNL     1       3.513 -18.018   0.035  1.00  0.00    -0.550 OA
ENDBRANCH   4   5
ENDBRANCH   3   4
ENDBRANCH   2   3
ENDBRANCH   1   2
BRANCH   1   8
ATOM      8  C   UNL     1       6.132 -16.330   4.253  1.00  0.00     0.000 C 
BRANCH   8   9
ATOM      9  C   UNL     1       6.550 -15.577   5.528  1.00  0.00     0.000 C 
BRANCH   9  10
ATOM     10  C   UNL     1       8.070 -15.599   5.755  1.00  0.00     0.006 C 
BRANCH  10  11
ATOM     11  C   UNL     1       8.491 -14.803   6.998  1.00  0.00     0.053 C 
BRANCH  11  12
ATOM     12  C   UNL     1       8.515 -13.338   6.695  1.00  0.00     0.041 C 
ATOM     13  O   UNL     1       7.636 -12.577   7.177  1.00  0.00    -0.550 OA
ATOM     14  O   UNL     1       9.479 -12.820   5.840  1.00  0.00    -0.550 OA
ENDBRANCH  11  12
ENDBRANCH  10  11
ENDBRANCH   9  10
ENDBRANCH   8   9
ENDBRANCH   1   8
TORSDOF 9
ENDMDL
