MODEL 1
REMARK VINA RESULT:    -3.923      0.000      0.000
REMARK INTER + INTRA:          -4.521
REMARK INTER:                  -4.267
REMARK INTRA:                  -0.254
REMARK UNBOUND:                -0.254
REMARK SMILES O=C([O-])c1ccccc1O
REMARK SMILES IDX 4 1 9 2 5 3 8 4 6 5 7 6 2 7 1 8 3 9 10 10
REMARK H PARENT 10 11
REMARK Flexibility Score: inf
ROOT
ATOM      1  C   UNL     1      42.983  18.723  -2.801  1.00  0.00     0.039 A 
ATOM      2  C   UNL     1      42.172  18.437  -1.676  1.00  0.00     0.124 A 
ATOM      3  C   UNL     1      43.098  20.059  -3.232  1.00  0.00     0.014 A 
ATOM      4  C   UNL     1      41.502  19.478  -1.014  1.00  0.00     0.047 A 
ATOM      5  C   UNL     1      42.426  21.085  -2.564  1.00  0.00     0.001 A 
ATOM      6  C   UNL     1      41.629  20.795  -1.457  1.00  0.00     0.004 A 
ENDROOT
BRANCH   1   7
ATOM      7  C   UNL     1      43.712  17.658  -3.535  1.00  0.00     0.075 C 
ATOM      8  O   UNL     1      43.641  17.566  -4.788  1.00  0.00    -0.545 OA
ATOM      9  O   UNL     1      44.490  16.736  -2.842  1.00  0.00    -0.545 OA
ENDBRANCH   1   7
BRANCH   2  10
ATOM     10  O   UNL     1      42.029  17.129  -1.213  1.00  0.00    -0.507 OA
ATOM     11  H   UNL     1      42.131  16.331  -1.831  1.00  0.00     0.293 HD
ENDBRANCH   2  10
TORSDOF 2
ENDMDL
MODEL 2
REMARK VINA RESULT:    -3.747      1.031      1.391
REMARK INTER + INTRA:          -4.330
REMARK INTER:                  -4.076
REMARK INTRA:                  -0.254
REMARK UNBOUND:                -0.254
REMARK SMILES O=C([O-])c1ccccc1O
REMARK SMILES IDX 4 1 9 2 5 3 8 4 6 5 7 6 2 7 1 8 3 9 10 10
REMARK H PARENT 10 11
REMARK Flexibility Score: inf
ROOT
ATOM      1  C   UNL     1      43.147  18.329  -2.925  1.00  0.00     0.039 A 
ATOM      2  C   UNL     1      42.313  18.829  -1.895  1.00  0.00     0.124 A 
ATOM      3  C   UNL     1      43.496  19.183  -3.989  1.00  0.00     0.014 A 
ATOM      4  C   UNL     1      41.853  20.154  -1.950  1.00  0.00     0.047 A 
ATOM      5  C   UNL     1      43.030  20.499  -4.030  1.00  0.00     0.001 A 
ATOM      6  C   UNL     1      42.210  20.984  -3.012  1.00  0.00     0.004 A 
ENDROOT
BRANCH   1   7
ATOM      7  C   UNL     1      43.659  16.935  -2.913  1.00  0.00     0.075 C 
ATOM      8  O   UNL     1      44.862  16.682  -3.185  1.00  0.00    -0.545 OA
ATOM      9  O   UNL     1      42.810  15.879  -2.601  1.00  0.00    -0.545 OA
ENDBRANCH   1   7
BRANCH   2  10
ATOM     10  O   UNL     1      41.942  18.019  -0.822  1.00  0.00    -0.507 OA
ATOM     11  H   UNL     1      41.187  17.346  -0.897  1.00  0.00     0.293 HD
ENDBRANCH   2  10
TORSDOF 2
ENDMDL
MODEL 3
REMARK VINA RESULT:    -3.713      1.809      3.493
REMARK INTER + INTRA:          -4.293
REMARK INTER:                  -4.073
REMARK INTRA:                  -0.220
REMARK UNBOUND:                -0.254
REMARK SMILES O=C([O-])c1ccccc1O
REMARK SMILES IDX 4 1 9 2 5 3 8 4 6 5 7 6 2 7 1 8 3 9 10 10
REMARK H PARENT 10 11
REMARK Flexibility Score: inf
ROOT
ATOM      1  C   UNL     1      42.172  19.456  -2.429  1.00  0.00     0.039 A 
ATOM      2  C   UNL     1      42.502  18.083  -2.334  1.00  0.00     0.124 A 
ATOM      3  C   UNL     1      42.701  20.209  -3.494  1.00  0.00     0.014 A 
ATOM      4  C   UNL     1      43.343  17.498  -3.293  1.00  0.00     0.047 A 
ATOM      5  C   UNL     1      43.538  19.614  -4.442  1.00  0.00     0.001 A 
ATOM      6  C   UNL     1      43.858  18.260  -4.342  1.00  0.00     0.004 A 
ENDROOT
BRANCH   1   7
ATOM      7  C   UNL     1      41.287  20.122  -1.439  1.00  0.00     0.075 C 
ATOM      8  O   UNL     1      41.708  21.065  -0.719  1.00  0.00    -0.545 OA
ATOM      9  O   UNL     1      39.966  19.709  -1.290  1.00  0.00    -0.545 OA
ENDBRANCH   1   7
BRANCH   2  10
ATOM     10  O   UNL     1      42.000  17.299  -1.295  1.00  0.00    -0.507 OA
ATOM     11  H   UNL     1      41.164  16.736  -1.407  1.00  0.00     0.293 HD
ENDBRANCH   2  10
TORSDOF 2
ENDMDL
MODEL 4
REMARK VINA RESULT:    -3.474      9.866     11.062
REMARK INTER + INTRA:          -4.033
REMARK INTER:                  -3.778
REMARK INTRA:                  -0.255
REMARK UNBOUND:                -0.254
REMARK SMILES O=C([O-])c1ccccc1O
REMARK SMILES IDX 4 1 9 2 5 3 8 4 6 5 7 6 2 7 1 8 3 9 10 10
REMARK H PARENT 10 11
REMARK Flexibility Score: inf
ROOT
ATOM      1  C   UNL     1      40.744  11.791   5.394  1.00  0.00     0.039 A 
ATOM      2  C   UNL     1      41.324  12.922   6.016  1.00  0.00     0.124 A 
ATOM      3  C   UNL     1      40.024  10.875   6.186  1.00  0.00     0.014 A 
ATOM      4  C   UNL     1      41.175  13.112   7.399  1.00  0.00     0.047 A 
ATOM      5  C   UNL     1      39.884  11.078   7.561  1.00  0.00     0.001 A 
ATOM      6  C   UNL     1      40.458  12.194   8.167  1.00  0.00     0.004 A 
ENDROOT
BRANCH   1   7
ATOM      7  C   UNL     1      40.873  11.544   3.935  1.00  0.00     0.075 C 
ATOM      8  O   UNL     1      39.875  11.224   3.238  1.00  0.00    -0.545 OA
ATOM      9  O   UNL     1      42.111  11.663   3.312  1.00  0.00    -0.545 OA
ENDBRANCH   1   7
BRANCH   2  10
ATOM     10  O   UNL     1      42.046  13.855   5.271  1.00  0.00    -0.507 OA
ATOM     11  H   UNL     1      41.585  14.522   4.662  1.00  0.00     0.293 HD
ENDBRANCH   2  10
TORSDOF 2
ENDMDL
MODEL 5
REMARK VINA RESULT:    -3.457      6.967      8.399
REMARK INTER + INTRA:          -4.015
REMARK INTER:                  -3.761
REMARK INTRA:                  -0.254
REMARK UNBOUND:                -0.254
REMARK SMILES O=C([O-])c1ccccc1O
REMARK SMILES IDX 4 1 9 2 5 3 8 4 6 5 7 6 2 7 1 8 3 9 10 10
REMARK H PARENT 10 11
REMARK Flexibility Score: inf
ROOT
ATOM      1  C   UNL     1      48.706  14.171  -3.983  1.00  0.00     0.039 A 
ATOM      2  C   UNL     1      48.804  15.500  -4.460  1.00  0.00     0.124 A 
ATOM      3  C   UNL     1      49.726  13.257  -4.309  1.00  0.00     0.014 A 
ATOM      4  C   UNL     1      49.905  15.883  -5.242  1.00  0.00     0.047 A 
ATOM      5  C   UNL     1      50.816  13.652  -5.088  1.00  0.00     0.001 A 
ATOM      6  C   UNL     1      50.906  14.963  -5.554  1.00  0.00     0.004 A 
ENDROOT
BRANCH   1   7
ATOM      7  C   UNL     1      47.562  13.717  -3.153  1.00  0.00     0.075 C 
ATOM      8  O   UNL     1      47.742  13.005  -2.130  1.00  0.00    -0.545 OA
ATOM      9  O   UNL     1      46.262  14.074  -3.496  1.00  0.00    -0.545 OA
ENDBRANCH   1   7
BRANCH   2  10
ATOM     10  O   UNL     1      47.817  16.440  -4.162  1.00  0.00    -0.507 OA
ATOM     11  H   UNL     1      47.752  16.874  -3.248  1.00  0.00     0.293 HD
ENDBRANCH   2  10
TORSDOF 2
ENDMDL
MODEL 6
REMARK VINA RESULT:    -3.454      1.929      2.262
REMARK INTER + INTRA:          -4.011
REMARK INTER:                  -3.772
REMARK INTRA:                  -0.240
REMARK UNBOUND:                -0.254
REMARK SMILES O=C([O-])c1ccccc1O
REMARK SMILES IDX 4 1 9 2 5 3 8 4 6 5 7 6 2 7 1 8 3 9 10 10
REMARK H PARENT 10 11
REMARK Flexibility Score: inf
ROOT
ATOM      1  C   UNL     1      42.616  19.818  -3.217  1.00  0.00     0.039 A 
ATOM      2  C   UNL     1      41.276  19.365  -3.187  1.00  0.00     0.124 A 
ATOM      3  C   UNL     1      43.166  20.389  -2.052  1.00  0.00     0.014 A 
ATOM      4  C   UNL     1      40.522  19.488  -2.009  1.00  0.00     0.047 A 
ATOM      5  C   UNL     1      42.403  20.506  -0.887  1.00  0.00     0.001 A 
ATOM      6  C   UNL     1      41.084  20.056  -0.866  1.00  0.00     0.004 A 
ENDROOT
BRANCH   1   7
ATOM      7  C   UNL     1      43.455  19.710  -4.437  1.00  0.00     0.075 C 
ATOM      8  O   UNL     1      43.982  20.728  -4.957  1.00  0.00    -0.545 OA
ATOM      9  O   UNL     1      43.672  18.471  -5.031  1.00  0.00    -0.545 OA
ENDBRANCH   1   7
BRANCH   2  10
ATOM     10  O   UNL     1      40.690  18.793  -4.317  1.00  0.00    -0.507 OA
ATOM     11  H   UNL     1      40.523  17.796  -4.384  1.00  0.00     0.293 HD
ENDBRANCH   2  10
TORSDOF 2
ENDMDL
MODEL 7
REMARK VINA RESULT:    -3.448      8.731     10.898
REMARK INTER + INTRA:          -4.004
REMARK INTER:                  -3.754
REMARK INTRA:                  -0.250
REMARK UNBOUND:                -0.254
REMARK SMILES O=C([O-])c1ccccc1O
REMARK SMILES IDX 4 1 9 2 5 3 8 4 6 5 7 6 2 7 1 8 3 9 10 10
REMARK H PARENT 10 11
REMARK Flexibility Score: inf
ROOT
ATOM      1  C   UNL     1      51.158  15.055  -6.047  1.00  0.00     0.039 A 
ATOM      2  C   UNL     1      52.455  15.475  -6.428  1.00  0.00     0.124 A 
ATOM      3  C   UNL     1      50.887  13.675  -5.969  1.00  0.00     0.014 A 
ATOM      4  C   UNL     1      53.442  14.520  -6.720  1.00  0.00     0.047 A 
ATOM      5  C   UNL     1      51.879  12.736  -6.262  1.00  0.00     0.001 A 
ATOM      6  C   UNL     1      53.154  13.157  -6.636  1.00  0.00     0.004 A 
ENDROOT
BRANCH   1   7
ATOM      7  C   UNL     1      50.080  16.026  -5.729  1.00  0.00     0.075 C 
ATOM      8  O   UNL     1      49.868  17.026  -6.464  1.00  0.00    -0.545 OA
ATOM      9  O   UNL     1      49.282  15.844  -4.605  1.00  0.00    -0.545 OA
ENDBRANCH   1   7
BRANCH   2  10
ATOM     10  O   UNL     1      52.769  16.831  -6.520  1.00  0.00    -0.507 OA
ATOM     11  H   UNL     1      53.267  17.314  -5.780  1.00  0.00     0.293 HD
ENDBRANCH   2  10
TORSDOF 2
ENDMDL
MODEL 8
REMARK VINA RESULT:    -3.382      6.724      8.210
REMARK INTER + INTRA:          -3.933
REMARK INTER:                  -3.693
REMARK INTRA:                  -0.240
REMARK UNBOUND:                -0.254
REMARK SMILES O=C([O-])c1ccccc1O
REMARK SMILES IDX 4 1 9 2 5 3 8 4 6 5 7 6 2 7 1 8 3 9 10 10
REMARK H PARENT 10 11
REMARK Flexibility Score: inf
ROOT
ATOM      1  C   UNL     1      48.746  14.259  -4.123  1.00  0.00     0.039 A 
ATOM      2  C   UNL     1      49.970  14.687  -4.692  1.00  0.00     0.124 A 
ATOM      3  C   UNL     1      47.600  15.057  -4.300  1.00  0.00     0.014 A 
ATOM      4  C   UNL     1      50.022  15.889  -5.416  1.00  0.00     0.047 A 
ATOM      5  C   UNL     1      47.666  16.251  -5.023  1.00  0.00     0.001 A 
ATOM      6  C   UNL     1      48.875  16.666  -5.581  1.00  0.00     0.004 A 
ENDROOT
BRANCH   1   7
ATOM      7  C   UNL     1      48.639  12.997  -3.348  1.00  0.00     0.075 C 
ATOM      8  O   UNL     1      49.291  11.972  -3.680  1.00  0.00    -0.545 OA
ATOM      9  O   UNL     1      47.810  12.927  -2.234  1.00  0.00    -0.545 OA
ENDBRANCH   1   7
BRANCH   2  10
ATOM     10  O   UNL     1      51.131  13.929  -4.542  1.00  0.00    -0.507 OA
ATOM     11  H   UNL     1      51.121  12.918  -4.619  1.00  0.00     0.293 HD
ENDBRANCH   2  10
TORSDOF 2
ENDMDL
