MODEL 1
REMARK VINA RESULT:     4.120      0.000      0.000
REMARK INTER + INTRA:           4.344
REMARK INTER:                   4.481
REMARK INTRA:                  -0.137
REMARK UNBOUND:                -0.137
REMARK SMILES C=C(C)[C@H]1CC=C(C)[C@@H](O)C1
REMARK SMILES IDX 8 1 7 2 6 3 5 4 4 5 11 6 9 7 10 8 2 10 1 11 3 12
REMARK H PARENT 10 9
REMARK Flexibility Score: inf
ROOT
ATOM      1  C   UNL     1     -39.124  21.026   7.474  1.00  0.00     0.042 C 
ATOM      2  C   UNL     1     -38.003  22.018   7.341  1.00  0.00    -0.049 C 
ATOM      3  C   UNL     1     -36.896  21.886   8.090  1.00  0.00    -0.025 C 
ATOM      4  C   UNL     1     -35.760  22.854   7.914  1.00  0.00     0.035 C 
ATOM      5  C   UNL     1     -35.470  23.065   6.409  1.00  0.00     0.021 C 
ATOM      6  C   UNL     1     -36.760  23.269   5.548  1.00  0.00     0.044 C 
ATOM      7  C   UNL     1     -38.081  23.157   6.342  1.00  0.00     0.140 C 
ENDROOT
BRANCH   7   8
ATOM      8  O   UNL     1     -38.322  24.365   7.016  1.00  0.00    -0.389 OA
ATOM      9  H   UNL     1     -39.307  24.485   7.043  1.00  0.00     0.211 HD
ENDBRANCH   7   8
BRANCH   5  10
ATOM     10  C   UNL     1     -34.466  24.191   6.205  1.00  0.00    -0.077 C 
ATOM     11  C   UNL     1     -34.462  25.268   7.008  1.00  0.00     0.008 C 
ATOM     12  C   UNL     1     -33.453  24.115   5.092  1.00  0.00     0.039 C 
ENDBRANCH   5  10
TORSDOF 2
ENDMDL
MODEL 2
REMARK VINA RESULT:     5.570     14.339     16.157
REMARK INTER + INTRA:           5.921
REMARK INTER:                   6.027
REMARK INTRA:                  -0.106
REMARK UNBOUND:                -0.137
REMARK SMILES C=C(C)[C@H]1CC=C(C)[C@@H](O)C1
REMARK SMILES IDX 8 1 7 2 6 3 5 4 4 5 11 6 9 7 10 8 2 10 1 11 3 12
REMARK H PARENT 10 9
REMARK Flexibility Score: inf
ROOT
ATOM      1  C   UNL     1     -24.870  30.891   6.545  1.00  0.00     0.042 C 
ATOM      2  C   UNL     1     -23.469  30.407   6.792  1.00  0.00    -0.049 C 
ATOM      3  C   UNL     1     -22.758  30.902   7.819  1.00  0.00    -0.025 C 
ATOM      4  C   UNL     1     -21.376  30.376   8.086  1.00  0.00     0.035 C 
ATOM      5  C   UNL     1     -21.373  28.831   8.017  1.00  0.00     0.021 C 
ATOM      6  C   UNL     1     -22.160  28.259   6.792  1.00  0.00     0.044 C 
ATOM      7  C   UNL     1     -22.847  29.333   5.919  1.00  0.00     0.140 C 
ENDROOT
BRANCH   7   8
ATOM      8  O   UNL     1     -21.899  29.910   5.060  1.00  0.00    -0.389 OA
ATOM      9  H   UNL     1     -21.026  29.876   5.534  1.00  0.00     0.211 HD
ENDBRANCH   7   8
BRANCH   5  10
ATOM     10  C   UNL     1     -19.951  28.289   8.082  1.00  0.00    -0.077 C 
ATOM     11  C   UNL     1     -18.896  29.120   8.125  1.00  0.00     0.008 C 
ATOM     12  C   UNL     1     -19.703  26.803   8.101  1.00  0.00     0.039 C 
ENDBRANCH   5  10
TORSDOF 2
ENDMDL
MODEL 3
REMARK VINA RESULT:     5.891     19.703     21.123
REMARK INTER + INTRA:           6.271
REMARK INTER:                   6.403
REMARK INTRA:                  -0.132
REMARK UNBOUND:                -0.137
REMARK SMILES C=C(C)[C@H]1CC=C(C)[C@@H](O)C1
REMARK SMILES IDX 8 1 7 2 6 3 5 4 4 5 11 6 9 7 10 8 2 10 1 11 3 12
REMARK H PARENT 10 9
REMARK Flexibility Score: inf
ROOT
ATOM      1  C   UNL     1     -19.299  21.424  -7.990  1.00  0.00     0.042 C 
ATOM      2  C   UNL     1     -19.439  22.657  -7.141  1.00  0.00    -0.049 C 
ATOM      3  C   UNL     1     -18.876  23.812  -7.535  1.00  0.00    -0.025 C 
ATOM      4  C   UNL     1     -19.063  25.050  -6.703  1.00  0.00     0.035 C 
ATOM      5  C   UNL     1     -20.547  25.192  -6.290  1.00  0.00     0.021 C 
ATOM      6  C   UNL     1     -21.185  23.856  -5.785  1.00  0.00     0.044 C 
ATOM      7  C   UNL     1     -20.242  22.633  -5.855  1.00  0.00     0.140 C 
ENDROOT
BRANCH   7   8
ATOM      8  O   UNL     1     -19.373  22.653  -4.752  1.00  0.00    -0.389 OA
ATOM      9  H   UNL     1     -18.714  23.377  -4.921  1.00  0.00     0.211 HD
ENDBRANCH   7   8
BRANCH   5  10
ATOM     10  C   UNL     1     -20.722  26.321  -5.283  1.00  0.00    -0.077 C 
ATOM     11  C   UNL     1     -21.784  27.141  -5.342  1.00  0.00     0.008 C 
ATOM     12  C   UNL     1     -19.700  26.537  -4.197  1.00  0.00     0.039 C 
ENDBRANCH   5  10
TORSDOF 2
ENDMDL
MODEL 4
REMARK VINA RESULT:     5.931      1.502      4.299
REMARK INTER + INTRA:           6.314
REMARK INTER:                   6.458
REMARK INTRA:                  -0.144
REMARK UNBOUND:                -0.137
REMARK SMILES C=C(C)[C@H]1CC=C(C)[C@@H](O)C1
REMARK SMILES IDX 8 1 7 2 6 3 5 4 4 5 11 6 9 7 10 8 2 10 1 11 3 12
REMARK H PARENT 10 9
REMARK Flexibility Score: inf
ROOT
ATOM      1  C   UNL     1     -33.979  25.107   6.663  1.00  0.00     0.042 C 
ATOM      2  C   UNL     1     -35.027  24.031   6.617  1.00  0.00    -0.049 C 
ATOM      3  C   UNL     1     -35.111  23.132   7.612  1.00  0.00    -0.025 C 
ATOM      4  C   UNL     1     -36.193  22.090   7.581  1.00  0.00     0.035 C 
ATOM      5  C   UNL     1     -37.548  22.741   7.218  1.00  0.00     0.021 C 
ATOM      6  C   UNL     1     -37.455  23.750   6.026  1.00  0.00     0.044 C 
ATOM      7  C   UNL     1     -36.026  23.959   5.478  1.00  0.00     0.140 C 
ENDROOT
BRANCH   7   8
ATOM      8  O   UNL     1     -35.695  22.895   4.623  1.00  0.00    -0.389 OA
ATOM      9  H   UNL     1     -36.549  22.559   4.243  1.00  0.00     0.211 HD
ENDBRANCH   7   8
BRANCH   5  10
ATOM     10  C   UNL     1     -38.613  21.679   6.981  1.00  0.00    -0.077 C 
ATOM     11  C   UNL     1     -39.124  21.473   5.756  1.00  0.00     0.008 C 
ATOM     12  C   UNL     1     -39.114  20.835   8.125  1.00  0.00     0.039 C 
ENDBRANCH   5  10
TORSDOF 2
ENDMDL
