MODEL 1
REMARK VINA RESULT:    -4.090      0.000      0.000
REMARK INTER + INTRA:          -4.786
REMARK INTER:                  -4.568
REMARK INTRA:                  -0.217
REMARK UNBOUND:                -0.217
REMARK SMILES O=C([O-])c1ccccc1C(=O)[O-]
REMARK SMILES IDX 4 1 9 2 5 3 8 4 6 5 7 6 2 7 1 8 3 9 10 10 11 11 12 12
REMARK H PARENT
REMARK Flexibility Score: inf
ROOT
ATOM      1  C   UNL     1      55.598  27.912  50.649  1.00  0.00     0.006 A 
ATOM      2  C   UNL     1      55.823  26.564  50.258  1.00  0.00     0.006 A 
ATOM      3  C   UNL     1      54.381  28.531  50.304  1.00  0.00     0.010 A 
ATOM      4  C   UNL     1      54.800  25.864  49.592  1.00  0.00     0.010 A 
ATOM      5  C   UNL     1      53.389  27.825  49.624  1.00  0.00     0.001 A 
ATOM      6  C   UNL     1      53.593  26.491  49.279  1.00  0.00     0.001 A 
ENDROOT
BRANCH   1   7
ATOM      7  C   UNL     1      56.562  28.677  51.474  1.00  0.00     0.072 C 
ATOM      8  O   UNL     1      56.420  28.738  52.724  1.00  0.00    -0.545 OA
ATOM      9  O   UNL     1      57.669  29.283  50.891  1.00  0.00    -0.545 OA
ENDBRANCH   1   7
BRANCH   2  10
ATOM     10  C   UNL     1      57.123  25.882  50.456  1.00  0.00     0.072 C 
ATOM     11  O   UNL     1      58.025  25.970  49.581  1.00  0.00    -0.545 OA
ATOM     12  O   UNL     1      57.391  25.193  51.633  1.00  0.00    -0.545 OA
ENDBRANCH   2  10
TORSDOF 2
ENDMDL
MODEL 2
REMARK VINA RESULT:    -4.084      0.056      3.119
REMARK INTER + INTRA:          -4.779
REMARK INTER:                  -4.559
REMARK INTRA:                  -0.220
REMARK UNBOUND:                -0.217
REMARK SMILES O=C([O-])c1ccccc1C(=O)[O-]
REMARK SMILES IDX 4 1 9 2 5 3 8 4 6 5 7 6 2 7 1 8 3 9 10 10 11 11 12 12
REMARK H PARENT
REMARK Flexibility Score: inf
ROOT
ATOM      1  C   UNL     1      55.790  26.584  50.275  1.00  0.00     0.006 A 
ATOM      2  C   UNL     1      55.585  27.944  50.635  1.00  0.00     0.006 A 
ATOM      3  C   UNL     1      54.751  25.881  49.635  1.00  0.00     0.010 A 
ATOM      4  C   UNL     1      54.373  28.569  50.286  1.00  0.00     0.010 A 
ATOM      5  C   UNL     1      53.550  26.514  49.319  1.00  0.00     0.001 A 
ATOM      6  C   UNL     1      53.365  27.858  49.633  1.00  0.00     0.001 A 
ENDROOT
BRANCH   1   7
ATOM      7  C   UNL     1      57.083  25.890  50.476  1.00  0.00     0.072 C 
ATOM      8  O   UNL     1      57.978  25.945  49.592  1.00  0.00    -0.545 OA
ATOM      9  O   UNL     1      57.352  25.225  51.667  1.00  0.00    -0.545 OA
ENDBRANCH   1   7
BRANCH   2  10
ATOM     10  C   UNL     1      56.566  28.716  51.431  1.00  0.00     0.072 C 
ATOM     11  O   UNL     1      56.443  28.798  52.682  1.00  0.00    -0.545 OA
ATOM     12  O   UNL     1      57.669  29.303  50.823  1.00  0.00    -0.545 OA
ENDBRANCH   2  10
TORSDOF 2
ENDMDL
MODEL 3
REMARK VINA RESULT:    -4.072      0.710      3.072
REMARK INTER + INTRA:          -4.765
REMARK INTER:                  -4.548
REMARK INTRA:                  -0.217
REMARK UNBOUND:                -0.217
REMARK SMILES O=C([O-])c1ccccc1C(=O)[O-]
REMARK SMILES IDX 4 1 9 2 5 3 8 4 6 5 7 6 2 7 1 8 3 9 10 10 11 11 12 12
REMARK H PARENT
REMARK Flexibility Score: inf
ROOT
ATOM      1  C   UNL     1      56.402  26.686  50.274  1.00  0.00     0.006 A 
ATOM      2  C   UNL     1      56.273  28.034  50.708  1.00  0.00     0.006 A 
ATOM      3  C   UNL     1      55.279  26.032  49.728  1.00  0.00     0.010 A 
ATOM      4  C   UNL     1      55.046  28.698  50.522  1.00  0.00     0.010 A 
ATOM      5  C   UNL     1      54.067  26.704  49.575  1.00  0.00     0.001 A 
ATOM      6  C   UNL     1      53.954  28.038  49.960  1.00  0.00     0.001 A 
ENDROOT
BRANCH   1   7
ATOM      7  C   UNL     1      57.690  25.957  50.301  1.00  0.00     0.072 C 
ATOM      8  O   UNL     1      57.884  25.040  51.142  1.00  0.00    -0.545 OA
ATOM      9  O   UNL     1      58.677  26.228  49.360  1.00  0.00    -0.545 OA
ENDBRANCH   1   7
BRANCH   2  10
ATOM     10  C   UNL     1      57.357  28.750  51.417  1.00  0.00     0.072 C 
ATOM     11  O   UNL     1      57.443  28.687  52.672  1.00  0.00    -0.545 OA
ATOM     12  O   UNL     1      58.330  29.446  50.710  1.00  0.00    -0.545 OA
ENDBRANCH   2  10
TORSDOF 2
ENDMDL
MODEL 4
REMARK VINA RESULT:    -4.052     12.044     14.140
REMARK INTER + INTRA:          -4.743
REMARK INTER:                  -4.522
REMARK INTRA:                  -0.221
REMARK UNBOUND:                -0.217
REMARK SMILES O=C([O-])c1ccccc1C(=O)[O-]
REMARK SMILES IDX 4 1 9 2 5 3 8 4 6 5 7 6 2 7 1 8 3 9 10 10 11 11 12 12
REMARK H PARENT
REMARK Flexibility Score: inf
ROOT
ATOM      1  C   UNL     1      63.651  33.511  60.826  1.00  0.00     0.006 A 
ATOM      2  C   UNL     1      62.315  33.760  60.407  1.00  0.00     0.006 A 
ATOM      3  C   UNL     1      64.395  34.560  61.400  1.00  0.00     0.010 A 
ATOM      4  C   UNL     1      61.753  35.030  60.633  1.00  0.00     0.010 A 
ATOM      5  C   UNL     1      63.824  35.818  61.593  1.00  0.00     0.001 A 
ATOM      6  C   UNL     1      62.502  36.049  61.222  1.00  0.00     0.001 A 
ENDROOT
BRANCH   1   7
ATOM      7  C   UNL     1      64.274  32.169  60.757  1.00  0.00     0.072 C 
ATOM      8  O   UNL     1      64.029  31.308  61.643  1.00  0.00    -0.545 OA
ATOM      9  O   UNL     1      65.084  31.819  59.683  1.00  0.00    -0.545 OA
ENDBRANCH   1   7
BRANCH   2  10
ATOM     10  C   UNL     1      61.511  32.758  59.671  1.00  0.00     0.072 C 
ATOM     11  O   UNL     1      61.533  32.728  58.412  1.00  0.00    -0.545 OA
ATOM     12  O   UNL     1      60.774  31.798  60.356  1.00  0.00    -0.545 OA
ENDBRANCH   2  10
TORSDOF 2
ENDMDL
MODEL 5
REMARK VINA RESULT:    -4.051     12.110     14.202
REMARK INTER + INTRA:          -4.742
REMARK INTER:                  -4.521
REMARK INTRA:                  -0.221
REMARK UNBOUND:                -0.217
REMARK SMILES O=C([O-])c1ccccc1C(=O)[O-]
REMARK SMILES IDX 4 1 9 2 5 3 8 4 6 5 7 6 2 7 1 8 3 9 10 10 11 11 12 12
REMARK H PARENT
REMARK Flexibility Score: inf
ROOT
ATOM      1  C   UNL     1      62.336  33.782  60.488  1.00  0.00     0.006 A 
ATOM      2  C   UNL     1      63.684  33.537  60.868  1.00  0.00     0.006 A 
ATOM      3  C   UNL     1      61.778  35.054  60.727  1.00  0.00     0.010 A 
ATOM      4  C   UNL     1      64.444  34.589  61.413  1.00  0.00     0.010 A 
ATOM      5  C   UNL     1      62.544  36.075  61.289  1.00  0.00     0.001 A 
ATOM      6  C   UNL     1      63.877  35.847  61.621  1.00  0.00     0.001 A 
ENDROOT
BRANCH   1   7
ATOM      7  C   UNL     1      61.509  32.778  59.780  1.00  0.00     0.072 C 
ATOM      8  O   UNL     1      61.493  32.742  58.521  1.00  0.00    -0.545 OA
ATOM      9  O   UNL     1      60.793  31.823  60.491  1.00  0.00    -0.545 OA
ENDBRANCH   1   7
BRANCH   2  10
ATOM     10  C   UNL     1      64.305  32.196  60.782  1.00  0.00     0.072 C 
ATOM     11  O   UNL     1      64.090  31.339  61.680  1.00  0.00    -0.545 OA
ATOM     12  O   UNL     1      65.078  31.840  59.683  1.00  0.00    -0.545 OA
ENDBRANCH   2  10
TORSDOF 2
ENDMDL
MODEL 6
REMARK VINA RESULT:    -3.845     13.217     14.860
REMARK INTER + INTRA:          -4.512
REMARK INTER:                  -4.309
REMARK INTRA:                  -0.202
REMARK UNBOUND:                -0.217
REMARK SMILES O=C([O-])c1ccccc1C(=O)[O-]
REMARK SMILES IDX 4 1 9 2 5 3 8 4 6 5 7 6 2 7 1 8 3 9 10 10 11 11 12 12
REMARK H PARENT
REMARK Flexibility Score: inf
ROOT
ATOM      1  C   UNL     1      62.414  35.830  60.705  1.00  0.00     0.006 A 
ATOM      2  C   UNL     1      63.116  34.601  60.833  1.00  0.00     0.006 A 
ATOM      3  C   UNL     1      62.932  36.983  61.327  1.00  0.00     0.010 A 
ATOM      4  C   UNL     1      64.341  34.581  61.525  1.00  0.00     0.010 A 
ATOM      5  C   UNL     1      64.138  36.935  62.026  1.00  0.00     0.001 A 
ATOM      6  C   UNL     1      64.847  35.740  62.115  1.00  0.00     0.001 A 
ENDROOT
BRANCH   1   7
ATOM      7  C   UNL     1      61.193  35.972  59.878  1.00  0.00     0.072 C 
ATOM      8  O   UNL     1      60.078  36.185  60.424  1.00  0.00    -0.545 OA
ATOM      9  O   UNL     1      61.269  35.936  58.491  1.00  0.00    -0.545 OA
ENDBRANCH   1   7
BRANCH   2  10
ATOM     10  C   UNL     1      62.574  33.317  60.332  1.00  0.00     0.072 C 
ATOM     11  O   UNL     1      61.741  32.669  61.019  1.00  0.00    -0.545 OA
ATOM     12  O   UNL     1      62.924  32.842  59.074  1.00  0.00    -0.545 OA
ENDBRANCH   2  10
TORSDOF 2
ENDMDL
MODEL 7
REMARK VINA RESULT:    -3.827     13.289     15.195
REMARK INTER + INTRA:          -4.492
REMARK INTER:                  -4.277
REMARK INTRA:                  -0.215
REMARK UNBOUND:                -0.217
REMARK SMILES O=C([O-])c1ccccc1C(=O)[O-]
REMARK SMILES IDX 4 1 9 2 5 3 8 4 6 5 7 6 2 7 1 8 3 9 10 10 11 11 12 12
REMARK H PARENT
REMARK Flexibility Score: inf
ROOT
ATOM      1  C   UNL     1      63.135  34.696  60.829  1.00  0.00     0.006 A 
ATOM      2  C   UNL     1      62.446  35.935  60.716  1.00  0.00     0.006 A 
ATOM      3  C   UNL     1      64.352  34.652  61.538  1.00  0.00     0.010 A 
ATOM      4  C   UNL     1      62.966  37.069  61.368  1.00  0.00     0.010 A 
ATOM      5  C   UNL     1      64.860  35.794  62.157  1.00  0.00     0.001 A 
ATOM      6  C   UNL     1      64.162  36.997  62.083  1.00  0.00     0.001 A 
ENDROOT
BRANCH   1   7
ATOM      7  C   UNL     1      62.590  33.427  60.296  1.00  0.00     0.072 C 
ATOM      8  O   UNL     1      62.986  32.982  59.186  1.00  0.00    -0.545 OA
ATOM      9  O   UNL     1      61.686  32.677  61.039  1.00  0.00    -0.545 OA
ENDBRANCH   1   7
BRANCH   2  10
ATOM     10  C   UNL     1      61.238  36.103  59.877  1.00  0.00     0.072 C 
ATOM     11  O   UNL     1      60.105  36.225  60.413  1.00  0.00    -0.545 OA
ATOM     12  O   UNL     1      61.342  36.193  58.494  1.00  0.00    -0.545 OA
ENDBRANCH   2  10
TORSDOF 2
ENDMDL
MODEL 8
REMARK VINA RESULT:    -3.803      1.550      3.300
REMARK INTER + INTRA:          -4.465
REMARK INTER:                  -4.259
REMARK INTRA:                  -0.206
REMARK UNBOUND:                -0.217
REMARK SMILES O=C([O-])c1ccccc1C(=O)[O-]
REMARK SMILES IDX 4 1 9 2 5 3 8 4 6 5 7 6 2 7 1 8 3 9 10 10 11 11 12 12
REMARK H PARENT
REMARK Flexibility Score: inf
ROOT
ATOM      1  C   UNL     1      55.340  27.445  50.331  1.00  0.00     0.006 A 
ATOM      2  C   UNL     1      54.098  28.132  50.419  1.00  0.00     0.006 A 
ATOM      3  C   UNL     1      55.389  26.201  49.672  1.00  0.00     0.010 A 
ATOM      4  C   UNL     1      52.965  27.581  49.792  1.00  0.00     0.010 A 
ATOM      5  C   UNL     1      54.248  25.663  49.077  1.00  0.00     0.001 A 
ATOM      6  C   UNL     1      53.042  26.357  49.126  1.00  0.00     0.001 A 
ENDROOT
BRANCH   1   7
ATOM      7  C   UNL     1      56.608  28.017  50.838  1.00  0.00     0.072 C 
ATOM      8  O   UNL     1      57.288  28.794  50.116  1.00  0.00    -0.545 OA
ATOM      9  O   UNL     1      57.033  27.759  52.136  1.00  0.00    -0.545 OA
ENDBRANCH   1   7
BRANCH   2  10
ATOM     10  C   UNL     1      53.927  29.372  51.209  1.00  0.00     0.072 C 
ATOM     11  O   UNL     1      53.711  30.469  50.629  1.00  0.00    -0.545 OA
ATOM     12  O   UNL     1      53.937  29.336  52.599  1.00  0.00    -0.545 OA
ENDBRANCH   2  10
TORSDOF 2
ENDMDL
MODEL 9
REMARK VINA RESULT:    -3.526      2.025      4.243
REMARK INTER + INTRA:          -4.155
REMARK INTER:                  -3.965
REMARK INTRA:                  -0.191
REMARK UNBOUND:                -0.217
REMARK SMILES O=C([O-])c1ccccc1C(=O)[O-]
REMARK SMILES IDX 4 1 9 2 5 3 8 4 6 5 7 6 2 7 1 8 3 9 10 10 11 11 12 12
REMARK H PARENT
REMARK Flexibility Score: inf
ROOT
ATOM      1  C   UNL     1      57.307  26.836  50.424  1.00  0.00     0.006 A 
ATOM      2  C   UNL     1      57.195  28.253  50.479  1.00  0.00     0.006 A 
ATOM      3  C   UNL     1      58.424  26.263  49.785  1.00  0.00     0.010 A 
ATOM      4  C   UNL     1      58.232  29.043  49.950  1.00  0.00     0.010 A 
ATOM      5  C   UNL     1      59.429  27.066  49.247  1.00  0.00     0.001 A 
ATOM      6  C   UNL     1      59.340  28.453  49.340  1.00  0.00     0.001 A 
ENDROOT
BRANCH   1   7
ATOM      7  C   UNL     1      56.335  25.931  51.079  1.00  0.00     0.072 C 
ATOM      8  O   UNL     1      56.583  25.447  52.215  1.00  0.00    -0.545 OA
ATOM      9  O   UNL     1      55.112  25.653  50.480  1.00  0.00    -0.545 OA
ENDBRANCH   1   7
BRANCH   2  10
ATOM     10  C   UNL     1      55.992  28.937  51.006  1.00  0.00     0.072 C 
ATOM     11  O   UNL     1      54.962  29.050  50.290  1.00  0.00    -0.545 OA
ATOM     12  O   UNL     1      55.958  29.405  52.315  1.00  0.00    -0.545 OA
ENDBRANCH   2  10
TORSDOF 2
ENDMDL
