MODEL 1
REMARK VINA RESULT:    -5.897      0.000      0.000
REMARK INTER + INTRA:          -6.462
REMARK INTER:                  -6.414
REMARK INTRA:                  -0.048
REMARK UNBOUND:                -0.048
REMARK SMILES COc1cc2ccc(=O)oc2cc1O
REMARK SMILES IDX 3 1 13 2 12 3 11 4 5 5 4 6 6 7 7 8 8 9 9 10 10 11 2 12 1 13
REMARK SMILES IDX 14 14
REMARK H PARENT 14 15
REMARK Flexibility Score: inf
ROOT
ATOM      1  C   UNL     1       4.851  12.631  16.948  1.00  0.00     0.161 A 
ATOM      2  C   UNL     1       4.597  13.510  15.884  1.00  0.00     0.161 A 
ATOM      3  C   UNL     1       5.397  14.648  15.699  1.00  0.00     0.098 A 
ATOM      4  C   UNL     1       6.453  14.916  16.574  1.00  0.00     0.142 A 
ATOM      5  C   UNL     1       6.714  14.036  17.646  1.00  0.00     0.022 A 
ATOM      6  C   UNL     1       5.916  12.900  17.830  1.00  0.00     0.062 A 
ATOM      7  C   UNL     1       7.779  14.331  18.504  1.00  0.00     0.019 A 
ATOM      8  C   UNL     1       8.544  15.476  18.279  1.00  0.00     0.094 A 
ATOM      9  C   UNL     1       8.226  16.301  17.195  1.00  0.00     0.336 A 
ATOM     10  O   UNL     1       8.904  17.338  16.975  1.00  0.00    -0.246 OA
ATOM     11  O   UNL     1       7.208  15.997  16.394  1.00  0.00    -0.423 OA
ENDROOT
BRANCH   1  12
ATOM     12  O   UNL     1       4.025  11.505  17.092  1.00  0.00    -0.493 OA
ATOM     13  C   UNL     1       4.440  10.271  17.669  1.00  0.00     0.278 C 
ENDBRANCH   1  12
BRANCH   2  14
ATOM     14  O   UNL     1       3.544  13.246  15.009  1.00  0.00    -0.504 OA
ATOM     15  H   UNL     1       2.601  13.567  15.200  1.00  0.00     0.293 HD
ENDBRANCH   2  14
TORSDOF 2
ENDMDL
MODEL 2
REMARK VINA RESULT:    -5.737      4.603      6.774
REMARK INTER + INTRA:          -6.288
REMARK INTER:                  -6.243
REMARK INTRA:                  -0.045
REMARK UNBOUND:                -0.048
REMARK SMILES COc1cc2ccc(=O)oc2cc1O
REMARK SMILES IDX 3 1 13 2 12 3 11 4 5 5 4 6 6 7 7 8 8 9 9 10 10 11 2 12 1 13
REMARK SMILES IDX 14 14
REMARK H PARENT 14 15
REMARK Flexibility Score: inf
ROOT
ATOM      1  C   UNL     1       8.522  19.287  18.331  1.00  0.00     0.161 A 
ATOM      2  C   UNL     1       7.821  19.752  19.454  1.00  0.00     0.161 A 
ATOM      3  C   UNL     1       7.385  18.852  20.439  1.00  0.00     0.098 A 
ATOM      4  C   UNL     1       7.645  17.486  20.308  1.00  0.00     0.142 A 
ATOM      5  C   UNL     1       8.349  17.011  19.181  1.00  0.00     0.022 A 
ATOM      6  C   UNL     1       8.785  17.909  18.199  1.00  0.00     0.062 A 
ATOM      7  C   UNL     1       8.594  15.638  19.080  1.00  0.00     0.019 A 
ATOM      8  C   UNL     1       8.139  14.784  20.085  1.00  0.00     0.094 A 
ATOM      9  C   UNL     1       7.448  15.327  21.173  1.00  0.00     0.336 A 
ATOM     10  O   UNL     1       7.029  14.574  22.091  1.00  0.00    -0.246 OA
ATOM     11  O   UNL     1       7.228  16.637  21.245  1.00  0.00    -0.423 OA
ENDROOT
BRANCH   1  12
ATOM     12  O   UNL     1       8.940  20.224  17.372  1.00  0.00    -0.493 OA
ATOM     13  C   UNL     1       9.702  19.904  16.212  1.00  0.00     0.278 C 
ENDBRANCH   1  12
BRANCH   2  14
ATOM     14  O   UNL     1       7.560  21.115  19.587  1.00  0.00    -0.504 OA
ATOM     15  H   UNL     1       8.034  21.681  20.282  1.00  0.00     0.293 HD
ENDBRANCH   2  14
TORSDOF 2
ENDMDL
MODEL 3
REMARK VINA RESULT:    -5.703      3.723      5.241
REMARK INTER + INTRA:          -6.250
REMARK INTER:                  -6.187
REMARK INTRA:                  -0.064
REMARK UNBOUND:                -0.048
REMARK SMILES COc1cc2ccc(=O)oc2cc1O
REMARK SMILES IDX 3 1 13 2 12 3 11 4 5 5 4 6 6 7 7 8 8 9 9 10 10 11 2 12 1 13
REMARK SMILES IDX 14 14
REMARK H PARENT 14 15
REMARK Flexibility Score: inf
ROOT
ATOM      1  C   UNL     1       7.614  15.232  19.411  1.00  0.00     0.161 A 
ATOM      2  C   UNL     1       7.279  15.303  20.772  1.00  0.00     0.161 A 
ATOM      3  C   UNL     1       7.225  16.544  21.424  1.00  0.00     0.098 A 
ATOM      4  C   UNL     1       7.504  17.720  20.724  1.00  0.00     0.142 A 
ATOM      5  C   UNL     1       7.842  17.657  19.355  1.00  0.00     0.022 A 
ATOM      6  C   UNL     1       7.895  16.418  18.703  1.00  0.00     0.062 A 
ATOM      7  C   UNL     1       8.115  18.852  18.682  1.00  0.00     0.019 A 
ATOM      8  C   UNL     1       8.049  20.060  19.375  1.00  0.00     0.094 A 
ATOM      9  C   UNL     1       7.707  20.045  20.731  1.00  0.00     0.336 A 
ATOM     10  O   UNL     1       7.641  21.125  21.374  1.00  0.00    -0.246 OA
ATOM     11  O   UNL     1       7.451  18.894  21.348  1.00  0.00    -0.423 OA
ENDROOT
BRANCH   1  12
ATOM     12  O   UNL     1       7.655  13.969  18.800  1.00  0.00    -0.493 OA
ATOM     13  C   UNL     1       6.609  13.426  18.001  1.00  0.00     0.278 C 
ENDBRANCH   1  12
BRANCH   2  14
ATOM     14  O   UNL     1       7.001  14.131  21.473  1.00  0.00    -0.504 OA
ATOM     15  H   UNL     1       6.352  13.439  21.115  1.00  0.00     0.293 HD
ENDBRANCH   2  14
TORSDOF 2
ENDMDL
MODEL 4
REMARK VINA RESULT:    -5.697      3.492      6.114
REMARK INTER + INTRA:          -6.245
REMARK INTER:                  -6.191
REMARK INTRA:                  -0.053
REMARK UNBOUND:                -0.048
REMARK SMILES COc1cc2ccc(=O)oc2cc1O
REMARK SMILES IDX 3 1 13 2 12 3 11 4 5 5 4 6 6 7 7 8 8 9 9 10 10 11 2 12 1 13
REMARK SMILES IDX 14 14
REMARK H PARENT 14 15
REMARK Flexibility Score: inf
ROOT
ATOM      1  C   UNL     1       8.235  19.104  18.692  1.00  0.00     0.161 A 
ATOM      2  C   UNL     1       8.729  18.711  17.438  1.00  0.00     0.161 A 
ATOM      3  C   UNL     1       8.845  17.351  17.118  1.00  0.00     0.098 A 
ATOM      4  C   UNL     1       8.471  16.375  18.045  1.00  0.00     0.142 A 
ATOM      5  C   UNL     1       7.975  16.762  19.307  1.00  0.00     0.022 A 
ATOM      6  C   UNL     1       7.857  18.121  19.627  1.00  0.00     0.062 A 
ATOM      7  C   UNL     1       7.608  15.761  20.213  1.00  0.00     0.019 A 
ATOM      8  C   UNL     1       7.744  14.422  19.848  1.00  0.00     0.094 A 
ATOM      9  C   UNL     1       8.243  14.114  18.578  1.00  0.00     0.336 A 
ATOM     10  O   UNL     1       8.373  12.912  18.229  1.00  0.00    -0.246 OA
ATOM     11  O   UNL     1       8.584  15.085  17.735  1.00  0.00    -0.423 OA
ENDROOT
BRANCH   1  12
ATOM     12  O   UNL     1       8.135  20.477  18.968  1.00  0.00    -0.493 OA
ATOM     13  C   UNL     1       6.998  21.100  19.557  1.00  0.00     0.278 C 
ENDBRANCH   1  12
BRANCH   2  14
ATOM     14  O   UNL     1       9.103  19.683  16.511  1.00  0.00    -0.504 OA
ATOM     15  H   UNL     1      10.045  20.057  16.484  1.00  0.00     0.293 HD
ENDBRANCH   2  14
TORSDOF 2
ENDMDL
MODEL 5
REMARK VINA RESULT:    -5.501      2.006      4.683
REMARK INTER + INTRA:          -6.031
REMARK INTER:                  -5.970
REMARK INTRA:                  -0.061
REMARK UNBOUND:                -0.048
REMARK SMILES COc1cc2ccc(=O)oc2cc1O
REMARK SMILES IDX 3 1 13 2 12 3 11 4 5 5 4 6 6 7 7 8 8 9 9 10 10 11 2 12 1 13
REMARK SMILES IDX 14 14
REMARK H PARENT 14 15
REMARK Flexibility Score: inf
ROOT
ATOM      1  C   UNL     1       7.302  14.896  19.631  1.00  0.00     0.161 A 
ATOM      2  C   UNL     1       7.363  15.901  18.654  1.00  0.00     0.161 A 
ATOM      3  C   UNL     1       6.766  15.707  17.399  1.00  0.00     0.098 A 
ATOM      4  C   UNL     1       6.106  14.509  17.112  1.00  0.00     0.142 A 
ATOM      5  C   UNL     1       6.040  13.494  18.090  1.00  0.00     0.022 A 
ATOM      6  C   UNL     1       6.635  13.688  19.343  1.00  0.00     0.062 A 
ATOM      7  C   UNL     1       5.371  12.307  17.772  1.00  0.00     0.019 A 
ATOM      8  C   UNL     1       4.795  12.161  16.510  1.00  0.00     0.094 A 
ATOM      9  C   UNL     1       4.900  13.212  15.592  1.00  0.00     0.336 A 
ATOM     10  O   UNL     1       4.386  13.100  14.449  1.00  0.00    -0.246 OA
ATOM     11  O   UNL     1       5.542  14.330  15.920  1.00  0.00    -0.423 OA
ENDROOT
BRANCH   1  12
ATOM     12  O   UNL     1       7.912  15.135  20.873  1.00  0.00    -0.493 OA
ATOM     13  C   UNL     1       7.218  15.191  22.115  1.00  0.00     0.278 C 
ENDBRANCH   1  12
BRANCH   2  14
ATOM     14  O   UNL     1       8.021  17.097  18.938  1.00  0.00    -0.504 OA
ATOM     15  H   UNL     1       8.937  17.303  18.553  1.00  0.00     0.293 HD
ENDBRANCH   2  14
TORSDOF 2
ENDMDL
MODEL 6
REMARK VINA RESULT:    -5.461      2.424      2.888
REMARK INTER + INTRA:          -5.987
REMARK INTER:                  -5.952
REMARK INTRA:                  -0.036
REMARK UNBOUND:                -0.048
REMARK SMILES COc1cc2ccc(=O)oc2cc1O
REMARK SMILES IDX 3 1 13 2 12 3 11 4 5 5 4 6 6 7 7 8 8 9 9 10 10 11 2 12 1 13
REMARK SMILES IDX 14 14
REMARK H PARENT 14 15
REMARK Flexibility Score: inf
ROOT
ATOM      1  C   UNL     1       5.183  12.997  16.912  1.00  0.00     0.161 A 
ATOM      2  C   UNL     1       4.179  13.635  17.656  1.00  0.00     0.161 A 
ATOM      3  C   UNL     1       4.501  14.330  18.832  1.00  0.00     0.098 A 
ATOM      4  C   UNL     1       5.826  14.392  19.271  1.00  0.00     0.142 A 
ATOM      5  C   UNL     1       6.841  13.753  18.527  1.00  0.00     0.022 A 
ATOM      6  C   UNL     1       6.519  13.060  17.353  1.00  0.00     0.062 A 
ATOM      7  C   UNL     1       8.158  13.835  18.993  1.00  0.00     0.019 A 
ATOM      8  C   UNL     1       8.428  14.537  20.168  1.00  0.00     0.094 A 
ATOM      9  C   UNL     1       7.370  15.145  20.851  1.00  0.00     0.336 A 
ATOM     10  O   UNL     1       7.592  15.784  21.913  1.00  0.00    -0.246 OA
ATOM     11  O   UNL     1       6.126  15.053  20.387  1.00  0.00    -0.423 OA
ENDROOT
BRANCH   1  12
ATOM     12  O   UNL     1       4.813  12.315  15.742  1.00  0.00    -0.493 OA
ATOM     13  C   UNL     1       4.757  12.906  14.447  1.00  0.00     0.278 C 
ENDBRANCH   1  12
BRANCH   2  14
ATOM     14  O   UNL     1       2.856  13.574  17.220  1.00  0.00    -0.504 OA
ATOM     15  H   UNL     1       2.218  14.352  17.348  1.00  0.00     0.293 HD
ENDBRANCH   2  14
TORSDOF 2
ENDMDL
MODEL 7
REMARK VINA RESULT:    -5.443      1.583      5.396
REMARK INTER + INTRA:          -5.968
REMARK INTER:                  -5.913
REMARK INTRA:                  -0.056
REMARK UNBOUND:                -0.048
REMARK SMILES COc1cc2ccc(=O)oc2cc1O
REMARK SMILES IDX 3 1 13 2 12 3 11 4 5 5 4 6 6 7 7 8 8 9 9 10 10 11 2 12 1 13
REMARK SMILES IDX 14 14
REMARK H PARENT 14 15
REMARK Flexibility Score: inf
ROOT
ATOM      1  C   UNL     1       7.002  16.257  17.985  1.00  0.00     0.161 A 
ATOM      2  C   UNL     1       7.118  15.499  19.161  1.00  0.00     0.161 A 
ATOM      3  C   UNL     1       6.593  14.200  19.221  1.00  0.00     0.098 A 
ATOM      4  C   UNL     1       5.948  13.649  18.111  1.00  0.00     0.142 A 
ATOM      5  C   UNL     1       5.826  14.405  16.926  1.00  0.00     0.022 A 
ATOM      6  C   UNL     1       6.352  15.702  16.865  1.00  0.00     0.062 A 
ATOM      7  C   UNL     1       5.175  13.826  15.831  1.00  0.00     0.019 A 
ATOM      8  C   UNL     1       4.669  12.531  15.941  1.00  0.00     0.094 A 
ATOM      9  C   UNL     1       4.827  11.842  17.149  1.00  0.00     0.336 A 
ATOM     10  O   UNL     1       4.378  10.673  17.268  1.00  0.00    -0.246 OA
ATOM     11  O   UNL     1       5.450  12.416  18.174  1.00  0.00    -0.423 OA
ENDROOT
BRANCH   1  12
ATOM     12  O   UNL     1       7.544  17.552  17.971  1.00  0.00    -0.493 OA
ATOM     13  C   UNL     1       8.845  17.875  17.489  1.00  0.00     0.278 C 
ENDBRANCH   1  12
BRANCH   2  14
ATOM     14  O   UNL     1       7.762  16.046  20.270  1.00  0.00    -0.504 OA
ATOM     15  H   UNL     1       7.990  15.484  21.083  1.00  0.00     0.293 HD
ENDBRANCH   2  14
TORSDOF 2
ENDMDL
MODEL 8
REMARK VINA RESULT:    -5.376      1.992      3.029
REMARK INTER + INTRA:          -5.895
REMARK INTER:                  -5.829
REMARK INTRA:                  -0.065
REMARK UNBOUND:                -0.048
REMARK SMILES COc1cc2ccc(=O)oc2cc1O
REMARK SMILES IDX 3 1 13 2 12 3 11 4 5 5 4 6 6 7 7 8 8 9 9 10 10 11 2 12 1 13
REMARK SMILES IDX 14 14
REMARK H PARENT 14 15
REMARK Flexibility Score: inf
ROOT
ATOM      1  C   UNL     1       4.064  14.650  16.432  1.00  0.00     0.161 A 
ATOM      2  C   UNL     1       4.126  13.463  17.178  1.00  0.00     0.161 A 
ATOM      3  C   UNL     1       5.190  13.238  18.064  1.00  0.00     0.098 A 
ATOM      4  C   UNL     1       6.197  14.194  18.212  1.00  0.00     0.142 A 
ATOM      5  C   UNL     1       6.142  15.390  17.465  1.00  0.00     0.022 A 
ATOM      6  C   UNL     1       5.080  15.615  16.580  1.00  0.00     0.062 A 
ATOM      7  C   UNL     1       7.166  16.328  17.635  1.00  0.00     0.019 A 
ATOM      8  C   UNL     1       8.202  16.058  18.528  1.00  0.00     0.094 A 
ATOM      9  C   UNL     1       8.190  14.850  19.235  1.00  0.00     0.336 A 
ATOM     10  O   UNL     1       9.116  14.588  20.045  1.00  0.00    -0.246 OA
ATOM     11  O   UNL     1       7.204  13.975  19.054  1.00  0.00    -0.423 OA
ENDROOT
BRANCH   1  12
ATOM     12  O   UNL     1       2.981  14.831  15.558  1.00  0.00    -0.493 OA
ATOM     13  C   UNL     1       1.878  15.697  15.810  1.00  0.00     0.278 C 
ENDBRANCH   1  12
BRANCH   2  14
ATOM     14  O   UNL     1       3.122  12.506  17.033  1.00  0.00    -0.504 OA
ATOM     15  H   UNL     1       2.161  12.769  16.844  1.00  0.00     0.293 HD
ENDBRANCH   2  14
TORSDOF 2
ENDMDL
