MODEL 1
REMARK VINA RESULT:    -3.878      0.000      0.000
REMARK INTER + INTRA:          -4.681
REMARK INTER:                  -4.672
REMARK INTRA:                  -0.009
REMARK UNBOUND:                -0.009
REMARK SMILES OCC(O)CO
REMARK SMILES IDX 3 1 5 2 6 3 2 5 1 6 4 8
REMARK H PARENT 6 4 1 7 4 9
REMARK Flexibility Score: inf
ROOT
ATOM      1  C   UNL     1      59.822  28.913  11.023  1.00  0.00     0.165 C 
ENDROOT
BRANCH   1   2
ATOM      2  C   UNL     1      59.429  28.277  12.366  1.00  0.00     0.190 C 
BRANCH   2   3
ATOM      3  O   UNL     1      58.239  27.543  12.254  1.00  0.00    -0.394 OA
ATOM      4  H   UNL     1      57.534  28.068  12.715  1.00  0.00     0.210 HD
ENDBRANCH   2   3
ENDBRANCH   1   2
BRANCH   1   5
ATOM      5  C   UNL     1      61.231  28.487  10.577  1.00  0.00     0.190 C 
BRANCH   5   6
ATOM      6  O   UNL     1      61.167  27.570   9.517  1.00  0.00    -0.394 OA
ATOM      7  H   UNL     1      60.846  28.074   8.724  1.00  0.00     0.210 HD
ENDBRANCH   5   6
ENDBRANCH   1   5
BRANCH   1   8
ATOM      8  O   UNL     1      59.760  30.311  11.138  1.00  0.00    -0.388 OA
ATOM      9  H   UNL     1      58.988  30.610  10.590  1.00  0.00     0.211 HD
ENDBRANCH   1   8
TORSDOF 5
ENDMDL
MODEL 2
REMARK VINA RESULT:    -3.816      1.075      2.999
REMARK INTER + INTRA:          -4.606
REMARK INTER:                  -4.603
REMARK INTRA:                  -0.003
REMARK UNBOUND:                -0.009
REMARK SMILES OCC(O)CO
REMARK SMILES IDX 3 1 5 2 6 3 2 5 1 6 4 8
REMARK H PARENT 6 4 1 7 4 9
REMARK Flexibility Score: inf
ROOT
ATOM      1  C   UNL     1      59.799  28.874  11.514  1.00  0.00     0.165 C 
ENDROOT
BRANCH   1   2
ATOM      2  C   UNL     1      60.580  30.099  12.015  1.00  0.00     0.190 C 
BRANCH   2   3
ATOM      3  O   UNL     1      59.858  31.284  11.803  1.00  0.00    -0.394 OA
ATOM      4  H   UNL     1      59.068  31.043  11.253  1.00  0.00     0.210 HD
ENDBRANCH   2   3
ENDBRANCH   1   2
BRANCH   1   5
ATOM      5  C   UNL     1      59.255  28.025  12.676  1.00  0.00     0.190 C 
BRANCH   5   6
ATOM      6  O   UNL     1      58.037  27.422  12.329  1.00  0.00    -0.394 OA
ATOM      7  H   UNL     1      57.328  28.096  12.495  1.00  0.00     0.210 HD
ENDBRANCH   5   6
ENDBRANCH   1   5
BRANCH   1   8
ATOM      8  O   UNL     1      60.638  28.092  10.704  1.00  0.00    -0.388 OA
ATOM      9  H   UNL     1      61.251  27.603  11.312  1.00  0.00     0.211 HD
ENDBRANCH   1   8
TORSDOF 5
ENDMDL
MODEL 3
REMARK VINA RESULT:    -3.772     13.364     13.998
REMARK INTER + INTRA:          -4.554
REMARK INTER:                  -4.330
REMARK INTRA:                  -0.223
REMARK UNBOUND:                -0.009
REMARK SMILES OCC(O)CO
REMARK SMILES IDX 3 1 5 2 6 3 2 5 1 6 4 8
REMARK H PARENT 6 4 1 7 4 9
REMARK Flexibility Score: inf
ROOT
ATOM      1  C   UNL     1      63.119  26.471  24.825  1.00  0.00     0.165 C 
ENDROOT
BRANCH   1   2
ATOM      2  C   UNL     1      61.812  27.263  24.662  1.00  0.00     0.190 C 
BRANCH   2   3
ATOM      3  O   UNL     1      60.693  26.452  24.900  1.00  0.00    -0.394 OA
ATOM      4  H   UNL     1      60.320  26.729  25.777  1.00  0.00     0.210 HD
ENDBRANCH   2   3
ENDBRANCH   1   2
BRANCH   1   5
ATOM      5  C   UNL     1      63.399  25.569  23.610  1.00  0.00     0.190 C 
BRANCH   5   6
ATOM      6  O   UNL     1      62.469  24.522  23.538  1.00  0.00    -0.394 OA
ATOM      7  H   UNL     1      62.075  24.553  22.627  1.00  0.00     0.210 HD
ENDBRANCH   5   6
ENDBRANCH   1   5
BRANCH   1   8
ATOM      8  O   UNL     1      63.045  25.692  25.990  1.00  0.00    -0.388 OA
ATOM      9  H   UNL     1      63.161  24.746  25.711  1.00  0.00     0.211 HD
ENDBRANCH   1   8
TORSDOF 5
ENDMDL
MODEL 4
REMARK VINA RESULT:    -3.759      1.167      1.903
REMARK INTER + INTRA:          -4.537
REMARK INTER:                  -4.535
REMARK INTRA:                  -0.002
REMARK UNBOUND:                -0.009
REMARK SMILES OCC(O)CO
REMARK SMILES IDX 3 1 5 2 6 3 2 5 1 6 4 8
REMARK H PARENT 6 4 1 7 4 9
REMARK Flexibility Score: inf
ROOT
ATOM      1  C   UNL     1      60.105  28.672  11.553  1.00  0.00     0.165 C 
ENDROOT
BRANCH   1   2
ATOM      2  C   UNL     1      59.245  28.135  12.707  1.00  0.00     0.190 C 
BRANCH   2   3
ATOM      3  O   UNL     1      58.116  27.454  12.227  1.00  0.00    -0.394 OA
ATOM      4  H   UNL     1      57.333  28.036  12.408  1.00  0.00     0.210 HD
ENDBRANCH   2   3
ENDBRANCH   1   2
BRANCH   1   5
ATOM      5  C   UNL     1      60.321  30.192  11.656  1.00  0.00     0.190 C 
BRANCH   5   6
ATOM      6  O   UNL     1      60.371  30.779  10.383  1.00  0.00    -0.394 OA
ATOM      7  H   UNL     1      59.501  30.587   9.946  1.00  0.00     0.210 HD
ENDBRANCH   5   6
ENDBRANCH   1   5
BRANCH   1   8
ATOM      8  O   UNL     1      59.487  28.360  10.331  1.00  0.00    -0.388 OA
ATOM      9  H   UNL     1      58.757  29.021  10.202  1.00  0.00     0.211 HD
ENDBRANCH   1   8
TORSDOF 5
ENDMDL
MODEL 5
REMARK VINA RESULT:    -3.743     16.194     17.223
REMARK INTER + INTRA:          -4.518
REMARK INTER:                  -4.516
REMARK INTRA:                  -0.002
REMARK UNBOUND:                -0.009
REMARK SMILES OCC(O)CO
REMARK SMILES IDX 3 1 5 2 6 3 2 5 1 6 4 8
REMARK H PARENT 6 4 1 7 4 9
REMARK Flexibility Score: inf
ROOT
ATOM      1  C   UNL     1      61.934  27.554  28.371  1.00  0.00     0.165 C 
ENDROOT
BRANCH   1   2
ATOM      2  C   UNL     1      60.646  27.923  29.124  1.00  0.00     0.190 C 
BRANCH   2   3
ATOM      3  O   UNL     1      60.229  29.225  28.809  1.00  0.00    -0.394 OA
ATOM      4  H   UNL     1      60.062  29.243  27.831  1.00  0.00     0.210 HD
ENDBRANCH   2   3
ENDBRANCH   1   2
BRANCH   1   5
ATOM      5  C   UNL     1      61.645  27.082  26.935  1.00  0.00     0.190 C 
BRANCH   5   6
ATOM      6  O   UNL     1      62.482  26.014  26.580  1.00  0.00    -0.394 OA
ATOM      7  H   UNL     1      62.291  25.278  27.218  1.00  0.00     0.210 HD
ENDBRANCH   5   6
ENDBRANCH   1   5
BRANCH   1   8
ATOM      8  O   UNL     1      62.609  26.545  29.077  1.00  0.00    -0.388 OA
ATOM      9  H   UNL     1      62.088  26.375  29.905  1.00  0.00     0.211 HD
ENDBRANCH   1   8
TORSDOF 5
ENDMDL
MODEL 6
REMARK VINA RESULT:    -3.731      2.161      3.236
REMARK INTER + INTRA:          -4.504
REMARK INTER:                  -4.502
REMARK INTRA:                  -0.002
REMARK UNBOUND:                -0.009
REMARK SMILES OCC(O)CO
REMARK SMILES IDX 3 1 5 2 6 3 2 5 1 6 4 8
REMARK H PARENT 6 4 1 7 4 9
REMARK Flexibility Score: inf
ROOT
ATOM      1  C   UNL     1      60.863  29.769   9.611  1.00  0.00     0.165 C 
ENDROOT
BRANCH   1   2
ATOM      2  C   UNL     1      60.349  28.502   8.909  1.00  0.00     0.190 C 
BRANCH   2   3
ATOM      3  O   UNL     1      61.250  27.438   9.055  1.00  0.00    -0.394 OA
ATOM      4  H   UNL     1      60.721  26.602   8.980  1.00  0.00     0.210 HD
ENDBRANCH   2   3
ENDBRANCH   1   2
BRANCH   1   5
ATOM      5  C   UNL     1      60.344  29.876  11.055  1.00  0.00     0.190 C 
BRANCH   5   6
ATOM      6  O   UNL     1      60.122  31.215  11.410  1.00  0.00    -0.394 OA
ATOM      7  H   UNL     1      60.936  31.522  11.889  1.00  0.00     0.210 HD
ENDBRANCH   5   6
ENDBRANCH   1   5
BRANCH   1   8
ATOM      8  O   UNL     1      60.466  30.898   8.877  1.00  0.00    -0.388 OA
ATOM      9  H   UNL     1      59.867  30.574   8.154  1.00  0.00     0.211 HD
ENDBRANCH   1   8
TORSDOF 5
ENDMDL
MODEL 7
REMARK VINA RESULT:    -3.729     13.938     14.856
REMARK INTER + INTRA:          -4.501
REMARK INTER:                  -4.277
REMARK INTRA:                  -0.224
REMARK UNBOUND:                -0.009
REMARK SMILES OCC(O)CO
REMARK SMILES IDX 3 1 5 2 6 3 2 5 1 6 4 8
REMARK H PARENT 6 4 1 7 4 9
REMARK Flexibility Score: inf
ROOT
ATOM      1  C   UNL     1      61.195  27.177  25.375  1.00  0.00     0.165 C 
ENDROOT
BRANCH   1   2
ATOM      2  C   UNL     1      61.332  26.856  26.871  1.00  0.00     0.190 C 
BRANCH   2   3
ATOM      3  O   UNL     1      60.125  27.076  27.551  1.00  0.00    -0.394 OA
ATOM      4  H   UNL     1      59.950  28.052  27.516  1.00  0.00     0.210 HD
ENDBRANCH   2   3
ENDBRANCH   1   2
BRANCH   1   5
ATOM      5  C   UNL     1      59.749  27.540  24.995  1.00  0.00     0.190 C 
BRANCH   5   6
ATOM      6  O   UNL     1      58.935  26.398  24.970  1.00  0.00    -0.394 OA
ATOM      7  H   UNL     1      59.401  25.728  24.405  1.00  0.00     0.210 HD
ENDBRANCH   5   6
ENDBRANCH   1   5
BRANCH   1   8
ATOM      8  O   UNL     1      61.621  26.070  24.623  1.00  0.00    -0.388 OA
ATOM      9  H   UNL     1      61.743  25.320  25.261  1.00  0.00     0.211 HD
ENDBRANCH   1   8
TORSDOF 5
ENDMDL
MODEL 8
REMARK VINA RESULT:    -3.709      2.193      2.376
REMARK INTER + INTRA:          -4.477
REMARK INTER:                  -4.475
REMARK INTRA:                  -0.003
REMARK UNBOUND:                -0.009
REMARK SMILES OCC(O)CO
REMARK SMILES IDX 3 1 5 2 6 3 2 5 1 6 4 8
REMARK H PARENT 6 4 1 7 4 9
REMARK Flexibility Score: inf
ROOT
ATOM      1  C   UNL     1      60.431  29.635   9.737  1.00  0.00     0.165 C 
ENDROOT
BRANCH   1   2
ATOM      2  C   UNL     1      60.448  29.995  11.231  1.00  0.00     0.190 C 
BRANCH   2   3
ATOM      3  O   UNL     1      60.132  31.347  11.432  1.00  0.00    -0.394 OA
ATOM      4  H   UNL     1      60.945  31.779  11.802  1.00  0.00     0.210 HD
ENDBRANCH   2   3
ENDBRANCH   1   2
BRANCH   1   5
ATOM      5  C   UNL     1      61.627  28.750   9.346  1.00  0.00     0.190 C 
BRANCH   5   6
ATOM      6  O   UNL     1      61.218  27.430   9.107  1.00  0.00    -0.394 OA
ATOM      7  H   UNL     1      60.317  27.481   8.691  1.00  0.00     0.210 HD
ENDBRANCH   5   6
ENDBRANCH   1   5
BRANCH   1   8
ATOM      8  O   UNL     1      60.443  30.816   8.977  1.00  0.00    -0.388 OA
ATOM      9  H   UNL     1      61.362  30.917   8.617  1.00  0.00     0.211 HD
ENDBRANCH   1   8
TORSDOF 5
ENDMDL
MODEL 9
REMARK VINA RESULT:    -3.705     16.128     17.322
REMARK INTER + INTRA:          -4.472
REMARK INTER:                  -4.470
REMARK INTRA:                  -0.002
REMARK UNBOUND:                -0.009
REMARK SMILES OCC(O)CO
REMARK SMILES IDX 3 1 5 2 6 3 2 5 1 6 4 8
REMARK H PARENT 6 4 1 7 4 9
REMARK Flexibility Score: inf
ROOT
ATOM      1  C   UNL     1      61.565  27.145  28.370  1.00  0.00     0.165 C 
ENDROOT
BRANCH   1   2
ATOM      2  C   UNL     1      61.799  27.083  26.853  1.00  0.00     0.190 C 
BRANCH   2   3
ATOM      3  O   UNL     1      62.560  25.958  26.501  1.00  0.00    -0.394 OA
ATOM      4  H   UNL     1      63.396  26.297  26.086  1.00  0.00     0.210 HD
ENDBRANCH   2   3
ENDBRANCH   1   2
BRANCH   1   5
ATOM      5  C   UNL     1      61.488  28.594  28.881  1.00  0.00     0.190 C 
BRANCH   5   6
ATOM      6  O   UNL     1      60.182  29.095  28.774  1.00  0.00    -0.394 OA
ATOM      7  H   UNL     1      60.158  29.654  27.953  1.00  0.00     0.210 HD
ENDBRANCH   5   6
ENDBRANCH   1   5
BRANCH   1   8
ATOM      8  O   UNL     1      62.603  26.463  29.026  1.00  0.00    -0.388 OA
ATOM      9  H   UNL     1      62.237  26.150  29.894  1.00  0.00     0.211 HD
ENDBRANCH   1   8
TORSDOF 5
ENDMDL
