MODEL 1
REMARK VINA RESULT:    -3.000      0.000      0.000
REMARK INTER + INTRA:          -3.263
REMARK INTER:                  -3.263
REMARK INTRA:                   0.000
REMARK UNBOUND:                 0.000
REMARK SMILES [NH3+]CC(=O)[O-]
REMARK SMILES IDX 2 1 1 2 3 6 4 7 5 8
REMARK H PARENT 1 3 1 4 1 5
REMARK Flexibility Score: inf
ROOT
ATOM      1  C   UNL     1       8.714  26.970  17.250  1.00  0.00     0.312 C 
ENDROOT
BRANCH   1   2
ATOM      2  N   UNL     1       7.958  26.932  15.999  1.00  0.00    -0.353 N 
ATOM      3  H   UNL     1       7.713  25.944  15.758  1.00  0.00     0.344 HD
ATOM      4  H   UNL     1       8.522  27.354  15.226  1.00  0.00     0.344 HD
ATOM      5  H   UNL     1       7.077  27.482  16.116  1.00  0.00     0.344 HD
ENDBRANCH   1   2
BRANCH   1   6
ATOM      6  C   UNL     1       7.790  26.964  18.428  1.00  0.00     0.096 C 
ATOM      7  O   UNL     1       6.782  26.210  18.438  1.00  0.00    -0.544 OA
ATOM      8  O   UNL     1       8.071  27.753  19.536  1.00  0.00    -0.544 OA
ENDBRANCH   1   6
TORSDOF 2
ENDMDL
MODEL 2
REMARK VINA RESULT:    -2.995      2.351      2.829
REMARK INTER + INTRA:          -3.257
REMARK INTER:                  -3.257
REMARK INTRA:                   0.000
REMARK UNBOUND:                 0.000
REMARK SMILES [NH3+]CC(=O)[O-]
REMARK SMILES IDX 2 1 1 2 3 6 4 7 5 8
REMARK H PARENT 1 3 1 4 1 5
REMARK Flexibility Score: inf
ROOT
ATOM      1  C   UNL     1       7.598  26.910  18.308  1.00  0.00     0.312 C 
ENDROOT
BRANCH   1   2
ATOM      2  N   UNL     1       6.721  25.764  18.545  1.00  0.00    -0.353 N 
ATOM      3  H   UNL     1       7.290  24.924  18.801  1.00  0.00     0.344 HD
ATOM      4  H   UNL     1       6.158  25.560  17.687  1.00  0.00     0.344 HD
ATOM      5  H   UNL     1       6.072  25.987  19.333  1.00  0.00     0.344 HD
ENDBRANCH   1   2
BRANCH   1   6
ATOM      6  C   UNL     1       7.889  27.061  16.847  1.00  0.00     0.096 C 
ATOM      7  O   UNL     1       9.050  27.351  16.459  1.00  0.00    -0.544 OA
ATOM      8  O   UNL     1       6.888  26.829  15.912  1.00  0.00    -0.544 OA
ENDBRANCH   1   6
TORSDOF 2
ENDMDL
MODEL 3
REMARK VINA RESULT:    -2.903      2.013      2.427
REMARK INTER + INTRA:          -3.158
REMARK INTER:                  -3.158
REMARK INTRA:                   0.000
REMARK UNBOUND:                 0.000
REMARK SMILES [NH3+]CC(=O)[O-]
REMARK SMILES IDX 2 1 1 2 3 6 4 7 5 8
REMARK H PARENT 1 3 1 4 1 5
REMARK Flexibility Score: inf
ROOT
ATOM      1  C   UNL     1       8.497  27.379  16.403  1.00  0.00     0.312 C 
ENDROOT
BRANCH   1   2
ATOM      2  N   UNL     1       9.075  26.252  17.133  1.00  0.00    -0.353 N 
ATOM      3  H   UNL     1      10.119  26.268  17.050  1.00  0.00     0.344 HD
ATOM      4  H   UNL     1       8.706  25.350  16.753  1.00  0.00     0.344 HD
ATOM      5  H   UNL     1       8.815  26.328  18.142  1.00  0.00     0.344 HD
ENDBRANCH   1   2
BRANCH   1   6
ATOM      6  C   UNL     1       7.001  27.337  16.464  1.00  0.00     0.096 C 
ATOM      7  O   UNL     1       6.316  28.112  15.748  1.00  0.00    -0.544 OA
ATOM      8  O   UNL     1       6.365  26.405  17.275  1.00  0.00    -0.544 OA
ENDBRANCH   1   6
TORSDOF 2
ENDMDL
MODEL 4
REMARK VINA RESULT:    -2.791      2.004      2.196
REMARK INTER + INTRA:          -3.036
REMARK INTER:                  -3.036
REMARK INTRA:                   0.000
REMARK UNBOUND:                 0.000
REMARK SMILES [NH3+]CC(=O)[O-]
REMARK SMILES IDX 2 1 1 2 3 6 4 7 5 8
REMARK H PARENT 1 3 1 4 1 5
REMARK Flexibility Score: inf
ROOT
ATOM      1  C   UNL     1       7.415  26.896  18.893  1.00  0.00     0.312 C 
ENDROOT
BRANCH   1   2
ATOM      2  N   UNL     1       6.729  25.710  18.384  1.00  0.00    -0.353 N 
ATOM      3  H   UNL     1       5.773  25.640  18.805  1.00  0.00     0.344 HD
ATOM      4  H   UNL     1       7.279  24.850  18.614  1.00  0.00     0.344 HD
ATOM      5  H   UNL     1       6.637  25.786  17.346  1.00  0.00     0.344 HD
ENDBRANCH   1   2
BRANCH   1   6
ATOM      6  C   UNL     1       8.747  27.063  18.228  1.00  0.00     0.096 C 
ATOM      7  O   UNL     1       8.916  26.677  17.042  1.00  0.00    -0.544 OA
ATOM      8  O   UNL     1       9.785  27.693  18.902  1.00  0.00    -0.544 OA
ENDBRANCH   1   6
TORSDOF 2
ENDMDL
MODEL 5
REMARK VINA RESULT:    -2.738      2.205      2.581
REMARK INTER + INTRA:          -2.978
REMARK INTER:                  -2.978
REMARK INTRA:                   0.000
REMARK UNBOUND:                 0.000
REMARK SMILES [NH3+]CC(=O)[O-]
REMARK SMILES IDX 2 1 1 2 3 6 4 7 5 8
REMARK H PARENT 1 3 1 4 1 5
REMARK Flexibility Score: inf
ROOT
ATOM      1  C   UNL     1       8.385  27.732  19.231  1.00  0.00     0.312 C 
ENDROOT
BRANCH   1   2
ATOM      2  N   UNL     1       9.836  27.808  19.394  1.00  0.00    -0.353 N 
ATOM      3  H   UNL     1      10.313  27.311  18.606  1.00  0.00     0.344 HD
ATOM      4  H   UNL     1      10.119  27.378  20.305  1.00  0.00     0.344 HD
ATOM      5  H   UNL     1      10.129  28.812  19.387  1.00  0.00     0.344 HD
ENDBRANCH   1   2
BRANCH   1   6
ATOM      6  C   UNL     1       8.030  26.917  18.027  1.00  0.00     0.096 C 
ATOM      7  O   UNL     1       8.893  26.688  17.140  1.00  0.00    -0.544 OA
ATOM      8  O   UNL     1       6.760  26.367  17.911  1.00  0.00    -0.544 OA
ENDBRANCH   1   6
TORSDOF 2
ENDMDL
MODEL 6
REMARK VINA RESULT:    -2.681     14.201     14.559
REMARK INTER + INTRA:          -2.916
REMARK INTER:                  -2.916
REMARK INTRA:                   0.000
REMARK UNBOUND:                 0.000
REMARK SMILES [NH3+]CC(=O)[O-]
REMARK SMILES IDX 2 1 1 2 3 6 4 7 5 8
REMARK H PARENT 1 3 1 4 1 5
REMARK Flexibility Score: inf
ROOT
ATOM      1  C   UNL     1       1.326  15.383  19.610  1.00  0.00     0.312 C 
ENDROOT
BRANCH   1   2
ATOM      2  N   UNL     1       1.904  15.810  20.882  1.00  0.00    -0.353 N 
ATOM      3  H   UNL     1       2.642  16.534  20.717  1.00  0.00     0.344 HD
ATOM      4  H   UNL     1       2.319  14.990  21.382  1.00  0.00     0.344 HD
ATOM      5  H   UNL     1       1.151  16.225  21.478  1.00  0.00     0.344 HD
ENDBRANCH   1   2
BRANCH   1   6
ATOM      6  C   UNL     1       1.037  13.914  19.627  1.00  0.00     0.096 C 
ATOM      7  O   UNL     1      -0.118  13.492  19.359  1.00  0.00    -0.544 OA
ATOM      8  O   UNL     1       2.058  13.008  19.887  1.00  0.00    -0.544 OA
ENDBRANCH   1   6
TORSDOF 2
ENDMDL
MODEL 7
REMARK VINA RESULT:    -2.676     19.269     19.505
REMARK INTER + INTRA:          -2.911
REMARK INTER:                  -2.911
REMARK INTRA:                   0.000
REMARK UNBOUND:                 0.000
REMARK SMILES [NH3+]CC(=O)[O-]
REMARK SMILES IDX 2 1 1 2 3 6 4 7 5 8
REMARK H PARENT 1 3 1 4 1 5
REMARK Flexibility Score: inf
ROOT
ATOM      1  C   UNL     1      -5.903  12.817  15.429  1.00  0.00     0.312 C 
ENDROOT
BRANCH   1   2
ATOM      2  N   UNL     1      -5.070  13.872  14.855  1.00  0.00    -0.353 N 
ATOM      3  H   UNL     1      -5.655  14.516  14.274  1.00  0.00     0.344 HD
ATOM      4  H   UNL     1      -4.315  13.453  14.265  1.00  0.00     0.344 HD
ATOM      5  H   UNL     1      -4.631  14.420  15.630  1.00  0.00     0.344 HD
ENDBRANCH   1   2
BRANCH   1   6
ATOM      6  C   UNL     1      -5.816  12.827  16.923  1.00  0.00     0.096 C 
ATOM      7  O   UNL     1      -6.834  13.083  17.616  1.00  0.00    -0.544 OA
ATOM      8  O   UNL     1      -4.620  12.500  17.551  1.00  0.00    -0.544 OA
ENDBRANCH   1   6
TORSDOF 2
ENDMDL
MODEL 8
REMARK VINA RESULT:    -2.566     19.708     19.767
REMARK INTER + INTRA:          -2.791
REMARK INTER:                  -2.791
REMARK INTRA:                   0.000
REMARK UNBOUND:                 0.000
REMARK SMILES [NH3+]CC(=O)[O-]
REMARK SMILES IDX 2 1 1 2 3 6 4 7 5 8
REMARK H PARENT 1 3 1 4 1 5
REMARK Flexibility Score: inf
ROOT
ATOM      1  C   UNL     1      -4.930  11.559  17.138  1.00  0.00     0.312 C 
ENDROOT
BRANCH   1   2
ATOM      2  N   UNL     1      -3.545  11.807  16.744  1.00  0.00    -0.353 N 
ATOM      3  H   UNL     1      -3.068  10.903  16.518  1.00  0.00     0.344 HD
ATOM      4  H   UNL     1      -3.033  12.292  17.517  1.00  0.00     0.344 HD
ATOM      5  H   UNL     1      -3.534  12.417  15.895  1.00  0.00     0.344 HD
ENDBRANCH   1   2
BRANCH   1   6
ATOM      6  C   UNL     1      -5.826  12.650  16.640  1.00  0.00     0.096 C 
ATOM      7  O   UNL     1      -6.523  13.317  17.449  1.00  0.00    -0.544 OA
ATOM      8  O   UNL     1      -5.851  12.965  15.287  1.00  0.00    -0.544 OA
ENDBRANCH   1   6
TORSDOF 2
ENDMDL
MODEL 9
REMARK VINA RESULT:    -2.540     20.012     20.499
REMARK INTER + INTRA:          -2.763
REMARK INTER:                  -2.763
REMARK INTRA:                   0.000
REMARK UNBOUND:                 0.000
REMARK SMILES [NH3+]CC(=O)[O-]
REMARK SMILES IDX 2 1 1 2 3 6 4 7 5 8
REMARK H PARENT 1 3 1 4 1 5
REMARK Flexibility Score: inf
ROOT
ATOM      1  C   UNL     1      -5.060  12.410  16.969  1.00  0.00     0.312 C 
ENDROOT
BRANCH   1   2
ATOM      2  N   UNL     1      -4.683  12.714  15.590  1.00  0.00    -0.353 N 
ATOM      3  H   UNL     1      -3.795  12.218  15.342  1.00  0.00     0.344 HD
ATOM      4  H   UNL     1      -4.556  13.745  15.470  1.00  0.00     0.344 HD
ATOM      5  H   UNL     1      -5.442  12.389  14.948  1.00  0.00     0.344 HD
ENDBRANCH   1   2
BRANCH   1   6
ATOM      6  C   UNL     1      -6.478  11.936  17.039  1.00  0.00     0.096 C 
ATOM      7  O   UNL     1      -7.286  12.469  17.843  1.00  0.00    -0.544 OA
ATOM      8  O   UNL     1      -6.921  10.940  16.177  1.00  0.00    -0.544 OA
ENDBRANCH   1   6
TORSDOF 2
ENDMDL
