MODEL 1
REMARK VINA RESULT:    -5.645      0.000      0.000
REMARK INTER + INTRA:          -6.515
REMARK INTER:                  -6.470
REMARK INTRA:                  -0.045
REMARK UNBOUND:                -0.045
REMARK SMILES O=C([O-])c1cc(O)c(O)c(O)c1
REMARK SMILES IDX 4 1 5 2 12 3 6 4 10 5 8 6 2 7 1 8 3 9 7 10 11 12 9 14
REMARK H PARENT 7 11 11 13 9 15
REMARK Flexibility Score: inf
ROOT
ATOM      1  C   UNL     1      -1.366   1.073  13.873  1.00  0.00     0.005 A 
ATOM      2  C   UNL     1      -0.793   1.295  12.611  1.00  0.00     0.060 A 
ATOM      3  C   UNL     1      -1.159   2.019  14.888  1.00  0.00     0.060 A 
ATOM      4  C   UNL     1      -0.029   2.439  12.364  1.00  0.00     0.162 A 
ATOM      5  C   UNL     1      -0.397   3.169  14.659  1.00  0.00     0.162 A 
ATOM      6  C   UNL     1       0.176   3.387  13.382  1.00  0.00     0.200 A 
ENDROOT
BRANCH   1   7
ATOM      7  C   UNL     1      -2.175  -0.139  14.133  1.00  0.00     0.072 C 
ATOM      8  O   UNL     1      -3.426  -0.059  14.259  1.00  0.00    -0.545 OA
ATOM      9  O   UNL     1      -1.566  -1.383  14.241  1.00  0.00    -0.545 OA
ENDBRANCH   1   7
BRANCH   4  10
ATOM     10  O   UNL     1       0.519   2.617  11.093  1.00  0.00    -0.504 OA
ATOM     11  H   UNL     1       1.186   3.351  10.889  1.00  0.00     0.293 HD
ENDBRANCH   4  10
BRANCH   5  12
ATOM     12  O   UNL     1      -0.238   4.064  15.720  1.00  0.00    -0.504 OA
ATOM     13  H   UNL     1      -0.709   3.981  16.608  1.00  0.00     0.293 HD
ENDBRANCH   5  12
BRANCH   6  14
ATOM     14  O   UNL     1       0.947   4.516  13.094  1.00  0.00    -0.502 OA
ATOM     15  H   UNL     1       0.577   5.452  13.019  1.00  0.00     0.293 HD
ENDBRANCH   6  14
TORSDOF 4
ENDMDL
MODEL 2
REMARK VINA RESULT:    -5.609      1.510      4.472
REMARK INTER + INTRA:          -6.474
REMARK INTER:                  -6.423
REMARK INTRA:                  -0.051
REMARK UNBOUND:                -0.045
REMARK SMILES O=C([O-])c1cc(O)c(O)c(O)c1
REMARK SMILES IDX 4 1 5 2 12 3 6 4 10 5 8 6 2 7 1 8 3 9 7 10 11 12 9 14
REMARK H PARENT 7 11 11 13 9 15
REMARK Flexibility Score: inf
ROOT
ATOM      1  C   UNL     1      -1.375   2.613  13.863  1.00  0.00     0.005 A 
ATOM      2  C   UNL     1      -1.547   1.460  14.645  1.00  0.00     0.060 A 
ATOM      3  C   UNL     1      -1.156   2.473  12.485  1.00  0.00     0.060 A 
ATOM      4  C   UNL     1      -1.502   0.190  14.064  1.00  0.00     0.162 A 
ATOM      5  C   UNL     1      -1.107   1.209  11.886  1.00  0.00     0.162 A 
ATOM      6  C   UNL     1      -1.283   0.051  12.682  1.00  0.00     0.200 A 
ENDROOT
BRANCH   1   7
ATOM      7  C   UNL     1      -1.423   3.958  14.480  1.00  0.00     0.072 C 
ATOM      8  O   UNL     1      -1.058   4.128  15.675  1.00  0.00    -0.545 OA
ATOM      9  O   UNL     1      -1.871   5.052  13.751  1.00  0.00    -0.545 OA
ENDBRANCH   1   7
BRANCH   4  10
ATOM     10  O   UNL     1      -1.680  -0.927  14.881  1.00  0.00    -0.504 OA
ATOM     11  H   UNL     1      -2.446  -1.000  15.539  1.00  0.00     0.293 HD
ENDBRANCH   4  10
BRANCH   5  12
ATOM     12  O   UNL     1      -0.885   1.152  10.508  1.00  0.00    -0.504 OA
ATOM     13  H   UNL     1      -1.619   1.153   9.815  1.00  0.00     0.293 HD
ENDBRANCH   5  12
BRANCH   6  14
ATOM     14  O   UNL     1      -1.245  -1.237  12.141  1.00  0.00    -0.502 OA
ATOM     15  H   UNL     1      -1.276  -1.439  11.153  1.00  0.00     0.293 HD
ENDBRANCH   6  14
TORSDOF 4
ENDMDL
MODEL 3
REMARK VINA RESULT:    -5.578      0.102      2.446
REMARK INTER + INTRA:          -6.439
REMARK INTER:                  -6.394
REMARK INTRA:                  -0.045
REMARK UNBOUND:                -0.045
REMARK SMILES O=C([O-])c1cc(O)c(O)c(O)c1
REMARK SMILES IDX 4 1 5 2 12 3 6 4 10 5 8 6 2 7 1 8 3 9 7 10 11 12 9 14
REMARK H PARENT 7 11 11 13 9 15
REMARK Flexibility Score: inf
ROOT
ATOM      1  C   UNL     1      -1.371   1.115  13.928  1.00  0.00     0.005 A 
ATOM      2  C   UNL     1      -1.193   2.063  14.948  1.00  0.00     0.060 A 
ATOM      3  C   UNL     1      -0.763   1.334  12.683  1.00  0.00     0.060 A 
ATOM      4  C   UNL     1      -0.423   3.209  14.731  1.00  0.00     0.162 A 
ATOM      5  C   UNL     1       0.011   2.476  12.448  1.00  0.00     0.162 A 
ATOM      6  C   UNL     1       0.187   3.427  13.483  1.00  0.00     0.200 A 
ENDROOT
BRANCH   1   7
ATOM      7  C   UNL     1      -2.187  -0.098  14.159  1.00  0.00     0.072 C 
ATOM      8  O   UNL     1      -3.441  -0.018  14.257  1.00  0.00    -0.545 OA
ATOM      9  O   UNL     1      -1.582  -1.344  14.270  1.00  0.00    -0.545 OA
ENDBRANCH   1   7
BRANCH   4  10
ATOM     10  O   UNL     1      -0.274   4.122  15.775  1.00  0.00    -0.504 OA
ATOM     11  H   UNL     1      -0.623   3.940  16.708  1.00  0.00     0.293 HD
ENDBRANCH   4  10
BRANCH   5  12
ATOM     12  O   UNL     1       0.585   2.622  11.183  1.00  0.00    -0.504 OA
ATOM     13  H   UNL     1       1.440   3.127  11.003  1.00  0.00     0.293 HD
ENDBRANCH   5  12
BRANCH   6  14
ATOM     14  O   UNL     1       0.948   4.585  13.308  1.00  0.00    -0.502 OA
ATOM     15  H   UNL     1       1.211   4.962  12.409  1.00  0.00     0.293 HD
ENDBRANCH   6  14
TORSDOF 4
ENDMDL
MODEL 4
REMARK VINA RESULT:    -5.575      1.521      3.932
REMARK INTER + INTRA:          -6.435
REMARK INTER:                  -6.385
REMARK INTRA:                  -0.051
REMARK UNBOUND:                -0.045
REMARK SMILES O=C([O-])c1cc(O)c(O)c(O)c1
REMARK SMILES IDX 4 1 5 2 12 3 6 4 10 5 8 6 2 7 1 8 3 9 7 10 11 12 9 14
REMARK H PARENT 7 11 11 13 9 15
REMARK Flexibility Score: inf
ROOT
ATOM      1  C   UNL     1      -1.343   2.556  13.883  1.00  0.00     0.005 A 
ATOM      2  C   UNL     1      -1.133   2.422  12.502  1.00  0.00     0.060 A 
ATOM      3  C   UNL     1      -1.493   1.400  14.663  1.00  0.00     0.060 A 
ATOM      4  C   UNL     1      -1.073   1.158  11.908  1.00  0.00     0.162 A 
ATOM      5  C   UNL     1      -1.436   0.127  14.085  1.00  0.00     0.162 A 
ATOM      6  C   UNL     1      -1.222  -0.000  12.691  1.00  0.00     0.200 A 
ENDROOT
BRANCH   1   7
ATOM      7  C   UNL     1      -1.406   3.895  14.511  1.00  0.00     0.072 C 
ATOM      8  O   UNL     1      -1.032   4.062  15.703  1.00  0.00    -0.545 OA
ATOM      9  O   UNL     1      -1.879   4.987  13.795  1.00  0.00    -0.545 OA
ENDBRANCH   1   7
BRANCH   4  10
ATOM     10  O   UNL     1      -0.861   1.074  10.532  1.00  0.00    -0.504 OA
ATOM     11  H   UNL     1      -0.521   0.230  10.086  1.00  0.00     0.293 HD
ENDBRANCH   4  10
BRANCH   5  12
ATOM     12  O   UNL     1      -1.594  -0.976  14.928  1.00  0.00    -0.504 OA
ATOM     13  H   UNL     1      -0.829  -1.481  15.351  1.00  0.00     0.293 HD
ENDBRANCH   5  12
BRANCH   6  14
ATOM     14  O   UNL     1      -1.156  -1.245  12.058  1.00  0.00    -0.502 OA
ATOM     15  H   UNL     1      -1.749  -1.523  11.291  1.00  0.00     0.293 HD
ENDBRANCH   6  14
TORSDOF 4
ENDMDL
MODEL 5
REMARK VINA RESULT:    -5.158      1.508      4.204
REMARK INTER + INTRA:          -5.958
REMARK INTER:                  -5.911
REMARK INTRA:                  -0.047
REMARK UNBOUND:                -0.045
REMARK SMILES O=C([O-])c1cc(O)c(O)c(O)c1
REMARK SMILES IDX 4 1 5 2 12 3 6 4 10 5 8 6 2 7 1 8 3 9 7 10 11 12 9 14
REMARK H PARENT 7 11 11 13 9 15
REMARK Flexibility Score: inf
ROOT
ATOM      1  C   UNL     1      -1.008   2.605  12.591  1.00  0.00     0.005 A 
ATOM      2  C   UNL     1      -0.765   1.311  12.104  1.00  0.00     0.060 A 
ATOM      3  C   UNL     1      -1.823   2.764  13.721  1.00  0.00     0.060 A 
ATOM      4  C   UNL     1      -1.323   0.195  12.734  1.00  0.00     0.162 A 
ATOM      5  C   UNL     1      -2.391   1.658  14.363  1.00  0.00     0.162 A 
ATOM      6  C   UNL     1      -2.139   0.356  13.867  1.00  0.00     0.200 A 
ENDROOT
BRANCH   1   7
ATOM      7  C   UNL     1      -0.416   3.786  11.924  1.00  0.00     0.072 C 
ATOM      8  O   UNL     1      -0.617   3.998  10.697  1.00  0.00    -0.545 OA
ATOM      9  O   UNL     1       0.371   4.680  12.640  1.00  0.00    -0.545 OA
ENDBRANCH   1   7
BRANCH   4  10
ATOM     10  O   UNL     1      -1.052  -1.071  12.214  1.00  0.00    -0.504 OA
ATOM     11  H   UNL     1      -1.229  -1.921  12.738  1.00  0.00     0.293 HD
ENDBRANCH   4  10
BRANCH   5  12
ATOM     12  O   UNL     1      -3.190   1.897  15.484  1.00  0.00    -0.504 OA
ATOM     13  H   UNL     1      -3.467   1.187  16.145  1.00  0.00     0.293 HD
ENDBRANCH   5  12
BRANCH   6  14
ATOM     14  O   UNL     1      -2.678  -0.786  14.466  1.00  0.00    -0.502 OA
ATOM     15  H   UNL     1      -3.524  -1.243  14.159  1.00  0.00     0.293 HD
ENDBRANCH   6  14
TORSDOF 4
ENDMDL
MODEL 6
REMARK VINA RESULT:    -5.013      1.468      4.809
REMARK INTER + INTRA:          -5.790
REMARK INTER:                  -5.745
REMARK INTRA:                  -0.046
REMARK UNBOUND:                -0.045
REMARK SMILES O=C([O-])c1cc(O)c(O)c(O)c1
REMARK SMILES IDX 4 1 5 2 12 3 6 4 10 5 8 6 2 7 1 8 3 9 7 10 11 12 9 14
REMARK H PARENT 7 11 11 13 9 15
REMARK Flexibility Score: inf
ROOT
ATOM      1  C   UNL     1      -0.936   2.729  12.760  1.00  0.00     0.005 A 
ATOM      2  C   UNL     1      -1.792   2.851  13.866  1.00  0.00     0.060 A 
ATOM      3  C   UNL     1      -0.705   1.457  12.217  1.00  0.00     0.060 A 
ATOM      4  C   UNL     1      -2.408   1.725  14.419  1.00  0.00     0.162 A 
ATOM      5  C   UNL     1      -1.312   0.319  12.759  1.00  0.00     0.162 A 
ATOM      6  C   UNL     1      -2.176   0.450  13.873  1.00  0.00     0.200 A 
ENDROOT
BRANCH   1   7
ATOM      7  C   UNL     1      -0.284   3.922  12.174  1.00  0.00     0.072 C 
ATOM      8  O   UNL     1       0.570   4.573  12.833  1.00  0.00    -0.545 OA
ATOM      9  O   UNL     1      -0.606   4.341  10.889  1.00  0.00    -0.545 OA
ENDBRANCH   1   7
BRANCH   4  10
ATOM     10  O   UNL     1      -3.252   1.896  15.517  1.00  0.00    -0.504 OA
ATOM     11  H   UNL     1      -4.215   1.580  15.514  1.00  0.00     0.293 HD
ENDBRANCH   4  10
BRANCH   5  12
ATOM     12  O   UNL     1      -1.033  -0.913  12.162  1.00  0.00    -0.504 OA
ATOM     13  H   UNL     1      -1.724  -1.627  11.985  1.00  0.00     0.293 HD
ENDBRANCH   5  12
BRANCH   6  14
ATOM     14  O   UNL     1      -2.811  -0.649  14.457  1.00  0.00    -0.502 OA
ATOM     15  H   UNL     1      -3.803  -0.828  14.401  1.00  0.00     0.293 HD
ENDBRANCH   6  14
TORSDOF 4
ENDMDL
MODEL 7
REMARK VINA RESULT:    -4.690      1.848      3.166
REMARK INTER + INTRA:          -5.420
REMARK INTER:                  -5.368
REMARK INTRA:                  -0.053
REMARK UNBOUND:                -0.045
REMARK SMILES O=C([O-])c1cc(O)c(O)c(O)c1
REMARK SMILES IDX 4 1 5 2 12 3 6 4 10 5 8 6 2 7 1 8 3 9 7 10 11 12 9 14
REMARK H PARENT 7 11 11 13 9 15
REMARK Flexibility Score: inf
ROOT
ATOM      1  C   UNL     1      -1.187   2.199  13.053  1.00  0.00     0.005 A 
ATOM      2  C   UNL     1      -0.947   2.293  14.433  1.00  0.00     0.060 A 
ATOM      3  C   UNL     1      -1.501   3.363  12.337  1.00  0.00     0.060 A 
ATOM      4  C   UNL     1      -1.016   3.526  15.087  1.00  0.00     0.162 A 
ATOM      5  C   UNL     1      -1.576   4.606  12.976  1.00  0.00     0.162 A 
ATOM      6  C   UNL     1      -1.330   4.693  14.368  1.00  0.00     0.200 A 
ENDROOT
BRANCH   1   7
ATOM      7  C   UNL     1      -1.113   0.892  12.361  1.00  0.00     0.072 C 
ATOM      8  O   UNL     1      -1.107   0.833  11.102  1.00  0.00    -0.545 OA
ATOM      9  O   UNL     1      -1.048  -0.289  13.090  1.00  0.00    -0.545 OA
ENDBRANCH   1   7
BRANCH   4  10
ATOM     10  O   UNL     1      -0.768   3.570  16.459  1.00  0.00    -0.504 OA
ATOM     11  H   UNL     1      -1.366   4.076  17.102  1.00  0.00     0.293 HD
ENDBRANCH   4  10
BRANCH   5  12
ATOM     12  O   UNL     1      -1.892   5.719  12.194  1.00  0.00    -0.504 OA
ATOM     13  H   UNL     1      -1.220   6.244  11.655  1.00  0.00     0.293 HD
ENDBRANCH   5  12
BRANCH   6  14
ATOM     14  O   UNL     1      -1.390   5.905  15.060  1.00  0.00    -0.502 OA
ATOM     15  H   UNL     1      -0.610   6.321  15.546  1.00  0.00     0.293 HD
ENDBRANCH   6  14
TORSDOF 4
ENDMDL
MODEL 8
REMARK VINA RESULT:    -4.628      2.024      2.975
REMARK INTER + INTRA:          -5.350
REMARK INTER:                  -5.303
REMARK INTRA:                  -0.047
REMARK UNBOUND:                -0.045
REMARK SMILES O=C([O-])c1cc(O)c(O)c(O)c1
REMARK SMILES IDX 4 1 5 2 12 3 6 4 10 5 8 6 2 7 1 8 3 9 7 10 11 12 9 14
REMARK H PARENT 7 11 11 13 9 15
REMARK Flexibility Score: inf
ROOT
ATOM      1  C   UNL     1      -0.888   2.600  12.873  1.00  0.00     0.005 A 
ATOM      2  C   UNL     1      -1.905   3.565  12.931  1.00  0.00     0.060 A 
ATOM      3  C   UNL     1       0.313   2.837  13.558  1.00  0.00     0.060 A 
ATOM      4  C   UNL     1      -1.730   4.744  13.660  1.00  0.00     0.162 A 
ATOM      5  C   UNL     1       0.506   4.012  14.292  1.00  0.00     0.162 A 
ATOM      6  C   UNL     1      -0.526   4.980  14.347  1.00  0.00     0.200 A 
ENDROOT
BRANCH   1   7
ATOM      7  C   UNL     1      -1.075   1.351  12.101  1.00  0.00     0.072 C 
ATOM      8  O   UNL     1      -0.956   0.228  12.661  1.00  0.00    -0.545 OA
ATOM      9  O   UNL     1      -1.385   1.398  10.748  1.00  0.00    -0.545 OA
ENDBRANCH   1   7
BRANCH   4  10
ATOM     10  O   UNL     1      -2.770   5.674  13.690  1.00  0.00    -0.504 OA
ATOM     11  H   UNL     1      -3.419   5.786  12.920  1.00  0.00     0.293 HD
ENDBRANCH   4  10
BRANCH   5  12
ATOM     12  O   UNL     1       1.729   4.175  14.947  1.00  0.00    -0.504 OA
ATOM     13  H   UNL     1       2.012   3.647  15.759  1.00  0.00     0.293 HD
ENDBRANCH   5  12
BRANCH   6  14
ATOM     14  O   UNL     1      -0.391   6.173  15.063  1.00  0.00    -0.502 OA
ATOM     15  H   UNL     1       0.369   6.372  15.696  1.00  0.00     0.293 HD
ENDBRANCH   6  14
TORSDOF 4
ENDMDL
MODEL 9
REMARK VINA RESULT:    -4.549      1.581      2.138
REMARK INTER + INTRA:          -5.260
REMARK INTER:                  -5.208
REMARK INTRA:                  -0.052
REMARK UNBOUND:                -0.045
REMARK SMILES O=C([O-])c1cc(O)c(O)c(O)c1
REMARK SMILES IDX 4 1 5 2 12 3 6 4 10 5 8 6 2 7 1 8 3 9 7 10 11 12 9 14
REMARK H PARENT 7 11 11 13 9 15
REMARK Flexibility Score: inf
ROOT
ATOM      1  C   UNL     1      -0.645   2.175  12.963  1.00  0.00     0.005 A 
ATOM      2  C   UNL     1      -0.135   3.250  12.220  1.00  0.00     0.060 A 
ATOM      3  C   UNL     1      -0.853   2.337  14.340  1.00  0.00     0.060 A 
ATOM      4  C   UNL     1       0.162   4.468  12.839  1.00  0.00     0.162 A 
ATOM      5  C   UNL     1      -0.560   3.549  14.976  1.00  0.00     0.162 A 
ATOM      6  C   UNL     1      -0.047   4.631  14.220  1.00  0.00     0.200 A 
ENDROOT
BRANCH   1   7
ATOM      7  C   UNL     1      -0.959   0.885  12.306  1.00  0.00     0.072 C 
ATOM      8  O   UNL     1      -1.127   0.826  11.058  1.00  0.00    -0.545 OA
ATOM      9  O   UNL     1      -1.074  -0.278  13.057  1.00  0.00    -0.545 OA
ENDBRANCH   1   7
BRANCH   4  10
ATOM     10  O   UNL     1       0.666   5.509  12.059  1.00  0.00    -0.504 OA
ATOM     11  H   UNL     1       1.626   5.827  12.133  1.00  0.00     0.293 HD
ENDBRANCH   4  10
BRANCH   5  12
ATOM     12  O   UNL     1      -0.795   3.634  16.351  1.00  0.00    -0.504 OA
ATOM     13  H   UNL     1      -0.357   4.308  16.960  1.00  0.00     0.293 HD
ENDBRANCH   5  12
BRANCH   6  14
ATOM     14  O   UNL     1       0.263   5.864  14.799  1.00  0.00    -0.502 OA
ATOM     15  H   UNL     1      -0.188   6.234  15.621  1.00  0.00     0.293 HD
ENDBRANCH   6  14
TORSDOF 4
ENDMDL
