MODEL 1
REMARK VINA RESULT:    -3.742      0.000      0.000
REMARK INTER + INTRA:          -3.851
REMARK INTER:                  -3.851
REMARK INTRA:                   0.000
REMARK UNBOUND:                 0.000
REMARK SMILES CC1(C)[C@H]2CC[C@](C)(C2)[C@@H]1O
REMARK SMILES IDX 1 1 2 2 4 3 5 4 6 5 7 6 9 7 10 8 8 9 3 10 11 11
REMARK H PARENT 11 12
REMARK Flexibility Score: inf
ROOT
ATOM      1  C   UNL     1     118.079 117.690 121.021  1.00  0.00     0.014 C 
ATOM      2  C   UNL     1     117.394 116.314 121.208  1.00  0.00    -0.006 C 
ATOM      3  C   UNL     1     116.276 116.024 120.147  1.00  0.00    -0.002 C 
ATOM      4  C   UNL     1     116.774 116.303 118.713  1.00  0.00     0.005 C 
ATOM      5  C   UNL     1     117.807 115.187 118.486  1.00  0.00     0.010 C 
ATOM      6  C   UNL     1     117.701 114.352 119.785  1.00  0.00    -0.006 C 
ATOM      7  C   UNL     1     116.232 114.505 120.117  1.00  0.00     0.013 C 
ATOM      8  C   UNL     1     118.398 115.140 120.936  1.00  0.00     0.126 C 
ATOM      9  C   UNL     1     118.169 112.902 119.606  1.00  0.00     0.014 C 
ATOM     10  C   UNL     1     116.782 116.298 122.634  1.00  0.00     0.014 C 
ENDROOT
BRANCH   8  11
ATOM     11  O   UNL     1     118.663 114.351 122.076  1.00  0.00    -0.392 OA
ATOM     12  H   UNL     1     119.388 114.776 122.600  1.00  0.00     0.211 HD
ENDBRANCH   8  11
TORSDOF 1
ENDMDL
MODEL 2
REMARK VINA RESULT:    -3.710      1.732      2.700
REMARK INTER + INTRA:          -3.818
REMARK INTER:                  -3.818
REMARK INTRA:                   0.000
REMARK UNBOUND:                 0.000
REMARK SMILES CC1(C)[C@H]2CC[C@](C)(C2)[C@@H]1O
REMARK SMILES IDX 1 1 2 2 4 3 5 4 6 5 7 6 9 7 10 8 8 9 3 10 11 11
REMARK H PARENT 11 12
REMARK Flexibility Score: inf
ROOT
ATOM      1  C   UNL     1     118.854 116.248 119.532  1.00  0.00     0.014 C 
ATOM      2  C   UNL     1     117.890 116.944 120.524  1.00  0.00    -0.006 C 
ATOM      3  C   UNL     1     116.433 117.106 119.967  1.00  0.00    -0.002 C 
ATOM      4  C   UNL     1     115.903 115.780 119.380  1.00  0.00     0.005 C 
ATOM      5  C   UNL     1     115.734 114.897 120.627  1.00  0.00     0.010 C 
ATOM      6  C   UNL     1     116.099 115.860 121.782  1.00  0.00    -0.006 C 
ATOM      7  C   UNL     1     115.599 117.181 121.236  1.00  0.00     0.013 C 
ATOM      8  C   UNL     1     117.645 116.055 121.793  1.00  0.00     0.126 C 
ATOM      9  C   UNL     1     115.480 115.449 123.125  1.00  0.00     0.014 C 
ATOM     10  C   UNL     1     118.490 118.339 120.842  1.00  0.00     0.014 C 
ENDROOT
BRANCH   8  11
ATOM     11  O   UNL     1     118.131 116.632 122.985  1.00  0.00    -0.392 OA
ATOM     12  H   UNL     1     119.121 116.651 122.955  1.00  0.00     0.211 HD
ENDBRANCH   8  11
TORSDOF 1
ENDMDL
MODEL 3
REMARK VINA RESULT:    -3.703      2.927      4.409
REMARK INTER + INTRA:          -3.811
REMARK INTER:                  -3.811
REMARK INTRA:                   0.000
REMARK UNBOUND:                 0.000
REMARK SMILES CC1(C)[C@H]2CC[C@](C)(C2)[C@@H]1O
REMARK SMILES IDX 1 1 2 2 4 3 5 4 6 5 7 6 9 7 10 8 8 9 3 10 11 11
REMARK H PARENT 11 12
REMARK Flexibility Score: inf
ROOT
ATOM      1  C   UNL     1     115.002 115.666 120.741  1.00  0.00     0.014 C 
ATOM      2  C   UNL     1     115.764 117.003 120.918  1.00  0.00    -0.006 C 
ATOM      3  C   UNL     1     116.735 117.328 119.731  1.00  0.00    -0.002 C 
ATOM      4  C   UNL     1     116.032 117.166 118.366  1.00  0.00     0.005 C 
ATOM      5  C   UNL     1     115.026 118.329 118.359  1.00  0.00     0.010 C 
ATOM      6  C   UNL     1     115.345 119.067 119.681  1.00  0.00    -0.006 C 
ATOM      7  C   UNL     1     116.839 118.843 119.792  1.00  0.00     0.013 C 
ATOM      8  C   UNL     1     114.782 118.225 120.866  1.00  0.00     0.126 C 
ATOM      9  C   UNL     1     114.919 120.541 119.663  1.00  0.00     0.014 C 
ATOM     10  C   UNL     1     116.567 116.899 122.242  1.00  0.00     0.014 C 
ENDROOT
BRANCH   8  11
ATOM     11  O   UNL     1     114.711 118.940 122.080  1.00  0.00    -0.392 OA
ATOM     12  H   UNL     1     115.456 119.592 122.114  1.00  0.00     0.211 HD
ENDBRANCH   8  11
TORSDOF 1
ENDMDL
MODEL 4
REMARK VINA RESULT:    -3.697      2.014      2.961
REMARK INTER + INTRA:          -3.805
REMARK INTER:                  -3.805
REMARK INTRA:                   0.000
REMARK UNBOUND:                 0.000
REMARK SMILES CC1(C)[C@H]2CC[C@](C)(C2)[C@@H]1O
REMARK SMILES IDX 1 1 2 2 4 3 5 4 6 5 7 6 9 7 10 8 8 9 3 10 11 11
REMARK H PARENT 11 12
REMARK Flexibility Score: inf
ROOT
ATOM      1  C   UNL     1     117.755 115.122 121.391  1.00  0.00     0.014 C 
ATOM      2  C   UNL     1     116.367 115.792 121.533  1.00  0.00    -0.006 C 
ATOM      3  C   UNL     1     116.142 116.980 120.533  1.00  0.00    -0.002 C 
ATOM      4  C   UNL     1     116.517 116.580 119.090  1.00  0.00     0.005 C 
ATOM      5  C   UNL     1     115.424 115.564 118.721  1.00  0.00     0.010 C 
ATOM      6  C   UNL     1     114.505 115.582 119.966  1.00  0.00    -0.006 C 
ATOM      7  C   UNL     1     114.629 117.026 120.406  1.00  0.00     0.013 C 
ATOM      8  C   UNL     1     115.218 114.809 121.117  1.00  0.00     0.126 C 
ATOM      9  C   UNL     1     113.072 115.127 119.660  1.00  0.00     0.014 C 
ATOM     10  C   UNL     1     116.255 116.306 122.993  1.00  0.00     0.014 C 
ENDROOT
BRANCH   8  11
ATOM     11  O   UNL     1     114.358 114.467 122.181  1.00  0.00    -0.392 OA
ATOM     12  H   UNL     1     114.656 113.608 122.574  1.00  0.00     0.211 HD
ENDBRANCH   8  11
TORSDOF 1
ENDMDL
MODEL 5
REMARK VINA RESULT:    -3.694      2.122      2.995
REMARK INTER + INTRA:          -3.802
REMARK INTER:                  -3.802
REMARK INTRA:                   0.000
REMARK UNBOUND:                 0.000
REMARK SMILES CC1(C)[C@H]2CC[C@](C)(C2)[C@@H]1O
REMARK SMILES IDX 1 1 2 2 4 3 5 4 6 5 7 6 9 7 10 8 8 9 3 10 11 11
REMARK H PARENT 11 12
REMARK Flexibility Score: inf
ROOT
ATOM      1  C   UNL     1     114.944 118.124 123.125  1.00  0.00     0.014 C 
ATOM      2  C   UNL     1     115.716 117.065 122.299  1.00  0.00    -0.006 C 
ATOM      3  C   UNL     1     115.229 116.959 120.812  1.00  0.00    -0.002 C 
ATOM      4  C   UNL     1     115.139 118.350 120.148  1.00  0.00     0.005 C 
ATOM      5  C   UNL     1     116.613 118.771 120.033  1.00  0.00     0.010 C 
ATOM      6  C   UNL     1     117.368 117.527 120.560  1.00  0.00    -0.006 C 
ATOM      7  C   UNL     1     116.455 116.410 120.100  1.00  0.00     0.013 C 
ATOM      8  C   UNL     1     117.217 117.478 122.111  1.00  0.00     0.126 C 
ATOM      9  C   UNL     1     118.807 117.433 120.038  1.00  0.00     0.014 C 
ATOM     10  C   UNL     1     115.525 115.701 123.014  1.00  0.00     0.014 C 
ENDROOT
BRANCH   8  11
ATOM     11  O   UNL     1     118.125 116.597 122.736  1.00  0.00    -0.392 OA
ATOM     12  H   UNL     1     117.622 115.983 123.329  1.00  0.00     0.211 HD
ENDBRANCH   8  11
TORSDOF 1
ENDMDL
MODEL 6
REMARK VINA RESULT:    -3.678      2.195      3.550
REMARK INTER + INTRA:          -3.785
REMARK INTER:                  -3.785
REMARK INTRA:                   0.000
REMARK UNBOUND:                 0.000
REMARK SMILES CC1(C)[C@H]2CC[C@](C)(C2)[C@@H]1O
REMARK SMILES IDX 1 1 2 2 4 3 5 4 6 5 7 6 9 7 10 8 8 9 3 10 11 11
REMARK H PARENT 11 12
REMARK Flexibility Score: inf
ROOT
ATOM      1  C   UNL     1     115.125 115.126 123.125  1.00  0.00     0.014 C 
ATOM      2  C   UNL     1     116.178 115.799 122.211  1.00  0.00    -0.006 C 
ATOM      3  C   UNL     1     116.131 115.292 120.727  1.00  0.00    -0.002 C 
ATOM      4  C   UNL     1     114.691 115.312 120.171  1.00  0.00     0.005 C 
ATOM      5  C   UNL     1     114.385 116.815 120.065  1.00  0.00     0.010 C 
ATOM      6  C   UNL     1     115.724 117.468 120.486  1.00  0.00    -0.006 C 
ATOM      7  C   UNL     1     116.724 116.461 119.958  1.00  0.00     0.013 C 
ATOM      8  C   UNL     1     115.878 117.327 122.031  1.00  0.00     0.126 C 
ATOM      9  C   UNL     1     115.897 118.890 119.936  1.00  0.00     0.014 C 
ATOM     10  C   UNL     1     117.573 115.501 122.824  1.00  0.00     0.014 C 
ENDROOT
BRANCH   8  11
ATOM     11  O   UNL     1     116.875 118.164 122.575  1.00  0.00    -0.392 OA
ATOM     12  H   UNL     1     117.242 118.738 121.855  1.00  0.00     0.211 HD
ENDBRANCH   8  11
TORSDOF 1
ENDMDL
MODEL 7
REMARK VINA RESULT:    -3.677      1.183      3.323
REMARK INTER + INTRA:          -3.785
REMARK INTER:                  -3.785
REMARK INTRA:                   0.000
REMARK UNBOUND:                 0.000
REMARK SMILES CC1(C)[C@H]2CC[C@](C)(C2)[C@@H]1O
REMARK SMILES IDX 1 1 2 2 4 3 5 4 6 5 7 6 9 7 10 8 8 9 3 10 11 11
REMARK H PARENT 11 12
REMARK Flexibility Score: inf
ROOT
ATOM      1  C   UNL     1     115.964 114.439 119.859  1.00  0.00     0.014 C 
ATOM      2  C   UNL     1     117.180 115.347 120.166  1.00  0.00    -0.006 C 
ATOM      3  C   UNL     1     117.012 116.814 119.636  1.00  0.00    -0.002 C 
ATOM      4  C   UNL     1     115.648 117.409 120.044  1.00  0.00     0.005 C 
ATOM      5  C   UNL     1     115.787 117.572 121.567  1.00  0.00     0.010 C 
ATOM      6  C   UNL     1     117.250 117.138 121.826  1.00  0.00    -0.006 C 
ATOM      7  C   UNL     1     117.927 117.606 120.555  1.00  0.00     0.013 C 
ATOM      8  C   UNL     1     117.333 115.585 121.708  1.00  0.00     0.126 C 
ATOM      9  C   UNL     1     117.832 117.731 123.116  1.00  0.00     0.014 C 
ATOM     10  C   UNL     1     118.420 114.688 119.507  1.00  0.00     0.014 C 
ENDROOT
BRANCH   8  11
ATOM     11  O   UNL     1     118.519 115.044 122.246  1.00  0.00    -0.392 OA
ATOM     12  H   UNL     1     118.324 114.148 122.620  1.00  0.00     0.211 HD
ENDBRANCH   8  11
TORSDOF 1
ENDMDL
MODEL 8
REMARK VINA RESULT:    -3.271      2.083      3.476
REMARK INTER + INTRA:          -3.367
REMARK INTER:                  -3.367
REMARK INTRA:                   0.000
REMARK UNBOUND:                 0.000
REMARK SMILES CC1(C)[C@H]2CC[C@](C)(C2)[C@@H]1O
REMARK SMILES IDX 1 1 2 2 4 3 5 4 6 5 7 6 9 7 10 8 8 9 3 10 11 11
REMARK H PARENT 11 12
REMARK Flexibility Score: inf
ROOT
ATOM      1  C   UNL     1     114.376 116.961 119.559  1.00  0.00     0.014 C 
ATOM      2  C   UNL     1     115.343 116.264 120.547  1.00  0.00    -0.006 C 
ATOM      3  C   UNL     1     116.795 116.092 119.980  1.00  0.00    -0.002 C 
ATOM      4  C   UNL     1     117.328 117.413 119.385  1.00  0.00     0.005 C 
ATOM      5  C   UNL     1     117.511 118.299 120.628  1.00  0.00     0.010 C 
ATOM      6  C   UNL     1     117.149 117.342 121.788  1.00  0.00    -0.006 C 
ATOM      7  C   UNL     1     117.637 116.016 121.243  1.00  0.00     0.013 C 
ATOM      8  C   UNL     1     115.601 117.155 121.810  1.00  0.00     0.126 C 
ATOM      9  C   UNL     1     117.779 117.754 123.125  1.00  0.00     0.014 C 
ATOM     10  C   UNL     1     114.737 114.872 120.873  1.00  0.00     0.014 C 
ENDROOT
BRANCH   8  11
ATOM     11  O   UNL     1     115.121 116.585 123.008  1.00  0.00    -0.392 OA
ATOM     12  H   UNL     1     114.756 117.304 123.584  1.00  0.00     0.211 HD
ENDBRANCH   8  11
TORSDOF 1
ENDMDL
MODEL 9
REMARK VINA RESULT:    -2.783      2.032      2.755
REMARK INTER + INTRA:          -2.865
REMARK INTER:                  -2.865
REMARK INTRA:                   0.000
REMARK UNBOUND:                 0.000
REMARK SMILES CC1(C)[C@H]2CC[C@](C)(C2)[C@@H]1O
REMARK SMILES IDX 1 1 2 2 4 3 5 4 6 5 7 6 9 7 10 8 8 9 3 10 11 11
REMARK H PARENT 11 12
REMARK Flexibility Score: inf
ROOT
ATOM      1  C   UNL     1     116.670 118.772 119.588  1.00  0.00     0.014 C 
ATOM      2  C   UNL     1     116.074 117.851 120.681  1.00  0.00    -0.006 C 
ATOM      3  C   UNL     1     115.794 116.391 120.181  1.00  0.00    -0.002 C 
ATOM      4  C   UNL     1     117.017 115.804 119.444  1.00  0.00     0.005 C 
ATOM      5  C   UNL     1     118.045 115.626 120.573  1.00  0.00     0.010 C 
ATOM      6  C   UNL     1     117.248 116.045 121.832  1.00  0.00    -0.006 C 
ATOM      7  C   UNL     1     115.853 115.583 121.467  1.00  0.00     0.013 C 
ATOM      8  C   UNL     1     117.107 117.598 121.833  1.00  0.00     0.126 C 
ATOM      9  C   UNL     1     117.805 115.436 123.125  1.00  0.00     0.014 C 
ATOM     10  C   UNL     1     114.750 118.506 121.159  1.00  0.00     0.014 C 
ENDROOT
BRANCH   8  11
ATOM     11  O   UNL     1     116.703 118.124 123.078  1.00  0.00    -0.392 OA
ATOM     12  H   UNL     1     117.506 118.302 123.629  1.00  0.00     0.211 HD
ENDBRANCH   8  11
TORSDOF 1
ENDMDL
