MODEL 1
REMARK VINA RESULT:    -4.677      0.000      0.000
REMARK INTER + INTRA:          -5.253
REMARK INTER:                  -5.087
REMARK INTRA:                  -0.166
REMARK UNBOUND:                -0.166
REMARK SMILES C=C(C)[C@H]1CC[C@@H](C)C[C@@H]1O
REMARK SMILES IDX 8 1 7 2 6 3 5 4 4 5 10 6 9 7 11 8 2 10 1 11 3 12
REMARK H PARENT 11 9
REMARK Flexibility Score: inf
ROOT
ATOM      1  C   UNL     1     113.286 116.054 131.100  1.00  0.00     0.008 C 
ATOM      2  C   UNL     1     112.503 116.094 129.783  1.00  0.00    -0.012 C 
ATOM      3  C   UNL     1     112.660 117.460 129.093  1.00  0.00     0.004 C 
ATOM      4  C   UNL     1     111.993 117.476 127.703  1.00  0.00     0.011 C 
ATOM      5  C   UNL     1     110.769 116.528 127.594  1.00  0.00     0.043 C 
ATOM      6  C   UNL     1     110.058 116.363 128.956  1.00  0.00     0.121 C 
ATOM      7  C   UNL     1     111.009 115.753 130.017  1.00  0.00     0.035 C 
ENDROOT
BRANCH   6   8
ATOM      8  O   UNL     1     108.929 115.540 128.805  1.00  0.00    -0.392 OA
ATOM      9  H   UNL     1     109.157 114.867 128.110  1.00  0.00     0.210 HD
ENDBRANCH   6   8
BRANCH   5  10
ATOM     10  C   UNL     1     109.812 116.986 126.498  1.00  0.00    -0.075 C 
ATOM     11  C   UNL     1     109.685 116.296 125.352  1.00  0.00     0.008 C 
ATOM     12  C   UNL     1     108.994 118.238 126.681  1.00  0.00     0.039 C 
ENDBRANCH   5  10
TORSDOF 2
ENDMDL
MODEL 2
REMARK VINA RESULT:    -4.556      1.823      4.875
REMARK INTER + INTRA:          -5.121
REMARK INTER:                  -4.945
REMARK INTRA:                  -0.176
REMARK UNBOUND:                -0.166
REMARK SMILES C=C(C)[C@H]1CC[C@@H](C)C[C@@H]1O
REMARK SMILES IDX 8 1 7 2 6 3 5 4 4 5 10 6 9 7 11 8 2 10 1 11 3 12
REMARK H PARENT 11 9
REMARK Flexibility Score: inf
ROOT
ATOM      1  C   UNL     1     109.417 117.724 122.652  1.00  0.00     0.008 C 
ATOM      2  C   UNL     1     109.903 117.527 124.092  1.00  0.00    -0.012 C 
ATOM      3  C   UNL     1     109.668 116.080 124.557  1.00  0.00     0.004 C 
ATOM      4  C   UNL     1     110.273 115.824 125.952  1.00  0.00     0.011 C 
ATOM      5  C   UNL     1     110.297 117.086 126.855  1.00  0.00     0.043 C 
ATOM      6  C   UNL     1     109.136 118.048 126.517  1.00  0.00     0.121 C 
ATOM      7  C   UNL     1     109.224 118.540 125.049  1.00  0.00     0.035 C 
ENDROOT
BRANCH   6   8
ATOM      8  O   UNL     1     109.163 119.150 127.387  1.00  0.00    -0.392 OA
ATOM      9  H   UNL     1     109.975 119.675 127.158  1.00  0.00     0.210 HD
ENDBRANCH   6   8
BRANCH   5  10
ATOM     10  C   UNL     1     110.316 116.706 128.333  1.00  0.00    -0.075 C 
ATOM     11  C   UNL     1     109.387 115.885 128.852  1.00  0.00     0.008 C 
ATOM     12  C   UNL     1     111.380 117.260 129.245  1.00  0.00     0.039 C 
ENDBRANCH   5  10
TORSDOF 2
ENDMDL
MODEL 3
REMARK VINA RESULT:    -4.535      2.036      5.025
REMARK INTER + INTRA:          -5.098
REMARK INTER:                  -4.915
REMARK INTRA:                  -0.183
REMARK UNBOUND:                -0.166
REMARK SMILES C=C(C)[C@H]1CC[C@@H](C)C[C@@H]1O
REMARK SMILES IDX 8 1 7 2 6 3 5 4 4 5 10 6 9 7 11 8 2 10 1 11 3 12
REMARK H PARENT 11 9
REMARK Flexibility Score: inf
ROOT
ATOM      1  C   UNL     1     108.892 119.279 122.842  1.00  0.00     0.008 C 
ATOM      2  C   UNL     1     108.954 118.554 124.190  1.00  0.00    -0.012 C 
ATOM      3  C   UNL     1     109.852 119.314 125.181  1.00  0.00     0.004 C 
ATOM      4  C   UNL     1     109.819 118.676 126.585  1.00  0.00     0.011 C 
ATOM      5  C   UNL     1     109.569 117.145 126.562  1.00  0.00     0.043 C 
ATOM      6  C   UNL     1     110.119 116.500 125.269  1.00  0.00     0.121 C 
ATOM      7  C   UNL     1     109.432 117.090 124.011  1.00  0.00     0.035 C 
ENDROOT
BRANCH   6   8
ATOM      8  O   UNL     1     109.918 115.110 125.309  1.00  0.00    -0.392 OA
ATOM      9  H   UNL     1     109.114 114.922 124.757  1.00  0.00     0.210 HD
ENDBRANCH   6   8
BRANCH   5  10
ATOM     10  C   UNL     1     110.122 116.476 127.816  1.00  0.00    -0.075 C 
ATOM     11  C   UNL     1     109.306 115.899 128.714  1.00  0.00     0.008 C 
ATOM     12  C   UNL     1     111.606 116.462 128.076  1.00  0.00     0.039 C 
ENDBRANCH   5  10
TORSDOF 2
ENDMDL
MODEL 4
REMARK VINA RESULT:    -4.414     15.632     16.782
REMARK INTER + INTRA:          -4.967
REMARK INTER:                  -4.869
REMARK INTRA:                  -0.097
REMARK UNBOUND:                -0.166
REMARK SMILES C=C(C)[C@H]1CC[C@@H](C)C[C@@H]1O
REMARK SMILES IDX 8 1 7 2 6 3 5 4 4 5 10 6 9 7 11 8 2 10 1 11 3 12
REMARK H PARENT 11 9
REMARK Flexibility Score: inf
ROOT
ATOM      1  C   UNL     1     124.558 120.514 115.304  1.00  0.00     0.008 C 
ATOM      2  C   UNL     1     123.272 119.846 115.803  1.00  0.00    -0.012 C 
ATOM      3  C   UNL     1     123.586 118.536 116.545  1.00  0.00     0.004 C 
ATOM      4  C   UNL     1     122.319 117.919 117.172  1.00  0.00     0.011 C 
ATOM      5  C   UNL     1     121.021 118.240 116.384  1.00  0.00     0.043 C 
ATOM      6  C   UNL     1     121.305 118.429 114.877  1.00  0.00     0.121 C 
ATOM      7  C   UNL     1     122.285 119.605 114.633  1.00  0.00     0.035 C 
ENDROOT
BRANCH   6   8
ATOM      8  O   UNL     1     120.100 118.667 114.193  1.00  0.00    -0.392 OA
ATOM      9  H   UNL     1     120.178 118.215 113.312  1.00  0.00     0.210 HD
ENDBRANCH   6   8
BRANCH   5  10
ATOM     10  C   UNL     1     119.947 117.186 116.638  1.00  0.00    -0.075 C 
ATOM     11  C   UNL     1     118.949 117.407 117.511  1.00  0.00     0.008 C 
ATOM     12  C   UNL     1     119.995 115.865 115.915  1.00  0.00     0.039 C 
ENDBRANCH   5  10
TORSDOF 2
ENDMDL
MODEL 5
REMARK VINA RESULT:    -4.231      1.935      4.547
REMARK INTER + INTRA:          -4.767
REMARK INTER:                  -4.588
REMARK INTRA:                  -0.179
REMARK UNBOUND:                -0.166
REMARK SMILES C=C(C)[C@H]1CC[C@@H](C)C[C@@H]1O
REMARK SMILES IDX 8 1 7 2 6 3 5 4 4 5 10 6 9 7 11 8 2 10 1 11 3 12
REMARK H PARENT 11 9
REMARK Flexibility Score: inf
ROOT
ATOM      1  C   UNL     1     110.285 118.672 124.614  1.00  0.00     0.008 C 
ATOM      2  C   UNL     1     110.554 117.873 125.894  1.00  0.00    -0.012 C 
ATOM      3  C   UNL     1     109.245 117.598 126.653  1.00  0.00     0.004 C 
ATOM      4  C   UNL     1     109.475 116.680 127.871  1.00  0.00     0.011 C 
ATOM      5  C   UNL     1     110.886 116.828 128.499  1.00  0.00     0.043 C 
ATOM      6  C   UNL     1     111.446 118.255 128.301  1.00  0.00     0.121 C 
ATOM      7  C   UNL     1     111.582 118.602 126.796  1.00  0.00     0.035 C 
ENDROOT
BRANCH   6   8
ATOM      8  O   UNL     1     112.701 118.363 128.926  1.00  0.00    -0.392 OA
ATOM      9  H   UNL     1     113.321 117.773 128.423  1.00  0.00     0.210 HD
ENDBRANCH   6   8
BRANCH   5  10
ATOM     10  C   UNL     1     110.883 116.411 129.966  1.00  0.00    -0.075 C 
ATOM     11  C   UNL     1     110.027 116.960 130.844  1.00  0.00     0.008 C 
ATOM     12  C   UNL     1     111.858 115.373 130.460  1.00  0.00     0.039 C 
ENDBRANCH   5  10
TORSDOF 2
ENDMDL
MODEL 6
REMARK VINA RESULT:    -4.212      1.878      2.638
REMARK INTER + INTRA:          -4.747
REMARK INTER:                  -4.565
REMARK INTRA:                  -0.182
REMARK UNBOUND:                -0.166
REMARK SMILES C=C(C)[C@H]1CC[C@@H](C)C[C@@H]1O
REMARK SMILES IDX 8 1 7 2 6 3 5 4 4 5 10 6 9 7 11 8 2 10 1 11 3 12
REMARK H PARENT 11 9
REMARK Flexibility Score: inf
ROOT
ATOM      1  C   UNL     1     111.458 115.822 130.781  1.00  0.00     0.008 C 
ATOM      2  C   UNL     1     111.055 116.494 129.464  1.00  0.00    -0.012 C 
ATOM      3  C   UNL     1     109.712 115.944 128.955  1.00  0.00     0.004 C 
ATOM      4  C   UNL     1     109.222 116.702 127.705  1.00  0.00     0.011 C 
ATOM      5  C   UNL     1     110.376 117.259 126.829  1.00  0.00     0.043 C 
ATOM      6  C   UNL     1     111.644 116.382 126.938  1.00  0.00     0.121 C 
ATOM      7  C   UNL     1     112.167 116.329 128.396  1.00  0.00     0.035 C 
ENDROOT
BRANCH   6   8
ATOM      8  O   UNL     1     112.646 116.889 126.094  1.00  0.00    -0.392 OA
ATOM      9  H   UNL     1     112.498 116.484 125.199  1.00  0.00     0.210 HD
ENDBRANCH   6   8
BRANCH   5  10
ATOM     10  C   UNL     1     109.930 117.446 125.382  1.00  0.00    -0.075 C 
ATOM     11  C   UNL     1     109.835 118.670 124.836  1.00  0.00     0.008 C 
ATOM     12  C   UNL     1     109.575 116.249 124.538  1.00  0.00     0.039 C 
ENDBRANCH   5  10
TORSDOF 2
ENDMDL
MODEL 7
REMARK VINA RESULT:    -4.174     15.272     16.412
REMARK INTER + INTRA:          -4.706
REMARK INTER:                  -4.522
REMARK INTRA:                  -0.184
REMARK UNBOUND:                -0.166
REMARK SMILES C=C(C)[C@H]1CC[C@@H](C)C[C@@H]1O
REMARK SMILES IDX 8 1 7 2 6 3 5 4 4 5 10 6 9 7 11 8 2 10 1 11 3 12
REMARK H PARENT 11 9
REMARK Flexibility Score: inf
ROOT
ATOM      1  C   UNL     1     118.564 117.436 118.362  1.00  0.00     0.008 C 
ATOM      2  C   UNL     1     119.709 118.076 117.568  1.00  0.00    -0.012 C 
ATOM      3  C   UNL     1     119.802 117.471 116.157  1.00  0.00     0.004 C 
ATOM      4  C   UNL     1     120.858 118.194 115.296  1.00  0.00     0.011 C 
ATOM      5  C   UNL     1     122.033 118.780 116.123  1.00  0.00     0.043 C 
ATOM      6  C   UNL     1     122.296 117.952 117.401  1.00  0.00     0.121 C 
ATOM      7  C   UNL     1     121.053 117.937 118.327  1.00  0.00     0.035 C 
ENDROOT
BRANCH   6   8
ATOM      8  O   UNL     1     123.396 118.484 118.094  1.00  0.00    -0.392 OA
ATOM      9  H   UNL     1     123.651 119.321 117.624  1.00  0.00     0.210 HD
ENDBRANCH   6   8
BRANCH   5  10
ATOM     10  C   UNL     1     123.287 118.932 115.268  1.00  0.00    -0.075 C 
ATOM     11  C   UNL     1     123.824 117.879 114.629  1.00  0.00     0.008 C 
ATOM     12  C   UNL     1     123.956 120.275 115.135  1.00  0.00     0.039 C 
ENDBRANCH   5  10
TORSDOF 2
ENDMDL
MODEL 8
REMARK VINA RESULT:    -4.105      2.888      4.063
REMARK INTER + INTRA:          -4.631
REMARK INTER:                  -4.459
REMARK INTRA:                  -0.172
REMARK UNBOUND:                -0.166
REMARK SMILES C=C(C)[C@H]1CC[C@@H](C)C[C@@H]1O
REMARK SMILES IDX 8 1 7 2 6 3 5 4 4 5 10 6 9 7 11 8 2 10 1 11 3 12
REMARK H PARENT 11 9
REMARK Flexibility Score: inf
ROOT
ATOM      1  C   UNL     1     109.458 115.879 128.670  1.00  0.00     0.008 C 
ATOM      2  C   UNL     1     110.215 117.017 127.978  1.00  0.00    -0.012 C 
ATOM      3  C   UNL     1     111.097 117.780 128.982  1.00  0.00     0.004 C 
ATOM      4  C   UNL     1     111.970 118.841 128.283  1.00  0.00     0.011 C 
ATOM      5  C   UNL     1     111.321 119.427 127.001  1.00  0.00     0.043 C 
ATOM      6  C   UNL     1     109.779 119.417 127.091  1.00  0.00     0.121 C 
ATOM      7  C   UNL     1     109.235 117.975 127.254  1.00  0.00     0.035 C 
ENDROOT
BRANCH   6   8
ATOM      8  O   UNL     1     109.232 120.001 125.936  1.00  0.00    -0.392 OA
ATOM      9  H   UNL     1     109.989 120.172 125.317  1.00  0.00     0.210 HD
ENDBRANCH   6   8
BRANCH   5  10
ATOM     10  C   UNL     1     111.869 120.817 126.692  1.00  0.00    -0.075 C 
ATOM     11  C   UNL     1     111.860 121.790 127.619  1.00  0.00     0.008 C 
ATOM     12  C   UNL     1     112.425 121.127 125.326  1.00  0.00     0.039 C 
ENDBRANCH   5  10
TORSDOF 2
ENDMDL
MODEL 9
REMARK VINA RESULT:    -4.088      2.705      3.917
REMARK INTER + INTRA:          -4.612
REMARK INTER:                  -4.437
REMARK INTRA:                  -0.175
REMARK UNBOUND:                -0.166
REMARK SMILES C=C(C)[C@H]1CC[C@@H](C)C[C@@H]1O
REMARK SMILES IDX 8 1 7 2 6 3 5 4 4 5 10 6 9 7 11 8 2 10 1 11 3 12
REMARK H PARENT 11 9
REMARK Flexibility Score: inf
ROOT
ATOM      1  C   UNL     1     109.618 116.028 128.855  1.00  0.00     0.008 C 
ATOM      2  C   UNL     1     109.412 116.970 127.665  1.00  0.00    -0.012 C 
ATOM      3  C   UNL     1     109.925 116.330 126.363  1.00  0.00     0.004 C 
ATOM      4  C   UNL     1     109.604 117.203 125.134  1.00  0.00     0.011 C 
ATOM      5  C   UNL     1     109.552 118.722 125.451  1.00  0.00     0.043 C 
ATOM      6  C   UNL     1     110.491 119.088 126.622  1.00  0.00     0.121 C 
ATOM      7  C   UNL     1     110.090 118.340 127.920  1.00  0.00     0.035 C 
ENDROOT
BRANCH   6   8
ATOM      8  O   UNL     1     110.453 120.475 126.845  1.00  0.00    -0.392 OA
ATOM      9  H   UNL     1     110.779 120.907 126.012  1.00  0.00     0.210 HD
ENDBRANCH   6   8
BRANCH   5  10
ATOM     10  C   UNL     1     109.835 119.556 124.205  1.00  0.00    -0.075 C 
ATOM     11  C   UNL     1     110.940 119.353 123.469  1.00  0.00     0.008 C 
ATOM     12  C   UNL     1     108.875 120.638 123.784  1.00  0.00     0.039 C 
ENDBRANCH   5  10
TORSDOF 2
ENDMDL
