MODEL 1
REMARK VINA RESULT:    -4.123      0.000      0.000
REMARK INTER + INTRA:          -5.297
REMARK INTER:                  -4.966
REMARK INTRA:                  -0.331
REMARK UNBOUND:                -0.331
REMARK SMILES O=c1c(O)c(-c2ccc(O)c(O)c2)oc2cc(O)cc(O)c12
REMARK SMILES IDX 5 1 3 2 2 3 1 4 22 5 20 6 19 7 17 8 16 9 15 10 14 11 6 12
REMARK SMILES IDX 7 13 8 14 9 15 13 16 11 17 10 18 12 20 4 22 21 24 18 26
REMARK H PARENT 10 19 12 21 4 23 21 25 18 27
REMARK Flexibility Score: inf
ROOT
ATOM      1  C   UNL     1      31.264  17.238  16.208  1.00  0.00     0.180 A 
ATOM      2  C   UNL     1      32.604  17.452  16.580  1.00  0.00     0.208 A 
ATOM      3  C   UNL     1      32.903  17.705  17.928  1.00  0.00     0.238 A 
ATOM      4  O   UNL     1      34.099  17.909  18.272  1.00  0.00    -0.285 OA
ATOM      5  C   UNL     1      31.863  17.720  18.881  1.00  0.00     0.111 A 
ATOM      6  C   UNL     1      32.079  17.963  20.259  1.00  0.00     0.134 A 
ATOM      7  C   UNL     1      30.992  17.953  21.146  1.00  0.00     0.093 A 
ATOM      8  C   UNL     1      29.698  17.703  20.684  1.00  0.00     0.123 A 
ATOM      9  C   UNL     1      29.478  17.463  19.323  1.00  0.00     0.094 A 
ATOM     10  C   UNL     1      30.548  17.471  18.424  1.00  0.00     0.146 A 
ATOM     11  O   UNL     1      30.311  17.245  17.137  1.00  0.00    -0.452 OA
ENDROOT
BRANCH   1  12
ATOM     12  C   UNL     1      30.867  16.984  14.804  1.00  0.00     0.025 A 
ATOM     13  C   UNL     1      30.732  15.662  14.354  1.00  0.00     0.016 A 
ATOM     14  C   UNL     1      30.340  15.398  13.039  1.00  0.00     0.051 A 
ATOM     15  C   UNL     1      30.062  16.453  12.161  1.00  0.00     0.157 A 
ATOM     16  C   UNL     1      30.567  18.041  13.925  1.00  0.00     0.062 A 
ATOM     17  C   UNL     1      30.171  17.777  12.606  1.00  0.00     0.158 A 
BRANCH  15  18
ATOM     18  O   UNL     1      29.671  16.196  10.847  1.00  0.00    -0.504 OA
ATOM     19  H   UNL     1      30.251  16.462  10.060  1.00  0.00     0.293 HD
ENDBRANCH  15  18
BRANCH  17  20
ATOM     20  O   UNL     1      29.880  18.825  11.735  1.00  0.00    -0.504 OA
ATOM     21  H   UNL     1      28.928  19.037  11.461  1.00  0.00     0.293 HD
ENDBRANCH  17  20
ENDBRANCH   1  12
BRANCH   2  22
ATOM     22  O   UNL     1      33.622  17.382  15.625  1.00  0.00    -0.502 OA
ATOM     23  H   UNL     1      34.419  18.007  15.635  1.00  0.00     0.293 HD
ENDBRANCH   2  22
BRANCH   6  24
ATOM     24  O   UNL     1      33.360  18.215  20.752  1.00  0.00    -0.507 OA
ATOM     25  H   UNL     1      34.191  17.941  20.242  1.00  0.00     0.293 HD
ENDBRANCH   6  24
BRANCH   8  26
ATOM     26  O   UNL     1      28.636  17.698  21.586  1.00  0.00    -0.508 OA
ATOM     27  H   UNL     1      27.779  18.204  21.398  1.00  0.00     0.293 HD
ENDBRANCH   8  26
TORSDOF 6
ENDMDL
MODEL 2
REMARK VINA RESULT:    -1.330      1.683      7.245
REMARK INTER + INTRA:          -1.933
REMARK INTER:                  -1.627
REMARK INTRA:                  -0.306
REMARK UNBOUND:                -0.331
REMARK SMILES O=c1c(O)c(-c2ccc(O)c(O)c2)oc2cc(O)cc(O)c12
REMARK SMILES IDX 5 1 3 2 2 3 1 4 22 5 20 6 19 7 17 8 16 9 15 10 14 11 6 12
REMARK SMILES IDX 7 13 8 14 9 15 13 16 11 17 10 18 12 20 4 22 21 24 18 26
REMARK H PARENT 10 19 12 21 4 23 21 25 18 27
REMARK Flexibility Score: inf
ROOT
ATOM      1  C   UNL     1      31.176  16.614  14.914  1.00  0.00     0.180 A 
ATOM      2  C   UNL     1      31.525  15.336  14.437  1.00  0.00     0.208 A 
ATOM      3  C   UNL     1      31.191  14.989  13.119  1.00  0.00     0.238 A 
ATOM      4  O   UNL     1      31.489  13.843  12.683  1.00  0.00    -0.285 OA
ATOM      5  C   UNL     1      30.533  15.928  12.296  1.00  0.00     0.111 A 
ATOM      6  C   UNL     1      30.165  15.658  10.955  1.00  0.00     0.134 A 
ATOM      7  C   UNL     1      29.522  16.649  10.199  1.00  0.00     0.093 A 
ATOM      8  C   UNL     1      29.241  17.899  10.753  1.00  0.00     0.123 A 
ATOM      9  C   UNL     1      29.602  18.171  12.078  1.00  0.00     0.094 A 
ATOM     10  C   UNL     1      30.242  17.197  12.848  1.00  0.00     0.146 A 
ATOM     11  O   UNL     1      30.570  17.479  14.104  1.00  0.00    -0.452 OA
ENDROOT
BRANCH   1  12
ATOM     12  C   UNL     1      31.476  17.047  16.297  1.00  0.00     0.025 A 
ATOM     13  C   UNL     1      32.747  17.562  16.598  1.00  0.00     0.016 A 
ATOM     14  C   UNL     1      33.047  17.995  17.892  1.00  0.00     0.051 A 
ATOM     15  C   UNL     1      32.076  17.935  18.899  1.00  0.00     0.157 A 
ATOM     16  C   UNL     1      30.498  17.007  17.307  1.00  0.00     0.062 A 
ATOM     17  C   UNL     1      30.797  17.444  18.605  1.00  0.00     0.158 A 
BRANCH  15  18
ATOM     18  O   UNL     1      32.371  18.364  20.192  1.00  0.00    -0.504 OA
ATOM     19  H   UNL     1      32.728  19.295  20.373  1.00  0.00     0.293 HD
ENDBRANCH  15  18
BRANCH  17  20
ATOM     20  O   UNL     1      29.828  17.398  19.606  1.00  0.00    -0.504 OA
ATOM     21  H   UNL     1      28.963  17.919  19.529  1.00  0.00     0.293 HD
ENDBRANCH  17  20
ENDBRANCH   1  12
BRANCH   2  22
ATOM     22  O   UNL     1      32.220  14.442  15.256  1.00  0.00    -0.502 OA
ATOM     23  H   UNL     1      32.689  13.622  14.889  1.00  0.00     0.293 HD
ENDBRANCH   2  22
BRANCH   6  24
ATOM     24  O   UNL     1      30.433  14.419  10.372  1.00  0.00    -0.507 OA
ATOM     25  H   UNL     1      29.727  13.912   9.852  1.00  0.00     0.293 HD
ENDBRANCH   6  24
BRANCH   8  26
ATOM     26  O   UNL     1      28.602  18.866   9.980  1.00  0.00    -0.508 OA
ATOM     27  H   UNL     1      29.127  19.525   9.416  1.00  0.00     0.293 HD
ENDBRANCH   8  26
TORSDOF 6
ENDMDL
