MODEL 1
REMARK VINA RESULT:    -5.419      0.000      0.000
REMARK INTER + INTRA:          -5.894
REMARK INTER:                  -5.894
REMARK INTRA:                   0.000
REMARK UNBOUND:                 0.000
REMARK SMILES Cc1cc(O)c2c(c1)C(=O)c1cc(O)cc(O)c1C2=O
REMARK SMILES IDX 1 1 2 2 8 3 7 4 6 5 4 6 3 7 19 8 20 9 18 10 11 11 9 12 10 13
REMARK SMILES IDX 12 14 13 15 15 16 16 17 5 18 17 20 14 22
REMARK H PARENT 5 19 17 21 14 23
REMARK Flexibility Score: inf
ROOT
ATOM      1  C   UNL     1      42.959 -78.858  39.716  1.00  0.00     0.044 C 
ATOM      2  C   UNL     1      41.491 -78.783  39.414  1.00  0.00    -0.047 A 
ATOM      3  C   UNL     1      41.046 -78.195  38.225  1.00  0.00     0.016 A 
ATOM      4  C   UNL     1      39.676 -78.144  37.921  1.00  0.00     0.038 A 
ATOM      5  C   UNL     1      38.735 -78.691  38.821  1.00  0.00     0.076 A 
ATOM      6  C   UNL     1      39.197 -79.360  39.983  1.00  0.00     0.127 A 
ATOM      7  C   UNL     1      40.565 -79.380  40.275  1.00  0.00     0.050 A 
ATOM      8  C   UNL     1      37.291 -78.487  38.537  1.00  0.00     0.201 C 
ATOM      9  O   UNL     1      36.469 -78.417  39.489  1.00  0.00    -0.288 OA
ATOM     10  C   UNL     1      36.847 -78.181  37.153  1.00  0.00     0.076 A 
ATOM     11  C   UNL     1      37.792 -77.637  36.254  1.00  0.00     0.041 A 
ATOM     12  C   UNL     1      39.214 -77.526  36.655  1.00  0.00     0.194 C 
ATOM     13  O   UNL     1      40.035 -76.926  35.908  1.00  0.00    -0.289 OA
ATOM     14  C   UNL     1      37.379 -77.206  34.981  1.00  0.00     0.059 A 
ATOM     15  C   UNL     1      36.042 -77.327  34.591  1.00  0.00     0.120 A 
ATOM     16  C   UNL     1      35.116 -77.901  35.460  1.00  0.00     0.093 A 
ATOM     17  C   UNL     1      35.504 -78.355  36.724  1.00  0.00     0.131 A 
ENDROOT
BRANCH   6  18
ATOM     18  O   UNL     1      38.343 -80.046  40.849  1.00  0.00    -0.507 OA
ATOM     19  H   UNL     1      38.386 -79.966  41.855  1.00  0.00     0.293 HD
ENDBRANCH   6  18
BRANCH  17  20
ATOM     20  O   UNL     1      34.540 -79.002  37.501  1.00  0.00    -0.507 OA
ATOM     21  H   UNL     1      33.559 -79.030  37.265  1.00  0.00     0.293 HD
ENDBRANCH  17  20
BRANCH  15  22
ATOM     22  O   UNL     1      35.626 -76.890  33.334  1.00  0.00    -0.508 OA
ATOM     23  H   UNL     1      34.765 -76.370  33.212  1.00  0.00     0.293 HD
ENDBRANCH  15  22
TORSDOF 3
ENDMDL
MODEL 2
REMARK VINA RESULT:    -5.416      1.941      3.497
REMARK INTER + INTRA:          -5.891
REMARK INTER:                  -5.891
REMARK INTRA:                   0.000
REMARK UNBOUND:                 0.000
REMARK SMILES Cc1cc(O)c2c(c1)C(=O)c1cc(O)cc(O)c1C2=O
REMARK SMILES IDX 1 1 2 2 8 3 7 4 6 5 4 6 3 7 19 8 20 9 18 10 11 11 9 12 10 13
REMARK SMILES IDX 12 14 13 15 15 16 16 17 5 18 17 20 14 22
REMARK H PARENT 5 19 17 21 14 23
REMARK Flexibility Score: inf
ROOT
ATOM      1  C   UNL     1      39.203 -79.784  41.994  1.00  0.00     0.044 C 
ATOM      2  C   UNL     1      38.842 -79.219  40.651  1.00  0.00    -0.047 A 
ATOM      3  C   UNL     1      39.845 -78.867  39.742  1.00  0.00     0.016 A 
ATOM      4  C   UNL     1      39.517 -78.363  38.473  1.00  0.00     0.038 A 
ATOM      5  C   UNL     1      38.161 -78.208  38.107  1.00  0.00     0.076 A 
ATOM      6  C   UNL     1      37.149 -78.646  39.000  1.00  0.00     0.127 A 
ATOM      7  C   UNL     1      37.500 -79.125  40.266  1.00  0.00     0.050 A 
ATOM      8  C   UNL     1      37.854 -77.536  36.818  1.00  0.00     0.201 C 
ATOM      9  O   UNL     1      36.788 -76.875  36.694  1.00  0.00    -0.288 OA
ATOM     10  C   UNL     1      38.882 -77.486  35.748  1.00  0.00     0.076 A 
ATOM     11  C   UNL     1      40.238 -77.644  36.117  1.00  0.00     0.041 A 
ATOM     12  C   UNL     1      40.586 -78.000  37.512  1.00  0.00     0.194 C 
ATOM     13  O   UNL     1      41.794 -78.018  37.876  1.00  0.00    -0.289 OA
ATOM     14  C   UNL     1      41.249 -77.466  35.157  1.00  0.00     0.059 A 
ATOM     15  C   UNL     1      40.924 -77.149  33.835  1.00  0.00     0.120 A 
ATOM     16  C   UNL     1      39.587 -77.033  33.459  1.00  0.00     0.093 A 
ATOM     17  C   UNL     1      38.561 -77.224  34.390  1.00  0.00     0.131 A 
ENDROOT
BRANCH   6  18
ATOM     18  O   UNL     1      35.795 -78.656  38.659  1.00  0.00    -0.507 OA
ATOM     19  H   UNL     1      35.424 -79.146  37.858  1.00  0.00     0.293 HD
ENDBRANCH   6  18
BRANCH  17  20
ATOM     20  O   UNL     1      37.246 -77.183  33.919  1.00  0.00    -0.507 OA
ATOM     21  H   UNL     1      37.005 -77.176  32.938  1.00  0.00     0.293 HD
ENDBRANCH  17  20
BRANCH  15  22
ATOM     22  O   UNL     1      41.924 -76.960  32.883  1.00  0.00    -0.508 OA
ATOM     23  H   UNL     1      42.304 -76.041  32.688  1.00  0.00     0.293 HD
ENDBRANCH  15  22
TORSDOF 3
ENDMDL
MODEL 3
REMARK VINA RESULT:    -5.216     16.867     17.926
REMARK INTER + INTRA:          -5.674
REMARK INTER:                  -5.674
REMARK INTRA:                   0.000
REMARK UNBOUND:                 0.000
REMARK SMILES Cc1cc(O)c2c(c1)C(=O)c1cc(O)cc(O)c1C2=O
REMARK SMILES IDX 1 1 2 2 8 3 7 4 6 5 4 6 3 7 19 8 20 9 18 10 11 11 9 12 10 13
REMARK SMILES IDX 12 14 13 15 15 16 16 17 5 18 17 20 14 22
REMARK H PARENT 5 19 17 21 14 23
REMARK Flexibility Score: inf
ROOT
ATOM      1  C   UNL     1      40.173 -94.838  30.055  1.00  0.00     0.044 C 
ATOM      2  C   UNL     1      39.802 -94.964  31.504  1.00  0.00    -0.047 A 
ATOM      3  C   UNL     1      40.798 -95.100  32.477  1.00  0.00     0.016 A 
ATOM      4  C   UNL     1      40.462 -95.190  33.837  1.00  0.00     0.038 A 
ATOM      5  C   UNL     1      39.106 -95.143  34.232  1.00  0.00     0.076 A 
ATOM      6  C   UNL     1      38.107 -94.920  33.250  1.00  0.00     0.127 A 
ATOM      7  C   UNL     1      38.464 -94.854  31.899  1.00  0.00     0.050 A 
ATOM      8  C   UNL     1      38.781 -95.390  35.660  1.00  0.00     0.201 C 
ATOM      9  O   UNL     1      37.679 -95.915  35.971  1.00  0.00    -0.288 OA
ATOM     10  C   UNL     1      39.825 -95.193  36.700  1.00  0.00     0.076 A 
ATOM     11  C   UNL     1      41.180 -95.238  36.301  1.00  0.00     0.041 A 
ATOM     12  C   UNL     1      41.525 -95.327  34.862  1.00  0.00     0.194 C 
ATOM     13  O   UNL     1      42.724 -95.495  34.510  1.00  0.00    -0.289 OA
ATOM     14  C   UNL     1      42.196 -95.194  37.271  1.00  0.00     0.059 A 
ATOM     15  C   UNL     1      41.877 -95.090  38.628  1.00  0.00     0.120 A 
ATOM     16  C   UNL     1      40.542 -95.005  39.021  1.00  0.00     0.093 A 
ATOM     17  C   UNL     1      39.513 -95.026  38.074  1.00  0.00     0.131 A 
ENDROOT
BRANCH   6  18
ATOM     18  O   UNL     1      36.763 -94.723  33.571  1.00  0.00    -0.507 OA
ATOM     19  H   UNL     1      36.102 -95.476  33.697  1.00  0.00     0.293 HD
ENDBRANCH   6  18
BRANCH  17  20
ATOM     20  O   UNL     1      38.207 -94.843  38.537  1.00  0.00    -0.507 OA
ATOM     21  H   UNL     1      37.689 -95.549  39.040  1.00  0.00     0.293 HD
ENDBRANCH  17  20
BRANCH  15  22
ATOM     22  O   UNL     1      42.880 -95.058  39.594  1.00  0.00    -0.508 OA
ATOM     23  H   UNL     1      43.050 -94.231  40.156  1.00  0.00     0.293 HD
ENDBRANCH  15  22
TORSDOF 3
ENDMDL
MODEL 4
REMARK VINA RESULT:    -5.178      1.450      6.166
REMARK INTER + INTRA:          -5.632
REMARK INTER:                  -5.632
REMARK INTRA:                   0.000
REMARK UNBOUND:                 0.000
REMARK SMILES Cc1cc(O)c2c(c1)C(=O)c1cc(O)cc(O)c1C2=O
REMARK SMILES IDX 1 1 2 2 8 3 7 4 6 5 4 6 3 7 19 8 20 9 18 10 11 11 9 12 10 13
REMARK SMILES IDX 12 14 13 15 15 16 16 17 5 18 17 20 14 22
REMARK H PARENT 5 19 17 21 14 23
REMARK Flexibility Score: inf
ROOT
ATOM      1  C   UNL     1      34.947 -77.175  33.739  1.00  0.00     0.044 C 
ATOM      2  C   UNL     1      36.151 -77.311  34.625  1.00  0.00    -0.047 A 
ATOM      3  C   UNL     1      36.004 -77.713  35.957  1.00  0.00     0.016 A 
ATOM      4  C   UNL     1      37.127 -77.870  36.786  1.00  0.00     0.038 A 
ATOM      5  C   UNL     1      38.420 -77.621  36.273  1.00  0.00     0.076 A 
ATOM      6  C   UNL     1      38.569 -77.297  34.901  1.00  0.00     0.127 A 
ATOM      7  C   UNL     1      37.435 -77.126  34.100  1.00  0.00     0.050 A 
ATOM      8  C   UNL     1      39.567 -77.653  37.216  1.00  0.00     0.201 C 
ATOM      9  O   UNL     1      40.574 -76.927  37.003  1.00  0.00    -0.288 OA
ATOM     10  C   UNL     1      39.448 -78.393  38.499  1.00  0.00     0.076 A 
ATOM     11  C   UNL     1      38.153 -78.643  39.008  1.00  0.00     0.041 A 
ATOM     12  C   UNL     1      36.962 -78.304  38.194  1.00  0.00     0.194 C 
ATOM     13  O   UNL     1      35.807 -78.407  38.692  1.00  0.00    -0.289 OA
ATOM     14  C   UNL     1      38.001 -79.217  40.282  1.00  0.00     0.059 A 
ATOM     15  C   UNL     1      39.121 -79.556  41.045  1.00  0.00     0.120 A 
ATOM     16  C   UNL     1      40.400 -79.349  40.529  1.00  0.00     0.093 A 
ATOM     17  C   UNL     1      40.578 -78.798  39.256  1.00  0.00     0.131 A 
ENDROOT
BRANCH   6  18
ATOM     18  O   UNL     1      39.817 -77.172  34.286  1.00  0.00    -0.507 OA
ATOM     19  H   UNL     1      39.968 -76.660  33.428  1.00  0.00     0.293 HD
ENDBRANCH   6  18
BRANCH  17  20
ATOM     20  O   UNL     1      41.886 -78.706  38.771  1.00  0.00    -0.507 OA
ATOM     21  H   UNL     1      42.650 -78.308  39.298  1.00  0.00     0.293 HD
ENDBRANCH  17  20
BRANCH  15  22
ATOM     22  O   UNL     1      38.975 -80.114  42.313  1.00  0.00    -0.508 OA
ATOM     23  H   UNL     1      39.042 -81.115  42.463  1.00  0.00     0.293 HD
ENDBRANCH  15  22
TORSDOF 3
ENDMDL
MODEL 5
REMARK VINA RESULT:    -5.022      3.358      5.711
REMARK INTER + INTRA:          -5.462
REMARK INTER:                  -5.462
REMARK INTRA:                   0.000
REMARK UNBOUND:                 0.000
REMARK SMILES Cc1cc(O)c2c(c1)C(=O)c1cc(O)cc(O)c1C2=O
REMARK SMILES IDX 1 1 2 2 8 3 7 4 6 5 4 6 3 7 19 8 20 9 18 10 11 11 9 12 10 13
REMARK SMILES IDX 12 14 13 15 15 16 16 17 5 18 17 20 14 22
REMARK H PARENT 5 19 17 21 14 23
REMARK Flexibility Score: inf
ROOT
ATOM      1  C   UNL     1      39.519 -76.876  38.346  1.00  0.00     0.044 C 
ATOM      2  C   UNL     1      39.697 -77.049  36.866  1.00  0.00    -0.047 A 
ATOM      3  C   UNL     1      38.582 -77.089  36.022  1.00  0.00     0.016 A 
ATOM      4  C   UNL     1      38.740 -77.223  34.633  1.00  0.00     0.038 A 
ATOM      5  C   UNL     1      40.036 -77.318  34.078  1.00  0.00     0.076 A 
ATOM      6  C   UNL     1      41.164 -77.191  34.929  1.00  0.00     0.127 A 
ATOM      7  C   UNL     1      40.981 -77.079  36.311  1.00  0.00     0.050 A 
ATOM      8  C   UNL     1      40.159 -77.606  32.626  1.00  0.00     0.201 C 
ATOM      9  O   UNL     1      41.157 -78.244  32.196  1.00  0.00    -0.288 OA
ATOM     10  C   UNL     1      39.022 -77.311  31.715  1.00  0.00     0.076 A 
ATOM     11  C   UNL     1      37.728 -77.214  32.274  1.00  0.00     0.041 A 
ATOM     12  C   UNL     1      37.553 -77.257  33.745  1.00  0.00     0.194 C 
ATOM     13  O   UNL     1      36.394 -77.298  34.242  1.00  0.00    -0.289 OA
ATOM     14  C   UNL     1      36.611 -77.073  31.432  1.00  0.00     0.059 A 
ATOM     15  C   UNL     1      36.773 -77.012  30.045  1.00  0.00     0.120 A 
ATOM     16  C   UNL     1      38.052 -77.067  29.493  1.00  0.00     0.093 A 
ATOM     17  C   UNL     1      39.180 -77.187  30.310  1.00  0.00     0.131 A 
ENDROOT
BRANCH   6  18
ATOM     18  O   UNL     1      42.472 -77.135  34.445  1.00  0.00    -0.507 OA
ATOM     19  H   UNL     1      43.000 -77.950  34.165  1.00  0.00     0.293 HD
ENDBRANCH   6  18
BRANCH  17  20
ATOM     20  O   UNL     1      40.433 -77.142  29.691  1.00  0.00    -0.507 OA
ATOM     21  H   UNL     1      41.229 -77.680  30.003  1.00  0.00     0.293 HD
ENDBRANCH  17  20
BRANCH  15  22
ATOM     22  O   UNL     1      35.668 -76.884  29.205  1.00  0.00    -0.508 OA
ATOM     23  H   UNL     1      35.603 -77.396  28.333  1.00  0.00     0.293 HD
ENDBRANCH  15  22
TORSDOF 3
ENDMDL
MODEL 6
REMARK VINA RESULT:    -4.895     18.036     19.159
REMARK INTER + INTRA:          -5.325
REMARK INTER:                  -5.325
REMARK INTRA:                   0.000
REMARK UNBOUND:                 0.000
REMARK SMILES Cc1cc(O)c2c(c1)C(=O)c1cc(O)cc(O)c1C2=O
REMARK SMILES IDX 1 1 2 2 8 3 7 4 6 5 4 6 3 7 19 8 20 9 18 10 11 11 9 12 10 13
REMARK SMILES IDX 12 14 13 15 15 16 16 17 5 18 17 20 14 22
REMARK H PARENT 5 19 17 21 14 23
REMARK Flexibility Score: inf
ROOT
ATOM      1  C   UNL     1      34.445 -95.543  29.354  1.00  0.00     0.044 C 
ATOM      2  C   UNL     1      35.909 -95.559  29.687  1.00  0.00    -0.047 A 
ATOM      3  C   UNL     1      36.352 -95.115  30.937  1.00  0.00     0.016 A 
ATOM      4  C   UNL     1      37.717 -95.152  31.268  1.00  0.00     0.038 A 
ATOM      5  C   UNL     1      38.654 -95.643  30.331  1.00  0.00     0.076 A 
ATOM      6  C   UNL     1      38.190 -96.171  29.100  1.00  0.00     0.127 A 
ATOM      7  C   UNL     1      36.829 -96.103  28.784  1.00  0.00     0.050 A 
ATOM      8  C   UNL     1      40.099 -95.530  30.659  1.00  0.00     0.201 C 
ATOM      9  O   UNL     1      40.942 -95.396  29.733  1.00  0.00    -0.288 OA
ATOM     10  C   UNL     1      40.526 -95.385  32.074  1.00  0.00     0.076 A 
ATOM     11  C   UNL     1      39.585 -94.897  33.009  1.00  0.00     0.041 A 
ATOM     12  C   UNL     1      38.177 -94.686  32.598  1.00  0.00     0.194 C 
ATOM     13  O   UNL     1      37.364 -94.133  33.389  1.00  0.00    -0.289 OA
ATOM     14  C   UNL     1      39.988 -94.616  34.326  1.00  0.00     0.059 A 
ATOM     15  C   UNL     1      41.311 -94.831  34.723  1.00  0.00     0.120 A 
ATOM     16  C   UNL     1      42.231 -95.351  33.815  1.00  0.00     0.093 A 
ATOM     17  C   UNL     1      41.851 -95.657  32.505  1.00  0.00     0.131 A 
ENDROOT
BRANCH   6  18
ATOM     18  O   UNL     1      39.034 -96.799  28.181  1.00  0.00    -0.507 OA
ATOM     19  H   UNL     1      38.930 -96.716  27.180  1.00  0.00     0.293 HD
ENDBRANCH   6  18
BRANCH  17  20
ATOM     20  O   UNL     1      42.805 -96.261  31.681  1.00  0.00    -0.507 OA
ATOM     21  H   UNL     1      43.636 -96.717  32.030  1.00  0.00     0.293 HD
ENDBRANCH  17  20
BRANCH  15  22
ATOM     22  O   UNL     1      41.717 -94.543  36.025  1.00  0.00    -0.508 OA
ATOM     23  H   UNL     1      42.439 -95.084  36.487  1.00  0.00     0.293 HD
ENDBRANCH  15  22
TORSDOF 3
ENDMDL
MODEL 7
REMARK VINA RESULT:    -4.657      3.158      6.029
REMARK INTER + INTRA:          -5.065
REMARK INTER:                  -5.065
REMARK INTRA:                   0.000
REMARK UNBOUND:                 0.000
REMARK SMILES Cc1cc(O)c2c(c1)C(=O)c1cc(O)cc(O)c1C2=O
REMARK SMILES IDX 1 1 2 2 8 3 7 4 6 5 4 6 3 7 19 8 20 9 18 10 11 11 9 12 10 13
REMARK SMILES IDX 12 14 13 15 15 16 16 17 5 18 17 20 14 22
REMARK H PARENT 5 19 17 21 14 23
REMARK Flexibility Score: inf
ROOT
ATOM      1  C   UNL     1      30.763 -77.164  35.663  1.00  0.00     0.044 C 
ATOM      2  C   UNL     1      32.245 -77.348  35.816  1.00  0.00    -0.047 A 
ATOM      3  C   UNL     1      33.079 -77.305  34.694  1.00  0.00     0.016 A 
ATOM      4  C   UNL     1      34.470 -77.448  34.831  1.00  0.00     0.038 A 
ATOM      5  C   UNL     1      35.035 -77.638  36.112  1.00  0.00     0.076 A 
ATOM      6  C   UNL     1      34.193 -77.596  37.252  1.00  0.00     0.127 A 
ATOM      7  C   UNL     1      32.810 -77.473  37.090  1.00  0.00     0.050 A 
ATOM      8  C   UNL     1      36.489 -77.933  36.201  1.00  0.00     0.201 C 
ATOM      9  O   UNL     1      36.927 -78.642  37.146  1.00  0.00    -0.288 OA
ATOM     10  C   UNL     1      37.389 -77.553  35.082  1.00  0.00     0.076 A 
ATOM     11  C   UNL     1      36.820 -77.362  33.803  1.00  0.00     0.041 A 
ATOM     12  C   UNL     1      35.348 -77.394  33.637  1.00  0.00     0.194 C 
ATOM     13  O   UNL     1      34.842 -77.350  32.482  1.00  0.00    -0.289 OA
ATOM     14  C   UNL     1      37.653 -77.137  32.693  1.00  0.00     0.059 A 
ATOM     15  C   UNL     1      39.042 -77.088  32.848  1.00  0.00     0.120 A 
ATOM     16  C   UNL     1      39.604 -77.235  34.115  1.00  0.00     0.093 A 
ATOM     17  C   UNL     1      38.796 -77.440  35.238  1.00  0.00     0.131 A 
ENDROOT
BRANCH   6  18
ATOM     18  O   UNL     1      34.688 -77.636  38.558  1.00  0.00    -0.507 OA
ATOM     19  H   UNL     1      34.402 -78.321  39.243  1.00  0.00     0.293 HD
ENDBRANCH   6  18
BRANCH  17  20
ATOM     20  O   UNL     1      39.425 -77.487  36.485  1.00  0.00    -0.507 OA
ATOM     21  H   UNL     1      39.032 -77.951  37.291  1.00  0.00     0.293 HD
ENDBRANCH  17  20
BRANCH  15  22
ATOM     22  O   UNL     1      39.872 -76.877  31.749  1.00  0.00    -0.508 OA
ATOM     23  H   UNL     1      40.832 -76.573  31.860  1.00  0.00     0.293 HD
ENDBRANCH  15  22
TORSDOF 3
ENDMDL
MODEL 8
REMARK VINA RESULT:    -4.534     17.165     18.378
REMARK INTER + INTRA:          -4.931
REMARK INTER:                  -4.931
REMARK INTRA:                   0.000
REMARK UNBOUND:                 0.000
REMARK SMILES Cc1cc(O)c2c(c1)C(=O)c1cc(O)cc(O)c1C2=O
REMARK SMILES IDX 1 1 2 2 8 3 7 4 6 5 4 6 3 7 19 8 20 9 18 10 11 11 9 12 10 13
REMARK SMILES IDX 12 14 13 15 15 16 16 17 5 18 17 20 14 22
REMARK H PARENT 5 19 17 21 14 23
REMARK Flexibility Score: inf
ROOT
ATOM      1  C   UNL     1      38.950 -95.854  29.269  1.00  0.00     0.044 C 
ATOM      2  C   UNL     1      39.715 -95.707  30.552  1.00  0.00    -0.047 A 
ATOM      3  C   UNL     1      39.055 -95.330  31.727  1.00  0.00     0.016 A 
ATOM      4  C   UNL     1      39.757 -95.217  32.938  1.00  0.00     0.038 A 
ATOM      5  C   UNL     1      41.144 -95.486  32.974  1.00  0.00     0.076 A 
ATOM      6  C   UNL     1      41.790 -95.949  31.800  1.00  0.00     0.127 A 
ATOM      7  C   UNL     1      41.074 -96.034  30.601  1.00  0.00     0.050 A 
ATOM      8  C   UNL     1      41.879 -95.213  34.237  1.00  0.00     0.201 C 
ATOM      9  O   UNL     1      43.093 -94.879  34.195  1.00  0.00    -0.288 OA
ATOM     10  C   UNL     1      41.139 -95.151  35.523  1.00  0.00     0.076 A 
ATOM     11  C   UNL     1      39.751 -94.884  35.483  1.00  0.00     0.041 A 
ATOM     12  C   UNL     1      39.048 -94.825  34.180  1.00  0.00     0.194 C 
ATOM     13  O   UNL     1      37.840 -94.464  34.130  1.00  0.00    -0.289 OA
ATOM     14  C   UNL     1      39.043 -94.681  36.680  1.00  0.00     0.059 A 
ATOM     15  C   UNL     1      39.698 -94.755  37.912  1.00  0.00     0.120 A 
ATOM     16  C   UNL     1      41.058 -95.058  37.957  1.00  0.00     0.093 A 
ATOM     17  C   UNL     1      41.781 -95.284  36.782  1.00  0.00     0.131 A 
ENDROOT
BRANCH   6  18
ATOM     18  O   UNL     1      43.122 -96.367  31.786  1.00  0.00    -0.507 OA
ATOM     19  H   UNL     1      43.452 -97.164  31.260  1.00  0.00     0.293 HD
ENDBRANCH   6  18
BRANCH  17  20
ATOM     20  O   UNL     1      43.117 -95.673  36.912  1.00  0.00    -0.507 OA
ATOM     21  H   UNL     1      43.755 -95.266  37.581  1.00  0.00     0.293 HD
ENDBRANCH  17  20
BRANCH  15  22
ATOM     22  O   UNL     1      39.002 -94.543  39.101  1.00  0.00    -0.508 OA
ATOM     23  H   UNL     1      39.301 -94.965  39.973  1.00  0.00     0.293 HD
ENDBRANCH  15  22
TORSDOF 3
ENDMDL
