MODEL 1
REMARK VINA RESULT:    -3.774      0.000      0.000
REMARK INTER + INTRA:          -5.401
REMARK INTER:                  -5.097
REMARK INTRA:                  -0.304
REMARK UNBOUND:                -0.304
REMARK SMILES CCCCCCCC(=O)[O-]
REMARK SMILES IDX 5 1 6 2 7 3 8 4 9 5 10 6 4 7 3 8 2 9 1 10
REMARK H PARENT
REMARK Flexibility Score: inf
ROOT
ATOM      1  C   UNL     1      58.582  -2.670  81.734  1.00  0.00     0.000 C 
ENDROOT
BRANCH   1   2
ATOM      2  C   UNL     1      59.845  -3.536  81.876  1.00  0.00     0.006 C 
BRANCH   2   3
ATOM      3  C   UNL     1      59.552  -4.879  82.559  1.00  0.00     0.053 C 
BRANCH   3   4
ATOM      4  C   UNL     1      60.574  -5.916  82.205  1.00  0.00     0.041 C 
ATOM      5  O   UNL     1      61.368  -5.722  81.247  1.00  0.00    -0.550 OA
ATOM      6  O   UNL     1      60.674  -7.081  82.956  1.00  0.00    -0.550 OA
ENDBRANCH   3   4
ENDBRANCH   2   3
ENDBRANCH   1   2
BRANCH   1   7
ATOM      7  C   UNL     1      57.289  -3.462  81.988  1.00  0.00     0.000 C 
BRANCH   7   8
ATOM      8  C   UNL     1      56.230  -2.641  82.739  1.00  0.00    -0.000 C 
BRANCH   8   9
ATOM      9  C   UNL     1      56.828  -1.333  83.271  1.00  0.00    -0.003 C 
ATOM     10  C   UNL     1      55.802  -0.549  84.084  1.00  0.00     0.004 C 
ENDBRANCH   8   9
ENDBRANCH   7   8
ENDBRANCH   1   7
TORSDOF 6
ENDMDL
MODEL 2
REMARK VINA RESULT:    -3.751     12.640     13.581
REMARK INTER + INTRA:          -5.371
REMARK INTER:                  -5.054
REMARK INTRA:                  -0.317
REMARK UNBOUND:                -0.304
REMARK SMILES CCCCCCCC(=O)[O-]
REMARK SMILES IDX 5 1 6 2 7 3 8 4 9 5 10 6 4 7 3 8 2 9 1 10
REMARK H PARENT
REMARK Flexibility Score: inf
ROOT
ATOM      1  C   UNL     1      50.873  -1.303  72.499  1.00  0.00     0.000 C 
ENDROOT
BRANCH   1   2
ATOM      2  C   UNL     1      49.811  -2.211  71.857  1.00  0.00     0.006 C 
BRANCH   2   3
ATOM      3  C   UNL     1      50.229  -3.688  71.870  1.00  0.00     0.053 C 
BRANCH   3   4
ATOM      4  C   UNL     1      49.190  -4.553  72.515  1.00  0.00     0.041 C 
ATOM      5  O   UNL     1      49.533  -5.494  73.277  1.00  0.00    -0.550 OA
ATOM      6  O   UNL     1      47.840  -4.297  72.303  1.00  0.00    -0.550 OA
ENDBRANCH   3   4
ENDBRANCH   2   3
ENDBRANCH   1   2
BRANCH   1   7
ATOM      7  C   UNL     1      52.195  -2.039  72.773  1.00  0.00     0.000 C 
BRANCH   7   8
ATOM      8  C   UNL     1      53.372  -1.456  71.976  1.00  0.00    -0.000 C 
BRANCH   8   9
ATOM      9  C   UNL     1      52.996  -0.105  71.354  1.00  0.00    -0.003 C 
ATOM     10  C   UNL     1      54.221   0.591  70.768  1.00  0.00     0.004 C 
ENDBRANCH   8   9
ENDBRANCH   7   8
ENDBRANCH   1   7
TORSDOF 6
ENDMDL
MODEL 3
REMARK VINA RESULT:    -3.749     11.388     12.112
REMARK INTER + INTRA:          -5.368
REMARK INTER:                  -5.155
REMARK INTRA:                  -0.213
REMARK UNBOUND:                -0.304
REMARK SMILES CCCCCCCC(=O)[O-]
REMARK SMILES IDX 5 1 6 2 7 3 8 4 9 5 10 6 4 7 3 8 2 9 1 10
REMARK H PARENT
REMARK Flexibility Score: inf
ROOT
ATOM      1  C   UNL     1      52.324  -1.017  72.038  1.00  0.00     0.000 C 
ENDROOT
BRANCH   1   2
ATOM      2  C   UNL     1      52.663  -2.150  73.022  1.00  0.00     0.006 C 
BRANCH   2   3
ATOM      3  C   UNL     1      53.606  -3.191  72.403  1.00  0.00     0.053 C 
BRANCH   3   4
ATOM      4  C   UNL     1      54.100  -4.168  73.425  1.00  0.00     0.041 C 
ATOM      5  O   UNL     1      53.282  -4.796  74.148  1.00  0.00    -0.550 OA
ATOM      6  O   UNL     1      55.462  -4.413  73.555  1.00  0.00    -0.550 OA
ENDBRANCH   3   4
ENDBRANCH   2   3
ENDBRANCH   1   2
BRANCH   1   7
ATOM      7  C   UNL     1      50.886  -0.499  72.205  1.00  0.00     0.000 C 
BRANCH   7   8
ATOM      8  C   UNL     1      49.832  -1.585  71.942  1.00  0.00    -0.000 C 
BRANCH   8   9
ATOM      9  C   UNL     1      48.432  -0.970  71.821  1.00  0.00    -0.003 C 
ATOM     10  C   UNL     1      48.377   0.407  72.476  1.00  0.00     0.004 C 
ENDBRANCH   8   9
ENDBRANCH   7   8
ENDBRANCH   1   7
TORSDOF 6
ENDMDL
MODEL 4
REMARK VINA RESULT:    -3.724     12.374     13.192
REMARK INTER + INTRA:          -5.334
REMARK INTER:                  -5.028
REMARK INTRA:                  -0.306
REMARK UNBOUND:                -0.304
REMARK SMILES CCCCCCCC(=O)[O-]
REMARK SMILES IDX 5 1 6 2 7 3 8 4 9 5 10 6 4 7 3 8 2 9 1 10
REMARK H PARENT
REMARK Flexibility Score: inf
ROOT
ATOM      1  C   UNL     1      49.986  -2.405  72.058  1.00  0.00     0.000 C 
ENDROOT
BRANCH   1   2
ATOM      2  C   UNL     1      51.117  -1.398  72.330  1.00  0.00     0.006 C 
BRANCH   2   3
ATOM      3  C   UNL     1      52.360  -2.071  72.928  1.00  0.00     0.053 C 
BRANCH   3   4
ATOM      4  C   UNL     1      53.499  -2.097  71.957  1.00  0.00     0.041 C 
ATOM      5  O   UNL     1      53.809  -1.057  71.316  1.00  0.00    -0.550 OA
ATOM      6  O   UNL     1      54.243  -3.257  71.785  1.00  0.00    -0.550 OA
ENDBRANCH   3   4
ENDBRANCH   2   3
ENDBRANCH   1   2
BRANCH   1   7
ATOM      7  C   UNL     1      48.591  -1.812  72.314  1.00  0.00     0.000 C 
BRANCH   7   8
ATOM      8  C   UNL     1      48.424  -0.412  71.704  1.00  0.00    -0.000 C 
BRANCH   8   9
ATOM      9  C   UNL     1      47.959   0.595  72.764  1.00  0.00    -0.003 C 
ATOM     10  C   UNL     1      49.096   1.524  73.177  1.00  0.00     0.004 C 
ENDBRANCH   8   9
ENDBRANCH   7   8
ENDBRANCH   1   7
TORSDOF 6
ENDMDL
MODEL 5
REMARK VINA RESULT:    -3.719     12.378     13.370
REMARK INTER + INTRA:          -5.327
REMARK INTER:                  -4.976
REMARK INTRA:                  -0.351
REMARK UNBOUND:                -0.304
REMARK SMILES CCCCCCCC(=O)[O-]
REMARK SMILES IDX 5 1 6 2 7 3 8 4 9 5 10 6 4 7 3 8 2 9 1 10
REMARK H PARENT
REMARK Flexibility Score: inf
ROOT
ATOM      1  C   UNL     1      49.810  -0.151  72.121  1.00  0.00     0.000 C 
ENDROOT
BRANCH   1   2
ATOM      2  C   UNL     1      51.343  -0.148  72.009  1.00  0.00     0.006 C 
BRANCH   2   3
ATOM      3  C   UNL     1      51.963  -1.461  72.507  1.00  0.00     0.053 C 
BRANCH   3   4
ATOM      4  C   UNL     1      53.309  -1.706  71.898  1.00  0.00     0.041 C 
ATOM      5  O   UNL     1      53.864  -0.811  71.207  1.00  0.00    -0.550 OA
ATOM      6  O   UNL     1      53.967  -2.909  72.121  1.00  0.00    -0.550 OA
ENDBRANCH   3   4
ENDBRANCH   2   3
ENDBRANCH   1   2
BRANCH   1   7
ATOM      7  C   UNL     1      49.186  -1.486  71.683  1.00  0.00     0.000 C 
BRANCH   7   8
ATOM      8  C   UNL     1      48.361  -2.146  72.798  1.00  0.00    -0.000 C 
BRANCH   8   9
ATOM      9  C   UNL     1      48.400  -3.675  72.675  1.00  0.00    -0.003 C 
ATOM     10  C   UNL     1      49.671  -4.138  71.970  1.00  0.00     0.004 C 
ENDBRANCH   8   9
ENDBRANCH   7   8
ENDBRANCH   1   7
TORSDOF 6
ENDMDL
MODEL 6
REMARK VINA RESULT:    -3.703     12.579     13.452
REMARK INTER + INTRA:          -5.306
REMARK INTER:                  -4.881
REMARK INTRA:                  -0.425
REMARK UNBOUND:                -0.304
REMARK SMILES CCCCCCCC(=O)[O-]
REMARK SMILES IDX 5 1 6 2 7 3 8 4 9 5 10 6 4 7 3 8 2 9 1 10
REMARK H PARENT
REMARK Flexibility Score: inf
ROOT
ATOM      1  C   UNL     1      50.879  -2.885  72.292  1.00  0.00     0.000 C 
ENDROOT
BRANCH   1   2
ATOM      2  C   UNL     1      51.818  -1.819  72.881  1.00  0.00     0.006 C 
BRANCH   2   3
ATOM      3  C   UNL     1      53.072  -1.612  72.021  1.00  0.00     0.053 C 
BRANCH   3   4
ATOM      4  C   UNL     1      53.150  -0.217  71.480  1.00  0.00     0.041 C 
ATOM      5  O   UNL     1      54.198   0.183  70.908  1.00  0.00    -0.550 OA
ATOM      6  O   UNL     1      52.052   0.629  71.575  1.00  0.00    -0.550 OA
ENDBRANCH   3   4
ENDBRANCH   2   3
ENDBRANCH   1   2
BRANCH   1   7
ATOM      7  C   UNL     1      49.407  -2.442  72.292  1.00  0.00     0.000 C 
BRANCH   7   8
ATOM      8  C   UNL     1      49.183  -1.135  71.517  1.00  0.00    -0.000 C 
BRANCH   8   9
ATOM      9  C   UNL     1      48.221  -0.209  72.271  1.00  0.00    -0.003 C 
ATOM     10  C   UNL     1      48.690   0.022  73.705  1.00  0.00     0.004 C 
ENDBRANCH   8   9
ENDBRANCH   7   8
ENDBRANCH   1   7
TORSDOF 6
ENDMDL
MODEL 7
REMARK VINA RESULT:    -3.703      1.619      2.781
REMARK INTER + INTRA:          -5.305
REMARK INTER:                  -4.933
REMARK INTRA:                  -0.373
REMARK UNBOUND:                -0.304
REMARK SMILES CCCCCCCC(=O)[O-]
REMARK SMILES IDX 5 1 6 2 7 3 8 4 9 5 10 6 4 7 3 8 2 9 1 10
REMARK H PARENT
REMARK Flexibility Score: inf
ROOT
ATOM      1  C   UNL     1      58.796  -6.487  82.823  1.00  0.00     0.000 C 
ENDROOT
BRANCH   1   2
ATOM      2  C   UNL     1      60.132  -6.444  83.584  1.00  0.00     0.006 C 
BRANCH   2   3
ATOM      3  C   UNL     1      61.199  -7.332  82.931  1.00  0.00     0.053 C 
BRANCH   3   4
ATOM      4  C   UNL     1      61.408  -6.980  81.490  1.00  0.00     0.041 C 
ATOM      5  O   UNL     1      61.910  -5.869  81.176  1.00  0.00    -0.550 OA
ATOM      6  O   UNL     1      61.083  -7.894  80.495  1.00  0.00    -0.550 OA
ENDBRANCH   3   4
ENDBRANCH   2   3
ENDBRANCH   1   2
BRANCH   1   7
ATOM      7  C   UNL     1      58.238  -5.086  82.525  1.00  0.00     0.000 C 
BRANCH   7   8
ATOM      8  C   UNL     1      59.330  -4.006  82.515  1.00  0.00    -0.000 C 
BRANCH   8   9
ATOM      9  C   UNL     1      58.838  -2.736  81.809  1.00  0.00    -0.003 C 
ATOM     10  C   UNL     1      57.796  -2.006  82.652  1.00  0.00     0.004 C 
ENDBRANCH   8   9
ENDBRANCH   7   8
ENDBRANCH   1   7
TORSDOF 6
ENDMDL
MODEL 8
REMARK VINA RESULT:    -3.664      1.449      2.354
REMARK INTER + INTRA:          -5.253
REMARK INTER:                  -4.961
REMARK INTRA:                  -0.292
REMARK UNBOUND:                -0.304
REMARK SMILES CCCCCCCC(=O)[O-]
REMARK SMILES IDX 5 1 6 2 7 3 8 4 9 5 10 6 4 7 3 8 2 9 1 10
REMARK H PARENT
REMARK Flexibility Score: inf
ROOT
ATOM      1  C   UNL     1      58.731  -5.315  82.575  1.00  0.00     0.000 C 
ENDROOT
BRANCH   1   2
ATOM      2  C   UNL     1      59.379  -6.236  83.622  1.00  0.00     0.006 C 
BRANCH   2   3
ATOM      3  C   UNL     1      60.635  -6.934  83.081  1.00  0.00     0.053 C 
BRANCH   3   4
ATOM      4  C   UNL     1      60.342  -7.720  81.841  1.00  0.00     0.041 C 
ATOM      5  O   UNL     1      61.016  -7.526  80.794  1.00  0.00    -0.550 OA
ATOM      6  O   UNL     1      59.350  -8.692  81.849  1.00  0.00    -0.550 OA
ENDBRANCH   3   4
ENDBRANCH   2   3
ENDBRANCH   1   2
BRANCH   1   7
ATOM      7  C   UNL     1      59.425  -3.947  82.479  1.00  0.00     0.000 C 
BRANCH   7   8
ATOM      8  C   UNL     1      58.589  -2.913  81.709  1.00  0.00    -0.000 C 
BRANCH   8   9
ATOM      9  C   UNL     1      57.850  -1.979  82.675  1.00  0.00    -0.003 C 
ATOM     10  C   UNL     1      56.390  -2.395  82.834  1.00  0.00     0.004 C 
ENDBRANCH   8   9
ENDBRANCH   7   8
ENDBRANCH   1   7
TORSDOF 6
ENDMDL
MODEL 9
REMARK VINA RESULT:    -3.600     12.150     12.961
REMARK INTER + INTRA:          -5.167
REMARK INTER:                  -4.806
REMARK INTRA:                  -0.361
REMARK UNBOUND:                -0.304
REMARK SMILES CCCCCCCC(=O)[O-]
REMARK SMILES IDX 5 1 6 2 7 3 8 4 9 5 10 6 4 7 3 8 2 9 1 10
REMARK H PARENT
REMARK Flexibility Score: inf
ROOT
ATOM      1  C   UNL     1      50.116  -2.349  71.995  1.00  0.00     0.000 C 
ENDROOT
BRANCH   1   2
ATOM      2  C   UNL     1      51.185  -1.585  72.793  1.00  0.00     0.006 C 
BRANCH   2   3
ATOM      3  C   UNL     1      52.515  -1.487  72.033  1.00  0.00     0.053 C 
BRANCH   3   4
ATOM      4  C   UNL     1      53.484  -2.542  72.471  1.00  0.00     0.041 C 
ATOM      5  O   UNL     1      54.223  -3.113  71.626  1.00  0.00    -0.550 OA
ATOM      6  O   UNL     1      53.597  -2.870  73.816  1.00  0.00    -0.550 OA
ENDBRANCH   3   4
ENDBRANCH   2   3
ENDBRANCH   1   2
BRANCH   1   7
ATOM      7  C   UNL     1      48.691  -1.848  72.284  1.00  0.00     0.000 C 
BRANCH   7   8
ATOM      8  C   UNL     1      48.362  -0.544  71.541  1.00  0.00    -0.000 C 
BRANCH   8   9
ATOM      9  C   UNL     1      48.227   0.626  72.523  1.00  0.00    -0.003 C 
ATOM     10  C   UNL     1      47.887   0.131  73.926  1.00  0.00     0.004 C 
ENDBRANCH   8   9
ENDBRANCH   7   8
ENDBRANCH   1   7
TORSDOF 6
ENDMDL
