MODEL 1
REMARK VINA RESULT:    -3.324      0.000      0.000
REMARK INTER + INTRA:          -4.089
REMARK INTER:                  -4.004
REMARK INTRA:                  -0.084
REMARK UNBOUND:                -0.084
REMARK SMILES CC[C@H](C)[C@H]([NH3+])C(=O)[O-]
REMARK SMILES IDX 3 1 4 2 5 3 6 4 7 8 8 9 9 10 2 11 1 12
REMARK H PARENT 6 5 6 6 6 7
REMARK Flexibility Score: inf
ROOT
ATOM      1  C   UNL     1     147.025 137.609 152.574  1.00  0.00     0.050 C 
ATOM      2  C   UNL     1     146.528 136.466 153.479  1.00  0.00     0.014 C 
ENDROOT
BRANCH   1   3
ATOM      3  C   UNL     1     146.885 138.989 153.288  1.00  0.00     0.230 C 
BRANCH   3   4
ATOM      4  N   UNL     1     145.999 139.918 152.568  1.00  0.00    -0.350 N 
ATOM      5  H   UNL     1     146.467 140.271 151.703  1.00  0.00     0.345 HD
ATOM      6  H   UNL     1     145.725 140.729 153.168  1.00  0.00     0.345 HD
ATOM      7  H   UNL     1     145.130 139.414 152.272  1.00  0.00     0.345 HD
ENDBRANCH   3   4
BRANCH   3   8
ATOM      8  C   UNL     1     148.237 139.612 153.536  1.00  0.00     0.099 C 
ATOM      9  O   UNL     1     148.506 140.163 154.637  1.00  0.00    -0.544 OA
ATOM     10  O   UNL     1     149.187 139.620 152.521  1.00  0.00    -0.544 OA
ENDBRANCH   3   8
ENDBRANCH   1   3
BRANCH   1  11
ATOM     11  C   UNL     1     146.329 137.572 151.189  1.00  0.00     0.006 C 
ATOM     12  C   UNL     1     147.115 136.767 150.154  1.00  0.00     0.004 C 
ENDBRANCH   1  11
TORSDOF 4
ENDMDL
MODEL 2
REMARK VINA RESULT:    -3.133      1.913      2.782
REMARK INTER + INTRA:          -3.859
REMARK INTER:                  -3.741
REMARK INTRA:                  -0.117
REMARK UNBOUND:                -0.084
REMARK SMILES CC[C@H](C)[C@H]([NH3+])C(=O)[O-]
REMARK SMILES IDX 3 1 4 2 5 3 6 4 7 8 8 9 9 10 2 11 1 12
REMARK H PARENT 6 5 6 6 6 7
REMARK Flexibility Score: inf
ROOT
ATOM      1  C   UNL     1     145.892 138.493 153.034  1.00  0.00     0.050 C 
ATOM      2  C   UNL     1     145.541 139.675 152.111  1.00  0.00     0.014 C 
ENDROOT
BRANCH   1   3
ATOM      3  C   UNL     1     147.396 138.103 152.897  1.00  0.00     0.230 C 
BRANCH   3   4
ATOM      4  N   UNL     1     147.747 136.895 153.663  1.00  0.00    -0.350 N 
ATOM      5  H   UNL     1     148.664 137.024 154.146  1.00  0.00     0.345 HD
ATOM      6  H   UNL     1     147.795 136.052 153.047  1.00  0.00     0.345 HD
ATOM      7  H   UNL     1     147.023 136.727 154.400  1.00  0.00     0.345 HD
ENDBRANCH   3   4
BRANCH   3   8
ATOM      8  C   UNL     1     148.293 139.259 153.268  1.00  0.00     0.099 C 
ATOM      9  O   UNL     1     149.220 139.634 152.500  1.00  0.00    -0.544 OA
ATOM     10  O   UNL     1     148.127 139.892 154.494  1.00  0.00    -0.544 OA
ENDBRANCH   3   8
ENDBRANCH   1   3
BRANCH   1  11
ATOM     11  C   UNL     1     144.935 137.296 152.802  1.00  0.00     0.006 C 
ATOM     12  C   UNL     1     144.037 137.015 154.008  1.00  0.00     0.004 C 
ENDBRANCH   1  11
TORSDOF 4
ENDMDL
MODEL 3
REMARK VINA RESULT:    -3.127      6.715      7.443
REMARK INTER + INTRA:          -3.851
REMARK INTER:                  -3.724
REMARK INTRA:                  -0.127
REMARK UNBOUND:                -0.084
REMARK SMILES CC[C@H](C)[C@H]([NH3+])C(=O)[O-]
REMARK SMILES IDX 3 1 4 2 5 3 6 4 7 8 8 9 9 10 2 11 1 12
REMARK H PARENT 6 5 6 6 6 7
REMARK Flexibility Score: inf
ROOT
ATOM      1  C   UNL     1     141.579 137.751 154.543  1.00  0.00     0.050 C 
ATOM      2  C   UNL     1     143.047 137.345 154.315  1.00  0.00     0.014 C 
ENDROOT
BRANCH   1   3
ATOM      3  C   UNL     1     141.418 139.303 154.533  1.00  0.00     0.230 C 
BRANCH   3   4
ATOM      4  N   UNL     1     141.805 139.927 155.808  1.00  0.00    -0.350 N 
ATOM      5  H   UNL     1     142.230 139.218 156.446  1.00  0.00     0.345 HD
ATOM      6  H   UNL     1     140.986 140.371 156.281  1.00  0.00     0.345 HD
ATOM      7  H   UNL     1     142.527 140.664 155.631  1.00  0.00     0.345 HD
ENDBRANCH   3   4
BRANCH   3   8
ATOM      8  C   UNL     1     140.017 139.701 154.137  1.00  0.00     0.099 C 
ATOM      9  O   UNL     1     139.697 139.831 152.925  1.00  0.00    -0.544 OA
ATOM     10  O   UNL     1     139.076 139.973 155.122  1.00  0.00    -0.544 OA
ENDBRANCH   3   8
ENDBRANCH   1   3
BRANCH   1  11
ATOM     11  C   UNL     1     141.008 137.094 155.827  1.00  0.00     0.006 C 
ATOM     12  C   UNL     1     139.725 136.304 155.564  1.00  0.00     0.004 C 
ENDBRANCH   1  11
TORSDOF 4
ENDMDL
MODEL 4
REMARK VINA RESULT:    -3.119      3.241      4.141
REMARK INTER + INTRA:          -3.842
REMARK INTER:                  -3.728
REMARK INTRA:                  -0.114
REMARK UNBOUND:                -0.084
REMARK SMILES CC[C@H](C)[C@H]([NH3+])C(=O)[O-]
REMARK SMILES IDX 3 1 4 2 5 3 6 4 7 8 8 9 9 10 2 11 1 12
REMARK H PARENT 6 5 6 6 6 7
REMARK Flexibility Score: inf
ROOT
ATOM      1  C   UNL     1     147.067 137.902 152.906  1.00  0.00     0.050 C 
ATOM      2  C   UNL     1     145.624 138.253 152.498  1.00  0.00     0.014 C 
ENDROOT
BRANCH   1   3
ATOM      3  C   UNL     1     147.098 136.635 153.817  1.00  0.00     0.230 C 
BRANCH   3   4
ATOM      4  N   UNL     1     148.405 136.425 154.461  1.00  0.00    -0.350 N 
ATOM      5  H   UNL     1     148.992 135.778 153.890  1.00  0.00     0.345 HD
ATOM      6  H   UNL     1     148.298 136.036 155.425  1.00  0.00     0.345 HD
ATOM      7  H   UNL     1     148.913 137.338 154.526  1.00  0.00     0.345 HD
ENDBRANCH   3   4
BRANCH   3   8
ATOM      8  C   UNL     1     146.666 135.406 153.054  1.00  0.00     0.099 C 
ATOM      9  O   UNL     1     147.259 135.056 151.999  1.00  0.00    -0.544 OA
ATOM     10  O   UNL     1     145.569 134.676 153.493  1.00  0.00    -0.544 OA
ENDBRANCH   3   8
ENDBRANCH   1   3
BRANCH   1  11
ATOM     11  C   UNL     1     147.783 139.120 153.543  1.00  0.00     0.006 C 
ATOM     12  C   UNL     1     149.034 139.539 152.770  1.00  0.00     0.004 C 
ENDBRANCH   1  11
TORSDOF 4
ENDMDL
MODEL 5
REMARK VINA RESULT:    -3.014      7.537      8.241
REMARK INTER + INTRA:          -3.715
REMARK INTER:                  -3.609
REMARK INTRA:                  -0.106
REMARK UNBOUND:                -0.084
REMARK SMILES CC[C@H](C)[C@H]([NH3+])C(=O)[O-]
REMARK SMILES IDX 3 1 4 2 5 3 6 4 7 8 8 9 9 10 2 11 1 12
REMARK H PARENT 6 5 6 6 6 7
REMARK Flexibility Score: inf
ROOT
ATOM      1  C   UNL     1     139.140 136.912 154.585  1.00  0.00     0.050 C 
ATOM      2  C   UNL     1     139.152 136.413 153.128  1.00  0.00     0.014 C 
ENDROOT
BRANCH   1   3
ATOM      3  C   UNL     1     140.544 137.445 155.007  1.00  0.00     0.230 C 
BRANCH   3   4
ATOM      4  N   UNL     1     141.081 136.766 156.197  1.00  0.00    -0.350 N 
ATOM      5  H   UNL     1     140.617 135.839 156.327  1.00  0.00     0.345 HD
ATOM      6  H   UNL     1     140.951 137.342 157.058  1.00  0.00     0.345 HD
ATOM      7  H   UNL     1     142.105 136.589 156.066  1.00  0.00     0.345 HD
ENDBRANCH   3   4
BRANCH   3   8
ATOM      8  C   UNL     1     140.521 138.942 155.200  1.00  0.00     0.099 C 
ATOM      9  O   UNL     1     139.533 139.630 154.826  1.00  0.00    -0.544 OA
ATOM     10  O   UNL     1     141.622 139.580 155.757  1.00  0.00    -0.544 OA
ENDBRANCH   3   8
ENDBRANCH   1   3
BRANCH   1  11
ATOM     11  C   UNL     1     138.594 135.824 155.547  1.00  0.00     0.006 C 
ATOM     12  C   UNL     1     138.349 134.487 154.846  1.00  0.00     0.004 C 
ENDBRANCH   1  11
TORSDOF 4
ENDMDL
MODEL 6
REMARK VINA RESULT:    -2.994      1.909      2.857
REMARK INTER + INTRA:          -3.691
REMARK INTER:                  -3.540
REMARK INTRA:                  -0.151
REMARK UNBOUND:                -0.084
REMARK SMILES CC[C@H](C)[C@H]([NH3+])C(=O)[O-]
REMARK SMILES IDX 3 1 4 2 5 3 6 4 7 8 8 9 9 10 2 11 1 12
REMARK H PARENT 6 5 6 6 6 7
REMARK Flexibility Score: inf
ROOT
ATOM      1  C   UNL     1     145.731 136.947 153.654  1.00  0.00     0.050 C 
ATOM      2  C   UNL     1     144.244 137.273 153.423  1.00  0.00     0.014 C 
ENDROOT
BRANCH   1   3
ATOM      3  C   UNL     1     146.630 137.650 152.590  1.00  0.00     0.230 C 
BRANCH   3   4
ATOM      4  N   UNL     1     147.313 136.699 151.698  1.00  0.00    -0.350 N 
ATOM      5  H   UNL     1     147.682 137.192 150.854  1.00  0.00     0.345 HD
ATOM      6  H   UNL     1     146.673 135.930 151.397  1.00  0.00     0.345 HD
ATOM      7  H   UNL     1     148.130 136.277 152.198  1.00  0.00     0.345 HD
ENDBRANCH   3   4
BRANCH   3   8
ATOM      8  C   UNL     1     147.618 138.585 153.246  1.00  0.00     0.099 C 
ATOM      9  O   UNL     1     147.768 139.766 152.831  1.00  0.00    -0.544 OA
ATOM     10  O   UNL     1     148.407 138.125 154.292  1.00  0.00    -0.544 OA
ENDBRANCH   3   8
ENDBRANCH   1   3
BRANCH   1  11
ATOM     11  C   UNL     1     145.966 135.416 153.724  1.00  0.00     0.006 C 
ATOM     12  C   UNL     1     146.749 134.996 154.969  1.00  0.00     0.004 C 
ENDBRANCH   1  11
TORSDOF 4
ENDMDL
MODEL 7
REMARK VINA RESULT:    -2.982      2.568      3.529
REMARK INTER + INTRA:          -3.676
REMARK INTER:                  -3.547
REMARK INTRA:                  -0.129
REMARK UNBOUND:                -0.084
REMARK SMILES CC[C@H](C)[C@H]([NH3+])C(=O)[O-]
REMARK SMILES IDX 3 1 4 2 5 3 6 4 7 8 8 9 9 10 2 11 1 12
REMARK H PARENT 6 5 6 6 6 7
REMARK Flexibility Score: inf
ROOT
ATOM      1  C   UNL     1     146.926 137.401 152.259  1.00  0.00     0.050 C 
ATOM      2  C   UNL     1     146.659 137.080 150.777  1.00  0.00     0.014 C 
ENDROOT
BRANCH   1   3
ATOM      3  C   UNL     1     146.160 136.413 153.193  1.00  0.00     0.230 C 
BRANCH   3   4
ATOM      4  N   UNL     1     144.885 136.961 153.684  1.00  0.00    -0.350 N 
ATOM      5  H   UNL     1     144.297 137.286 152.884  1.00  0.00     0.345 HD
ATOM      6  H   UNL     1     145.039 137.755 154.345  1.00  0.00     0.345 HD
ATOM      7  H   UNL     1     144.351 136.211 154.182  1.00  0.00     0.345 HD
ENDBRANCH   3   4
BRANCH   3   8
ATOM      8  C   UNL     1     147.033 135.961 154.339  1.00  0.00     0.099 C 
ATOM      9  O   UNL     1     148.176 136.461 154.520  1.00  0.00    -0.544 OA
ATOM     10  O   UNL     1     146.593 134.947 155.180  1.00  0.00    -0.544 OA
ENDBRANCH   3   8
ENDBRANCH   1   3
BRANCH   1  11
ATOM     11  C   UNL     1     146.623 138.888 152.576  1.00  0.00     0.006 C 
ATOM     12  C   UNL     1     147.861 139.658 153.038  1.00  0.00     0.004 C 
ENDBRANCH   1  11
TORSDOF 4
ENDMDL
MODEL 8
REMARK VINA RESULT:    -2.979      2.922      3.856
REMARK INTER + INTRA:          -3.672
REMARK INTER:                  -3.581
REMARK INTRA:                  -0.091
REMARK UNBOUND:                -0.084
REMARK SMILES CC[C@H](C)[C@H]([NH3+])C(=O)[O-]
REMARK SMILES IDX 3 1 4 2 5 3 6 4 7 8 8 9 9 10 2 11 1 12
REMARK H PARENT 6 5 6 6 6 7
REMARK Flexibility Score: inf
ROOT
ATOM      1  C   UNL     1     146.535 137.992 152.654  1.00  0.00     0.050 C 
ATOM      2  C   UNL     1     147.000 137.362 151.328  1.00  0.00     0.014 C 
ENDROOT
BRANCH   1   3
ATOM      3  C   UNL     1     144.977 138.041 152.736  1.00  0.00     0.230 C 
BRANCH   3   4
ATOM      4  N   UNL     1     144.453 139.409 152.874  1.00  0.00    -0.350 N 
ATOM      5  H   UNL     1     143.494 139.391 153.287  1.00  0.00     0.345 HD
ATOM      6  H   UNL     1     144.424 139.903 151.954  1.00  0.00     0.345 HD
ATOM      7  H   UNL     1     145.067 139.954 153.525  1.00  0.00     0.345 HD
ENDBRANCH   3   4
BRANCH   3   8
ATOM      8  C   UNL     1     144.464 137.148 153.840  1.00  0.00     0.099 C 
ATOM      9  O   UNL     1     145.144 136.172 154.255  1.00  0.00    -0.544 OA
ATOM     10  O   UNL     1     143.202 137.376 154.376  1.00  0.00    -0.544 OA
ENDBRANCH   3   8
ENDBRANCH   1   3
BRANCH   1  11
ATOM     11  C   UNL     1     147.194 139.378 152.879  1.00  0.00     0.006 C 
ATOM     12  C   UNL     1     148.431 139.304 153.775  1.00  0.00     0.004 C 
ENDBRANCH   1  11
TORSDOF 4
ENDMDL
MODEL 9
REMARK VINA RESULT:    -2.978      2.473      3.391
REMARK INTER + INTRA:          -3.672
REMARK INTER:                  -3.552
REMARK INTRA:                  -0.120
REMARK UNBOUND:                -0.084
REMARK SMILES CC[C@H](C)[C@H]([NH3+])C(=O)[O-]
REMARK SMILES IDX 3 1 4 2 5 3 6 4 7 8 8 9 9 10 2 11 1 12
REMARK H PARENT 6 5 6 6 6 7
REMARK Flexibility Score: inf
ROOT
ATOM      1  C   UNL     1     146.725 136.195 152.785  1.00  0.00     0.050 C 
ATOM      2  C   UNL     1     146.996 135.233 151.614  1.00  0.00     0.014 C 
ENDROOT
BRANCH   1   3
ATOM      3  C   UNL     1     146.939 137.679 152.352  1.00  0.00     0.230 C 
BRANCH   3   4
ATOM      4  N   UNL     1     148.145 138.280 152.944  1.00  0.00    -0.350 N 
ATOM      5  H   UNL     1     148.867 137.547 153.122  1.00  0.00     0.345 HD
ATOM      6  H   UNL     1     147.927 138.776 153.837  1.00  0.00     0.345 HD
ATOM      7  H   UNL     1     148.557 138.970 152.272  1.00  0.00     0.345 HD
ENDBRANCH   3   4
BRANCH   3   8
ATOM      8  C   UNL     1     145.716 138.513 152.648  1.00  0.00     0.099 C 
ATOM      9  O   UNL     1     145.675 139.736 152.345  1.00  0.00    -0.544 OA
ATOM     10  O   UNL     1     144.636 137.938 153.306  1.00  0.00    -0.544 OA
ENDBRANCH   3   8
ENDBRANCH   1   3
BRANCH   1  11
ATOM     11  C   UNL     1     147.556 135.807 154.036  1.00  0.00     0.006 C 
ATOM     12  C   UNL     1     146.722 135.092 155.099  1.00  0.00     0.004 C 
ENDBRANCH   1  11
TORSDOF 4
ENDMDL
