MODEL 1
REMARK VINA RESULT:    -1.295      0.000      0.000
REMARK INTER + INTRA:          -1.295
REMARK INTER:                  -1.295
REMARK INTRA:                   0.000
REMARK UNBOUND:                 0.000
REMARK SMILES CC(=O)[O-]
REMARK SMILES IDX 1 1 2 2 3 3 4 4
REMARK H PARENT
REMARK Flexibility Score: inf
ROOT
ATOM      1  C   UNL     1     -14.933 -24.043  32.065  1.00  0.00     0.063 C 
ATOM      2  C   UNL     1     -16.204 -23.274  31.929  1.00  0.00     0.038 C 
ATOM      3  O   UNL     1     -16.213 -22.031  32.120  1.00  0.00    -0.550 OA
ATOM      4  O   UNL     1     -17.370 -23.920  31.537  1.00  0.00    -0.550 OA
ENDROOT
TORSDOF 0
ENDMDL
MODEL 2
REMARK VINA RESULT:    -1.294     28.498     28.707
REMARK INTER + INTRA:          -1.294
REMARK INTER:                  -1.294
REMARK INTRA:                   0.000
REMARK UNBOUND:                 0.000
REMARK SMILES CC(=O)[O-]
REMARK SMILES IDX 1 1 2 2 3 3 4 4
REMARK H PARENT
REMARK Flexibility Score: inf
ROOT
ATOM      1  C   UNL     1     -32.099 -34.725  11.906  1.00  0.00     0.063 C 
ATOM      2  C   UNL     1     -33.523 -34.995  12.257  1.00  0.00     0.038 C 
ATOM      3  O   UNL     1     -33.855 -36.113  12.731  1.00  0.00    -0.550 OA
ATOM      4  O   UNL     1     -34.478 -33.997  12.112  1.00  0.00    -0.550 OA
ENDROOT
TORSDOF 0
ENDMDL
MODEL 3
REMARK VINA RESULT:    -1.245     27.360     27.890
REMARK INTER + INTRA:          -1.245
REMARK INTER:                  -1.245
REMARK INTRA:                   0.000
REMARK UNBOUND:                 0.000
REMARK SMILES CC(=O)[O-]
REMARK SMILES IDX 1 1 2 2 3 3 4 4
REMARK H PARENT
REMARK Flexibility Score: inf
ROOT
ATOM      1  C   UNL     1     -33.563 -36.123  12.614  1.00  0.00     0.063 C 
ATOM      2  C   UNL     1     -32.142 -35.717  12.813  1.00  0.00     0.038 C 
ATOM      3  O   UNL     1     -31.576 -34.971  11.972  1.00  0.00    -0.550 OA
ATOM      4  O   UNL     1     -31.457 -36.114  13.953  1.00  0.00    -0.550 OA
ENDROOT
TORSDOF 0
ENDMDL
MODEL 4
REMARK VINA RESULT:    -1.232      1.293      1.758
REMARK INTER + INTRA:          -1.232
REMARK INTER:                  -1.232
REMARK INTRA:                   0.000
REMARK UNBOUND:                 0.000
REMARK SMILES CC(=O)[O-]
REMARK SMILES IDX 1 1 2 2 3 3 4 4
REMARK H PARENT
REMARK Flexibility Score: inf
ROOT
ATOM      1  C   UNL     1     -16.465 -21.446  32.007  1.00  0.00     0.063 C 
ATOM      2  C   UNL     1     -16.318 -22.924  31.875  1.00  0.00     0.038 C 
ATOM      3  O   UNL     1     -15.213 -23.473  32.124  1.00  0.00    -0.550 OA
ATOM      4  O   UNL     1     -17.412 -23.705  31.527  1.00  0.00    -0.550 OA
ENDROOT
TORSDOF 0
ENDMDL
MODEL 5
REMARK VINA RESULT:    -1.224     28.024     28.493
REMARK INTER + INTRA:          -1.224
REMARK INTER:                  -1.224
REMARK INTRA:                   0.000
REMARK UNBOUND:                 0.000
REMARK SMILES CC(=O)[O-]
REMARK SMILES IDX 1 1 2 2 3 3 4 4
REMARK H PARENT
REMARK Flexibility Score: inf
ROOT
ATOM      1  C   UNL     1     -32.007 -35.368  12.372  1.00  0.00     0.063 C 
ATOM      2  C   UNL     1     -33.457 -35.349  12.720  1.00  0.00     0.038 C 
ATOM      3  O   UNL     1     -34.304 -34.958  11.875  1.00  0.00    -0.550 OA
ATOM      4  O   UNL     1     -33.883 -35.814  13.957  1.00  0.00    -0.550 OA
ENDROOT
TORSDOF 0
ENDMDL
MODEL 6
REMARK VINA RESULT:    -1.224      1.212      2.069
REMARK INTER + INTRA:          -1.224
REMARK INTER:                  -1.224
REMARK INTRA:                   0.000
REMARK UNBOUND:                 0.000
REMARK SMILES CC(=O)[O-]
REMARK SMILES IDX 1 1 2 2 3 3 4 4
REMARK H PARENT
REMARK Flexibility Score: inf
ROOT
ATOM      1  C   UNL     1     -15.806 -23.299  32.117  1.00  0.00     0.063 C 
ATOM      2  C   UNL     1     -16.686 -22.148  31.761  1.00  0.00     0.038 C 
ATOM      3  O   UNL     1     -17.782 -22.349  31.176  1.00  0.00    -0.550 OA
ATOM      4  O   UNL     1     -16.324 -20.857  32.121  1.00  0.00    -0.550 OA
ENDROOT
TORSDOF 0
ENDMDL
MODEL 7
REMARK VINA RESULT:    -1.198      1.856      2.061
REMARK INTER + INTRA:          -1.198
REMARK INTER:                  -1.198
REMARK INTRA:                   0.000
REMARK UNBOUND:                 0.000
REMARK SMILES CC(=O)[O-]
REMARK SMILES IDX 1 1 2 2 3 3 4 4
REMARK H PARENT
REMARK Flexibility Score: inf
ROOT
ATOM      1  C   UNL     1     -16.142 -23.109  32.125  1.00  0.00     0.063 C 
ATOM      2  C   UNL     1     -16.344 -21.788  31.464  1.00  0.00     0.038 C 
ATOM      3  O   UNL     1     -17.056 -20.908  32.016  1.00  0.00    -0.550 OA
ATOM      4  O   UNL     1     -15.705 -21.504  30.265  1.00  0.00    -0.550 OA
ENDROOT
TORSDOF 0
ENDMDL
MODEL 8
REMARK VINA RESULT:    -1.183      2.545      3.166
REMARK INTER + INTRA:          -1.183
REMARK INTER:                  -1.183
REMARK INTRA:                   0.000
REMARK UNBOUND:                 0.000
REMARK SMILES CC(=O)[O-]
REMARK SMILES IDX 1 1 2 2 3 3 4 4
REMARK H PARENT
REMARK Flexibility Score: inf
ROOT
ATOM      1  C   UNL     1     -16.371 -21.180  32.110  1.00  0.00     0.063 C 
ATOM      2  C   UNL     1     -17.815 -21.116  31.743  1.00  0.00     0.038 C 
ATOM      3  O   UNL     1     -18.353 -22.075  31.130  1.00  0.00    -0.550 OA
ATOM      4  O   UNL     1     -18.584 -20.025  32.125  1.00  0.00    -0.550 OA
ENDROOT
TORSDOF 0
ENDMDL
MODEL 9
REMARK VINA RESULT:    -1.070      2.446      2.823
REMARK INTER + INTRA:          -1.070
REMARK INTER:                  -1.070
REMARK INTRA:                   0.000
REMARK UNBOUND:                 0.000
REMARK SMILES CC(=O)[O-]
REMARK SMILES IDX 1 1 2 2 3 3 4 4
REMARK H PARENT
REMARK Flexibility Score: inf
ROOT
ATOM      1  C   UNL     1     -17.713 -20.375  32.125  1.00  0.00     0.063 C 
ATOM      2  C   UNL     1     -17.377 -21.493  31.198  1.00  0.00     0.038 C 
ATOM      3  O   UNL     1     -16.212 -21.600  30.734  1.00  0.00    -0.550 OA
ATOM      4  O   UNL     1     -18.334 -22.451  30.885  1.00  0.00    -0.550 OA
ENDROOT
TORSDOF 0
ENDMDL
