MODEL 1
REMARK VINA RESULT:    -4.180      0.000      0.000
REMARK INTER + INTRA:         -13.511
REMARK INTER:                  -9.557
REMARK INTRA:                  -3.954
REMARK UNBOUND:                -3.954
REMARK SMILES CCCCCCCCCCCCCCCCCCCCCCCC(=O)[O-]
REMARK SMILES IDX 13 1 14 2 15 3 16 4 17 5 18 6 19 7 20 8 21 9 22 10 23 11
REMARK SMILES IDX 24 12 25 13 26 14 12 15 11 16 10 17 9 18 8 19 7 20 6 21 5 22
REMARK SMILES IDX 4 23 3 24 2 25 1 26
REMARK H PARENT
REMARK Flexibility Score: inf
ROOT
ATOM      1  C   UNL     1     -12.053 -13.601  15.291  1.00  0.00     0.000 C 
ENDROOT
BRANCH   1   2
ATOM      2  C   UNL     1     -11.087 -13.879  14.125  1.00  0.00     0.000 C 
BRANCH   2   3
ATOM      3  C   UNL     1      -9.967 -12.832  14.025  1.00  0.00     0.000 C 
BRANCH   3   4
ATOM      4  C   UNL     1     -10.269 -11.570  14.851  1.00  0.00     0.000 C 
BRANCH   4   5
ATOM      5  C   UNL     1      -9.000 -10.942  15.451  1.00  0.00     0.000 C 
BRANCH   5   6
ATOM      6  C   UNL     1      -9.311  -9.754  16.373  1.00  0.00     0.000 C 
BRANCH   6   7
ATOM      7  C   UNL     1      -8.383  -8.569  16.079  1.00  0.00     0.000 C 
BRANCH   7   8
ATOM      8  C   UNL     1      -7.207  -9.000  15.194  1.00  0.00     0.000 C 
BRANCH   8   9
ATOM      9  C   UNL     1      -6.063  -7.981  15.256  1.00  0.00     0.000 C 
BRANCH   9  10
ATOM     10  C   UNL     1      -6.515  -6.691  15.958  1.00  0.00     0.006 C 
BRANCH  10  11
ATOM     11  C   UNL     1      -6.256  -5.441  15.106  1.00  0.00     0.053 C 
BRANCH  11  12
ATOM     12  C   UNL     1      -6.736  -5.607  13.696  1.00  0.00     0.041 C 
ATOM     13  O   UNL     1      -5.916  -5.603  12.739  1.00  0.00    -0.550 OA
ATOM     14  O   UNL     1      -8.092  -5.772  13.439  1.00  0.00    -0.550 OA
ENDBRANCH  11  12
ENDBRANCH  10  11
ENDBRANCH   9  10
ENDBRANCH   8   9
ENDBRANCH   7   8
ENDBRANCH   6   7
ENDBRANCH   5   6
ENDBRANCH   4   5
ENDBRANCH   3   4
ENDBRANCH   2   3
ENDBRANCH   1   2
BRANCH   1  15
ATOM     15  C   UNL     1     -11.633 -14.304  16.595  1.00  0.00     0.000 C 
BRANCH  15  16
ATOM     16  C   UNL     1     -10.299 -15.068  16.514  1.00  0.00     0.000 C 
BRANCH  16  17
ATOM     17  C   UNL     1      -9.309 -14.656  17.619  1.00  0.00     0.000 C 
BRANCH  17  18
ATOM     18  C   UNL     1      -9.512 -13.203  18.081  1.00  0.00    -0.000 C 
BRANCH  18  19
ATOM     19  C   UNL     1      -8.259 -12.621  18.758  1.00  0.00    -0.000 C 
BRANCH  19  20
ATOM     20  C   UNL     1      -6.986 -12.804  17.913  1.00  0.00    -0.000 C 
BRANCH  20  21
ATOM     21  C   UNL     1      -6.202 -11.495  17.730  1.00  0.00    -0.000 C 
BRANCH  21  22
ATOM     22  C   UNL     1      -6.087 -10.683  19.032  1.00  0.00    -0.000 C 
BRANCH  22  23
ATOM     23  C   UNL     1      -5.889  -9.170  18.800  1.00  0.00    -0.000 C 
BRANCH  23  24
ATOM     24  C   UNL     1      -7.014  -8.335  19.437  1.00  0.00    -0.000 C 
BRANCH  24  25
ATOM     25  C   UNL     1      -8.202  -9.194  19.897  1.00  0.00    -0.003 C 
ATOM     26  C   UNL     1      -8.335  -9.258  21.418  1.00  0.00     0.004 C 
ENDBRANCH  24  25
ENDBRANCH  23  24
ENDBRANCH  22  23
ENDBRANCH  21  22
ENDBRANCH  20  21
ENDBRANCH  19  20
ENDBRANCH  18  19
ENDBRANCH  17  18
ENDBRANCH  16  17
ENDBRANCH  15  16
ENDBRANCH   1  15
TORSDOF 22
ENDMDL
MODEL 2
REMARK VINA RESULT:    -4.158      2.742      6.211
REMARK INTER + INTRA:         -13.460
REMARK INTER:                  -8.642
REMARK INTRA:                  -4.818
REMARK UNBOUND:                -3.954
REMARK SMILES CCCCCCCCCCCCCCCCCCCCCCCC(=O)[O-]
REMARK SMILES IDX 13 1 14 2 15 3 16 4 17 5 18 6 19 7 20 8 21 9 22 10 23 11
REMARK SMILES IDX 24 12 25 13 26 14 12 15 11 16 10 17 9 18 8 19 7 20 6 21 5 22
REMARK SMILES IDX 4 23 3 24 2 25 1 26
REMARK H PARENT
REMARK Flexibility Score: inf
ROOT
ATOM      1  C   UNL     1      -9.676 -10.434  17.626  1.00  0.00     0.000 C 
ENDROOT
BRANCH   1   2
ATOM      2  C   UNL     1      -9.041  -9.988  18.955  1.00  0.00     0.000 C 
BRANCH   2   3
ATOM      3  C   UNL     1      -7.811 -10.830  19.330  1.00  0.00     0.000 C 
BRANCH   3   4
ATOM      4  C   UNL     1      -6.511 -10.270  18.727  1.00  0.00     0.000 C 
BRANCH   4   5
ATOM      5  C   UNL     1      -5.552 -11.380  18.265  1.00  0.00     0.000 C 
BRANCH   5   6
ATOM      6  C   UNL     1      -6.264 -12.727  18.068  1.00  0.00     0.000 C 
BRANCH   6   7
ATOM      7  C   UNL     1      -6.307 -13.118  16.586  1.00  0.00     0.000 C 
BRANCH   7   8
ATOM      8  C   UNL     1      -7.711 -13.582  16.181  1.00  0.00     0.000 C 
BRANCH   8   9
ATOM      9  C   UNL     1      -8.547 -13.959  17.409  1.00  0.00     0.000 C 
BRANCH   9  10
ATOM     10  C   UNL     1      -9.831 -14.694  16.994  1.00  0.00     0.006 C 
BRANCH  10  11
ATOM     11  C   UNL     1     -11.066 -13.784  17.041  1.00  0.00     0.053 C 
BRANCH  11  12
ATOM     12  C   UNL     1     -11.564 -13.434  15.672  1.00  0.00     0.041 C 
ATOM     13  O   UNL     1     -12.476 -14.117  15.133  1.00  0.00    -0.550 OA
ATOM     14  O   UNL     1     -11.025 -12.349  14.992  1.00  0.00    -0.550 OA
ENDBRANCH  11  12
ENDBRANCH  10  11
ENDBRANCH   9  10
ENDBRANCH   8   9
ENDBRANCH   7   8
ENDBRANCH   6   7
ENDBRANCH   5   6
ENDBRANCH   4   5
ENDBRANCH   3   4
ENDBRANCH   2   3
ENDBRANCH   1   2
BRANCH   1  15
ATOM     15  C   UNL     1      -9.330  -9.497  16.454  1.00  0.00     0.000 C 
BRANCH  15  16
ATOM     16  C   UNL     1      -8.334 -10.081  15.435  1.00  0.00     0.000 C 
BRANCH  16  17
ATOM     17  C   UNL     1      -7.114  -9.169  15.206  1.00  0.00     0.000 C 
BRANCH  17  18
ATOM     18  C   UNL     1      -7.506  -7.786  14.660  1.00  0.00    -0.000 C 
BRANCH  18  19
ATOM     19  C   UNL     1      -7.080  -6.642  15.597  1.00  0.00    -0.000 C 
BRANCH  19  20
ATOM     20  C   UNL     1      -6.167  -7.117  16.739  1.00  0.00    -0.000 C 
BRANCH  20  21
ATOM     21  C   UNL     1      -6.608  -6.586  18.112  1.00  0.00    -0.000 C 
BRANCH  21  22
ATOM     22  C   UNL     1      -8.135  -6.448  18.234  1.00  0.00    -0.000 C 
BRANCH  22  23
ATOM     23  C   UNL     1      -8.655  -6.600  19.680  1.00  0.00    -0.000 C 
BRANCH  23  24
ATOM     24  C   UNL     1      -7.512  -6.575  20.711  1.00  0.00    -0.000 C 
BRANCH  24  25
ATOM     25  C   UNL     1      -7.466  -7.844  21.576  1.00  0.00    -0.003 C 
ATOM     26  C   UNL     1      -8.819  -8.192  22.191  1.00  0.00     0.004 C 
ENDBRANCH  24  25
ENDBRANCH  23  24
ENDBRANCH  22  23
ENDBRANCH  21  22
ENDBRANCH  20  21
ENDBRANCH  19  20
ENDBRANCH  18  19
ENDBRANCH  17  18
ENDBRANCH  16  17
ENDBRANCH  15  16
ENDBRANCH   1  15
TORSDOF 22
ENDMDL
MODEL 3
REMARK VINA RESULT:    -4.116      2.818      5.720
REMARK INTER + INTRA:         -13.363
REMARK INTER:                  -9.207
REMARK INTRA:                  -4.157
REMARK UNBOUND:                -3.954
REMARK SMILES CCCCCCCCCCCCCCCCCCCCCCCC(=O)[O-]
REMARK SMILES IDX 13 1 14 2 15 3 16 4 17 5 18 6 19 7 20 8 21 9 22 10 23 11
REMARK SMILES IDX 24 12 25 13 26 14 12 15 11 16 10 17 9 18 8 19 7 20 6 21 5 22
REMARK SMILES IDX 4 23 3 24 2 25 1 26
REMARK H PARENT
REMARK Flexibility Score: inf
ROOT
ATOM      1  C   UNL     1      -9.292 -10.103  16.092  1.00  0.00     0.000 C 
ENDROOT
BRANCH   1   2
ATOM      2  C   UNL     1      -7.937 -10.260  15.379  1.00  0.00     0.000 C 
BRANCH   2   3
ATOM      3  C   UNL     1      -6.750 -10.214  16.353  1.00  0.00     0.000 C 
BRANCH   3   4
ATOM      4  C   UNL     1      -5.566  -9.405  15.798  1.00  0.00     0.000 C 
BRANCH   4   5
ATOM      5  C   UNL     1      -6.017  -8.254  14.884  1.00  0.00     0.000 C 
BRANCH   5   6
ATOM      6  C   UNL     1      -6.134  -6.919  15.635  1.00  0.00     0.000 C 
BRANCH   6   7
ATOM      7  C   UNL     1      -7.539  -6.737  16.222  1.00  0.00     0.000 C 
BRANCH   7   8
ATOM      8  C   UNL     1      -7.496  -6.734  17.755  1.00  0.00     0.000 C 
BRANCH   8   9
ATOM      9  C   UNL     1      -8.770  -7.346  18.347  1.00  0.00     0.000 C 
BRANCH   9  10
ATOM     10  C   UNL     1      -8.677  -7.428  19.879  1.00  0.00     0.006 C 
BRANCH  10  11
ATOM     11  C   UNL     1      -8.862  -8.861  20.399  1.00  0.00     0.053 C 
BRANCH  11  12
ATOM     12  C   UNL     1      -7.582  -9.640  20.379  1.00  0.00     0.041 C 
ATOM     13  O   UNL     1      -7.580 -10.851  20.031  1.00  0.00    -0.550 OA
ATOM     14  O   UNL     1      -6.389  -9.026  20.739  1.00  0.00    -0.550 OA
ENDBRANCH  11  12
ENDBRANCH  10  11
ENDBRANCH   9  10
ENDBRANCH   8   9
ENDBRANCH   7   8
ENDBRANCH   6   7
ENDBRANCH   5   6
ENDBRANCH   4   5
ENDBRANCH   3   4
ENDBRANCH   2   3
ENDBRANCH   1   2
BRANCH   1  15
ATOM     15  C   UNL     1      -9.520 -11.165  17.184  1.00  0.00     0.000 C 
BRANCH  15  16
ATOM     16  C   UNL     1     -10.718 -10.890  18.111  1.00  0.00     0.000 C 
BRANCH  16  17
ATOM     17  C   UNL     1     -11.737 -12.045  18.124  1.00  0.00     0.000 C 
BRANCH  17  18
ATOM     18  C   UNL     1     -11.127 -13.374  17.650  1.00  0.00    -0.000 C 
BRANCH  18  19
ATOM     19  C   UNL     1     -11.997 -14.076  16.593  1.00  0.00    -0.000 C 
BRANCH  19  20
ATOM     20  C   UNL     1     -11.945 -13.381  15.222  1.00  0.00    -0.000 C 
BRANCH  20  21
ATOM     21  C   UNL     1     -11.060 -14.127  14.211  1.00  0.00    -0.000 C 
BRANCH  21  22
ATOM     22  C   UNL     1      -9.998 -13.219  13.566  1.00  0.00    -0.000 C 
BRANCH  22  23
ATOM     23  C   UNL     1      -8.549 -13.659  13.864  1.00  0.00    -0.000 C 
BRANCH  23  24
ATOM     24  C   UNL     1      -8.339 -13.987  15.354  1.00  0.00    -0.000 C 
BRANCH  24  25
ATOM     25  C   UNL     1      -6.876 -13.825  15.797  1.00  0.00    -0.003 C 
ATOM     26  C   UNL     1      -5.963 -13.356  14.667  1.00  0.00     0.004 C 
ENDBRANCH  24  25
ENDBRANCH  23  24
ENDBRANCH  22  23
ENDBRANCH  21  22
ENDBRANCH  20  21
ENDBRANCH  19  20
ENDBRANCH  18  19
ENDBRANCH  17  18
ENDBRANCH  16  17
ENDBRANCH  15  16
ENDBRANCH   1  15
TORSDOF 22
ENDMDL
MODEL 4
REMARK VINA RESULT:    -4.096      2.600      6.141
REMARK INTER + INTRA:         -13.319
REMARK INTER:                  -8.896
REMARK INTRA:                  -4.422
REMARK UNBOUND:                -3.954
REMARK SMILES CCCCCCCCCCCCCCCCCCCCCCCC(=O)[O-]
REMARK SMILES IDX 13 1 14 2 15 3 16 4 17 5 18 6 19 7 20 8 21 9 22 10 23 11
REMARK SMILES IDX 24 12 25 13 26 14 12 15 11 16 10 17 9 18 8 19 7 20 6 21 5 22
REMARK SMILES IDX 4 23 3 24 2 25 1 26
REMARK H PARENT
REMARK Flexibility Score: inf
ROOT
ATOM      1  C   UNL     1      -7.124 -10.273  15.490  1.00  0.00     0.000 C 
ENDROOT
BRANCH   1   2
ATOM      2  C   UNL     1      -5.606 -10.035  15.580  1.00  0.00     0.000 C 
BRANCH   2   3
ATOM      3  C   UNL     1      -5.089 -10.076  17.026  1.00  0.00     0.000 C 
BRANCH   3   4
ATOM      4  C   UNL     1      -6.157 -10.568  18.017  1.00  0.00     0.000 C 
BRANCH   4   5
ATOM      5  C   UNL     1      -5.896 -12.004  18.499  1.00  0.00     0.000 C 
BRANCH   5   6
ATOM      6  C   UNL     1      -6.951 -12.997  17.990  1.00  0.00     0.000 C 
BRANCH   6   7
ATOM      7  C   UNL     1      -8.298 -12.780  18.691  1.00  0.00     0.000 C 
BRANCH   7   8
ATOM      8  C   UNL     1      -9.391 -13.651  18.062  1.00  0.00     0.000 C 
BRANCH   8   9
ATOM      9  C   UNL     1     -10.557 -12.797  17.553  1.00  0.00     0.000 C 
BRANCH   9  10
ATOM     10  C   UNL     1     -10.096 -11.851  16.433  1.00  0.00     0.006 C 
BRANCH  10  11
ATOM     11  C   UNL     1     -10.688 -12.228  15.069  1.00  0.00     0.053 C 
BRANCH  11  12
ATOM     12  C   UNL     1      -9.736 -13.039  14.243  1.00  0.00     0.041 C 
ATOM     13  O   UNL     1      -8.600 -13.343  14.697  1.00  0.00    -0.550 OA
ATOM     14  O   UNL     1     -10.106 -13.466  12.974  1.00  0.00    -0.550 OA
ENDBRANCH  11  12
ENDBRANCH  10  11
ENDBRANCH   9  10
ENDBRANCH   8   9
ENDBRANCH   7   8
ENDBRANCH   6   7
ENDBRANCH   5   6
ENDBRANCH   4   5
ENDBRANCH   3   4
ENDBRANCH   2   3
ENDBRANCH   1   2
BRANCH   1  15
ATOM     15  C   UNL     1      -7.919  -8.977  15.244  1.00  0.00     0.000 C 
BRANCH  15  16
ATOM     16  C   UNL     1      -7.074  -7.786  14.757  1.00  0.00     0.000 C 
BRANCH  16  17
ATOM     17  C   UNL     1      -7.121  -6.589  15.724  1.00  0.00     0.000 C 
BRANCH  17  18
ATOM     18  C   UNL     1      -7.051  -7.018  17.198  1.00  0.00    -0.000 C 
BRANCH  18  19
ATOM     19  C   UNL     1      -7.896  -6.116  18.115  1.00  0.00    -0.000 C 
BRANCH  19  20
ATOM     20  C   UNL     1      -8.983  -6.893  18.876  1.00  0.00    -0.000 C 
BRANCH  20  21
ATOM     21  C   UNL     1      -9.320  -8.241  18.221  1.00  0.00    -0.000 C 
BRANCH  21  22
ATOM     22  C   UNL     1      -9.581  -9.355  19.250  1.00  0.00    -0.000 C 
BRANCH  22  23
ATOM     23  C   UNL     1      -9.151  -8.982  20.684  1.00  0.00    -0.000 C 
BRANCH  23  24
ATOM     24  C   UNL     1      -7.881  -9.735  21.122  1.00  0.00    -0.000 C 
BRANCH  24  25
ATOM     25  C   UNL     1      -6.845  -8.816  21.787  1.00  0.00    -0.003 C 
ATOM     26  C   UNL     1      -5.992  -8.054  20.775  1.00  0.00     0.004 C 
ENDBRANCH  24  25
ENDBRANCH  23  24
ENDBRANCH  22  23
ENDBRANCH  21  22
ENDBRANCH  20  21
ENDBRANCH  19  20
ENDBRANCH  18  19
ENDBRANCH  17  18
ENDBRANCH  16  17
ENDBRANCH  15  16
ENDBRANCH   1  15
TORSDOF 22
ENDMDL
MODEL 5
REMARK VINA RESULT:    -4.068      3.097      6.083
REMARK INTER + INTRA:         -13.255
REMARK INTER:                  -8.665
REMARK INTRA:                  -4.590
REMARK UNBOUND:                -3.954
REMARK SMILES CCCCCCCCCCCCCCCCCCCCCCCC(=O)[O-]
REMARK SMILES IDX 13 1 14 2 15 3 16 4 17 5 18 6 19 7 20 8 21 9 22 10 23 11
REMARK SMILES IDX 24 12 25 13 26 14 12 15 11 16 10 17 9 18 8 19 7 20 6 21 5 22
REMARK SMILES IDX 4 23 3 24 2 25 1 26
REMARK H PARENT
REMARK Flexibility Score: inf
ROOT
ATOM      1  C   UNL     1      -9.738  -9.155  18.454  1.00  0.00     0.000 C 
ENDROOT
BRANCH   1   2
ATOM      2  C   UNL     1      -9.389 -10.505  17.800  1.00  0.00     0.000 C 
BRANCH   2   3
ATOM      3  C   UNL     1      -9.765 -10.551  16.311  1.00  0.00     0.000 C 
BRANCH   3   4
ATOM      4  C   UNL     1      -8.599 -11.023  15.426  1.00  0.00     0.000 C 
BRANCH   4   5
ATOM      5  C   UNL     1      -7.256 -11.029  16.176  1.00  0.00     0.000 C 
BRANCH   5   6
ATOM      6  C   UNL     1      -6.474 -12.334  15.969  1.00  0.00     0.000 C 
BRANCH   6   7
ATOM      7  C   UNL     1      -7.356 -13.557  16.248  1.00  0.00     0.000 C 
BRANCH   7   8
ATOM      8  C   UNL     1      -7.538 -13.770  17.755  1.00  0.00     0.000 C 
BRANCH   8   9
ATOM      9  C   UNL     1      -8.981 -14.161  18.091  1.00  0.00     0.000 C 
BRANCH   9  10
ATOM     10  C   UNL     1      -9.701 -14.714  16.851  1.00  0.00     0.006 C 
BRANCH  10  11
ATOM     11  C   UNL     1     -11.070 -14.055  16.629  1.00  0.00     0.053 C 
BRANCH  11  12
ATOM     12  C   UNL     1     -11.337 -13.782  15.180  1.00  0.00     0.041 C 
ATOM     13  O   UNL     1     -10.404 -13.852  14.336  1.00  0.00    -0.550 OA
ATOM     14  O   UNL     1     -12.621 -13.455  14.759  1.00  0.00    -0.550 OA
ENDBRANCH  11  12
ENDBRANCH  10  11
ENDBRANCH   9  10
ENDBRANCH   8   9
ENDBRANCH   7   8
ENDBRANCH   6   7
ENDBRANCH   5   6
ENDBRANCH   4   5
ENDBRANCH   3   4
ENDBRANCH   2   3
ENDBRANCH   1   2
BRANCH   1  15
ATOM     15  C   UNL     1      -8.962  -7.975  17.840  1.00  0.00     0.000 C 
BRANCH  15  16
ATOM     16  C   UNL     1      -8.389  -6.979  18.865  1.00  0.00     0.000 C 
BRANCH  16  17
ATOM     17  C   UNL     1      -6.878  -7.168  19.097  1.00  0.00     0.000 C 
BRANCH  17  18
ATOM     18  C   UNL     1      -6.201  -7.954  17.962  1.00  0.00    -0.000 C 
BRANCH  18  19
ATOM     19  C   UNL     1      -5.189  -8.988  18.485  1.00  0.00    -0.000 C 
BRANCH  19  20
ATOM     20  C   UNL     1      -5.846 -10.082  19.344  1.00  0.00    -0.000 C 
BRANCH  20  21
ATOM     21  C   UNL     1      -5.260 -10.155  20.762  1.00  0.00    -0.000 C 
BRANCH  21  22
ATOM     22  C   UNL     1      -6.339 -10.071  21.856  1.00  0.00    -0.000 C 
BRANCH  22  23
ATOM     23  C   UNL     1      -7.779 -10.047  21.302  1.00  0.00    -0.000 C 
BRANCH  23  24
ATOM     24  C   UNL     1      -8.637  -8.955  21.968  1.00  0.00    -0.000 C 
BRANCH  24  25
ATOM     25  C   UNL     1      -7.792  -7.907  22.709  1.00  0.00    -0.003 C 
ATOM     26  C   UNL     1      -8.587  -7.144  23.767  1.00  0.00     0.004 C 
ENDBRANCH  24  25
ENDBRANCH  23  24
ENDBRANCH  22  23
ENDBRANCH  21  22
ENDBRANCH  20  21
ENDBRANCH  19  20
ENDBRANCH  18  19
ENDBRANCH  17  18
ENDBRANCH  16  17
ENDBRANCH  15  16
ENDBRANCH   1  15
TORSDOF 22
ENDMDL
MODEL 6
REMARK VINA RESULT:    -4.062      3.064      6.626
REMARK INTER + INTRA:         -13.239
REMARK INTER:                  -8.864
REMARK INTRA:                  -4.376
REMARK UNBOUND:                -3.954
REMARK SMILES CCCCCCCCCCCCCCCCCCCCCCCC(=O)[O-]
REMARK SMILES IDX 13 1 14 2 15 3 16 4 17 5 18 6 19 7 20 8 21 9 22 10 23 11
REMARK SMILES IDX 24 12 25 13 26 14 12 15 11 16 10 17 9 18 8 19 7 20 6 21 5 22
REMARK SMILES IDX 4 23 3 24 2 25 1 26
REMARK H PARENT
REMARK Flexibility Score: inf
ROOT
ATOM      1  C   UNL     1      -7.128  -7.930  14.351  1.00  0.00     0.000 C 
ENDROOT
BRANCH   1   2
ATOM      2  C   UNL     1      -7.615  -9.073  15.260  1.00  0.00     0.000 C 
BRANCH   2   3
ATOM      3  C   UNL     1      -6.465  -9.966  15.750  1.00  0.00     0.000 C 
BRANCH   3   4
ATOM      4  C   UNL     1      -6.427 -10.087  17.282  1.00  0.00     0.000 C 
BRANCH   4   5
ATOM      5  C   UNL     1      -5.942 -11.469  17.751  1.00  0.00     0.000 C 
BRANCH   5   6
ATOM      6  C   UNL     1      -7.085 -12.488  17.859  1.00  0.00     0.000 C 
BRANCH   6   7
ATOM      7  C   UNL     1      -6.913 -13.622  16.841  1.00  0.00     0.000 C 
BRANCH   7   8
ATOM      8  C   UNL     1      -8.234 -13.918  16.120  1.00  0.00     0.000 C 
BRANCH   8   9
ATOM      9  C   UNL     1      -8.572 -12.820  15.106  1.00  0.00     0.000 C 
BRANCH   9  10
ATOM     10  C   UNL     1     -10.064 -12.460  15.165  1.00  0.00     0.006 C 
BRANCH  10  11
ATOM     11  C   UNL     1     -10.434 -11.710  16.453  1.00  0.00     0.053 C 
BRANCH  11  12
ATOM     12  C   UNL     1     -11.374 -12.496  17.315  1.00  0.00     0.041 C 
ATOM     13  O   UNL     1     -11.824 -12.000  18.383  1.00  0.00    -0.550 OA
ATOM     14  O   UNL     1     -11.760 -13.776  16.937  1.00  0.00    -0.550 OA
ENDBRANCH  11  12
ENDBRANCH  10  11
ENDBRANCH   9  10
ENDBRANCH   8   9
ENDBRANCH   7   8
ENDBRANCH   6   7
ENDBRANCH   5   6
ENDBRANCH   4   5
ENDBRANCH   3   4
ENDBRANCH   2   3
ENDBRANCH   1   2
BRANCH   1  15
ATOM     15  C   UNL     1      -7.414  -6.535  14.939  1.00  0.00     0.000 C 
BRANCH  15  16
ATOM     16  C   UNL     1      -6.160  -5.691  15.231  1.00  0.00     0.000 C 
BRANCH  16  17
ATOM     17  C   UNL     1      -6.017  -5.336  16.723  1.00  0.00     0.000 C 
BRANCH  17  18
ATOM     18  C   UNL     1      -5.543  -6.528  17.570  1.00  0.00    -0.000 C 
BRANCH  18  19
ATOM     19  C   UNL     1      -6.558  -6.916  18.658  1.00  0.00    -0.000 C 
BRANCH  19  20
ATOM     20  C   UNL     1      -7.810  -6.023  18.651  1.00  0.00    -0.000 C 
BRANCH  20  21
ATOM     21  C   UNL     1      -9.077  -6.771  19.094  1.00  0.00    -0.000 C 
BRANCH  21  22
ATOM     22  C   UNL     1      -9.318  -8.061  18.292  1.00  0.00    -0.000 C 
BRANCH  22  23
ATOM     23  C   UNL     1      -9.603  -9.293  19.176  1.00  0.00    -0.000 C 
BRANCH  23  24
ATOM     24  C   UNL     1      -9.004  -9.144  20.587  1.00  0.00    -0.000 C 
BRANCH  24  25
ATOM     25  C   UNL     1      -7.647  -9.849  20.733  1.00  0.00    -0.003 C 
ATOM     26  C   UNL     1      -6.994  -9.606  22.092  1.00  0.00     0.004 C 
ENDBRANCH  24  25
ENDBRANCH  23  24
ENDBRANCH  22  23
ENDBRANCH  21  22
ENDBRANCH  20  21
ENDBRANCH  19  20
ENDBRANCH  18  19
ENDBRANCH  17  18
ENDBRANCH  16  17
ENDBRANCH  15  16
ENDBRANCH   1  15
TORSDOF 22
ENDMDL
MODEL 7
REMARK VINA RESULT:    -3.987      3.023      5.918
REMARK INTER + INTRA:         -13.068
REMARK INTER:                  -8.706
REMARK INTRA:                  -4.362
REMARK UNBOUND:                -3.954
REMARK SMILES CCCCCCCCCCCCCCCCCCCCCCCC(=O)[O-]
REMARK SMILES IDX 13 1 14 2 15 3 16 4 17 5 18 6 19 7 20 8 21 9 22 10 23 11
REMARK SMILES IDX 24 12 25 13 26 14 12 15 11 16 10 17 9 18 8 19 7 20 6 21 5 22
REMARK SMILES IDX 4 23 3 24 2 25 1 26
REMARK H PARENT
REMARK Flexibility Score: inf
ROOT
ATOM      1  C   UNL     1      -9.472 -10.739  18.109  1.00  0.00     0.000 C 
ENDROOT
BRANCH   1   2
ATOM      2  C   UNL     1      -9.669  -9.851  16.867  1.00  0.00     0.000 C 
BRANCH   2   3
ATOM      3  C   UNL     1      -8.845 -10.333  15.663  1.00  0.00     0.000 C 
BRANCH   3   4
ATOM      4  C   UNL     1      -7.885  -9.252  15.138  1.00  0.00     0.000 C 
BRANCH   4   5
ATOM      5  C   UNL     1      -6.497  -9.329  15.794  1.00  0.00     0.000 C 
BRANCH   5   6
ATOM      6  C   UNL     1      -6.205  -8.120  16.695  1.00  0.00     0.000 C 
BRANCH   6   7
ATOM      7  C   UNL     1      -7.336  -7.086  16.616  1.00  0.00     0.000 C 
BRANCH   7   8
ATOM      8  C   UNL     1      -7.708  -6.573  18.012  1.00  0.00     0.000 C 
BRANCH   8   9
ATOM      9  C   UNL     1      -6.776  -7.150  19.083  1.00  0.00     0.000 C 
BRANCH   9  10
ATOM     10  C   UNL     1      -7.189  -6.672  20.484  1.00  0.00     0.006 C 
BRANCH  10  11
ATOM     11  C   UNL     1      -8.595  -7.146  20.873  1.00  0.00     0.053 C 
BRANCH  11  12
ATOM     12  C   UNL     1      -8.565  -8.175  21.962  1.00  0.00     0.041 C 
ATOM     13  O   UNL     1      -9.574  -8.357  22.695  1.00  0.00    -0.550 OA
ATOM     14  O   UNL     1      -7.422  -8.940  22.164  1.00  0.00    -0.550 OA
ENDBRANCH  11  12
ENDBRANCH  10  11
ENDBRANCH   9  10
ENDBRANCH   8   9
ENDBRANCH   7   8
ENDBRANCH   6   7
ENDBRANCH   5   6
ENDBRANCH   4   5
ENDBRANCH   3   4
ENDBRANCH   2   3
ENDBRANCH   1   2
BRANCH   1  15
ATOM     15  C   UNL     1      -8.257 -10.321  18.957  1.00  0.00     0.000 C 
BRANCH  15  16
ATOM     16  C   UNL     1      -7.377 -11.488  19.442  1.00  0.00     0.000 C 
BRANCH  16  17
ATOM     17  C   UNL     1      -6.077 -11.630  18.628  1.00  0.00     0.000 C 
BRANCH  17  18
ATOM     18  C   UNL     1      -6.227 -12.597  17.442  1.00  0.00    -0.000 C 
BRANCH  18  19
ATOM     19  C   UNL     1      -7.192 -13.756  17.747  1.00  0.00    -0.000 C 
BRANCH  19  20
ATOM     20  C   UNL     1      -8.322 -13.878  16.711  1.00  0.00    -0.000 C 
BRANCH  20  21
ATOM     21  C   UNL     1      -9.543 -14.640  17.251  1.00  0.00    -0.000 C 
BRANCH  21  22
ATOM     22  C   UNL     1     -10.787 -13.746  17.395  1.00  0.00    -0.000 C 
BRANCH  22  23
ATOM     23  C   UNL     1     -11.854 -13.996  16.308  1.00  0.00    -0.000 C 
BRANCH  23  24
ATOM     24  C   UNL     1     -11.667 -13.072  15.091  1.00  0.00    -0.000 C 
BRANCH  24  25
ATOM     25  C   UNL     1     -11.224 -13.833  13.831  1.00  0.00    -0.003 C 
ATOM     26  C   UNL     1      -9.827 -13.436  13.359  1.00  0.00     0.004 C 
ENDBRANCH  24  25
ENDBRANCH  23  24
ENDBRANCH  22  23
ENDBRANCH  21  22
ENDBRANCH  20  21
ENDBRANCH  19  20
ENDBRANCH  18  19
ENDBRANCH  17  18
ENDBRANCH  16  17
ENDBRANCH  15  16
ENDBRANCH   1  15
TORSDOF 22
ENDMDL
MODEL 8
REMARK VINA RESULT:    -3.965      3.269      6.260
REMARK INTER + INTRA:         -13.018
REMARK INTER:                  -8.530
REMARK INTRA:                  -4.488
REMARK UNBOUND:                -3.954
REMARK SMILES CCCCCCCCCCCCCCCCCCCCCCCC(=O)[O-]
REMARK SMILES IDX 13 1 14 2 15 3 16 4 17 5 18 6 19 7 20 8 21 9 22 10 23 11
REMARK SMILES IDX 24 12 25 13 26 14 12 15 11 16 10 17 9 18 8 19 7 20 6 21 5 22
REMARK SMILES IDX 4 23 3 24 2 25 1 26
REMARK H PARENT
REMARK Flexibility Score: inf
ROOT
ATOM      1  C   UNL     1      -9.811 -10.517  16.081  1.00  0.00     0.000 C 
ENDROOT
BRANCH   1   2
ATOM      2  C   UNL     1     -10.068 -11.127  17.471  1.00  0.00     0.000 C 
BRANCH   2   3
ATOM      3  C   UNL     1      -8.900 -10.891  18.441  1.00  0.00     0.000 C 
BRANCH   3   4
ATOM      4  C   UNL     1      -8.074 -12.166  18.685  1.00  0.00     0.000 C 
BRANCH   4   5
ATOM      5  C   UNL     1      -6.573 -11.952  18.427  1.00  0.00     0.000 C 
BRANCH   5   6
ATOM      6  C   UNL     1      -6.133 -12.475  17.051  1.00  0.00     0.000 C 
BRANCH   6   7
ATOM      7  C   UNL     1      -7.200 -13.392  16.442  1.00  0.00     0.000 C 
BRANCH   7   8
ATOM      8  C   UNL     1      -7.346 -13.140  14.937  1.00  0.00     0.000 C 
BRANCH   8   9
ATOM      9  C   UNL     1      -8.595 -13.828  14.376  1.00  0.00     0.000 C 
BRANCH   9  10
ATOM     10  C   UNL     1      -9.549 -14.240  15.509  1.00  0.00     0.006 C 
BRANCH  10  11
ATOM     11  C   UNL     1     -11.014 -13.920  15.183  1.00  0.00     0.053 C 
BRANCH  11  12
ATOM     12  C   UNL     1     -11.942 -14.335  16.284  1.00  0.00     0.041 C 
ATOM     13  O   UNL     1     -11.815 -13.848  17.440  1.00  0.00    -0.550 OA
ATOM     14  O   UNL     1     -12.952 -15.255  16.033  1.00  0.00    -0.550 OA
ENDBRANCH  11  12
ENDBRANCH  10  11
ENDBRANCH   9  10
ENDBRANCH   8   9
ENDBRANCH   7   8
ENDBRANCH   6   7
ENDBRANCH   5   6
ENDBRANCH   4   5
ENDBRANCH   3   4
ENDBRANCH   2   3
ENDBRANCH   1   2
BRANCH   1  15
ATOM     15  C   UNL     1      -8.903  -9.274  16.132  1.00  0.00     0.000 C 
BRANCH  15  16
ATOM     16  C   UNL     1      -7.587  -9.406  15.344  1.00  0.00     0.000 C 
BRANCH  16  17
ATOM     17  C   UNL     1      -6.552  -8.333  15.731  1.00  0.00     0.000 C 
BRANCH  17  18
ATOM     18  C   UNL     1      -5.792  -8.686  17.020  1.00  0.00    -0.000 C 
BRANCH  18  19
ATOM     19  C   UNL     1      -6.238  -7.829  18.218  1.00  0.00    -0.000 C 
BRANCH  19  20
ATOM     20  C   UNL     1      -7.039  -6.586  17.796  1.00  0.00    -0.000 C 
BRANCH  20  21
ATOM     21  C   UNL     1      -8.277  -6.350  18.676  1.00  0.00    -0.000 C 
BRANCH  21  22
ATOM     22  C   UNL     1      -8.638  -7.574  19.535  1.00  0.00    -0.000 C 
BRANCH  22  23
ATOM     23  C   UNL     1      -8.567  -7.304  21.053  1.00  0.00    -0.000 C 
BRANCH  23  24
ATOM     24  C   UNL     1      -8.753  -8.591  21.878  1.00  0.00    -0.000 C 
BRANCH  24  25
ATOM     25  C   UNL     1      -7.742  -9.686  21.505  1.00  0.00    -0.003 C 
ATOM     26  C   UNL     1      -6.306  -9.319  21.875  1.00  0.00     0.004 C 
ENDBRANCH  24  25
ENDBRANCH  23  24
ENDBRANCH  22  23
ENDBRANCH  21  22
ENDBRANCH  20  21
ENDBRANCH  19  20
ENDBRANCH  18  19
ENDBRANCH  17  18
ENDBRANCH  16  17
ENDBRANCH  15  16
ENDBRANCH   1  15
TORSDOF 22
ENDMDL
MODEL 9
REMARK VINA RESULT:    -3.941      2.972      5.762
REMARK INTER + INTRA:         -12.964
REMARK INTER:                  -8.759
REMARK INTRA:                  -4.205
REMARK UNBOUND:                -3.954
REMARK SMILES CCCCCCCCCCCCCCCCCCCCCCCC(=O)[O-]
REMARK SMILES IDX 13 1 14 2 15 3 16 4 17 5 18 6 19 7 20 8 21 9 22 10 23 11
REMARK SMILES IDX 24 12 25 13 26 14 12 15 11 16 10 17 9 18 8 19 7 20 6 21 5 22
REMARK SMILES IDX 4 23 3 24 2 25 1 26
REMARK H PARENT
REMARK Flexibility Score: inf
ROOT
ATOM      1  C   UNL     1      -8.926 -10.128  15.925  1.00  0.00     0.000 C 
ENDROOT
BRANCH   1   2
ATOM      2  C   UNL     1      -8.250  -8.835  15.433  1.00  0.00     0.000 C 
BRANCH   2   3
ATOM      3  C   UNL     1      -6.746  -9.020  15.177  1.00  0.00     0.000 C 
BRANCH   3   4
ATOM      4  C   UNL     1      -6.133  -7.839  14.405  1.00  0.00     0.000 C 
BRANCH   4   5
ATOM      5  C   UNL     1      -6.511  -6.479  15.014  1.00  0.00     0.000 C 
BRANCH   5   6
ATOM      6  C   UNL     1      -5.629  -6.107  16.215  1.00  0.00     0.000 C 
BRANCH   6   7
ATOM      7  C   UNL     1      -6.482  -5.669  17.413  1.00  0.00     0.000 C 
BRANCH   7   8
ATOM      8  C   UNL     1      -6.962  -6.883  18.217  1.00  0.00     0.000 C 
BRANCH   8   9
ATOM      9  C   UNL     1      -8.452  -6.770  18.556  1.00  0.00     0.000 C 
BRANCH   9  10
ATOM     10  C   UNL     1      -8.695  -7.031  20.051  1.00  0.00     0.006 C 
BRANCH  10  11
ATOM     11  C   UNL     1      -7.575  -7.865  20.688  1.00  0.00     0.053 C 
BRANCH  11  12
ATOM     12  C   UNL     1      -8.109  -9.033  21.460  1.00  0.00     0.041 C 
ATOM     13  O   UNL     1      -7.404 -10.066  21.620  1.00  0.00    -0.550 OA
ATOM     14  O   UNL     1      -9.383  -8.979  22.011  1.00  0.00    -0.550 OA
ENDBRANCH  11  12
ENDBRANCH  10  11
ENDBRANCH   9  10
ENDBRANCH   8   9
ENDBRANCH   7   8
ENDBRANCH   6   7
ENDBRANCH   5   6
ENDBRANCH   4   5
ENDBRANCH   3   4
ENDBRANCH   2   3
ENDBRANCH   1   2
BRANCH   1  15
ATOM     15  C   UNL     1      -9.768  -9.915  17.198  1.00  0.00     0.000 C 
BRANCH  15  16
ATOM     16  C   UNL     1      -9.214 -10.603  18.458  1.00  0.00     0.000 C 
BRANCH  16  17
ATOM     17  C   UNL     1      -7.994 -11.495  18.161  1.00  0.00     0.000 C 
BRANCH  17  18
ATOM     18  C   UNL     1      -8.257 -12.977  18.476  1.00  0.00    -0.000 C 
BRANCH  18  19
ATOM     19  C   UNL     1      -7.767 -13.911  17.356  1.00  0.00    -0.000 C 
BRANCH  19  20
ATOM     20  C   UNL     1      -6.787 -13.222  16.392  1.00  0.00    -0.000 C 
BRANCH  20  21
ATOM     21  C   UNL     1      -7.281 -13.232  14.937  1.00  0.00    -0.000 C 
BRANCH  21  22
ATOM     22  C   UNL     1      -8.616 -13.976  14.766  1.00  0.00    -0.000 C 
BRANCH  22  23
ATOM     23  C   UNL     1      -9.704 -13.138  14.062  1.00  0.00    -0.000 C 
BRANCH  23  24
ATOM     24  C   UNL     1     -11.123 -13.557  14.489  1.00  0.00    -0.000 C 
BRANCH  24  25
ATOM     25  C   UNL     1     -11.594 -12.840  15.764  1.00  0.00    -0.003 C 
ATOM     26  C   UNL     1     -11.558 -13.739  16.998  1.00  0.00     0.004 C 
ENDBRANCH  24  25
ENDBRANCH  23  24
ENDBRANCH  22  23
ENDBRANCH  21  22
ENDBRANCH  20  21
ENDBRANCH  19  20
ENDBRANCH  18  19
ENDBRANCH  17  18
ENDBRANCH  16  17
ENDBRANCH  15  16
ENDBRANCH   1  15
TORSDOF 22
ENDMDL
