MODEL 1
REMARK VINA RESULT:    -6.094      0.000      0.000
REMARK INTER + INTRA:         -18.082
REMARK INTER:                 -15.358
REMARK INTRA:                  -2.724
REMARK UNBOUND:                -2.724
REMARK SMILES CCCCCCCCCCCCCCCCCCCCCCCCCCCC(=O)[O-]
REMARK SMILES IDX 15 1 16 2 17 3 18 4 19 5 20 6 21 7 22 8 23 9 24 10 25 11
REMARK SMILES IDX 26 12 27 13 28 14 29 15 30 16 14 17 13 18 12 19 11 20 10 21
REMARK SMILES IDX 9 22 8 23 7 24 6 25 5 26 4 27 3 28 2 29 1 30
REMARK H PARENT
REMARK Flexibility Score: inf
ROOT
ATOM      1  C   UNL     1      89.352 323.979 199.219  1.00  0.00     0.000 C 
ENDROOT
BRANCH   1   2
ATOM      2  C   UNL     1      88.511 323.701 197.965  1.00  0.00     0.000 C 
BRANCH   2   3
ATOM      3  C   UNL     1      89.078 324.436 196.744  1.00  0.00     0.000 C 
BRANCH   3   4
ATOM      4  C   UNL     1      88.350 325.772 196.527  1.00  0.00     0.000 C 
BRANCH   4   5
ATOM      5  C   UNL     1      88.826 326.515 195.269  1.00  0.00     0.000 C 
BRANCH   5   6
ATOM      6  C   UNL     1      87.665 326.877 194.326  1.00  0.00     0.000 C 
BRANCH   6   7
ATOM      7  C   UNL     1      86.387 326.079 194.631  1.00  0.00     0.000 C 
BRANCH   7   8
ATOM      8  C   UNL     1      86.083 325.019 193.558  1.00  0.00     0.000 C 
BRANCH   8   9
ATOM      9  C   UNL     1      86.816 323.693 193.813  1.00  0.00     0.000 C 
BRANCH   9  10
ATOM     10  C   UNL     1      88.139 323.590 193.039  1.00  0.00     0.000 C 
BRANCH  10  11
ATOM     11  C   UNL     1      88.045 324.332 191.699  1.00  0.00     0.000 C 
BRANCH  11  12
ATOM     12  C   UNL     1      87.790 323.387 190.510  1.00  0.00     0.006 C 
BRANCH  12  13
ATOM     13  C   UNL     1      88.719 323.619 189.308  1.00  0.00     0.053 C 
BRANCH  13  14
ATOM     14  C   UNL     1      89.700 322.500 189.131  1.00  0.00     0.041 C 
ATOM     15  O   UNL     1      90.487 322.496 188.150  1.00  0.00    -0.550 OA
ATOM     16  O   UNL     1      89.726 321.448 190.039  1.00  0.00    -0.550 OA
ENDBRANCH  13  14
ENDBRANCH  12  13
ENDBRANCH  11  12
ENDBRANCH  10  11
ENDBRANCH   9  10
ENDBRANCH   8   9
ENDBRANCH   7   8
ENDBRANCH   6   7
ENDBRANCH   5   6
ENDBRANCH   4   5
ENDBRANCH   3   4
ENDBRANCH   2   3
ENDBRANCH   1   2
BRANCH   1  17
ATOM     17  C   UNL     1      88.495 324.259 200.469  1.00  0.00     0.000 C 
BRANCH  17  18
ATOM     18  C   UNL     1      88.534 325.711 200.982  1.00  0.00     0.000 C 
BRANCH  18  19
ATOM     19  C   UNL     1      89.915 326.371 200.821  1.00  0.00     0.000 C 
BRANCH  19  20
ATOM     20  C   UNL     1      90.588 326.668 202.169  1.00  0.00     0.000 C 
BRANCH  20  21
ATOM     21  C   UNL     1      89.728 326.249 203.375  1.00  0.00     0.000 C 
BRANCH  21  22
ATOM     22  C   UNL     1      89.318 327.442 204.258  1.00  0.00    -0.000 C 
BRANCH  22  23
ATOM     23  C   UNL     1      89.518 327.230 205.774  1.00  0.00    -0.000 C 
BRANCH  23  24
ATOM     24  C   UNL     1      89.110 325.842 206.299  1.00  0.00    -0.000 C 
BRANCH  24  25
ATOM     25  C   UNL     1      87.811 325.820 207.125  1.00  0.00    -0.000 C 
BRANCH  25  26
ATOM     26  C   UNL     1      86.637 325.115 206.412  1.00  0.00    -0.000 C 
BRANCH  26  27
ATOM     27  C   UNL     1      87.110 324.148 205.317  1.00  0.00    -0.000 C 
BRANCH  27  28
ATOM     28  C   UNL     1      86.535 322.742 205.538  1.00  0.00    -0.000 C 
BRANCH  28  29
ATOM     29  C   UNL     1      87.072 321.718 204.525  1.00  0.00    -0.003 C 
ATOM     30  C   UNL     1      87.014 322.225 203.084  1.00  0.00     0.004 C 
ENDBRANCH  28  29
ENDBRANCH  27  28
ENDBRANCH  26  27
ENDBRANCH  25  26
ENDBRANCH  24  25
ENDBRANCH  23  24
ENDBRANCH  22  23
ENDBRANCH  21  22
ENDBRANCH  20  21
ENDBRANCH  19  20
ENDBRANCH  18  19
ENDBRANCH  17  18
ENDBRANCH   1  17
TORSDOF 26
ENDMDL
MODEL 2
REMARK VINA RESULT:    -6.082      4.238     10.933
REMARK INTER + INTRA:         -18.049
REMARK INTER:                 -14.273
REMARK INTRA:                  -3.776
REMARK UNBOUND:                -2.724
REMARK SMILES CCCCCCCCCCCCCCCCCCCCCCCCCCCC(=O)[O-]
REMARK SMILES IDX 15 1 16 2 17 3 18 4 19 5 20 6 21 7 22 8 23 9 24 10 25 11
REMARK SMILES IDX 26 12 27 13 28 14 29 15 30 16 14 17 13 18 12 19 11 20 10 21
REMARK SMILES IDX 9 22 8 23 7 24 6 25 5 26 4 27 3 28 2 29 1 30
REMARK H PARENT
REMARK Flexibility Score: inf
ROOT
ATOM      1  C   UNL     1      89.077 325.567 199.018  1.00  0.00     0.000 C 
ENDROOT
BRANCH   1   2
ATOM      2  C   UNL     1      89.519 326.150 200.368  1.00  0.00     0.000 C 
BRANCH   2   3
ATOM      3  C   UNL     1      88.485 325.861 201.462  1.00  0.00     0.000 C 
BRANCH   3   4
ATOM      4  C   UNL     1      88.326 324.347 201.674  1.00  0.00     0.000 C 
BRANCH   4   5
ATOM      5  C   UNL     1      87.433 324.002 202.876  1.00  0.00     0.000 C 
BRANCH   5   6
ATOM      6  C   UNL     1      88.076 322.956 203.804  1.00  0.00     0.000 C 
BRANCH   6   7
ATOM      7  C   UNL     1      87.523 323.020 205.237  1.00  0.00     0.000 C 
BRANCH   7   8
ATOM      8  C   UNL     1      86.336 323.991 205.369  1.00  0.00     0.000 C 
BRANCH   8   9
ATOM      9  C   UNL     1      86.603 325.117 206.379  1.00  0.00     0.000 C 
BRANCH   9  10
ATOM     10  C   UNL     1      87.966 324.979 207.074  1.00  0.00     0.000 C 
BRANCH  10  11
ATOM     11  C   UNL     1      88.836 326.218 206.820  1.00  0.00     0.000 C 
BRANCH  11  12
ATOM     12  C   UNL     1      88.919 326.594 205.329  1.00  0.00     0.006 C 
BRANCH  12  13
ATOM     13  C   UNL     1      90.184 326.085 204.620  1.00  0.00     0.053 C 
BRANCH  13  14
ATOM     14  C   UNL     1      91.143 327.195 204.316  1.00  0.00     0.041 C 
ATOM     15  O   UNL     1      91.534 327.964 205.233  1.00  0.00    -0.550 OA
ATOM     16  O   UNL     1      91.586 327.395 203.014  1.00  0.00    -0.550 OA
ENDBRANCH  13  14
ENDBRANCH  12  13
ENDBRANCH  11  12
ENDBRANCH  10  11
ENDBRANCH   9  10
ENDBRANCH   8   9
ENDBRANCH   7   8
ENDBRANCH   6   7
ENDBRANCH   5   6
ENDBRANCH   4   5
ENDBRANCH   3   4
ENDBRANCH   2   3
ENDBRANCH   1   2
BRANCH   1  17
ATOM     17  C   UNL     1      88.525 326.632 198.053  1.00  0.00     0.000 C 
BRANCH  17  18
ATOM     18  C   UNL     1      88.005 326.095 196.706  1.00  0.00     0.000 C 
BRANCH  18  19
ATOM     19  C   UNL     1      88.919 326.455 195.520  1.00  0.00     0.000 C 
BRANCH  19  20
ATOM     20  C   UNL     1      88.131 326.745 194.235  1.00  0.00     0.000 C 
BRANCH  20  21
ATOM     21  C   UNL     1      86.688 326.210 194.282  1.00  0.00     0.000 C 
BRANCH  21  22
ATOM     22  C   UNL     1      86.428 325.105 193.241  1.00  0.00    -0.000 C 
BRANCH  22  23
ATOM     23  C   UNL     1      87.678 324.621 192.476  1.00  0.00    -0.000 C 
BRANCH  23  24
ATOM     24  C   UNL     1      88.156 323.202 192.836  1.00  0.00    -0.000 C 
BRANCH  24  25
ATOM     25  C   UNL     1      88.756 323.061 194.247  1.00  0.00    -0.000 C 
BRANCH  25  26
ATOM     26  C   UNL     1      87.868 322.255 195.219  1.00  0.00    -0.000 C 
BRANCH  26  27
ATOM     27  C   UNL     1      88.106 322.637 196.687  1.00  0.00    -0.000 C 
BRANCH  27  28
ATOM     28  C   UNL     1      88.424 321.397 197.534  1.00  0.00    -0.000 C 
BRANCH  28  29
ATOM     29  C   UNL     1      88.410 321.692 199.042  1.00  0.00    -0.003 C 
ATOM     30  C   UNL     1      87.011 321.602 199.649  1.00  0.00     0.004 C 
ENDBRANCH  28  29
ENDBRANCH  27  28
ENDBRANCH  26  27
ENDBRANCH  25  26
ENDBRANCH  24  25
ENDBRANCH  23  24
ENDBRANCH  22  23
ENDBRANCH  21  22
ENDBRANCH  20  21
ENDBRANCH  19  20
ENDBRANCH  18  19
ENDBRANCH  17  18
ENDBRANCH   1  17
TORSDOF 26
ENDMDL
MODEL 3
REMARK VINA RESULT:    -6.003      1.174      2.266
REMARK INTER + INTRA:         -17.852
REMARK INTER:                 -15.187
REMARK INTRA:                  -2.665
REMARK UNBOUND:                -2.724
REMARK SMILES CCCCCCCCCCCCCCCCCCCCCCCCCCCC(=O)[O-]
REMARK SMILES IDX 15 1 16 2 17 3 18 4 19 5 20 6 21 7 22 8 23 9 24 10 25 11
REMARK SMILES IDX 26 12 27 13 28 14 29 15 30 16 14 17 13 18 12 19 11 20 10 21
REMARK SMILES IDX 9 22 8 23 7 24 6 25 5 26 4 27 3 28 2 29 1 30
REMARK H PARENT
REMARK Flexibility Score: inf
ROOT
ATOM      1  C   UNL     1      88.631 326.142 201.208  1.00  0.00     0.000 C 
ENDROOT
BRANCH   1   2
ATOM      2  C   UNL     1      89.593 326.089 200.012  1.00  0.00     0.000 C 
BRANCH   2   3
ATOM      3  C   UNL     1      88.848 326.326 198.693  1.00  0.00     0.000 C 
BRANCH   3   4
ATOM      4  C   UNL     1      88.597 324.998 197.963  1.00  0.00     0.000 C 
BRANCH   4   5
ATOM      5  C   UNL     1      88.094 325.192 196.524  1.00  0.00     0.000 C 
BRANCH   5   6
ATOM      6  C   UNL     1      88.824 326.334 195.795  1.00  0.00     0.000 C 
BRANCH   6   7
ATOM      7  C   UNL     1      88.211 326.641 194.419  1.00  0.00     0.000 C 
BRANCH   7   8
ATOM      8  C   UNL     1      86.691 326.398 194.382  1.00  0.00     0.000 C 
BRANCH   8   9
ATOM      9  C   UNL     1      86.283 325.371 193.315  1.00  0.00     0.000 C 
BRANCH   9  10
ATOM     10  C   UNL     1      87.453 324.479 192.873  1.00  0.00     0.000 C 
BRANCH  10  11
ATOM     11  C   UNL     1      87.145 323.800 191.531  1.00  0.00     0.000 C 
BRANCH  11  12
ATOM     12  C   UNL     1      88.372 323.095 190.924  1.00  0.00     0.006 C 
BRANCH  12  13
ATOM     13  C   UNL     1      88.619 323.423 189.443  1.00  0.00     0.053 C 
BRANCH  13  14
ATOM     14  C   UNL     1      89.476 322.392 188.774  1.00  0.00     0.041 C 
ATOM     15  O   UNL     1      89.098 321.193 188.717  1.00  0.00    -0.550 OA
ATOM     16  O   UNL     1      90.706 322.753 188.236  1.00  0.00    -0.550 OA
ENDBRANCH  13  14
ENDBRANCH  12  13
ENDBRANCH  11  12
ENDBRANCH  10  11
ENDBRANCH   9  10
ENDBRANCH   8   9
ENDBRANCH   7   8
ENDBRANCH   6   7
ENDBRANCH   5   6
ENDBRANCH   4   5
ENDBRANCH   3   4
ENDBRANCH   2   3
ENDBRANCH   1   2
BRANCH   1  17
ATOM     17  C   UNL     1      89.353 326.338 202.554  1.00  0.00     0.000 C 
BRANCH  17  18
ATOM     18  C   UNL     1      90.892 326.364 202.479  1.00  0.00     0.000 C 
BRANCH  18  19
ATOM     19  C   UNL     1      91.532 327.273 203.544  1.00  0.00     0.000 C 
BRANCH  19  20
ATOM     20  C   UNL     1      90.554 327.646 204.667  1.00  0.00     0.000 C 
BRANCH  20  21
ATOM     21  C   UNL     1      91.077 327.275 206.066  1.00  0.00     0.000 C 
BRANCH  21  22
ATOM     22  C   UNL     1      90.039 326.508 206.906  1.00  0.00    -0.000 C 
BRANCH  22  23
ATOM     23  C   UNL     1      88.647 326.367 206.254  1.00  0.00    -0.000 C 
BRANCH  23  24
ATOM     24  C   UNL     1      88.221 324.923 205.930  1.00  0.00    -0.000 C 
BRANCH  24  25
ATOM     25  C   UNL     1      86.725 324.628 206.145  1.00  0.00    -0.000 C 
BRANCH  25  26
ATOM     26  C   UNL     1      86.063 323.893 204.961  1.00  0.00    -0.000 C 
BRANCH  26  27
ATOM     27  C   UNL     1      87.051 323.609 203.820  1.00  0.00    -0.000 C 
BRANCH  27  28
ATOM     28  C   UNL     1      86.312 323.168 202.549  1.00  0.00    -0.000 C 
BRANCH  28  29
ATOM     29  C   UNL     1      87.263 322.932 201.364  1.00  0.00    -0.003 C 
ATOM     30  C   UNL     1      88.671 322.537 201.805  1.00  0.00     0.004 C 
ENDBRANCH  28  29
ENDBRANCH  27  28
ENDBRANCH  26  27
ENDBRANCH  25  26
ENDBRANCH  24  25
ENDBRANCH  23  24
ENDBRANCH  22  23
ENDBRANCH  21  22
ENDBRANCH  20  21
ENDBRANCH  19  20
ENDBRANCH  18  19
ENDBRANCH  17  18
ENDBRANCH   1  17
TORSDOF 26
ENDMDL
MODEL 4
REMARK VINA RESULT:    -5.998      3.323     11.822
REMARK INTER + INTRA:         -17.839
REMARK INTER:                 -15.699
REMARK INTRA:                  -2.141
REMARK UNBOUND:                -2.724
REMARK SMILES CCCCCCCCCCCCCCCCCCCCCCCCCCCC(=O)[O-]
REMARK SMILES IDX 15 1 16 2 17 3 18 4 19 5 20 6 21 7 22 8 23 9 24 10 25 11
REMARK SMILES IDX 26 12 27 13 28 14 29 15 30 16 14 17 13 18 12 19 11 20 10 21
REMARK SMILES IDX 9 22 8 23 7 24 6 25 5 26 4 27 3 28 2 29 1 30
REMARK H PARENT
REMARK Flexibility Score: inf
ROOT
ATOM      1  C   UNL     1      88.821 325.353 200.175  1.00  0.00     0.000 C 
ENDROOT
BRANCH   1   2
ATOM      2  C   UNL     1      89.416 326.481 201.029  1.00  0.00     0.000 C 
BRANCH   2   3
ATOM      3  C   UNL     1      90.750 326.057 201.656  1.00  0.00     0.000 C 
BRANCH   3   4
ATOM      4  C   UNL     1      90.719 326.245 203.181  1.00  0.00     0.000 C 
BRANCH   4   5
ATOM      5  C   UNL     1      89.386 326.819 203.685  1.00  0.00     0.000 C 
BRANCH   5   6
ATOM      6  C   UNL     1      89.531 327.540 205.037  1.00  0.00     0.000 C 
BRANCH   6   7
ATOM      7  C   UNL     1      89.787 326.567 206.200  1.00  0.00     0.000 C 
BRANCH   7   8
ATOM      8  C   UNL     1      88.531 326.331 207.059  1.00  0.00     0.000 C 
BRANCH   8   9
ATOM      9  C   UNL     1      87.934 324.930 206.860  1.00  0.00     0.000 C 
BRANCH   9  10
ATOM     10  C   UNL     1      86.493 324.971 206.327  1.00  0.00     0.000 C 
BRANCH  10  11
ATOM     11  C   UNL     1      86.243 323.819 205.343  1.00  0.00     0.000 C 
BRANCH  11  12
ATOM     12  C   UNL     1      87.212 323.836 204.147  1.00  0.00     0.006 C 
BRANCH  12  13
ATOM     13  C   UNL     1      86.520 323.823 202.774  1.00  0.00     0.053 C 
BRANCH  13  14
ATOM     14  C   UNL     1      86.634 322.490 202.099  1.00  0.00     0.041 C 
ATOM     15  O   UNL     1      86.850 322.422 200.862  1.00  0.00    -0.550 OA
ATOM     16  O   UNL     1      86.475 321.322 202.836  1.00  0.00    -0.550 OA
ENDBRANCH  13  14
ENDBRANCH  12  13
ENDBRANCH  11  12
ENDBRANCH  10  11
ENDBRANCH   9  10
ENDBRANCH   8   9
ENDBRANCH   7   8
ENDBRANCH   6   7
ENDBRANCH   5   6
ENDBRANCH   4   5
ENDBRANCH   3   4
ENDBRANCH   2   3
ENDBRANCH   1   2
BRANCH   1  17
ATOM     17  C   UNL     1      89.203 325.458 198.686  1.00  0.00     0.000 C 
BRANCH  17  18
ATOM     18  C   UNL     1      88.467 326.554 197.893  1.00  0.00     0.000 C 
BRANCH  18  19
ATOM     19  C   UNL     1      87.955 326.067 196.525  1.00  0.00     0.000 C 
BRANCH  19  20
ATOM     20  C   UNL     1      88.892 326.454 195.372  1.00  0.00     0.000 C 
BRANCH  20  21
ATOM     21  C   UNL     1      88.138 326.805 194.077  1.00  0.00     0.000 C 
BRANCH  21  22
ATOM     22  C   UNL     1      86.653 326.400 194.124  1.00  0.00    -0.000 C 
BRANCH  22  23
ATOM     23  C   UNL     1      86.294 325.140 193.308  1.00  0.00    -0.000 C 
BRANCH  23  24
ATOM     24  C   UNL     1      87.430 324.112 193.159  1.00  0.00    -0.000 C 
BRANCH  24  25
ATOM     25  C   UNL     1      88.074 324.061 191.761  1.00  0.00    -0.000 C 
BRANCH  25  26
ATOM     26  C   UNL     1      87.740 322.776 190.973  1.00  0.00    -0.000 C 
BRANCH  26  27
ATOM     27  C   UNL     1      87.893 322.961 189.456  1.00  0.00    -0.000 C 
BRANCH  27  28
ATOM     28  C   UNL     1      89.162 323.760 189.124  1.00  0.00    -0.000 C 
BRANCH  28  29
ATOM     29  C   UNL     1      90.269 322.884 188.518  1.00  0.00    -0.003 C 
ATOM     30  C   UNL     1      90.391 321.524 189.204  1.00  0.00     0.004 C 
ENDBRANCH  28  29
ENDBRANCH  27  28
ENDBRANCH  26  27
ENDBRANCH  25  26
ENDBRANCH  24  25
ENDBRANCH  23  24
ENDBRANCH  22  23
ENDBRANCH  21  22
ENDBRANCH  20  21
ENDBRANCH  19  20
ENDBRANCH  18  19
ENDBRANCH  17  18
ENDBRANCH   1  17
TORSDOF 26
ENDMDL
MODEL 5
REMARK VINA RESULT:    -5.975      3.073     10.816
REMARK INTER + INTRA:         -17.780
REMARK INTER:                 -15.221
REMARK INTRA:                  -2.559
REMARK UNBOUND:                -2.724
REMARK SMILES CCCCCCCCCCCCCCCCCCCCCCCCCCCC(=O)[O-]
REMARK SMILES IDX 15 1 16 2 17 3 18 4 19 5 20 6 21 7 22 8 23 9 24 10 25 11
REMARK SMILES IDX 26 12 27 13 28 14 29 15 30 16 14 17 13 18 12 19 11 20 10 21
REMARK SMILES IDX 9 22 8 23 7 24 6 25 5 26 4 27 3 28 2 29 1 30
REMARK H PARENT
REMARK Flexibility Score: inf
ROOT
ATOM      1  C   UNL     1      89.440 325.533 201.923  1.00  0.00     0.000 C 
ENDROOT
BRANCH   1   2
ATOM      2  C   UNL     1      90.616 326.514 202.037  1.00  0.00     0.000 C 
BRANCH   2   3
ATOM      3  C   UNL     1      90.680 327.140 203.435  1.00  0.00     0.000 C 
BRANCH   3   4
ATOM      4  C   UNL     1      89.275 327.254 204.046  1.00  0.00     0.000 C 
BRANCH   4   5
ATOM      5  C   UNL     1      89.291 327.282 205.582  1.00  0.00     0.000 C 
BRANCH   5   6
ATOM      6  C   UNL     1      89.502 325.886 206.194  1.00  0.00     0.000 C 
BRANCH   6   7
ATOM      7  C   UNL     1      88.575 324.826 205.577  1.00  0.00     0.000 C 
BRANCH   7   8
ATOM      8  C   UNL     1      87.143 324.896 206.138  1.00  0.00     0.000 C 
BRANCH   8   9
ATOM      9  C   UNL     1      86.176 323.951 205.408  1.00  0.00     0.000 C 
BRANCH   9  10
ATOM     10  C   UNL     1      86.810 323.291 204.175  1.00  0.00     0.000 C 
BRANCH  10  11
ATOM     11  C   UNL     1      86.238 323.890 202.882  1.00  0.00     0.000 C 
BRANCH  11  12
ATOM     12  C   UNL     1      86.027 322.835 201.780  1.00  0.00     0.006 C 
BRANCH  12  13
ATOM     13  C   UNL     1      86.744 321.500 202.037  1.00  0.00     0.053 C 
BRANCH  13  14
ATOM     14  C   UNL     1      87.224 320.865 200.768  1.00  0.00     0.041 C 
ATOM     15  O   UNL     1      86.536 320.948 199.718  1.00  0.00    -0.550 OA
ATOM     16  O   UNL     1      88.421 320.159 200.753  1.00  0.00    -0.550 OA
ENDBRANCH  13  14
ENDBRANCH  12  13
ENDBRANCH  11  12
ENDBRANCH  10  11
ENDBRANCH   9  10
ENDBRANCH   8   9
ENDBRANCH   7   8
ENDBRANCH   6   7
ENDBRANCH   5   6
ENDBRANCH   4   5
ENDBRANCH   3   4
ENDBRANCH   2   3
ENDBRANCH   1   2
BRANCH   1  17
ATOM     17  C   UNL     1      88.630 325.712 200.625  1.00  0.00     0.000 C 
BRANCH  17  18
ATOM     18  C   UNL     1      89.305 326.573 199.541  1.00  0.00     0.000 C 
BRANCH  18  19
ATOM     19  C   UNL     1      88.598 326.487 198.176  1.00  0.00     0.000 C 
BRANCH  19  20
ATOM     20  C   UNL     1      88.581 325.061 197.609  1.00  0.00     0.000 C 
BRANCH  20  21
ATOM     21  C   UNL     1      88.851 325.013 196.094  1.00  0.00     0.000 C 
BRANCH  21  22
ATOM     22  C   UNL     1      88.964 326.414 195.465  1.00  0.00    -0.000 C 
BRANCH  22  23
ATOM     23  C   UNL     1      88.079 326.645 194.222  1.00  0.00    -0.000 C 
BRANCH  23  24
ATOM     24  C   UNL     1      86.661 326.049 194.309  1.00  0.00    -0.000 C 
BRANCH  24  25
ATOM     25  C   UNL     1      86.360 324.944 193.280  1.00  0.00    -0.000 C 
BRANCH  25  26
ATOM     26  C   UNL     1      87.610 324.152 192.839  1.00  0.00    -0.000 C 
BRANCH  26  27
ATOM     27  C   UNL     1      88.076 324.529 191.425  1.00  0.00    -0.000 C 
BRANCH  27  28
ATOM     28  C   UNL     1      87.991 323.323 190.479  1.00  0.00    -0.000 C 
BRANCH  28  29
ATOM     29  C   UNL     1      88.862 323.495 189.224  1.00  0.00    -0.003 C 
ATOM     30  C   UNL     1      89.641 322.230 188.866  1.00  0.00     0.004 C 
ENDBRANCH  28  29
ENDBRANCH  27  28
ENDBRANCH  26  27
ENDBRANCH  25  26
ENDBRANCH  24  25
ENDBRANCH  23  24
ENDBRANCH  22  23
ENDBRANCH  21  22
ENDBRANCH  20  21
ENDBRANCH  19  20
ENDBRANCH  18  19
ENDBRANCH  17  18
ENDBRANCH   1  17
TORSDOF 26
ENDMDL
MODEL 6
REMARK VINA RESULT:    -5.953      3.347     10.840
REMARK INTER + INTRA:         -17.724
REMARK INTER:                 -14.305
REMARK INTRA:                  -3.420
REMARK UNBOUND:                -2.724
REMARK SMILES CCCCCCCCCCCCCCCCCCCCCCCCCCCC(=O)[O-]
REMARK SMILES IDX 15 1 16 2 17 3 18 4 19 5 20 6 21 7 22 8 23 9 24 10 25 11
REMARK SMILES IDX 26 12 27 13 28 14 29 15 30 16 14 17 13 18 12 19 11 20 10 21
REMARK SMILES IDX 9 22 8 23 7 24 6 25 5 26 4 27 3 28 2 29 1 30
REMARK H PARENT
REMARK Flexibility Score: inf
ROOT
ATOM      1  C   UNL     1      88.878 325.236 198.754  1.00  0.00     0.000 C 
ENDROOT
BRANCH   1   2
ATOM      2  C   UNL     1      88.934 325.578 200.250  1.00  0.00     0.000 C 
BRANCH   2   3
ATOM      3  C   UNL     1      90.383 325.725 200.730  1.00  0.00     0.000 C 
BRANCH   3   4
ATOM      4  C   UNL     1      90.459 326.652 201.953  1.00  0.00     0.000 C 
BRANCH   4   5
ATOM      5  C   UNL     1      89.262 326.488 202.903  1.00  0.00     0.000 C 
BRANCH   5   6
ATOM      6  C   UNL     1      89.692 326.109 204.331  1.00  0.00     0.000 C 
BRANCH   6   7
ATOM      7  C   UNL     1      88.986 326.955 205.403  1.00  0.00     0.000 C 
BRANCH   7   8
ATOM      8  C   UNL     1      88.786 326.188 206.723  1.00  0.00     0.000 C 
BRANCH   8   9
ATOM      9  C   UNL     1      87.356 325.650 206.883  1.00  0.00     0.000 C 
BRANCH   9  10
ATOM     10  C   UNL     1      87.204 324.211 206.369  1.00  0.00     0.000 C 
BRANCH  10  11
ATOM     11  C   UNL     1      86.335 324.174 205.104  1.00  0.00     0.000 C 
BRANCH  11  12
ATOM     12  C   UNL     1      87.057 323.535 203.903  1.00  0.00     0.006 C 
BRANCH  12  13
ATOM     13  C   UNL     1      86.269 323.599 202.585  1.00  0.00     0.053 C 
BRANCH  13  14
ATOM     14  C   UNL     1      86.494 322.387 201.735  1.00  0.00     0.041 C 
ATOM     15  O   UNL     1      86.227 321.241 202.181  1.00  0.00    -0.550 OA
ATOM     16  O   UNL     1      87.024 322.521 200.457  1.00  0.00    -0.550 OA
ENDBRANCH  13  14
ENDBRANCH  12  13
ENDBRANCH  11  12
ENDBRANCH  10  11
ENDBRANCH   9  10
ENDBRANCH   8   9
ENDBRANCH   7   8
ENDBRANCH   6   7
ENDBRANCH   5   6
ENDBRANCH   4   5
ENDBRANCH   3   4
ENDBRANCH   2   3
ENDBRANCH   1   2
BRANCH   1  17
ATOM     17  C   UNL     1      88.512 326.444 197.872  1.00  0.00     0.000 C 
BRANCH  17  18
ATOM     18  C   UNL     1      87.904 326.098 196.499  1.00  0.00     0.000 C 
BRANCH  18  19
ATOM     19  C   UNL     1      88.842 326.426 195.324  1.00  0.00     0.000 C 
BRANCH  19  20
ATOM     20  C   UNL     1      88.087 326.619 194.002  1.00  0.00     0.000 C 
BRANCH  20  21
ATOM     21  C   UNL     1      87.422 325.326 193.496  1.00  0.00     0.000 C 
BRANCH  21  22
ATOM     22  C   UNL     1      88.052 324.802 192.193  1.00  0.00    -0.000 C 
BRANCH  22  23
ATOM     23  C   UNL     1      87.257 323.683 191.487  1.00  0.00    -0.000 C 
BRANCH  23  24
ATOM     24  C   UNL     1      87.790 322.257 191.718  1.00  0.00    -0.000 C 
BRANCH  24  25
ATOM     25  C   UNL     1      86.877 321.358 192.573  1.00  0.00    -0.000 C 
BRANCH  25  26
ATOM     26  C   UNL     1      87.416 321.108 193.997  1.00  0.00    -0.000 C 
BRANCH  26  27
ATOM     27  C   UNL     1      86.671 321.930 195.059  1.00  0.00    -0.000 C 
BRANCH  27  28
ATOM     28  C   UNL     1      87.657 322.625 196.008  1.00  0.00    -0.000 C 
BRANCH  28  29
ATOM     29  C   UNL     1      89.081 322.693 195.434  1.00  0.00    -0.003 C 
ATOM     30  C   UNL     1      90.157 322.426 196.485  1.00  0.00     0.004 C 
ENDBRANCH  28  29
ENDBRANCH  27  28
ENDBRANCH  26  27
ENDBRANCH  25  26
ENDBRANCH  24  25
ENDBRANCH  23  24
ENDBRANCH  22  23
ENDBRANCH  21  22
ENDBRANCH  20  21
ENDBRANCH  19  20
ENDBRANCH  18  19
ENDBRANCH  17  18
ENDBRANCH   1  17
TORSDOF 26
ENDMDL
MODEL 7
REMARK VINA RESULT:    -5.896      1.114      2.230
REMARK INTER + INTRA:         -17.581
REMARK INTER:                 -14.794
REMARK INTRA:                  -2.787
REMARK UNBOUND:                -2.724
REMARK SMILES CCCCCCCCCCCCCCCCCCCCCCCCCCCC(=O)[O-]
REMARK SMILES IDX 15 1 16 2 17 3 18 4 19 5 20 6 21 7 22 8 23 9 24 10 25 11
REMARK SMILES IDX 26 12 27 13 28 14 29 15 30 16 14 17 13 18 12 19 11 20 10 21
REMARK SMILES IDX 9 22 8 23 7 24 6 25 5 26 4 27 3 28 2 29 1 30
REMARK H PARENT
REMARK Flexibility Score: inf
ROOT
ATOM      1  C   UNL     1      88.881 325.552 198.979  1.00  0.00     0.000 C 
ENDROOT
BRANCH   1   2
ATOM      2  C   UNL     1      88.498 326.498 197.833  1.00  0.00     0.000 C 
BRANCH   2   3
ATOM      3  C   UNL     1      88.131 325.715 196.567  1.00  0.00     0.000 C 
BRANCH   3   4
ATOM      4  C   UNL     1      88.577 326.475 195.308  1.00  0.00     0.000 C 
BRANCH   4   5
ATOM      5  C   UNL     1      87.401 326.870 194.401  1.00  0.00     0.000 C 
BRANCH   5   6
ATOM      6  C   UNL     1      86.175 325.961 194.598  1.00  0.00     0.000 C 
BRANCH   6   7
ATOM      7  C   UNL     1      85.937 325.025 193.402  1.00  0.00     0.000 C 
BRANCH   7   8
ATOM      8  C   UNL     1      86.686 323.687 193.540  1.00  0.00     0.000 C 
BRANCH   8   9
ATOM      9  C   UNL     1      88.067 323.711 192.866  1.00  0.00     0.000 C 
BRANCH   9  10
ATOM     10  C   UNL     1      87.996 324.119 191.387  1.00  0.00     0.000 C 
BRANCH  10  11
ATOM     11  C   UNL     1      87.227 323.072 190.569  1.00  0.00     0.000 C 
BRANCH  11  12
ATOM     12  C   UNL     1      87.804 322.878 189.155  1.00  0.00     0.006 C 
BRANCH  12  13
ATOM     13  C   UNL     1      89.219 323.450 188.967  1.00  0.00     0.053 C 
BRANCH  13  14
ATOM     14  C   UNL     1      90.256 322.371 188.887  1.00  0.00     0.041 C 
ATOM     15  O   UNL     1      90.187 321.368 189.643  1.00  0.00    -0.550 OA
ATOM     16  O   UNL     1      91.315 322.489 187.995  1.00  0.00    -0.550 OA
ENDBRANCH  13  14
ENDBRANCH  12  13
ENDBRANCH  11  12
ENDBRANCH  10  11
ENDBRANCH   9  10
ENDBRANCH   8   9
ENDBRANCH   7   8
ENDBRANCH   6   7
ENDBRANCH   5   6
ENDBRANCH   4   5
ENDBRANCH   3   4
ENDBRANCH   2   3
ENDBRANCH   1   2
BRANCH   1  17
ATOM     17  C   UNL     1      89.469 326.287 200.198  1.00  0.00     0.000 C 
BRANCH  17  18
ATOM     18  C   UNL     1      88.663 326.148 201.503  1.00  0.00     0.000 C 
BRANCH  18  19
ATOM     19  C   UNL     1      89.549 326.146 202.762  1.00  0.00     0.000 C 
BRANCH  19  20
ATOM     20  C   UNL     1      88.887 326.856 203.951  1.00  0.00     0.000 C 
BRANCH  20  21
ATOM     21  C   UNL     1      89.578 326.553 205.292  1.00  0.00     0.000 C 
BRANCH  21  22
ATOM     22  C   UNL     1      88.605 326.587 206.485  1.00  0.00    -0.000 C 
BRANCH  22  23
ATOM     23  C   UNL     1      88.047 325.213 206.912  1.00  0.00    -0.000 C 
BRANCH  23  24
ATOM     24  C   UNL     1      86.663 324.862 206.334  1.00  0.00    -0.000 C 
BRANCH  24  25
ATOM     25  C   UNL     1      86.634 323.605 205.445  1.00  0.00    -0.000 C 
BRANCH  25  26
ATOM     26  C   UNL     1      86.375 323.908 203.954  1.00  0.00    -0.000 C 
BRANCH  26  27
ATOM     27  C   UNL     1      86.975 322.842 203.025  1.00  0.00    -0.000 C 
BRANCH  27  28
ATOM     28  C   UNL     1      88.491 322.721 203.234  1.00  0.00    -0.000 C 
BRANCH  28  29
ATOM     29  C   UNL     1      89.257 322.540 201.914  1.00  0.00    -0.003 C 
ATOM     30  C   UNL     1      90.705 322.102 202.125  1.00  0.00     0.004 C 
ENDBRANCH  28  29
ENDBRANCH  27  28
ENDBRANCH  26  27
ENDBRANCH  25  26
ENDBRANCH  24  25
ENDBRANCH  23  24
ENDBRANCH  22  23
ENDBRANCH  21  22
ENDBRANCH  20  21
ENDBRANCH  19  20
ENDBRANCH  18  19
ENDBRANCH  17  18
ENDBRANCH   1  17
TORSDOF 26
ENDMDL
MODEL 8
REMARK VINA RESULT:    -5.888      3.383     11.108
REMARK INTER + INTRA:         -17.562
REMARK INTER:                 -14.830
REMARK INTRA:                  -2.732
REMARK UNBOUND:                -2.724
REMARK SMILES CCCCCCCCCCCCCCCCCCCCCCCCCCCC(=O)[O-]
REMARK SMILES IDX 15 1 16 2 17 3 18 4 19 5 20 6 21 7 22 8 23 9 24 10 25 11
REMARK SMILES IDX 26 12 27 13 28 14 29 15 30 16 14 17 13 18 12 19 11 20 10 21
REMARK SMILES IDX 9 22 8 23 7 24 6 25 5 26 4 27 3 28 2 29 1 30
REMARK H PARENT
REMARK Flexibility Score: inf
ROOT
ATOM      1  C   UNL     1      89.449 326.482 202.015  1.00  0.00     0.000 C 
ENDROOT
BRANCH   1   2
ATOM      2  C   UNL     1      90.962 326.317 201.810  1.00  0.00     0.000 C 
BRANCH   2   3
ATOM      3  C   UNL     1      91.751 327.245 202.741  1.00  0.00     0.000 C 
BRANCH   3   4
ATOM      4  C   UNL     1      92.523 326.433 203.792  1.00  0.00     0.000 C 
BRANCH   4   5
ATOM      5  C   UNL     1      91.614 325.513 204.623  1.00  0.00     0.000 C 
BRANCH   5   6
ATOM      6  C   UNL     1      91.446 326.006 206.071  1.00  0.00     0.000 C 
BRANCH   6   7
ATOM      7  C   UNL     1      90.472 327.191 206.181  1.00  0.00     0.000 C 
BRANCH   7   8
ATOM      8  C   UNL     1      89.033 326.810 205.790  1.00  0.00     0.000 C 
BRANCH   8   9
ATOM      9  C   UNL     1      88.253 326.173 206.951  1.00  0.00     0.000 C 
BRANCH   9  10
ATOM     10  C   UNL     1      87.245 325.116 206.477  1.00  0.00     0.000 C 
BRANCH  10  11
ATOM     11  C   UNL     1      87.636 324.569 205.097  1.00  0.00     0.000 C 
BRANCH  11  12
ATOM     12  C   UNL     1      86.632 323.532 204.560  1.00  0.00     0.006 C 
BRANCH  12  13
ATOM     13  C   UNL     1      86.468 323.546 203.031  1.00  0.00     0.053 C 
BRANCH  13  14
ATOM     14  C   UNL     1      87.092 322.345 202.388  1.00  0.00     0.041 C 
ATOM     15  O   UNL     1      87.828 322.478 201.376  1.00  0.00    -0.550 OA
ATOM     16  O   UNL     1      86.838 321.075 202.892  1.00  0.00    -0.550 OA
ENDBRANCH  13  14
ENDBRANCH  12  13
ENDBRANCH  11  12
ENDBRANCH  10  11
ENDBRANCH   9  10
ENDBRANCH   8   9
ENDBRANCH   7   8
ENDBRANCH   6   7
ENDBRANCH   5   6
ENDBRANCH   4   5
ENDBRANCH   3   4
ENDBRANCH   2   3
ENDBRANCH   1   2
BRANCH   1  17
ATOM     17  C   UNL     1      88.613 325.796 200.918  1.00  0.00     0.000 C 
BRANCH  17  18
ATOM     18  C   UNL     1      89.303 325.670 199.546  1.00  0.00     0.000 C 
BRANCH  18  19
ATOM     19  C   UNL     1      88.609 324.662 198.613  1.00  0.00     0.000 C 
BRANCH  19  20
ATOM     20  C   UNL     1      89.162 324.705 197.181  1.00  0.00     0.000 C 
BRANCH  20  21
ATOM     21  C   UNL     1      88.690 325.940 196.392  1.00  0.00     0.000 C 
BRANCH  21  22
ATOM     22  C   UNL     1      87.360 326.510 196.918  1.00  0.00    -0.000 C 
BRANCH  22  23
ATOM     23  C   UNL     1      86.215 326.554 195.885  1.00  0.00    -0.000 C 
BRANCH  23  24
ATOM     24  C   UNL     1      86.661 326.493 194.412  1.00  0.00    -0.000 C 
BRANCH  24  25
ATOM     25  C   UNL     1      86.025 325.355 193.592  1.00  0.00    -0.000 C 
BRANCH  25  26
ATOM     26  C   UNL     1      86.765 324.007 193.728  1.00  0.00    -0.000 C 
BRANCH  26  27
ATOM     27  C   UNL     1      88.103 323.992 192.973  1.00  0.00    -0.000 C 
BRANCH  27  28
ATOM     28  C   UNL     1      87.921 324.466 191.524  1.00  0.00    -0.000 C 
BRANCH  28  29
ATOM     29  C   UNL     1      87.723 323.300 190.542  1.00  0.00    -0.003 C 
ATOM     30  C   UNL     1      88.830 323.215 189.492  1.00  0.00     0.004 C 
ENDBRANCH  28  29
ENDBRANCH  27  28
ENDBRANCH  26  27
ENDBRANCH  25  26
ENDBRANCH  24  25
ENDBRANCH  23  24
ENDBRANCH  22  23
ENDBRANCH  21  22
ENDBRANCH  20  21
ENDBRANCH  19  20
ENDBRANCH  18  19
ENDBRANCH  17  18
ENDBRANCH   1  17
TORSDOF 26
ENDMDL
MODEL 9
REMARK VINA RESULT:    -5.824      3.089      4.349
REMARK INTER + INTRA:         -17.400
REMARK INTER:                 -13.574
REMARK INTRA:                  -3.826
REMARK UNBOUND:                -2.724
REMARK SMILES CCCCCCCCCCCCCCCCCCCCCCCCCCCC(=O)[O-]
REMARK SMILES IDX 15 1 16 2 17 3 18 4 19 5 20 6 21 7 22 8 23 9 24 10 25 11
REMARK SMILES IDX 26 12 27 13 28 14 29 15 30 16 14 17 13 18 12 19 11 20 10 21
REMARK SMILES IDX 9 22 8 23 7 24 6 25 5 26 4 27 3 28 2 29 1 30
REMARK H PARENT
REMARK Flexibility Score: inf
ROOT
ATOM      1  C   UNL     1      88.504 325.536 197.742  1.00  0.00     0.000 C 
ENDROOT
BRANCH   1   2
ATOM      2  C   UNL     1      87.811 326.124 196.505  1.00  0.00     0.000 C 
BRANCH   2   3
ATOM      3  C   UNL     1      88.830 326.482 195.417  1.00  0.00     0.000 C 
BRANCH   3   4
ATOM      4  C   UNL     1      88.127 326.737 194.075  1.00  0.00     0.000 C 
BRANCH   4   5
ATOM      5  C   UNL     1      86.651 326.309 194.082  1.00  0.00     0.000 C 
BRANCH   5   6
ATOM      6  C   UNL     1      86.394 325.069 193.208  1.00  0.00     0.000 C 
BRANCH   6   7
ATOM      7  C   UNL     1      87.677 324.540 192.545  1.00  0.00     0.000 C 
BRANCH   7   8
ATOM      8  C   UNL     1      88.131 323.191 193.131  1.00  0.00     0.000 C 
BRANCH   8   9
ATOM      9  C   UNL     1      87.134 322.624 194.153  1.00  0.00     0.000 C 
BRANCH   9  10
ATOM     10  C   UNL     1      87.749 322.458 195.551  1.00  0.00     0.000 C 
BRANCH  10  11
ATOM     11  C   UNL     1      89.251 322.774 195.526  1.00  0.00     0.000 C 
BRANCH  11  12
ATOM     12  C   UNL     1      89.966 322.378 196.831  1.00  0.00     0.006 C 
BRANCH  12  13
ATOM     13  C   UNL     1      89.182 321.384 197.703  1.00  0.00     0.053 C 
BRANCH  13  14
ATOM     14  C   UNL     1      88.854 321.953 199.049  1.00  0.00     0.041 C 
ATOM     15  O   UNL     1      87.793 322.607 199.220  1.00  0.00    -0.550 OA
ATOM     16  O   UNL     1      89.737 321.784 200.110  1.00  0.00    -0.550 OA
ENDBRANCH  13  14
ENDBRANCH  12  13
ENDBRANCH  11  12
ENDBRANCH  10  11
ENDBRANCH   9  10
ENDBRANCH   8   9
ENDBRANCH   7   8
ENDBRANCH   6   7
ENDBRANCH   5   6
ENDBRANCH   4   5
ENDBRANCH   3   4
ENDBRANCH   2   3
ENDBRANCH   1   2
BRANCH   1  17
ATOM     17  C   UNL     1      88.882 326.603 198.786  1.00  0.00     0.000 C 
BRANCH  17  18
ATOM     18  C   UNL     1      89.617 326.074 200.033  1.00  0.00     0.000 C 
BRANCH  18  19
ATOM     19  C   UNL     1      88.661 325.653 201.163  1.00  0.00     0.000 C 
BRANCH  19  20
ATOM     20  C   UNL     1      88.878 326.459 202.451  1.00  0.00     0.000 C 
BRANCH  20  21
ATOM     21  C   UNL     1      90.195 326.106 203.166  1.00  0.00     0.000 C 
BRANCH  21  22
ATOM     22  C   UNL     1      90.822 327.312 203.889  1.00  0.00    -0.000 C 
BRANCH  22  23
ATOM     23  C   UNL     1      90.692 327.292 205.427  1.00  0.00    -0.000 C 
BRANCH  23  24
ATOM     24  C   UNL     1      89.248 327.310 205.960  1.00  0.00    -0.000 C 
BRANCH  24  25
ATOM     25  C   UNL     1      88.837 326.057 206.755  1.00  0.00    -0.000 C 
BRANCH  25  26
ATOM     26  C   UNL     1      87.504 325.436 206.285  1.00  0.00    -0.000 C 
BRANCH  26  27
ATOM     27  C   UNL     1      87.714 324.231 205.355  1.00  0.00    -0.000 C 
BRANCH  27  28
ATOM     28  C   UNL     1      86.383 323.773 204.740  1.00  0.00    -0.000 C 
BRANCH  28  29
ATOM     29  C   UNL     1      86.481 323.545 203.224  1.00  0.00    -0.003 C 
ATOM     30  C   UNL     1      87.579 322.551 202.845  1.00  0.00     0.004 C 
ENDBRANCH  28  29
ENDBRANCH  27  28
ENDBRANCH  26  27
ENDBRANCH  25  26
ENDBRANCH  24  25
ENDBRANCH  23  24
ENDBRANCH  22  23
ENDBRANCH  21  22
ENDBRANCH  20  21
ENDBRANCH  19  20
ENDBRANCH  18  19
ENDBRANCH  17  18
ENDBRANCH   1  17
TORSDOF 26
ENDMDL
