MODEL 1
REMARK VINA RESULT:    -5.364      0.000      0.000
REMARK INTER + INTRA:          -7.929
REMARK INTER:                  -7.716
REMARK INTRA:                  -0.213
REMARK UNBOUND:                -0.213
REMARK SMILES O=C(CO)[C@@H](O)[C@H](O)[C@H](O)CO
REMARK SMILES IDX 7 1 9 2 11 3 12 4 10 6 5 8 2 9 1 10 3 11 4 12 6 14 8 16
REMARK H PARENT 12 5 10 7 4 13 6 15 8 17
REMARK Flexibility Score: inf
ROOT
ATOM      1  C   UNL     1     -35.843  22.171   7.089  1.00  0.00     0.181 C 
ENDROOT
BRANCH   1   2
ATOM      2  C   UNL     1     -36.406  21.191   8.160  1.00  0.00     0.171 C 
BRANCH   2   3
ATOM      3  C   UNL     1     -37.194  20.012   7.547  1.00  0.00     0.190 C 
BRANCH   3   4
ATOM      4  O   UNL     1     -37.608  19.128   8.553  1.00  0.00    -0.394 OA
ATOM      5  H   UNL     1     -38.536  18.857   8.331  1.00  0.00     0.210 HD
ENDBRANCH   3   4
ENDBRANCH   2   3
BRANCH   2   6
ATOM      6  O   UNL     1     -35.398  20.742   9.034  1.00  0.00    -0.388 OA
ATOM      7  H   UNL     1     -34.696  21.441   9.079  1.00  0.00     0.211 HD
ENDBRANCH   2   6
ENDBRANCH   1   2
BRANCH   1   8
ATOM      8  C   UNL     1     -36.612  22.170   5.738  1.00  0.00     0.214 C 
BRANCH   8   9
ATOM      9  C   UNL     1     -37.429  23.438   5.573  1.00  0.00     0.189 C 
ATOM     10  O   UNL     1     -37.537  24.217   6.509  1.00  0.00    -0.294 OA
BRANCH   9  11
ATOM     11  C   UNL     1     -38.125  23.760   4.277  1.00  0.00     0.234 C 
BRANCH  11  12
ATOM     12  O   UNL     1     -37.818  25.066   3.876  1.00  0.00    -0.388 OA
ATOM     13  H   UNL     1     -37.882  25.637   4.687  1.00  0.00     0.211 HD
ENDBRANCH  11  12
ENDBRANCH   9  11
ENDBRANCH   8   9
BRANCH   8  14
ATOM     14  O   UNL     1     -35.750  21.989   4.639  1.00  0.00    -0.382 OA
ATOM     15  H   UNL     1     -35.616  22.866   4.197  1.00  0.00     0.211 HD
ENDBRANCH   8  14
ENDBRANCH   1   8
BRANCH   1  16
ATOM     16  O   UNL     1     -34.467  21.953   6.889  1.00  0.00    -0.387 OA
ATOM     17  H   UNL     1     -34.235  21.069   7.277  1.00  0.00     0.211 HD
ENDBRANCH   1  16
TORSDOF 10
ENDMDL
MODEL 2
REMARK VINA RESULT:    -4.890      1.315      2.155
REMARK INTER + INTRA:          -7.248
REMARK INTER:                  -6.378
REMARK INTRA:                  -0.870
REMARK UNBOUND:                -0.213
REMARK SMILES O=C(CO)[C@@H](O)[C@H](O)[C@H](O)CO
REMARK SMILES IDX 7 1 9 2 11 3 12 4 10 6 5 8 2 9 1 10 3 11 4 12 6 14 8 16
REMARK H PARENT 12 5 10 7 4 13 6 15 8 17
REMARK Flexibility Score: inf
ROOT
ATOM      1  C   UNL     1     -38.033  21.052   7.313  1.00  0.00     0.181 C 
ENDROOT
BRANCH   1   2
ATOM      2  C   UNL     1     -37.042  19.940   7.765  1.00  0.00     0.171 C 
BRANCH   2   3
ATOM      3  C   UNL     1     -35.829  20.492   8.546  1.00  0.00     0.190 C 
BRANCH   3   4
ATOM      4  O   UNL     1     -34.950  21.154   7.676  1.00  0.00    -0.394 OA
ATOM      5  H   UNL     1     -34.521  21.879   8.199  1.00  0.00     0.210 HD
ENDBRANCH   3   4
ENDBRANCH   2   3
BRANCH   2   6
ATOM      6  O   UNL     1     -37.697  18.919   8.479  1.00  0.00    -0.388 OA
ATOM      7  H   UNL     1     -37.058  18.171   8.601  1.00  0.00     0.211 HD
ENDBRANCH   2   6
ENDBRANCH   1   2
BRANCH   1   8
ATOM      8  C   UNL     1     -37.743  21.651   5.908  1.00  0.00     0.214 C 
BRANCH   8   9
ATOM      9  C   UNL     1     -37.334  23.109   6.009  1.00  0.00     0.189 C 
ATOM     10  O   UNL     1     -36.425  23.433   6.758  1.00  0.00    -0.294 OA
BRANCH   9  11
ATOM     11  C   UNL     1     -38.034  24.177   5.211  1.00  0.00     0.234 C 
BRANCH  11  12
ATOM     12  O   UNL     1     -37.532  24.209   3.904  1.00  0.00    -0.388 OA
ATOM     13  H   UNL     1     -36.550  24.338   3.978  1.00  0.00     0.211 HD
ENDBRANCH  11  12
ENDBRANCH   9  11
ENDBRANCH   8   9
BRANCH   8  14
ATOM     14  O   UNL     1     -36.770  20.911   5.208  1.00  0.00    -0.382 OA
ATOM     15  H   UNL     1     -37.176  20.572   4.370  1.00  0.00     0.211 HD
ENDBRANCH   8  14
ENDBRANCH   1   8
BRANCH   1  16
ATOM     16  O   UNL     1     -38.125  22.064   8.287  1.00  0.00    -0.387 OA
ATOM     17  H   UNL     1     -37.203  22.350   8.521  1.00  0.00     0.211 HD
ENDBRANCH   1  16
TORSDOF 10
ENDMDL
MODEL 3
REMARK VINA RESULT:    -4.872      0.960      4.555
REMARK INTER + INTRA:          -7.221
REMARK INTER:                  -6.473
REMARK INTRA:                  -0.748
REMARK UNBOUND:                -0.213
REMARK SMILES O=C(CO)[C@@H](O)[C@H](O)[C@H](O)CO
REMARK SMILES IDX 7 1 9 2 11 3 12 4 10 6 5 8 2 9 1 10 3 11 4 12 6 14 8 16
REMARK H PARENT 12 5 10 7 4 13 6 15 8 17
REMARK Flexibility Score: inf
ROOT
ATOM      1  C   UNL     1     -36.729  23.336   6.495  1.00  0.00     0.181 C 
ENDROOT
BRANCH   1   2
ATOM      2  C   UNL     1     -37.126  22.647   5.157  1.00  0.00     0.171 C 
BRANCH   2   3
ATOM      3  C   UNL     1     -37.998  23.545   4.250  1.00  0.00     0.190 C 
BRANCH   3   4
ATOM      4  O   UNL     1     -37.749  24.898   4.520  1.00  0.00    -0.394 OA
ATOM      5  H   UNL     1     -38.142  25.415   3.772  1.00  0.00     0.210 HD
ENDBRANCH   3   4
ENDBRANCH   2   3
BRANCH   2   6
ATOM      6  O   UNL     1     -36.000  22.155   4.472  1.00  0.00    -0.388 OA
ATOM      7  H   UNL     1     -35.662  22.875   3.878  1.00  0.00     0.211 HD
ENDBRANCH   2   6
ENDBRANCH   1   2
BRANCH   1   8
ATOM      8  C   UNL     1     -36.039  22.402   7.529  1.00  0.00     0.214 C 
BRANCH   8   9
ATOM      9  C   UNL     1     -36.971  21.287   7.965  1.00  0.00     0.189 C 
ATOM     10  O   UNL     1     -38.125  21.546   8.274  1.00  0.00    -0.294 OA
BRANCH   9  11
ATOM     11  C   UNL     1     -36.503  19.858   8.040  1.00  0.00     0.234 C 
BRANCH  11  12
ATOM     12  O   UNL     1     -37.466  19.067   8.680  1.00  0.00    -0.388 OA
ATOM     13  H   UNL     1     -37.065  18.166   8.798  1.00  0.00     0.211 HD
ENDBRANCH  11  12
ENDBRANCH   9  11
ENDBRANCH   8   9
BRANCH   8  14
ATOM     14  O   UNL     1     -34.829  21.873   7.039  1.00  0.00    -0.382 OA
ATOM     15  H   UNL     1     -34.714  22.170   6.100  1.00  0.00     0.211 HD
ENDBRANCH   8  14
ENDBRANCH   1   8
BRANCH   1  16
ATOM     16  O   UNL     1     -37.836  23.994   7.065  1.00  0.00    -0.387 OA
ATOM     17  H   UNL     1     -38.591  23.938   6.423  1.00  0.00     0.211 HD
ENDBRANCH   1  16
TORSDOF 10
ENDMDL
MODEL 4
REMARK VINA RESULT:    -4.733      1.392      5.058
REMARK INTER + INTRA:          -7.022
REMARK INTER:                  -6.468
REMARK INTRA:                  -0.554
REMARK UNBOUND:                -0.213
REMARK SMILES O=C(CO)[C@@H](O)[C@H](O)[C@H](O)CO
REMARK SMILES IDX 7 1 9 2 11 3 12 4 10 6 5 8 2 9 1 10 3 11 4 12 6 14 8 16
REMARK H PARENT 12 5 10 7 4 13 6 15 8 17
REMARK Flexibility Score: inf
ROOT
ATOM      1  C   UNL     1     -37.110  23.582   5.882  1.00  0.00     0.181 C 
ENDROOT
BRANCH   1   2
ATOM      2  C   UNL     1     -37.710  24.064   4.529  1.00  0.00     0.171 C 
BRANCH   2   3
ATOM      3  C   UNL     1     -38.125  25.553   4.548  1.00  0.00     0.190 C 
BRANCH   3   4
ATOM      4  O   UNL     1     -37.798  26.165   3.329  1.00  0.00    -0.394 OA
ATOM      5  H   UNL     1     -38.296  25.678   2.623  1.00  0.00     0.210 HD
ENDBRANCH   3   4
ENDBRANCH   2   3
BRANCH   2   6
ATOM      6  O   UNL     1     -36.854  23.779   3.449  1.00  0.00    -0.388 OA
ATOM      7  H   UNL     1     -36.341  22.960   3.672  1.00  0.00     0.211 HD
ENDBRANCH   2   6
ENDBRANCH   1   2
BRANCH   1   8
ATOM      8  C   UNL     1     -36.577  22.122   5.873  1.00  0.00     0.214 C 
BRANCH   8   9
ATOM      9  C   UNL     1     -36.649  21.505   7.258  1.00  0.00     0.189 C 
ATOM     10  O   UNL     1     -37.711  21.062   7.670  1.00  0.00    -0.294 OA
BRANCH   9  11
ATOM     11  C   UNL     1     -35.438  21.435   8.150  1.00  0.00     0.234 C 
BRANCH  11  12
ATOM     12  O   UNL     1     -35.555  20.359   9.039  1.00  0.00    -0.388 OA
ATOM     13  H   UNL     1     -34.646  20.188   9.402  1.00  0.00     0.211 HD
ENDBRANCH  11  12
ENDBRANCH   9  11
ENDBRANCH   8   9
BRANCH   8  14
ATOM     14  O   UNL     1     -37.254  21.317   4.936  1.00  0.00    -0.382 OA
ATOM     15  H   UNL     1     -36.962  21.581   4.026  1.00  0.00     0.211 HD
ENDBRANCH   8  14
ENDBRANCH   1   8
BRANCH   1  16
ATOM     16  O   UNL     1     -38.025  23.782   6.933  1.00  0.00    -0.387 OA
ATOM     17  H   UNL     1     -38.934  23.854   6.539  1.00  0.00     0.211 HD
ENDBRANCH   1  16
TORSDOF 10
ENDMDL
MODEL 5
REMARK VINA RESULT:    -4.616      1.238      4.473
REMARK INTER + INTRA:          -6.853
REMARK INTER:                  -6.342
REMARK INTRA:                  -0.511
REMARK UNBOUND:                -0.213
REMARK SMILES O=C(CO)[C@@H](O)[C@H](O)[C@H](O)CO
REMARK SMILES IDX 7 1 9 2 11 3 12 4 10 6 5 8 2 9 1 10 3 11 4 12 6 14 8 16
REMARK H PARENT 12 5 10 7 4 13 6 15 8 17
REMARK Flexibility Score: inf
ROOT
ATOM      1  C   UNL     1     -37.789  21.646   5.879  1.00  0.00     0.181 C 
ENDROOT
BRANCH   1   2
ATOM      2  C   UNL     1     -37.509  22.564   4.654  1.00  0.00     0.171 C 
BRANCH   2   3
ATOM      3  C   UNL     1     -38.124  23.974   4.802  1.00  0.00     0.190 C 
BRANCH   3   4
ATOM      4  O   UNL     1     -37.756  24.782   3.716  1.00  0.00    -0.394 OA
ATOM      5  H   UNL     1     -38.497  24.732   3.059  1.00  0.00     0.210 HD
ENDBRANCH   3   4
ENDBRANCH   2   3
BRANCH   2   6
ATOM      6  O   UNL     1     -36.135  22.627   4.354  1.00  0.00    -0.388 OA
ATOM      7  H   UNL     1     -36.029  22.516   3.374  1.00  0.00     0.211 HD
ENDBRANCH   2   6
ENDBRANCH   1   2
BRANCH   1   8
ATOM      8  C   UNL     1     -37.298  22.211   7.242  1.00  0.00     0.214 C 
BRANCH   8   9
ATOM      9  C   UNL     1     -36.286  21.282   7.887  1.00  0.00     0.189 C 
ATOM     10  O   UNL     1     -36.663  20.243   8.409  1.00  0.00    -0.294 OA
BRANCH   9  11
ATOM     11  C   UNL     1     -34.819  21.616   7.911  1.00  0.00     0.234 C 
BRANCH  11  12
ATOM     12  O   UNL     1     -34.374  21.929   6.620  1.00  0.00    -0.388 OA
ATOM     13  H   UNL     1     -35.021  22.583   6.246  1.00  0.00     0.211 HD
ENDBRANCH  11  12
ENDBRANCH   9  11
ENDBRANCH   8   9
BRANCH   8  14
ATOM     14  O   UNL     1     -36.769  23.510   7.116  1.00  0.00    -0.382 OA
ATOM     15  H   UNL     1     -37.520  24.143   6.980  1.00  0.00     0.211 HD
ENDBRANCH   8  14
ENDBRANCH   1   8
BRANCH   1  16
ATOM     16  O   UNL     1     -37.284  20.350   5.656  1.00  0.00    -0.387 OA
ATOM     17  H   UNL     1     -37.593  20.050   4.761  1.00  0.00     0.211 HD
ENDBRANCH   1  16
TORSDOF 10
ENDMDL
MODEL 6
REMARK VINA RESULT:    -3.401      1.334      2.393
REMARK INTER + INTRA:          -5.106
REMARK INTER:                  -4.462
REMARK INTRA:                  -0.644
REMARK UNBOUND:                -0.213
REMARK SMILES O=C(CO)[C@@H](O)[C@H](O)[C@H](O)CO
REMARK SMILES IDX 7 1 9 2 11 3 12 4 10 6 5 8 2 9 1 10 3 11 4 12 6 14 8 16
REMARK H PARENT 12 5 10 7 4 13 6 15 8 17
REMARK Flexibility Score: inf
ROOT
ATOM      1  C   UNL     1     -36.182  22.156   6.281  1.00  0.00     0.181 C 
ENDROOT
BRANCH   1   2
ATOM      2  C   UNL     1     -36.075  20.960   7.271  1.00  0.00     0.171 C 
BRANCH   2   3
ATOM      3  C   UNL     1     -35.097  21.225   8.437  1.00  0.00     0.190 C 
BRANCH   3   4
ATOM      4  O   UNL     1     -33.826  21.551   7.942  1.00  0.00    -0.394 OA
ATOM      5  H   UNL     1     -33.950  21.825   6.997  1.00  0.00     0.210 HD
ENDBRANCH   3   4
ENDBRANCH   2   3
BRANCH   2   6
ATOM      6  O   UNL     1     -37.340  20.556   7.737  1.00  0.00    -0.388 OA
ATOM      7  H   UNL     1     -37.792  20.057   7.008  1.00  0.00     0.211 HD
ENDBRANCH   2   6
ENDBRANCH   1   2
BRANCH   1   8
ATOM      8  C   UNL     1     -37.625  22.476   5.800  1.00  0.00     0.214 C 
BRANCH   8   9
ATOM      9  C   UNL     1     -37.693  23.844   5.145  1.00  0.00     0.189 C 
ATOM     10  O   UNL     1     -37.522  23.948   3.940  1.00  0.00    -0.294 OA
BRANCH   9  11
ATOM     11  C   UNL     1     -37.957  25.087   5.952  1.00  0.00     0.234 C 
BRANCH  11  12
ATOM     12  O   UNL     1     -38.124  24.759   7.303  1.00  0.00    -0.388 OA
ATOM     13  H   UNL     1     -39.086  24.897   7.514  1.00  0.00     0.211 HD
ENDBRANCH  11  12
ENDBRANCH   9  11
ENDBRANCH   8   9
BRANCH   8  14
ATOM     14  O   UNL     1     -38.125  21.486   4.931  1.00  0.00    -0.382 OA
ATOM     15  H   UNL     1     -38.491  20.744   5.479  1.00  0.00     0.211 HD
ENDBRANCH   8  14
ENDBRANCH   1   8
BRANCH   1  16
ATOM     16  O   UNL     1     -35.311  21.979   5.189  1.00  0.00    -0.387 OA
ATOM     17  H   UNL     1     -34.830  22.835   5.038  1.00  0.00     0.211 HD
ENDBRANCH   1  16
TORSDOF 10
ENDMDL
MODEL 7
REMARK VINA RESULT:    -3.146      1.195      2.128
REMARK INTER + INTRA:          -4.739
REMARK INTER:                  -4.535
REMARK INTRA:                  -0.203
REMARK UNBOUND:                -0.213
REMARK SMILES O=C(CO)[C@@H](O)[C@H](O)[C@H](O)CO
REMARK SMILES IDX 7 1 9 2 11 3 12 4 10 6 5 8 2 9 1 10 3 11 4 12 6 14 8 16
REMARK H PARENT 12 5 10 7 4 13 6 15 8 17
REMARK Flexibility Score: inf
ROOT
ATOM      1  C   UNL     1     -36.153  22.205   7.583  1.00  0.00     0.181 C 
ENDROOT
BRANCH   1   2
ATOM      2  C   UNL     1     -37.397  21.277   7.693  1.00  0.00     0.171 C 
BRANCH   2   3
ATOM      3  C   UNL     1     -37.051  19.779   7.538  1.00  0.00     0.190 C 
BRANCH   3   4
ATOM      4  O   UNL     1     -36.918  19.177   8.798  1.00  0.00    -0.394 OA
ATOM      5  H   UNL     1     -37.050  18.204   8.664  1.00  0.00     0.210 HD
ENDBRANCH   3   4
ENDBRANCH   2   3
BRANCH   2   6
ATOM      6  O   UNL     1     -38.125  21.521   8.873  1.00  0.00    -0.388 OA
ATOM      7  H   UNL     1     -37.729  20.972   9.598  1.00  0.00     0.211 HD
ENDBRANCH   2   6
ENDBRANCH   1   2
BRANCH   1   8
ATOM      8  C   UNL     1     -36.341  23.440   6.657  1.00  0.00     0.214 C 
BRANCH   8   9
ATOM      9  C   UNL     1     -37.061  23.059   5.377  1.00  0.00     0.189 C 
ATOM     10  O   UNL     1     -38.125  23.592   5.098  1.00  0.00    -0.294 OA
BRANCH   9  11
ATOM     11  C   UNL     1     -36.499  22.023   4.439  1.00  0.00     0.234 C 
BRANCH  11  12
ATOM     12  O   UNL     1     -35.102  21.998   4.530  1.00  0.00    -0.388 OA
ATOM     13  H   UNL     1     -34.753  22.159   3.614  1.00  0.00     0.211 HD
ENDBRANCH  11  12
ENDBRANCH   9  11
ENDBRANCH   8   9
BRANCH   8  14
ATOM     14  O   UNL     1     -37.013  24.492   7.310  1.00  0.00    -0.382 OA
ATOM     15  H   UNL     1     -37.486  25.033   6.627  1.00  0.00     0.211 HD
ENDBRANCH   8  14
ENDBRANCH   1   8
BRANCH   1  16
ATOM     16  O   UNL     1     -35.011  21.466   7.217  1.00  0.00    -0.387 OA
ATOM     17  H   UNL     1     -34.213  22.034   7.377  1.00  0.00     0.211 HD
ENDBRANCH   1  16
TORSDOF 10
ENDMDL
