MODEL 1
REMARK VINA RESULT:    -5.292      0.000      0.000
REMARK INTER + INTRA:          -7.552
REMARK INTER:                  -7.148
REMARK INTRA:                  -0.404
REMARK UNBOUND:                -0.404
REMARK SMILES CCCCCCCC(=O)[O-]
REMARK SMILES IDX 5 1 6 2 7 3 8 4 9 5 10 6 4 7 3 8 2 9 1 10
REMARK H PARENT
REMARK Flexibility Score: inf
ROOT
ATOM      1  C   UNL     1      15.078  72.207  72.601  1.00  0.00     0.000 C 
ENDROOT
BRANCH   1   2
ATOM      2  C   UNL     1      16.397  72.783  72.053  1.00  0.00     0.006 C 
BRANCH   2   3
ATOM      3  C   UNL     1      17.519  71.739  71.987  1.00  0.00     0.053 C 
BRANCH   3   4
ATOM      4  C   UNL     1      18.472  71.928  73.125  1.00  0.00     0.041 C 
ATOM      5  O   UNL     1      19.563  72.532  72.944  1.00  0.00    -0.550 OA
ATOM      6  O   UNL     1      18.136  71.481  74.396  1.00  0.00    -0.550 OA
ENDBRANCH   3   4
ENDBRANCH   2   3
ENDBRANCH   1   2
BRANCH   1   7
ATOM      7  C   UNL     1      14.883  70.693  72.379  1.00  0.00     0.000 C 
BRANCH   7   8
ATOM      8  C   UNL     1      14.243  69.938  73.557  1.00  0.00    -0.000 C 
BRANCH   8   9
ATOM      9  C   UNL     1      14.666  70.496  74.923  1.00  0.00    -0.003 C 
ATOM     10  C   UNL     1      13.947  69.772  76.058  1.00  0.00     0.004 C 
ENDBRANCH   8   9
ENDBRANCH   7   8
ENDBRANCH   1   7
TORSDOF 6
ENDMDL
MODEL 2
REMARK VINA RESULT:    -5.124      3.915      4.918
REMARK INTER + INTRA:          -7.325
REMARK INTER:                  -6.810
REMARK INTRA:                  -0.515
REMARK UNBOUND:                -0.404
REMARK SMILES CCCCCCCC(=O)[O-]
REMARK SMILES IDX 5 1 6 2 7 3 8 4 9 5 10 6 4 7 3 8 2 9 1 10
REMARK H PARENT
REMARK Flexibility Score: inf
ROOT
ATOM      1  C   UNL     1      14.458  72.409  72.794  1.00  0.00     0.000 C 
ENDROOT
BRANCH   1   2
ATOM      2  C   UNL     1      13.310  72.951  71.923  1.00  0.00     0.006 C 
BRANCH   2   3
ATOM      3  C   UNL     1      11.988  73.074  72.691  1.00  0.00     0.053 C 
BRANCH   3   4
ATOM      4  C   UNL     1      11.142  71.861  72.468  1.00  0.00     0.041 C 
ATOM      5  O   UNL     1      10.136  71.647  73.195  1.00  0.00    -0.550 OA
ATOM      6  O   UNL     1      11.435  70.990  71.426  1.00  0.00    -0.550 OA
ENDBRANCH   3   4
ENDBRANCH   2   3
ENDBRANCH   1   2
BRANCH   1   7
ATOM      7  C   UNL     1      14.843  70.939  72.527  1.00  0.00     0.000 C 
BRANCH   7   8
ATOM      8  C   UNL     1      14.233  69.917  73.503  1.00  0.00    -0.000 C 
BRANCH   8   9
ATOM      9  C   UNL     1      13.691  70.567  74.783  1.00  0.00    -0.003 C 
ATOM     10  C   UNL     1      14.012  69.716  76.010  1.00  0.00     0.004 C 
ENDBRANCH   8   9
ENDBRANCH   7   8
ENDBRANCH   1   7
TORSDOF 6
ENDMDL
MODEL 3
REMARK VINA RESULT:    -5.080      1.321      1.362
REMARK INTER + INTRA:          -7.266
REMARK INTER:                  -6.958
REMARK INTRA:                  -0.307
REMARK UNBOUND:                -0.404
REMARK SMILES CCCCCCCC(=O)[O-]
REMARK SMILES IDX 5 1 6 2 7 3 8 4 9 5 10 6 4 7 3 8 2 9 1 10
REMARK H PARENT
REMARK Flexibility Score: inf
ROOT
ATOM      1  C   UNL     1      15.128  72.188  72.604  1.00  0.00     0.000 C 
ENDROOT
BRANCH   1   2
ATOM      2  C   UNL     1      16.511  72.847  72.442  1.00  0.00     0.006 C 
BRANCH   2   3
ATOM      3  C   UNL     1      17.667  71.877  72.716  1.00  0.00     0.053 C 
BRANCH   3   4
ATOM      4  C   UNL     1      18.813  72.161  71.798  1.00  0.00     0.041 C 
ATOM      5  O   UNL     1      19.000  73.327  71.359  1.00  0.00    -0.550 OA
ATOM      6  O   UNL     1      19.705  71.150  71.464  1.00  0.00    -0.550 OA
ENDBRANCH   3   4
ENDBRANCH   2   3
ENDBRANCH   1   2
BRANCH   1   7
ATOM      7  C   UNL     1      15.111  70.655  72.436  1.00  0.00     0.000 C 
BRANCH   7   8
ATOM      8  C   UNL     1      14.079  69.914  73.305  1.00  0.00    -0.000 C 
BRANCH   8   9
ATOM      9  C   UNL     1      13.716  70.683  74.583  1.00  0.00    -0.003 C 
ATOM     10  C   UNL     1      14.000  69.845  75.827  1.00  0.00     0.004 C 
ENDBRANCH   8   9
ENDBRANCH   7   8
ENDBRANCH   1   7
TORSDOF 6
ENDMDL
MODEL 4
REMARK VINA RESULT:    -5.019      3.983      4.867
REMARK INTER + INTRA:          -7.184
REMARK INTER:                  -6.738
REMARK INTRA:                  -0.446
REMARK UNBOUND:                -0.404
REMARK SMILES CCCCCCCC(=O)[O-]
REMARK SMILES IDX 5 1 6 2 7 3 8 4 9 5 10 6 4 7 3 8 2 9 1 10
REMARK H PARENT
REMARK Flexibility Score: inf
ROOT
ATOM      1  C   UNL     1      14.284  72.462  72.642  1.00  0.00     0.000 C 
ENDROOT
BRANCH   1   2
ATOM      2  C   UNL     1      12.975  72.821  71.914  1.00  0.00     0.006 C 
BRANCH   2   3
ATOM      3  C   UNL     1      11.933  73.454  72.844  1.00  0.00     0.053 C 
BRANCH   3   4
ATOM      4  C   UNL     1      11.106  72.393  73.498  1.00  0.00     0.041 C 
ATOM      5  O   UNL     1      10.544  71.508  72.801  1.00  0.00    -0.550 OA
ATOM      6  O   UNL     1      10.997  72.351  74.882  1.00  0.00    -0.550 OA
ENDBRANCH   3   4
ENDBRANCH   2   3
ENDBRANCH   1   2
BRANCH   1   7
ATOM      7  C   UNL     1      14.766  71.010  72.441  1.00  0.00     0.000 C 
BRANCH   7   8
ATOM      8  C   UNL     1      14.287  70.010  73.508  1.00  0.00    -0.000 C 
BRANCH   8   9
ATOM      9  C   UNL     1      14.038  70.668  74.872  1.00  0.00    -0.003 C 
ATOM     10  C   UNL     1      13.973  69.623  75.983  1.00  0.00     0.004 C 
ENDBRANCH   8   9
ENDBRANCH   7   8
ENDBRANCH   1   7
TORSDOF 6
ENDMDL
MODEL 5
REMARK VINA RESULT:    -5.000      5.211      6.367
REMARK INTER + INTRA:          -7.159
REMARK INTER:                  -6.961
REMARK INTRA:                  -0.198
REMARK UNBOUND:                -0.404
REMARK SMILES CCCCCCCC(=O)[O-]
REMARK SMILES IDX 5 1 6 2 7 3 8 4 9 5 10 6 4 7 3 8 2 9 1 10
REMARK H PARENT
REMARK Flexibility Score: inf
ROOT
ATOM      1  C   UNL     1      12.528  71.262  72.554  1.00  0.00     0.000 C 
ENDROOT
BRANCH   1   2
ATOM      2  C   UNL     1      11.634  71.195  71.303  1.00  0.00     0.006 C 
BRANCH   2   3
ATOM      3  C   UNL     1      10.159  71.485  71.609  1.00  0.00     0.053 C 
BRANCH   3   4
ATOM      4  C   UNL     1       9.303  70.334  71.185  1.00  0.00     0.041 C 
ATOM      5  O   UNL     1       8.052  70.464  71.120  1.00  0.00    -0.550 OA
ATOM      6  O   UNL     1       9.890  69.131  70.813  1.00  0.00    -0.550 OA
ENDBRANCH   3   4
ENDBRANCH   2   3
ENDBRANCH   1   2
BRANCH   1   7
ATOM      7  C   UNL     1      13.897  70.564  72.418  1.00  0.00     0.000 C 
BRANCH   7   8
ATOM      8  C   UNL     1      14.298  69.674  73.608  1.00  0.00    -0.000 C 
BRANCH   8   9
ATOM      9  C   UNL     1      14.609  70.479  74.876  1.00  0.00    -0.003 C 
ATOM     10  C   UNL     1      13.907  69.882  76.093  1.00  0.00     0.004 C 
ENDBRANCH   8   9
ENDBRANCH   7   8
ENDBRANCH   1   7
TORSDOF 6
ENDMDL
MODEL 6
REMARK VINA RESULT:    -4.975      2.094      3.829
REMARK INTER + INTRA:          -7.125
REMARK INTER:                  -6.707
REMARK INTRA:                  -0.418
REMARK UNBOUND:                -0.404
REMARK SMILES CCCCCCCC(=O)[O-]
REMARK SMILES IDX 5 1 6 2 7 3 8 4 9 5 10 6 4 7 3 8 2 9 1 10
REMARK H PARENT
REMARK Flexibility Score: inf
ROOT
ATOM      1  C   UNL     1      14.046  69.708  75.277  1.00  0.00     0.000 C 
ENDROOT
BRANCH   1   2
ATOM      2  C   UNL     1      14.756  70.512  76.382  1.00  0.00     0.006 C 
BRANCH   2   3
ATOM      3  C   UNL     1      16.068  71.147  75.906  1.00  0.00     0.053 C 
BRANCH   3   4
ATOM      4  C   UNL     1      17.058  71.198  77.026  1.00  0.00     0.041 C 
ATOM      5  O   UNL     1      18.262  71.487  76.796  1.00  0.00    -0.550 OA
ATOM      6  O   UNL     1      16.642  70.975  78.332  1.00  0.00    -0.550 OA
ENDBRANCH   3   4
ENDBRANCH   2   3
ENDBRANCH   1   2
BRANCH   1   7
ATOM      7  C   UNL     1      13.692  70.511  74.008  1.00  0.00     0.000 C 
BRANCH   7   8
ATOM      8  C   UNL     1      14.398  70.046  72.722  1.00  0.00    -0.000 C 
BRANCH   8   9
ATOM      9  C   UNL     1      15.479  71.027  72.248  1.00  0.00    -0.003 C 
ATOM     10  C   UNL     1      15.036  72.474  72.454  1.00  0.00     0.004 C 
ENDBRANCH   8   9
ENDBRANCH   7   8
ENDBRANCH   1   7
TORSDOF 6
ENDMDL
MODEL 7
REMARK VINA RESULT:    -4.945      1.724      4.103
REMARK INTER + INTRA:          -7.084
REMARK INTER:                  -6.639
REMARK INTRA:                  -0.445
REMARK UNBOUND:                -0.404
REMARK SMILES CCCCCCCC(=O)[O-]
REMARK SMILES IDX 5 1 6 2 7 3 8 4 9 5 10 6 4 7 3 8 2 9 1 10
REMARK H PARENT
REMARK Flexibility Score: inf
ROOT
ATOM      1  C   UNL     1      13.626  70.455  73.358  1.00  0.00     0.000 C 
ENDROOT
BRANCH   1   2
ATOM      2  C   UNL     1      14.149  69.644  74.558  1.00  0.00     0.006 C 
BRANCH   2   3
ATOM      3  C   UNL     1      14.050  70.411  75.883  1.00  0.00     0.053 C 
BRANCH   3   4
ATOM      4  C   UNL     1      15.411  70.814  76.353  1.00  0.00     0.041 C 
ATOM      5  O   UNL     1      16.215  71.375  75.562  1.00  0.00    -0.550 OA
ATOM      6  O   UNL     1      15.777  70.616  77.678  1.00  0.00    -0.550 OA
ENDBRANCH   3   4
ENDBRANCH   2   3
ENDBRANCH   1   2
BRANCH   1   7
ATOM      7  C   UNL     1      14.714  70.973  72.395  1.00  0.00     0.000 C 
BRANCH   7   8
ATOM      8  C   UNL     1      14.929  72.497  72.412  1.00  0.00    -0.000 C 
BRANCH   8   9
ATOM      9  C   UNL     1      16.407  72.891  72.284  1.00  0.00    -0.003 C 
ATOM     10  C   UNL     1      17.284  71.664  72.051  1.00  0.00     0.004 C 
ENDBRANCH   8   9
ENDBRANCH   7   8
ENDBRANCH   1   7
TORSDOF 6
ENDMDL
MODEL 8
REMARK VINA RESULT:    -4.927      2.076      2.471
REMARK INTER + INTRA:          -7.059
REMARK INTER:                  -6.630
REMARK INTRA:                  -0.428
REMARK UNBOUND:                -0.404
REMARK SMILES CCCCCCCC(=O)[O-]
REMARK SMILES IDX 5 1 6 2 7 3 8 4 9 5 10 6 4 7 3 8 2 9 1 10
REMARK H PARENT
REMARK Flexibility Score: inf
ROOT
ATOM      1  C   UNL     1      16.023  72.113  73.564  1.00  0.00     0.000 C 
ENDROOT
BRANCH   1   2
ATOM      2  C   UNL     1      17.298  71.672  74.305  1.00  0.00     0.006 C 
BRANCH   2   3
ATOM      3  C   UNL     1      17.108  71.604  75.826  1.00  0.00     0.053 C 
BRANCH   3   4
ATOM      4  C   UNL     1      18.436  71.574  76.514  1.00  0.00     0.041 C 
ATOM      5  O   UNL     1      19.444  71.098  75.928  1.00  0.00    -0.550 OA
ATOM      6  O   UNL     1      18.572  72.117  77.786  1.00  0.00    -0.550 OA
ENDBRANCH   3   4
ENDBRANCH   2   3
ENDBRANCH   1   2
BRANCH   1   7
ATOM      7  C   UNL     1      15.490  71.106  72.524  1.00  0.00     0.000 C 
BRANCH   7   8
ATOM      8  C   UNL     1      14.395  70.154  73.038  1.00  0.00    -0.000 C 
BRANCH   8   9
ATOM      9  C   UNL     1      13.722  70.659  74.322  1.00  0.00    -0.003 C 
ATOM     10  C   UNL     1      13.982  69.709  75.488  1.00  0.00     0.004 C 
ENDBRANCH   8   9
ENDBRANCH   7   8
ENDBRANCH   1   7
TORSDOF 6
ENDMDL
MODEL 9
REMARK VINA RESULT:    -4.847      1.599      2.137
REMARK INTER + INTRA:          -6.952
REMARK INTER:                  -6.781
REMARK INTRA:                  -0.170
REMARK UNBOUND:                -0.404
REMARK SMILES CCCCCCCC(=O)[O-]
REMARK SMILES IDX 5 1 6 2 7 3 8 4 9 5 10 6 4 7 3 8 2 9 1 10
REMARK H PARENT
REMARK Flexibility Score: inf
ROOT
ATOM      1  C   UNL     1      16.544  72.744  72.122  1.00  0.00     0.000 C 
ENDROOT
BRANCH   1   2
ATOM      2  C   UNL     1      18.069  72.728  72.331  1.00  0.00     0.006 C 
BRANCH   2   3
ATOM      3  C   UNL     1      18.745  71.508  71.692  1.00  0.00     0.053 C 
BRANCH   3   4
ATOM      4  C   UNL     1      20.216  71.740  71.554  1.00  0.00     0.041 C 
ATOM      5  O   UNL     1      21.032  71.051  72.222  1.00  0.00    -0.550 OA
ATOM      6  O   UNL     1      20.689  72.685  70.653  1.00  0.00    -0.550 OA
ENDBRANCH   3   4
ENDBRANCH   2   3
ENDBRANCH   1   2
BRANCH   1   7
ATOM      7  C   UNL     1      15.842  71.386  72.326  1.00  0.00     0.000 C 
BRANCH   7   8
ATOM      8  C   UNL     1      15.493  71.045  73.786  1.00  0.00    -0.000 C 
BRANCH   8   9
ATOM      9  C   UNL     1      14.345  70.033  73.903  1.00  0.00    -0.003 C 
ATOM     10  C   UNL     1      14.016  69.742  75.365  1.00  0.00     0.004 C 
ENDBRANCH   8   9
ENDBRANCH   7   8
ENDBRANCH   1   7
TORSDOF 6
ENDMDL
