MODEL 1
REMARK VINA RESULT:    -3.992      0.000      0.000
REMARK INTER + INTRA:          -5.544
REMARK INTER:                  -5.392
REMARK INTRA:                  -0.152
REMARK UNBOUND:                -0.152
REMARK SMILES [NH3+]CCCC[C@H]([NH3+])C(=O)[O-]
REMARK SMILES IDX 4 1 3 2 2 3 1 4 5 8 6 9 7 10 8 14 9 15 10 16
REMARK H PARENT 1 5 1 6 1 7 7 11 7 12 7 13
REMARK Flexibility Score: inf
ROOT
ATOM      1  C   UNL     1      49.386  14.442  17.951  1.00  0.00     0.012 C 
ENDROOT
BRANCH   1   2
ATOM      2  C   UNL     1      49.607  15.381  19.147  1.00  0.00     0.061 C 
BRANCH   2   3
ATOM      3  C   UNL     1      48.392  15.372  20.086  1.00  0.00     0.258 C 
BRANCH   3   4
ATOM      4  N   UNL     1      47.523  14.231  19.807  1.00  0.00    -0.358 N 
ATOM      5  H   UNL     1      47.435  14.089  18.774  1.00  0.00     0.344 HD
ATOM      6  H   UNL     1      46.573  14.418  20.204  1.00  0.00     0.344 HD
ATOM      7  H   UNL     1      47.910  13.366  20.251  1.00  0.00     0.344 HD
ENDBRANCH   3   4
ENDBRANCH   2   3
ENDBRANCH   1   2
BRANCH   1   8
ATOM      8  C   UNL     1      49.546  15.144  16.589  1.00  0.00     0.072 C 
BRANCH   8   9
ATOM      9  C   UNL     1      48.926  14.368  15.401  1.00  0.00     0.227 C 
BRANCH   9  10
ATOM     10  N   UNL     1      47.683  13.706  15.815  1.00  0.00    -0.350 N 
ATOM     11  H   UNL     1      46.925  13.873  15.113  1.00  0.00     0.345 HD
ATOM     12  H   UNL     1      47.843  12.677  15.911  1.00  0.00     0.345 HD
ATOM     13  H   UNL     1      47.376  14.074  16.746  1.00  0.00     0.345 HD
ENDBRANCH   9  10
BRANCH   9  14
ATOM     14  C   UNL     1      49.879  13.340  14.850  1.00  0.00     0.099 C 
ATOM     15  O   UNL     1      49.635  12.113  14.992  1.00  0.00    -0.544 OA
ATOM     16  O   UNL     1      51.054  13.735  14.220  1.00  0.00    -0.544 OA
ENDBRANCH   9  14
ENDBRANCH   8   9
ENDBRANCH   1   8
TORSDOF 7
ENDMDL
MODEL 2
REMARK VINA RESULT:    -3.765      6.411      7.265
REMARK INTER + INTRA:          -5.237
REMARK INTER:                  -4.713
REMARK INTRA:                  -0.525
REMARK UNBOUND:                -0.152
REMARK SMILES [NH3+]CCCC[C@H]([NH3+])C(=O)[O-]
REMARK SMILES IDX 4 1 3 2 2 3 1 4 5 8 6 9 7 10 8 14 9 15 10 16
REMARK H PARENT 1 5 1 6 1 7 7 11 7 12 7 13
REMARK Flexibility Score: inf
ROOT
ATOM      1  C   UNL     1      48.936   7.397  20.617  1.00  0.00     0.012 C 
ENDROOT
BRANCH   1   2
ATOM      2  C   UNL     1      50.308   7.882  20.128  1.00  0.00     0.061 C 
BRANCH   2   3
ATOM      3  C   UNL     1      50.219   8.443  18.702  1.00  0.00     0.258 C 
BRANCH   3   4
ATOM      4  N   UNL     1      50.256   9.904  18.710  1.00  0.00    -0.358 N 
ATOM      5  H   UNL     1      50.938  10.242  19.427  1.00  0.00     0.344 HD
ATOM      6  H   UNL     1      49.305  10.269  18.949  1.00  0.00     0.344 HD
ATOM      7  H   UNL     1      50.527  10.263  17.766  1.00  0.00     0.344 HD
ENDBRANCH   3   4
ENDBRANCH   2   3
ENDBRANCH   1   2
BRANCH   1   8
ATOM      8  C   UNL     1      48.162   8.463  21.417  1.00  0.00     0.072 C 
BRANCH   8   9
ATOM      9  C   UNL     1      46.813   8.877  20.779  1.00  0.00     0.227 C 
BRANCH   9  10
ATOM     10  N   UNL     1      46.621   8.189  19.497  1.00  0.00    -0.350 N 
ATOM     11  H   UNL     1      46.526   8.882  18.718  1.00  0.00     0.345 HD
ATOM     12  H   UNL     1      47.437   7.564  19.303  1.00  0.00     0.345 HD
ATOM     13  H   UNL     1      45.761   7.596  19.535  1.00  0.00     0.345 HD
ENDBRANCH   9  10
BRANCH   9  14
ATOM     14  C   UNL     1      46.734  10.366  20.564  1.00  0.00     0.099 C 
ATOM     15  O   UNL     1      45.747  11.015  21.002  1.00  0.00    -0.544 OA
ATOM     16  O   UNL     1      47.724  11.028  19.847  1.00  0.00    -0.544 OA
ENDBRANCH   9  14
ENDBRANCH   8   9
ENDBRANCH   1   8
TORSDOF 7
ENDMDL
MODEL 3
REMARK VINA RESULT:    -3.763      3.582      5.195
REMARK INTER + INTRA:          -5.236
REMARK INTER:                  -5.067
REMARK INTRA:                  -0.168
REMARK UNBOUND:                -0.152
REMARK SMILES [NH3+]CCCC[C@H]([NH3+])C(=O)[O-]
REMARK SMILES IDX 4 1 3 2 2 3 1 4 5 8 6 9 7 10 8 14 9 15 10 16
REMARK H PARENT 1 5 1 6 1 7 7 11 7 12 7 13
REMARK Flexibility Score: inf
ROOT
ATOM      1  C   UNL     1      49.783  13.281  17.974  1.00  0.00     0.012 C 
ENDROOT
BRANCH   1   2
ATOM      2  C   UNL     1      49.480  12.803  16.546  1.00  0.00     0.061 C 
BRANCH   2   3
ATOM      3  C   UNL     1      49.396  13.989  15.575  1.00  0.00     0.258 C 
BRANCH   3   4
ATOM      4  N   UNL     1      48.005  14.332  15.286  1.00  0.00    -0.358 N 
ATOM      5  H   UNL     1      47.429  14.264  16.156  1.00  0.00     0.344 HD
ATOM      6  H   UNL     1      47.627  13.662  14.577  1.00  0.00     0.344 HD
ATOM      7  H   UNL     1      47.946  15.302  14.898  1.00  0.00     0.344 HD
ENDBRANCH   3   4
ENDBRANCH   2   3
ENDBRANCH   1   2
BRANCH   1   8
ATOM      8  C   UNL     1      48.516  13.589  18.795  1.00  0.00     0.072 C 
BRANCH   8   9
ATOM      9  C   UNL     1      48.437  15.047  19.313  1.00  0.00     0.227 C 
BRANCH   9  10
ATOM     10  N   UNL     1      49.780  15.632  19.401  1.00  0.00    -0.350 N 
ATOM     11  H   UNL     1      50.499  14.957  19.048  1.00  0.00     0.345 HD
ATOM     12  H   UNL     1      49.825  16.509  18.832  1.00  0.00     0.345 HD
ATOM     13  H   UNL     1      49.998  15.878  20.394  1.00  0.00     0.345 HD
ENDBRANCH   9  10
BRANCH   9  14
ATOM     14  C   UNL     1      47.770  15.122  20.661  1.00  0.00     0.099 C 
ATOM     15  O   UNL     1      47.953  16.125  21.401  1.00  0.00    -0.544 OA
ATOM     16  O   UNL     1      46.983  14.071  21.117  1.00  0.00    -0.544 OA
ENDBRANCH   9  14
ENDBRANCH   8   9
ENDBRANCH   1   8
TORSDOF 7
ENDMDL
MODEL 4
REMARK VINA RESULT:    -3.666      3.044      4.814
REMARK INTER + INTRA:          -5.104
REMARK INTER:                  -4.948
REMARK INTRA:                  -0.157
REMARK UNBOUND:                -0.152
REMARK SMILES [NH3+]CCCC[C@H]([NH3+])C(=O)[O-]
REMARK SMILES IDX 4 1 3 2 2 3 1 4 5 8 6 9 7 10 8 14 9 15 10 16
REMARK H PARENT 1 5 1 6 1 7 7 11 7 12 7 13
REMARK Flexibility Score: inf
ROOT
ATOM      1  C   UNL     1      49.127  14.047  15.114  1.00  0.00     0.012 C 
ENDROOT
BRANCH   1   2
ATOM      2  C   UNL     1      50.346  13.269  14.597  1.00  0.00     0.061 C 
BRANCH   2   3
ATOM      3  C   UNL     1      51.355  14.209  13.924  1.00  0.00     0.258 C 
BRANCH   3   4
ATOM      4  N   UNL     1      51.043  15.607  14.215  1.00  0.00    -0.358 N 
ATOM      5  H   UNL     1      50.079  15.838  13.882  1.00  0.00     0.344 HD
ATOM      6  H   UNL     1      51.729  16.222  13.719  1.00  0.00     0.344 HD
ATOM      7  H   UNL     1      51.114  15.785  15.244  1.00  0.00     0.344 HD
ENDBRANCH   3   4
ENDBRANCH   2   3
ENDBRANCH   1   2
BRANCH   1   8
ATOM      8  C   UNL     1      48.616  13.543  16.477  1.00  0.00     0.072 C 
BRANCH   8   9
ATOM      9  C   UNL     1      49.672  13.601  17.610  1.00  0.00     0.227 C 
BRANCH   9  10
ATOM     10  N   UNL     1      49.988  12.249  18.083  1.00  0.00    -0.350 N 
ATOM     11  H   UNL     1      50.300  12.272  19.082  1.00  0.00     0.345 HD
ATOM     12  H   UNL     1      49.144  11.636  18.001  1.00  0.00     0.345 HD
ATOM     13  H   UNL     1      50.748  11.833  17.496  1.00  0.00     0.345 HD
ENDBRANCH   9  10
BRANCH   9  14
ATOM     14  C   UNL     1      49.198  14.439  18.769  1.00  0.00     0.099 C 
ATOM     15  O   UNL     1      49.871  15.434  19.145  1.00  0.00    -0.544 OA
ATOM     16  O   UNL     1      48.040  14.096  19.458  1.00  0.00    -0.544 OA
ENDBRANCH   9  14
ENDBRANCH   8   9
ENDBRANCH   1   8
TORSDOF 7
ENDMDL
MODEL 5
REMARK VINA RESULT:    -3.648     13.927     14.687
REMARK INTER + INTRA:          -5.080
REMARK INTER:                  -4.580
REMARK INTRA:                  -0.500
REMARK UNBOUND:                -0.152
REMARK SMILES [NH3+]CCCC[C@H]([NH3+])C(=O)[O-]
REMARK SMILES IDX 4 1 3 2 2 3 1 4 5 8 6 9 7 10 8 14 9 15 10 16
REMARK H PARENT 1 5 1 6 1 7 7 11 7 12 7 13
REMARK Flexibility Score: inf
ROOT
ATOM      1  C   UNL     1      51.331   2.861  20.757  1.00  0.00     0.012 C 
ENDROOT
BRANCH   1   2
ATOM      2  C   UNL     1      52.020   2.514  19.428  1.00  0.00     0.061 C 
BRANCH   2   3
ATOM      3  C   UNL     1      53.376   1.837  19.671  1.00  0.00     0.258 C 
BRANCH   3   4
ATOM      4  N   UNL     1      53.418   0.512  19.054  1.00  0.00    -0.358 N 
ATOM      5  H   UNL     1      53.004  -0.198  19.700  1.00  0.00     0.344 HD
ATOM      6  H   UNL     1      54.413   0.256  18.861  1.00  0.00     0.344 HD
ATOM      7  H   UNL     1      52.890   0.520  18.151  1.00  0.00     0.344 HD
ENDBRANCH   3   4
ENDBRANCH   2   3
ENDBRANCH   1   2
BRANCH   1   8
ATOM      8  C   UNL     1      50.438   1.727  21.294  1.00  0.00     0.072 C 
BRANCH   8   9
ATOM      9  C   UNL     1      50.916   1.129  22.641  1.00  0.00     0.227 C 
BRANCH   9  10
ATOM     10  N   UNL     1      52.098   1.848  23.128  1.00  0.00    -0.350 N 
ATOM     11  H   UNL     1      51.820   2.599  23.802  1.00  0.00     0.345 HD
ATOM     12  H   UNL     1      52.749   1.182  23.606  1.00  0.00     0.345 HD
ATOM     13  H   UNL     1      52.610   2.280  22.325  1.00  0.00     0.345 HD
ENDBRANCH   9  10
BRANCH   9  14
ATOM     14  C   UNL     1      51.240  -0.337  22.513  1.00  0.00     0.099 C 
ATOM     15  O   UNL     1      50.679  -1.175  23.266  1.00  0.00    -0.544 OA
ATOM     16  O   UNL     1      52.189  -0.771  21.594  1.00  0.00    -0.544 OA
ENDBRANCH   9  14
ENDBRANCH   8   9
ENDBRANCH   1   8
TORSDOF 7
ENDMDL
MODEL 6
REMARK VINA RESULT:    -3.641      3.001      4.890
REMARK INTER + INTRA:          -5.070
REMARK INTER:                  -4.969
REMARK INTRA:                  -0.101
REMARK UNBOUND:                -0.152
REMARK SMILES [NH3+]CCCC[C@H]([NH3+])C(=O)[O-]
REMARK SMILES IDX 4 1 3 2 2 3 1 4 5 8 6 9 7 10 8 14 9 15 10 16
REMARK H PARENT 1 5 1 6 1 7 7 11 7 12 7 13
REMARK Flexibility Score: inf
ROOT
ATOM      1  C   UNL     1      51.028  13.205  14.106  1.00  0.00     0.012 C 
ENDROOT
BRANCH   1   2
ATOM      2  C   UNL     1      51.991  14.007  13.219  1.00  0.00     0.061 C 
BRANCH   2   3
ATOM      3  C   UNL     1      51.932  15.504  13.553  1.00  0.00     0.258 C 
BRANCH   3   4
ATOM      4  N   UNL     1      53.248  16.125  13.412  1.00  0.00    -0.358 N 
ATOM      5  H   UNL     1      53.660  16.313  14.355  1.00  0.00     0.344 HD
ATOM      6  H   UNL     1      53.147  17.031  12.900  1.00  0.00     0.344 HD
ATOM      7  H   UNL     1      53.885  15.498  12.867  1.00  0.00     0.344 HD
ENDBRANCH   3   4
ENDBRANCH   2   3
ENDBRANCH   1   2
BRANCH   1   8
ATOM      8  C   UNL     1      50.115  14.093  14.972  1.00  0.00     0.072 C 
BRANCH   8   9
ATOM      9  C   UNL     1      49.115  13.304  15.854  1.00  0.00     0.227 C 
BRANCH   9  10
ATOM     10  N   UNL     1      47.743  13.764  15.608  1.00  0.00    -0.350 N 
ATOM     11  H   UNL     1      47.223  13.071  15.020  1.00  0.00     0.345 HD
ATOM     12  H   UNL     1      47.241  13.889  16.517  1.00  0.00     0.345 HD
ATOM     13  H   UNL     1      47.759  14.688  15.117  1.00  0.00     0.345 HD
ENDBRANCH   9  10
BRANCH   9  14
ATOM     14  C   UNL     1      49.435  13.447  17.319  1.00  0.00     0.099 C 
ATOM     15  O   UNL     1      49.509  14.590  17.841  1.00  0.00    -0.544 OA
ATOM     16  O   UNL     1      49.693  12.323  18.096  1.00  0.00    -0.544 OA
ENDBRANCH   9  14
ENDBRANCH   8   9
ENDBRANCH   1   8
TORSDOF 7
ENDMDL
MODEL 7
REMARK VINA RESULT:    -3.632      1.678      2.097
REMARK INTER + INTRA:          -5.058
REMARK INTER:                  -4.885
REMARK INTRA:                  -0.173
REMARK UNBOUND:                -0.152
REMARK SMILES [NH3+]CCCC[C@H]([NH3+])C(=O)[O-]
REMARK SMILES IDX 4 1 3 2 2 3 1 4 5 8 6 9 7 10 8 14 9 15 10 16
REMARK H PARENT 1 5 1 6 1 7 7 11 7 12 7 13
REMARK Flexibility Score: inf
ROOT
ATOM      1  C   UNL     1      49.249  15.391  19.673  1.00  0.00     0.012 C 
ENDROOT
BRANCH   1   2
ATOM      2  C   UNL     1      47.764  15.460  20.058  1.00  0.00     0.061 C 
BRANCH   2   3
ATOM      3  C   UNL     1      47.400  14.349  21.053  1.00  0.00     0.258 C 
BRANCH   3   4
ATOM      4  N   UNL     1      46.992  13.132  20.353  1.00  0.00    -0.358 N 
ATOM      5  H   UNL     1      46.225  13.346  19.676  1.00  0.00     0.344 HD
ATOM      6  H   UNL     1      46.643  12.436  21.052  1.00  0.00     0.344 HD
ATOM      7  H   UNL     1      47.808  12.719  19.845  1.00  0.00     0.344 HD
ENDBRANCH   3   4
ENDBRANCH   2   3
ENDBRANCH   1   2
BRANCH   1   8
ATOM      8  C   UNL     1      49.479  15.200  18.162  1.00  0.00     0.072 C 
BRANCH   8   9
ATOM      9  C   UNL     1      49.042  13.814  17.625  1.00  0.00     0.227 C 
BRANCH   9  10
ATOM     10  N   UNL     1      49.962  12.772  18.094  1.00  0.00    -0.350 N 
ATOM     11  H   UNL     1      49.471  12.112  18.742  1.00  0.00     0.345 HD
ATOM     12  H   UNL     1      50.339  12.236  17.279  1.00  0.00     0.345 HD
ATOM     13  H   UNL     1      50.770  13.208  18.596  1.00  0.00     0.345 HD
ENDBRANCH   9  10
BRANCH   9  14
ATOM     14  C   UNL     1      48.989  13.793  16.119  1.00  0.00     0.099 C 
ATOM     15  O   UNL     1      49.307  12.749  15.491  1.00  0.00    -0.544 OA
ATOM     16  O   UNL     1      48.632  14.935  15.412  1.00  0.00    -0.544 OA
ENDBRANCH   9  14
ENDBRANCH   8   9
ENDBRANCH   1   8
TORSDOF 7
ENDMDL
MODEL 8
REMARK VINA RESULT:    -3.613     12.754     13.607
REMARK INTER + INTRA:          -5.033
REMARK INTER:                  -4.821
REMARK INTRA:                  -0.212
REMARK UNBOUND:                -0.152
REMARK SMILES [NH3+]CCCC[C@H]([NH3+])C(=O)[O-]
REMARK SMILES IDX 4 1 3 2 2 3 1 4 5 8 6 9 7 10 8 14 9 15 10 16
REMARK H PARENT 1 5 1 6 1 7 7 11 7 12 7 13
REMARK Flexibility Score: inf
ROOT
ATOM      1  C   UNL     1      50.630   3.255  20.060  1.00  0.00     0.012 C 
ENDROOT
BRANCH   1   2
ATOM      2  C   UNL     1      51.824   3.358  19.100  1.00  0.00     0.061 C 
BRANCH   2   3
ATOM      3  C   UNL     1      52.902   2.321  19.447  1.00  0.00     0.258 C 
BRANCH   3   4
ATOM      4  N   UNL     1      54.142   2.975  19.860  1.00  0.00    -0.358 N 
ATOM      5  H   UNL     1      54.128   3.155  20.890  1.00  0.00     0.344 HD
ATOM      6  H   UNL     1      54.233   3.887  19.358  1.00  0.00     0.344 HD
ATOM      7  H   UNL     1      54.964   2.373  19.618  1.00  0.00     0.344 HD
ENDBRANCH   3   4
ENDBRANCH   2   3
ENDBRANCH   1   2
BRANCH   1   8
ATOM      8  C   UNL     1      50.760   2.102  21.073  1.00  0.00     0.072 C 
BRANCH   8   9
ATOM      9  C   UNL     1      50.830   2.562  22.551  1.00  0.00     0.227 C 
BRANCH   9  10
ATOM     10  N   UNL     1      52.058   2.067  23.182  1.00  0.00    -0.350 N 
ATOM     11  H   UNL     1      52.266   1.090  22.869  1.00  0.00     0.345 HD
ATOM     12  H   UNL     1      52.863   2.686  22.931  1.00  0.00     0.345 HD
ATOM     13  H   UNL     1      51.954   2.078  24.223  1.00  0.00     0.345 HD
ENDBRANCH   9  10
BRANCH   9  14
ATOM     14  C   UNL     1      49.636   2.087  23.337  1.00  0.00     0.099 C 
ATOM     15  O   UNL     1      48.703   1.472  22.757  1.00  0.00    -0.544 OA
ATOM     16  O   UNL     1      49.535   2.359  24.697  1.00  0.00    -0.544 OA
ENDBRANCH   9  14
ENDBRANCH   8   9
ENDBRANCH   1   8
TORSDOF 7
ENDMDL
MODEL 9
REMARK VINA RESULT:    -3.576     17.686     18.637
REMARK INTER + INTRA:          -4.982
REMARK INTER:                  -4.876
REMARK INTRA:                  -0.106
REMARK UNBOUND:                -0.152
REMARK SMILES [NH3+]CCCC[C@H]([NH3+])C(=O)[O-]
REMARK SMILES IDX 4 1 3 2 2 3 1 4 5 8 6 9 7 10 8 14 9 15 10 16
REMARK H PARENT 1 5 1 6 1 7 7 11 7 12 7 13
REMARK Flexibility Score: inf
ROOT
ATOM      1  C   UNL     1      58.218  -0.349  17.188  1.00  0.00     0.012 C 
ENDROOT
BRANCH   1   2
ATOM      2  C   UNL     1      58.947  -0.459  15.841  1.00  0.00     0.061 C 
BRANCH   2   3
ATOM      3  C   UNL     1      59.346  -1.912  15.548  1.00  0.00     0.258 C 
BRANCH   3   4
ATOM      4  N   UNL     1      58.962  -2.297  14.191  1.00  0.00    -0.358 N 
ATOM      5  H   UNL     1      58.033  -1.883  13.949  1.00  0.00     0.344 HD
ATOM      6  H   UNL     1      58.893  -3.339  14.137  1.00  0.00     0.344 HD
ATOM      7  H   UNL     1      59.683  -1.971  13.506  1.00  0.00     0.344 HD
ENDBRANCH   3   4
ENDBRANCH   2   3
ENDBRANCH   1   2
BRANCH   1   8
ATOM      8  C   UNL     1      57.830  -1.716  17.785  1.00  0.00     0.072 C 
BRANCH   8   9
ATOM      9  C   UNL     1      56.792  -1.634  18.932  1.00  0.00     0.227 C 
BRANCH   9  10
ATOM     10  N   UNL     1      57.453  -1.796  20.232  1.00  0.00    -0.350 N 
ATOM     11  H   UNL     1      58.432  -1.426  20.195  1.00  0.00     0.345 HD
ATOM     12  H   UNL     1      56.919  -1.281  20.969  1.00  0.00     0.345 HD
ATOM     13  H   UNL     1      57.478  -2.808  20.497  1.00  0.00     0.345 HD
ENDBRANCH   9  10
BRANCH   9  14
ATOM     14  C   UNL     1      55.718  -2.681  18.784  1.00  0.00     0.099 C 
ATOM     15  O   UNL     1      54.582  -2.495  19.295  1.00  0.00    -0.544 OA
ATOM     16  O   UNL     1      55.984  -3.874  18.121  1.00  0.00    -0.544 OA
ENDBRANCH   9  14
ENDBRANCH   8   9
ENDBRANCH   1   8
TORSDOF 7
ENDMDL
