MODEL 1
REMARK VINA RESULT:    -4.226      0.000      0.000
REMARK INTER + INTRA:          -6.234
REMARK INTER:                  -5.708
REMARK INTRA:                  -0.526
REMARK UNBOUND:                -0.526
REMARK SMILES CCCCCCCC(=O)[O-]
REMARK SMILES IDX 5 1 6 2 7 3 8 4 9 5 10 6 4 7 3 8 2 9 1 10
REMARK H PARENT
REMARK Flexibility Score: inf
ROOT
ATOM      1  C   UNL     1     -14.723  -0.290 -19.888  1.00  0.00     0.000 C 
ENDROOT
BRANCH   1   2
ATOM      2  C   UNL     1     -14.534   1.154 -20.364  1.00  0.00     0.006 C 
BRANCH   2   3
ATOM      3  C   UNL     1     -15.313   2.132 -19.480  1.00  0.00     0.053 C 
BRANCH   3   4
ATOM      4  C   UNL     1     -15.971   3.184 -20.315  1.00  0.00     0.041 C 
ATOM      5  O   UNL     1     -16.973   3.807 -19.875  1.00  0.00    -0.550 OA
ATOM      6  O   UNL     1     -15.509   3.443 -21.598  1.00  0.00    -0.550 OA
ENDBRANCH   3   4
ENDBRANCH   2   3
ENDBRANCH   1   2
BRANCH   1   7
ATOM      7  C   UNL     1     -15.223  -1.186 -21.027  1.00  0.00     0.000 C 
BRANCH   7   8
ATOM      8  C   UNL     1     -15.623  -0.349 -22.250  1.00  0.00    -0.000 C 
BRANCH   8   9
ATOM      9  C   UNL     1     -17.123  -0.447 -22.569  1.00  0.00    -0.003 C 
ATOM     10  C   UNL     1     -17.791   0.922 -22.703  1.00  0.00     0.004 C 
ENDBRANCH   8   9
ENDBRANCH   7   8
ENDBRANCH   1   7
TORSDOF 6
ENDMDL
MODEL 2
REMARK VINA RESULT:    -4.158      2.662      3.660
REMARK INTER + INTRA:          -6.144
REMARK INTER:                  -5.730
REMARK INTRA:                  -0.414
REMARK UNBOUND:                -0.526
REMARK SMILES CCCCCCCC(=O)[O-]
REMARK SMILES IDX 5 1 6 2 7 3 8 4 9 5 10 6 4 7 3 8 2 9 1 10
REMARK H PARENT
REMARK Flexibility Score: inf
ROOT
ATOM      1  C   UNL     1     -15.586   2.456 -19.767  1.00  0.00     0.000 C 
ENDROOT
BRANCH   1   2
ATOM      2  C   UNL     1     -14.721   1.269 -20.206  1.00  0.00     0.006 C 
BRANCH   2   3
ATOM      3  C   UNL     1     -14.875   0.090 -19.240  1.00  0.00     0.053 C 
BRANCH   3   4
ATOM      4  C   UNL     1     -14.209  -1.130 -19.792  1.00  0.00     0.041 C 
ATOM      5  O   UNL     1     -13.760  -2.014 -19.015  1.00  0.00    -0.550 OA
ATOM      6  O   UNL     1     -14.041  -1.271 -21.164  1.00  0.00    -0.550 OA
ENDBRANCH   3   4
ENDBRANCH   2   3
ENDBRANCH   1   2
BRANCH   1   7
ATOM      7  C   UNL     1     -16.479   2.942 -20.915  1.00  0.00     0.000 C 
BRANCH   7   8
ATOM      8  C   UNL     1     -16.315   2.052 -22.155  1.00  0.00    -0.000 C 
BRANCH   8   9
ATOM      9  C   UNL     1     -17.626   1.363 -22.564  1.00  0.00    -0.003 C 
ATOM     10  C   UNL     1     -17.473  -0.149 -22.732  1.00  0.00     0.004 C 
ENDBRANCH   8   9
ENDBRANCH   7   8
ENDBRANCH   1   7
TORSDOF 6
ENDMDL
MODEL 3
REMARK VINA RESULT:    -4.034      4.514      5.671
REMARK INTER + INTRA:          -5.975
REMARK INTER:                  -5.713
REMARK INTRA:                  -0.262
REMARK UNBOUND:                -0.526
REMARK SMILES CCCCCCCC(=O)[O-]
REMARK SMILES IDX 5 1 6 2 7 3 8 4 9 5 10 6 4 7 3 8 2 9 1 10
REMARK H PARENT
REMARK Flexibility Score: inf
ROOT
ATOM      1  C   UNL     1     -14.539  -0.726 -19.493  1.00  0.00     0.000 C 
ENDROOT
BRANCH   1   2
ATOM      2  C   UNL     1     -13.787  -1.992 -19.065  1.00  0.00     0.006 C 
BRANCH   2   3
ATOM      3  C   UNL     1     -13.132  -2.676 -20.268  1.00  0.00     0.053 C 
BRANCH   3   4
ATOM      4  C   UNL     1     -12.251  -3.797 -19.818  1.00  0.00     0.041 C 
ATOM      5  O   UNL     1     -11.110  -3.952 -20.330  1.00  0.00    -0.550 OA
ATOM      6  O   UNL     1     -12.707  -4.703 -18.869  1.00  0.00    -0.550 OA
ENDBRANCH   3   4
ENDBRANCH   2   3
ENDBRANCH   1   2
BRANCH   1   7
ATOM      7  C   UNL     1     -13.958  -0.151 -20.789  1.00  0.00     0.000 C 
BRANCH   7   8
ATOM      8  C   UNL     1     -14.289   1.342 -20.926  1.00  0.00    -0.000 C 
BRANCH   8   9
ATOM      9  C   UNL     1     -15.076   1.885 -19.722  1.00  0.00    -0.003 C 
ATOM     10  C   UNL     1     -16.005   3.041 -20.094  1.00  0.00     0.004 C 
ENDBRANCH   8   9
ENDBRANCH   7   8
ENDBRANCH   1   7
TORSDOF 6
ENDMDL
MODEL 4
REMARK VINA RESULT:    -3.967      3.047      4.312
REMARK INTER + INTRA:          -5.885
REMARK INTER:                  -5.482
REMARK INTRA:                  -0.403
REMARK UNBOUND:                -0.526
REMARK SMILES CCCCCCCC(=O)[O-]
REMARK SMILES IDX 5 1 6 2 7 3 8 4 9 5 10 6 4 7 3 8 2 9 1 10
REMARK H PARENT
REMARK Flexibility Score: inf
ROOT
ATOM      1  C   UNL     1     -15.089   1.796 -19.569  1.00  0.00     0.000 C 
ENDROOT
BRANCH   1   2
ATOM      2  C   UNL     1     -14.468   0.816 -20.571  1.00  0.00     0.006 C 
BRANCH   2   3
ATOM      3  C   UNL     1     -15.240  -0.506 -20.597  1.00  0.00     0.053 C 
BRANCH   3   4
ATOM      4  C   UNL     1     -14.340  -1.645 -20.239  1.00  0.00     0.041 C 
ATOM      5  O   UNL     1     -14.102  -2.554 -21.078  1.00  0.00    -0.550 OA
ATOM      6  O   UNL     1     -13.801  -1.731 -18.962  1.00  0.00    -0.550 OA
ENDBRANCH   3   4
ENDBRANCH   2   3
ENDBRANCH   1   2
BRANCH   1   7
ATOM      7  C   UNL     1     -15.294   3.178 -20.202  1.00  0.00     0.000 C 
BRANCH   7   8
ATOM      8  C   UNL     1     -16.780   3.563 -20.214  1.00  0.00    -0.000 C 
BRANCH   8   9
ATOM      9  C   UNL     1     -17.359   3.638 -21.635  1.00  0.00    -0.003 C 
ATOM     10  C   UNL     1     -17.556   2.260 -22.268  1.00  0.00     0.004 C 
ENDBRANCH   8   9
ENDBRANCH   7   8
ENDBRANCH   1   7
TORSDOF 6
ENDMDL
MODEL 5
REMARK VINA RESULT:    -3.942      2.245      4.195
REMARK INTER + INTRA:          -5.851
REMARK INTER:                  -5.349
REMARK INTRA:                  -0.502
REMARK UNBOUND:                -0.526
REMARK SMILES CCCCCCCC(=O)[O-]
REMARK SMILES IDX 5 1 6 2 7 3 8 4 9 5 10 6 4 7 3 8 2 9 1 10
REMARK H PARENT
REMARK Flexibility Score: inf
ROOT
ATOM      1  C   UNL     1     -16.103   2.868 -21.665  1.00  0.00     0.000 C 
ENDROOT
BRANCH   1   2
ATOM      2  C   UNL     1     -17.494   2.485 -22.185  1.00  0.00     0.006 C 
BRANCH   2   3
ATOM      3  C   UNL     1     -17.393   1.691 -23.491  1.00  0.00     0.053 C 
BRANCH   3   4
ATOM      4  C   UNL     1     -16.859   0.319 -23.231  1.00  0.00     0.041 C 
ATOM      5  O   UNL     1     -17.522  -0.499 -22.538  1.00  0.00    -0.550 OA
ATOM      6  O   UNL     1     -15.607  -0.043 -23.711  1.00  0.00    -0.550 OA
ENDBRANCH   3   4
ENDBRANCH   2   3
ENDBRANCH   1   2
BRANCH   1   7
ATOM      7  C   UNL     1     -16.127   3.105 -20.150  1.00  0.00     0.000 C 
BRANCH   7   8
ATOM      8  C   UNL     1     -15.345   2.010 -19.410  1.00  0.00    -0.000 C 
BRANCH   8   9
ATOM      9  C   UNL     1     -14.662   1.022 -20.368  1.00  0.00    -0.003 C 
ATOM     10  C   UNL     1     -14.678  -0.416 -19.847  1.00  0.00     0.004 C 
ENDBRANCH   8   9
ENDBRANCH   7   8
ENDBRANCH   1   7
TORSDOF 6
ENDMDL
MODEL 6
REMARK VINA RESULT:    -3.929      4.217      6.609
REMARK INTER + INTRA:          -5.833
REMARK INTER:                  -5.527
REMARK INTRA:                  -0.306
REMARK UNBOUND:                -0.526
REMARK SMILES CCCCCCCC(=O)[O-]
REMARK SMILES IDX 5 1 6 2 7 3 8 4 9 5 10 6 4 7 3 8 2 9 1 10
REMARK H PARENT
REMARK Flexibility Score: inf
ROOT
ATOM      1  C   UNL     1     -14.989   5.973 -21.802  1.00  0.00     0.000 C 
ENDROOT
BRANCH   1   2
ATOM      2  C   UNL     1     -14.910   5.376 -23.212  1.00  0.00     0.006 C 
BRANCH   2   3
ATOM      3  C   UNL     1     -13.767   4.362 -23.316  1.00  0.00     0.053 C 
BRANCH   3   4
ATOM      4  C   UNL     1     -14.305   2.968 -23.355  1.00  0.00     0.041 C 
ATOM      5  O   UNL     1     -13.821   2.080 -22.604  1.00  0.00    -0.550 OA
ATOM      6  O   UNL     1     -15.309   2.634 -24.255  1.00  0.00    -0.550 OA
ENDBRANCH   3   4
ENDBRANCH   2   3
ENDBRANCH   1   2
BRANCH   1   7
ATOM      7  C   UNL     1     -13.663   5.800 -21.054  1.00  0.00     0.000 C 
BRANCH   7   8
ATOM      8  C   UNL     1     -13.070   7.162 -20.663  1.00  0.00    -0.000 C 
BRANCH   8   9
ATOM      9  C   UNL     1     -14.147   8.183 -20.267  1.00  0.00    -0.003 C 
ATOM     10  C   UNL     1     -13.560   9.533 -19.854  1.00  0.00     0.004 C 
ENDBRANCH   8   9
ENDBRANCH   7   8
ENDBRANCH   1   7
TORSDOF 6
ENDMDL
MODEL 7
REMARK VINA RESULT:    -3.928      1.264      3.095
REMARK INTER + INTRA:          -5.832
REMARK INTER:                  -5.208
REMARK INTRA:                  -0.624
REMARK UNBOUND:                -0.526
REMARK SMILES CCCCCCCC(=O)[O-]
REMARK SMILES IDX 5 1 6 2 7 3 8 4 9 5 10 6 4 7 3 8 2 9 1 10
REMARK H PARENT
REMARK Flexibility Score: inf
ROOT
ATOM      1  C   UNL     1     -15.921  -0.624 -21.937  1.00  0.00     0.000 C 
ENDROOT
BRANCH   1   2
ATOM      2  C   UNL     1     -16.825  -0.158 -23.084  1.00  0.00     0.006 C 
BRANCH   2   3
ATOM      3  C   UNL     1     -17.888   0.823 -22.582  1.00  0.00     0.053 C 
BRANCH   3   4
ATOM      4  C   UNL     1     -17.348   2.218 -22.565  1.00  0.00     0.041 C 
ATOM      5  O   UNL     1     -17.875   3.093 -21.828  1.00  0.00    -0.550 OA
ATOM      6  O   UNL     1     -16.294   2.566 -23.400  1.00  0.00    -0.550 OA
ENDBRANCH   3   4
ENDBRANCH   2   3
ENDBRANCH   1   2
BRANCH   1   7
ATOM      7  C   UNL     1     -14.459  -0.240 -22.195  1.00  0.00     0.000 C 
BRANCH   7   8
ATOM      8  C   UNL     1     -13.887   0.567 -21.021  1.00  0.00    -0.000 C 
BRANCH   8   9
ATOM      9  C   UNL     1     -14.879   0.696 -19.854  1.00  0.00    -0.003 C 
ATOM     10  C   UNL     1     -15.226   2.150 -19.531  1.00  0.00     0.004 C 
ENDBRANCH   8   9
ENDBRANCH   7   8
ENDBRANCH   1   7
TORSDOF 6
ENDMDL
MODEL 8
REMARK VINA RESULT:    -3.927      2.260      3.734
REMARK INTER + INTRA:          -5.830
REMARK INTER:                  -5.281
REMARK INTRA:                  -0.550
REMARK UNBOUND:                -0.526
REMARK SMILES CCCCCCCC(=O)[O-]
REMARK SMILES IDX 5 1 6 2 7 3 8 4 9 5 10 6 4 7 3 8 2 9 1 10
REMARK H PARENT
REMARK Flexibility Score: inf
ROOT
ATOM      1  C   UNL     1     -14.552   0.883 -20.596  1.00  0.00     0.000 C 
ENDROOT
BRANCH   1   2
ATOM      2  C   UNL     1     -14.976  -0.588 -20.519  1.00  0.00     0.006 C 
BRANCH   2   3
ATOM      3  C   UNL     1     -14.964  -1.237 -21.906  1.00  0.00     0.053 C 
BRANCH   3   4
ATOM      4  C   UNL     1     -15.964  -0.577 -22.802  1.00  0.00     0.041 C 
ATOM      5  O   UNL     1     -15.585   0.016 -23.847  1.00  0.00    -0.550 OA
ATOM      6  O   UNL     1     -17.310  -0.574 -22.459  1.00  0.00    -0.550 OA
ENDBRANCH   3   4
ENDBRANCH   2   3
ENDBRANCH   1   2
BRANCH   1   7
ATOM      7  C   UNL     1     -15.165   1.695 -19.449  1.00  0.00     0.000 C 
BRANCH   7   8
ATOM      8  C   UNL     1     -15.958   2.895 -19.986  1.00  0.00    -0.000 C 
BRANCH   8   9
ATOM      9  C   UNL     1     -16.094   2.875 -21.517  1.00  0.00    -0.003 C 
ATOM     10  C   UNL     1     -17.549   2.932 -21.983  1.00  0.00     0.004 C 
ENDBRANCH   8   9
ENDBRANCH   7   8
ENDBRANCH   1   7
TORSDOF 6
ENDMDL
MODEL 9
REMARK VINA RESULT:    -3.913      2.327      3.864
REMARK INTER + INTRA:          -5.812
REMARK INTER:                  -5.676
REMARK INTRA:                  -0.136
REMARK UNBOUND:                -0.526
REMARK SMILES CCCCCCCC(=O)[O-]
REMARK SMILES IDX 5 1 6 2 7 3 8 4 9 5 10 6 4 7 3 8 2 9 1 10
REMARK H PARENT
REMARK Flexibility Score: inf
ROOT
ATOM      1  C   UNL     1     -16.242   2.915 -20.823  1.00  0.00     0.000 C 
ENDROOT
BRANCH   1   2
ATOM      2  C   UNL     1     -17.147   3.987 -20.205  1.00  0.00     0.006 C 
BRANCH   2   3
ATOM      3  C   UNL     1     -17.343   5.163 -21.167  1.00  0.00     0.053 C 
BRANCH   3   4
ATOM      4  C   UNL     1     -16.840   6.431 -20.554  1.00  0.00     0.041 C 
ATOM      5  O   UNL     1     -17.439   7.518 -20.765  1.00  0.00    -0.550 OA
ATOM      6  O   UNL     1     -15.680   6.422 -19.789  1.00  0.00    -0.550 OA
ENDBRANCH   3   4
ENDBRANCH   2   3
ENDBRANCH   1   2
BRANCH   1   7
ATOM      7  C   UNL     1     -15.370   2.246 -19.754  1.00  0.00     0.000 C 
BRANCH   7   8
ATOM      8  C   UNL     1     -14.855   0.883 -20.238  1.00  0.00    -0.000 C 
BRANCH   8   9
ATOM      9  C   UNL     1     -14.830  -0.170 -19.119  1.00  0.00    -0.003 C 
ATOM     10  C   UNL     1     -14.057  -1.430 -19.509  1.00  0.00     0.004 C 
ENDBRANCH   8   9
ENDBRANCH   7   8
ENDBRANCH   1   7
TORSDOF 6
ENDMDL
