MODEL 1
REMARK VINA RESULT:    -7.997      0.000      0.000
REMARK INTER + INTRA:          -9.952
REMARK INTER:                  -9.633
REMARK INTRA:                  -0.319
REMARK UNBOUND:                -0.319
REMARK SMILES O=c1c(O)c(-c2ccc(O)c(O)c2)oc2cc(O)cc(O)c12
REMARK SMILES IDX 5 1 3 2 2 3 1 4 22 5 20 6 19 7 17 8 16 9 15 10 14 11 6 12
REMARK SMILES IDX 7 13 8 14 9 15 13 16 11 17 10 18 12 20 4 22 21 24 18 26
REMARK H PARENT 10 19 12 21 4 23 21 25 18 27
REMARK Flexibility Score: inf
ROOT
ATOM      1  C   UNL     1     -24.705 -20.249 -13.367  1.00  0.00     0.180 A 
ATOM      2  C   UNL     1     -24.544 -21.371 -14.198  1.00  0.00     0.208 A 
ATOM      3  C   UNL     1     -24.311 -22.625 -13.611  1.00  0.00     0.238 A 
ATOM      4  O   UNL     1     -24.113 -23.616 -14.361  1.00  0.00    -0.285 OA
ATOM      5  C   UNL     1     -24.257 -22.744 -12.201  1.00  0.00     0.111 A 
ATOM      6  C   UNL     1     -24.066 -23.972 -11.498  1.00  0.00     0.134 A 
ATOM      7  C   UNL     1     -23.900 -23.952 -10.108  1.00  0.00     0.093 A 
ATOM      8  C   UNL     1     -23.982 -22.757  -9.388  1.00  0.00     0.123 A 
ATOM      9  C   UNL     1     -24.228 -21.562 -10.059  1.00  0.00     0.094 A 
ATOM     10  C   UNL     1     -24.363 -21.545 -11.450  1.00  0.00     0.146 A 
ATOM     11  O   UNL     1     -24.585 -20.382 -12.051  1.00  0.00    -0.452 OA
ENDROOT
BRANCH   1  12
ATOM     12  C   UNL     1     -24.979 -18.898 -13.911  1.00  0.00     0.025 A 
ATOM     13  C   UNL     1     -26.292 -18.404 -14.013  1.00  0.00     0.016 A 
ATOM     14  C   UNL     1     -26.524 -17.117 -14.507  1.00  0.00     0.051 A 
ATOM     15  C   UNL     1     -25.452 -16.303 -14.893  1.00  0.00     0.157 A 
ATOM     16  C   UNL     1     -23.906 -18.071 -14.278  1.00  0.00     0.062 A 
ATOM     17  C   UNL     1     -24.136 -16.782 -14.775  1.00  0.00     0.158 A 
BRANCH  15  18
ATOM     18  O   UNL     1     -25.687 -15.021 -15.387  1.00  0.00    -0.504 OA
ATOM     19  H   UNL     1     -25.416 -14.194 -14.867  1.00  0.00     0.293 HD
ENDBRANCH  15  18
BRANCH  17  20
ATOM     20  O   UNL     1     -23.047 -15.993 -15.143  1.00  0.00    -0.504 OA
ATOM     21  H   UNL     1     -23.071 -14.983 -15.089  1.00  0.00     0.293 HD
ENDBRANCH  17  20
ENDBRANCH   1  12
BRANCH   2  22
ATOM     22  O   UNL     1     -24.579 -21.227 -15.587  1.00  0.00    -0.502 OA
ATOM     23  H   UNL     1     -25.229 -21.740 -16.171  1.00  0.00     0.293 HD
ENDBRANCH   2  22
BRANCH   6  24
ATOM     24  O   UNL     1     -24.061 -25.228 -12.110  1.00  0.00    -0.507 OA
ATOM     25  H   UNL     1     -23.248 -25.666 -12.517  1.00  0.00     0.293 HD
ENDBRANCH   6  24
BRANCH   8  26
ATOM     26  O   UNL     1     -23.831 -22.749  -8.004  1.00  0.00    -0.508 OA
ATOM     27  H   UNL     1     -24.199 -21.995  -7.435  1.00  0.00     0.293 HD
ENDBRANCH   8  26
TORSDOF 6
ENDMDL
MODEL 2
REMARK VINA RESULT:    -7.742      1.305      2.866
REMARK INTER + INTRA:          -9.645
REMARK INTER:                  -9.384
REMARK INTRA:                  -0.261
REMARK UNBOUND:                -0.319
REMARK SMILES O=c1c(O)c(-c2ccc(O)c(O)c2)oc2cc(O)cc(O)c12
REMARK SMILES IDX 5 1 3 2 2 3 1 4 22 5 20 6 19 7 17 8 16 9 15 10 14 11 6 12
REMARK SMILES IDX 7 13 8 14 9 15 13 16 11 17 10 18 12 20 4 22 21 24 18 26
REMARK H PARENT 10 19 12 21 4 23 21 25 18 27
REMARK Flexibility Score: inf
ROOT
ATOM      1  C   UNL     1     -24.925 -19.571 -13.192  1.00  0.00     0.180 A 
ATOM      2  C   UNL     1     -25.340 -19.650 -11.850  1.00  0.00     0.208 A 
ATOM      3  C   UNL     1     -25.241 -20.879 -11.179  1.00  0.00     0.238 A 
ATOM      4  O   UNL     1     -25.665 -20.956  -9.996  1.00  0.00    -0.285 OA
ATOM      5  C   UNL     1     -24.714 -22.008 -11.850  1.00  0.00     0.111 A 
ATOM      6  C   UNL     1     -24.532 -23.293 -11.255  1.00  0.00     0.134 A 
ATOM      7  C   UNL     1     -24.125 -24.371 -12.050  1.00  0.00     0.093 A 
ATOM      8  C   UNL     1     -23.831 -24.197 -13.405  1.00  0.00     0.123 A 
ATOM      9  C   UNL     1     -23.949 -22.934 -13.981  1.00  0.00     0.094 A 
ATOM     10  C   UNL     1     -24.387 -21.847 -13.222  1.00  0.00     0.146 A 
ATOM     11  O   UNL     1     -24.496 -20.663 -13.813  1.00  0.00    -0.452 OA
ENDROOT
BRANCH   1  12
ATOM     12  C   UNL     1     -24.974 -18.304 -13.958  1.00  0.00     0.025 A 
ATOM     13  C   UNL     1     -26.191 -17.781 -14.430  1.00  0.00     0.016 A 
ATOM     14  C   UNL     1     -26.216 -16.572 -15.130  1.00  0.00     0.051 A 
ATOM     15  C   UNL     1     -25.029 -15.863 -15.359  1.00  0.00     0.157 A 
ATOM     16  C   UNL     1     -23.790 -17.579 -14.171  1.00  0.00     0.062 A 
ATOM     17  C   UNL     1     -23.811 -16.368 -14.874  1.00  0.00     0.158 A 
BRANCH  15  18
ATOM     18  O   UNL     1     -25.056 -14.658 -16.060  1.00  0.00    -0.504 OA
ATOM     19  H   UNL     1     -24.500 -14.518 -16.896  1.00  0.00     0.293 HD
ENDBRANCH  15  18
BRANCH  17  20
ATOM     20  O   UNL     1     -22.614 -15.682 -15.077  1.00  0.00    -0.504 OA
ATOM     21  H   UNL     1     -21.974 -15.483 -14.320  1.00  0.00     0.293 HD
ENDBRANCH  17  20
ENDBRANCH   1  12
BRANCH   2  22
ATOM     22  O   UNL     1     -25.876 -18.528 -11.214  1.00  0.00    -0.502 OA
ATOM     23  H   UNL     1     -26.835 -18.494 -10.889  1.00  0.00     0.293 HD
ENDBRANCH   2  22
BRANCH   6  24
ATOM     24  O   UNL     1     -24.708 -23.553  -9.893  1.00  0.00    -0.507 OA
ATOM     25  H   UNL     1     -25.264 -24.308  -9.519  1.00  0.00     0.293 HD
ENDBRANCH   6  24
BRANCH   8  26
ATOM     26  O   UNL     1     -23.412 -25.271 -14.186  1.00  0.00    -0.508 OA
ATOM     27  H   UNL     1     -23.691 -25.362 -15.157  1.00  0.00     0.293 HD
ENDBRANCH   8  26
TORSDOF 6
ENDMDL
MODEL 3
REMARK VINA RESULT:    -7.666      2.180      7.446
REMARK INTER + INTRA:          -9.554
REMARK INTER:                  -9.233
REMARK INTRA:                  -0.321
REMARK UNBOUND:                -0.319
REMARK SMILES O=c1c(O)c(-c2ccc(O)c(O)c2)oc2cc(O)cc(O)c12
REMARK SMILES IDX 5 1 3 2 2 3 1 4 22 5 20 6 19 7 17 8 16 9 15 10 14 11 6 12
REMARK SMILES IDX 7 13 8 14 9 15 13 16 11 17 10 18 12 20 4 22 21 24 18 26
REMARK H PARENT 10 19 12 21 4 23 21 25 18 27
REMARK Flexibility Score: inf
ROOT
ATOM      1  C   UNL     1     -24.420 -17.754 -14.106  1.00  0.00     0.180 A 
ATOM      2  C   UNL     1     -25.443 -16.946 -14.632  1.00  0.00     0.208 A 
ATOM      3  C   UNL     1     -25.153 -15.613 -14.967  1.00  0.00     0.238 A 
ATOM      4  O   UNL     1     -26.087 -14.879 -15.386  1.00  0.00    -0.285 OA
ATOM      5  C   UNL     1     -23.843 -15.110 -14.786  1.00  0.00     0.111 A 
ATOM      6  C   UNL     1     -23.429 -13.787 -15.127  1.00  0.00     0.134 A 
ATOM      7  C   UNL     1     -22.142 -13.357 -14.784  1.00  0.00     0.093 A 
ATOM      8  C   UNL     1     -21.232 -14.222 -14.169  1.00  0.00     0.123 A 
ATOM      9  C   UNL     1     -21.608 -15.532 -13.886  1.00  0.00     0.094 A 
ATOM     10  C   UNL     1     -22.897 -15.980 -14.184  1.00  0.00     0.146 A 
ATOM     11  O   UNL     1     -23.217 -17.234 -13.887  1.00  0.00    -0.452 OA
ENDROOT
BRANCH   1  12
ATOM     12  C   UNL     1     -24.641 -19.176 -13.753  1.00  0.00     0.025 A 
ATOM     13  C   UNL     1     -25.032 -19.556 -12.458  1.00  0.00     0.016 A 
ATOM     14  C   UNL     1     -25.258 -20.901 -12.155  1.00  0.00     0.051 A 
ATOM     15  C   UNL     1     -25.109 -21.883 -13.144  1.00  0.00     0.157 A 
ATOM     16  C   UNL     1     -24.513 -20.161 -14.746  1.00  0.00     0.062 A 
ATOM     17  C   UNL     1     -24.737 -21.510 -14.446  1.00  0.00     0.158 A 
BRANCH  15  18
ATOM     18  O   UNL     1     -25.333 -23.225 -12.839  1.00  0.00    -0.504 OA
ATOM     19  H   UNL     1     -26.153 -23.716 -13.176  1.00  0.00     0.293 HD
ENDBRANCH  15  18
BRANCH  17  20
ATOM     20  O   UNL     1     -24.588 -22.462 -15.454  1.00  0.00    -0.504 OA
ATOM     21  H   UNL     1     -23.759 -23.037 -15.531  1.00  0.00     0.293 HD
ENDBRANCH  17  20
ENDBRANCH   1  12
BRANCH   2  22
ATOM     22  O   UNL     1     -26.734 -17.457 -14.782  1.00  0.00    -0.502 OA
ATOM     23  H   UNL     1     -27.488 -16.918 -15.192  1.00  0.00     0.293 HD
ENDBRANCH   2  22
BRANCH   6  24
ATOM     24  O   UNL     1     -24.227 -12.875 -15.823  1.00  0.00    -0.507 OA
ATOM     25  H   UNL     1     -23.994 -12.474 -16.720  1.00  0.00     0.293 HD
ENDBRANCH   6  24
BRANCH   8  26
ATOM     26  O   UNL     1     -19.948 -13.790 -13.845  1.00  0.00    -0.508 OA
ATOM     27  H   UNL     1     -19.666 -13.639 -12.883  1.00  0.00     0.293 HD
ENDBRANCH   8  26
TORSDOF 6
ENDMDL
MODEL 4
REMARK VINA RESULT:    -7.246      2.106      2.343
REMARK INTER + INTRA:          -9.048
REMARK INTER:                  -8.716
REMARK INTRA:                  -0.332
REMARK UNBOUND:                -0.319
REMARK SMILES O=c1c(O)c(-c2ccc(O)c(O)c2)oc2cc(O)cc(O)c12
REMARK SMILES IDX 5 1 3 2 2 3 1 4 22 5 20 6 19 7 17 8 16 9 15 10 14 11 6 12
REMARK SMILES IDX 7 13 8 14 9 15 13 16 11 17 10 18 12 20 4 22 21 24 18 26
REMARK H PARENT 10 19 12 21 4 23 21 25 18 27
REMARK Flexibility Score: inf
ROOT
ATOM      1  C   UNL     1     -25.116 -18.726 -13.167  1.00  0.00     0.180 A 
ATOM      2  C   UNL     1     -24.420 -19.811 -13.728  1.00  0.00     0.208 A 
ATOM      3  C   UNL     1     -24.621 -21.096 -13.198  1.00  0.00     0.238 A 
ATOM      4  O   UNL     1     -23.954 -22.054 -13.668  1.00  0.00    -0.285 OA
ATOM      5  C   UNL     1     -25.526 -21.282 -12.125  1.00  0.00     0.111 A 
ATOM      6  C   UNL     1     -25.836 -22.545 -11.536  1.00  0.00     0.134 A 
ATOM      7  C   UNL     1     -26.646 -22.594 -10.396  1.00  0.00     0.093 A 
ATOM      8  C   UNL     1     -27.211 -21.433  -9.861  1.00  0.00     0.123 A 
ATOM      9  C   UNL     1     -26.962 -20.203 -10.464  1.00  0.00     0.094 A 
ATOM     10  C   UNL     1     -26.128 -20.117 -11.582  1.00  0.00     0.146 A 
ATOM     11  O   UNL     1     -25.909 -18.923 -12.119  1.00  0.00    -0.452 OA
ENDROOT
BRANCH   1  12
ATOM     12  C   UNL     1     -24.977 -17.346 -13.688  1.00  0.00     0.025 A 
ATOM     13  C   UNL     1     -25.772 -16.881 -14.750  1.00  0.00     0.016 A 
ATOM     14  C   UNL     1     -25.640 -15.568 -15.209  1.00  0.00     0.051 A 
ATOM     15  C   UNL     1     -24.721 -14.698 -14.607  1.00  0.00     0.157 A 
ATOM     16  C   UNL     1     -24.073 -16.464 -13.073  1.00  0.00     0.062 A 
ATOM     17  C   UNL     1     -23.937 -15.148 -13.532  1.00  0.00     0.158 A 
BRANCH  15  18
ATOM     18  O   UNL     1     -24.590 -13.389 -15.068  1.00  0.00    -0.504 OA
ATOM     19  H   UNL     1     -24.679 -12.595 -14.443  1.00  0.00     0.293 HD
ENDBRANCH  15  18
BRANCH  17  20
ATOM     20  O   UNL     1     -23.020 -14.304 -12.906  1.00  0.00    -0.504 OA
ATOM     21  H   UNL     1     -23.306 -13.461 -12.426  1.00  0.00     0.293 HD
ENDBRANCH  17  20
ENDBRANCH   1  12
BRANCH   2  22
ATOM     22  O   UNL     1     -23.516 -19.602 -14.772  1.00  0.00    -0.502 OA
ATOM     23  H   UNL     1     -23.025 -20.362 -15.227  1.00  0.00     0.293 HD
ENDBRANCH   2  22
BRANCH   6  24
ATOM     24  O   UNL     1     -25.401 -23.771 -12.046  1.00  0.00    -0.507 OA
ATOM     25  H   UNL     1     -25.523 -24.661 -11.586  1.00  0.00     0.293 HD
ENDBRANCH   6  24
BRANCH   8  26
ATOM     26  O   UNL     1     -28.028 -21.492  -8.735  1.00  0.00    -0.508 OA
ATOM     27  H   UNL     1     -28.675 -22.260  -8.590  1.00  0.00     0.293 HD
ENDBRANCH   8  26
TORSDOF 6
ENDMDL
MODEL 5
REMARK VINA RESULT:    -7.126      2.733      7.420
REMARK INTER + INTRA:          -8.903
REMARK INTER:                  -8.662
REMARK INTRA:                  -0.241
REMARK UNBOUND:                -0.319
REMARK SMILES O=c1c(O)c(-c2ccc(O)c(O)c2)oc2cc(O)cc(O)c12
REMARK SMILES IDX 5 1 3 2 2 3 1 4 22 5 20 6 19 7 17 8 16 9 15 10 14 11 6 12
REMARK SMILES IDX 7 13 8 14 9 15 13 16 11 17 10 18 12 20 4 22 21 24 18 26
REMARK H PARENT 10 19 12 21 4 23 21 25 18 27
REMARK Flexibility Score: inf
ROOT
ATOM      1  C   UNL     1     -24.688 -17.402 -13.227  1.00  0.00     0.180 A 
ATOM      2  C   UNL     1     -25.236 -16.831 -14.390  1.00  0.00     0.208 A 
ATOM      3  C   UNL     1     -24.830 -15.543 -14.772  1.00  0.00     0.238 A 
ATOM      4  O   UNL     1     -25.365 -15.015 -15.782  1.00  0.00    -0.285 OA
ATOM      5  C   UNL     1     -23.869 -14.848 -13.998  1.00  0.00     0.111 A 
ATOM      6  C   UNL     1     -23.356 -13.554 -14.314  1.00  0.00     0.134 A 
ATOM      7  C   UNL     1     -22.507 -12.908 -13.408  1.00  0.00     0.093 A 
ATOM      8  C   UNL     1     -22.101 -13.536 -12.227  1.00  0.00     0.123 A 
ATOM      9  C   UNL     1     -22.550 -14.822 -11.938  1.00  0.00     0.094 A 
ATOM     10  C   UNL     1     -23.426 -15.478 -12.806  1.00  0.00     0.146 A 
ATOM     11  O   UNL     1     -23.839 -16.699 -12.487  1.00  0.00    -0.452 OA
ENDROOT
BRANCH   1  12
ATOM     12  C   UNL     1     -25.048 -18.766 -12.774  1.00  0.00     0.025 A 
ATOM     13  C   UNL     1     -24.633 -19.906 -13.484  1.00  0.00     0.016 A 
ATOM     14  C   UNL     1     -24.964 -21.183 -13.024  1.00  0.00     0.051 A 
ATOM     15  C   UNL     1     -25.703 -21.340 -11.844  1.00  0.00     0.157 A 
ATOM     16  C   UNL     1     -25.769 -18.929 -11.580  1.00  0.00     0.062 A 
ATOM     17  C   UNL     1     -26.104 -20.207 -11.117  1.00  0.00     0.158 A 
BRANCH  15  18
ATOM     18  O   UNL     1     -26.033 -22.616 -11.388  1.00  0.00    -0.504 OA
ATOM     19  H   UNL     1     -25.467 -23.095 -10.697  1.00  0.00     0.293 HD
ENDBRANCH  15  18
BRANCH  17  20
ATOM     20  O   UNL     1     -26.833 -20.330  -9.935  1.00  0.00    -0.504 OA
ATOM     21  H   UNL     1     -27.845 -20.338  -9.925  1.00  0.00     0.293 HD
ENDBRANCH  17  20
ENDBRANCH   1  12
BRANCH   2  22
ATOM     22  O   UNL     1     -26.199 -17.525 -15.127  1.00  0.00    -0.502 OA
ATOM     23  H   UNL     1     -27.139 -17.174 -15.261  1.00  0.00     0.293 HD
ENDBRANCH   2  22
BRANCH   6  24
ATOM     24  O   UNL     1     -23.624 -12.879 -15.508  1.00  0.00    -0.507 OA
ATOM     25  H   UNL     1     -22.973 -12.273 -15.985  1.00  0.00     0.293 HD
ENDBRANCH   6  24
BRANCH   8  26
ATOM     26  O   UNL     1     -21.243 -12.892 -11.338  1.00  0.00    -0.508 OA
ATOM     27  H   UNL     1     -20.974 -11.923 -11.468  1.00  0.00     0.293 HD
ENDBRANCH   8  26
TORSDOF 6
ENDMDL
MODEL 6
REMARK VINA RESULT:    -7.018      5.406      8.471
REMARK INTER + INTRA:          -8.773
REMARK INTER:                  -8.585
REMARK INTRA:                  -0.188
REMARK UNBOUND:                -0.319
REMARK SMILES O=c1c(O)c(-c2ccc(O)c(O)c2)oc2cc(O)cc(O)c12
REMARK SMILES IDX 5 1 3 2 2 3 1 4 22 5 20 6 19 7 17 8 16 9 15 10 14 11 6 12
REMARK SMILES IDX 7 13 8 14 9 15 13 16 11 17 10 18 12 20 4 22 21 24 18 26
REMARK H PARENT 10 19 12 21 4 23 21 25 18 27
REMARK Flexibility Score: inf
ROOT
ATOM      1  C   UNL     1     -22.062 -14.287 -11.466  1.00  0.00     0.180 A 
ATOM      2  C   UNL     1     -21.307 -13.747 -12.522  1.00  0.00     0.208 A 
ATOM      3  C   UNL     1     -21.609 -14.127 -13.839  1.00  0.00     0.238 A 
ATOM      4  O   UNL     1     -20.894 -13.684 -14.775  1.00  0.00    -0.285 OA
ATOM      5  C   UNL     1     -22.672 -15.029 -14.086  1.00  0.00     0.111 A 
ATOM      6  C   UNL     1     -23.091 -15.452 -15.383  1.00  0.00     0.134 A 
ATOM      7  C   UNL     1     -24.069 -16.447 -15.502  1.00  0.00     0.093 A 
ATOM      8  C   UNL     1     -24.689 -16.988 -14.372  1.00  0.00     0.123 A 
ATOM      9  C   UNL     1     -24.329 -16.538 -13.105  1.00  0.00     0.094 A 
ATOM     10  C   UNL     1     -23.331 -15.572 -12.952  1.00  0.00     0.146 A 
ATOM     11  O   UNL     1     -23.010 -15.180 -11.725  1.00  0.00    -0.452 OA
ENDROOT
BRANCH   1  12
ATOM     12  C   UNL     1     -21.820 -13.915 -10.052  1.00  0.00     0.025 A 
ATOM     13  C   UNL     1     -22.774 -13.195  -9.312  1.00  0.00     0.016 A 
ATOM     14  C   UNL     1     -22.534 -12.876  -7.973  1.00  0.00     0.051 A 
ATOM     15  C   UNL     1     -21.345 -13.281  -7.351  1.00  0.00     0.157 A 
ATOM     16  C   UNL     1     -20.640 -14.337  -9.420  1.00  0.00     0.062 A 
ATOM     17  C   UNL     1     -20.395 -14.017  -8.078  1.00  0.00     0.158 A 
BRANCH  15  18
ATOM     18  O   UNL     1     -21.107 -12.959  -6.016  1.00  0.00    -0.504 OA
ATOM     19  H   UNL     1     -20.502 -12.188  -5.756  1.00  0.00     0.293 HD
ENDBRANCH  15  18
BRANCH  17  20
ATOM     20  O   UNL     1     -19.206 -14.442  -7.487  1.00  0.00    -0.504 OA
ATOM     21  H   UNL     1     -18.487 -14.923  -8.012  1.00  0.00     0.293 HD
ENDBRANCH  17  20
ENDBRANCH   1  12
BRANCH   2  22
ATOM     22  O   UNL     1     -20.248 -12.876 -12.254  1.00  0.00    -0.502 OA
ATOM     23  H   UNL     1     -19.303 -13.055 -12.570  1.00  0.00     0.293 HD
ENDBRANCH   2  22
BRANCH   6  24
ATOM     24  O   UNL     1     -22.603 -14.911 -16.575  1.00  0.00    -0.507 OA
ATOM     25  H   UNL     1     -21.630 -14.890 -16.842  1.00  0.00     0.293 HD
ENDBRANCH   6  24
BRANCH   8  26
ATOM     26  O   UNL     1     -25.672 -17.966 -14.500  1.00  0.00    -0.508 OA
ATOM     27  H   UNL     1     -26.333 -18.155 -13.754  1.00  0.00     0.293 HD
ENDBRANCH   8  26
TORSDOF 6
ENDMDL
MODEL 7
REMARK VINA RESULT:    -6.955      2.275      3.317
REMARK INTER + INTRA:          -8.697
REMARK INTER:                  -8.391
REMARK INTRA:                  -0.306
REMARK UNBOUND:                -0.319
REMARK SMILES O=c1c(O)c(-c2ccc(O)c(O)c2)oc2cc(O)cc(O)c12
REMARK SMILES IDX 5 1 3 2 2 3 1 4 22 5 20 6 19 7 17 8 16 9 15 10 14 11 6 12
REMARK SMILES IDX 7 13 8 14 9 15 13 16 11 17 10 18 12 20 4 22 21 24 18 26
REMARK H PARENT 10 19 12 21 4 23 21 25 18 27
REMARK Flexibility Score: inf
ROOT
ATOM      1  C   UNL     1     -25.742 -19.800 -11.465  1.00  0.00     0.180 A 
ATOM      2  C   UNL     1     -26.909 -19.773 -10.682  1.00  0.00     0.208 A 
ATOM      3  C   UNL     1     -27.095 -20.762  -9.704  1.00  0.00     0.238 A 
ATOM      4  O   UNL     1     -28.168 -20.765  -9.044  1.00  0.00    -0.285 OA
ATOM      5  C   UNL     1     -26.107 -21.756  -9.510  1.00  0.00     0.111 A 
ATOM      6  C   UNL     1     -26.173 -22.783  -8.521  1.00  0.00     0.134 A 
ATOM      7  C   UNL     1     -25.201 -23.790  -8.505  1.00  0.00     0.093 A 
ATOM      8  C   UNL     1     -24.128 -23.772  -9.401  1.00  0.00     0.123 A 
ATOM      9  C   UNL     1     -24.023 -22.741 -10.330  1.00  0.00     0.094 A 
ATOM     10  C   UNL     1     -24.997 -21.741 -10.394  1.00  0.00     0.146 A 
ATOM     11  O   UNL     1     -24.863 -20.783 -11.304  1.00  0.00    -0.452 OA
ENDROOT
BRANCH   1  12
ATOM     12  C   UNL     1     -25.462 -18.776 -12.499  1.00  0.00     0.025 A 
ATOM     13  C   UNL     1     -26.014 -18.868 -13.789  1.00  0.00     0.016 A 
ATOM     14  C   UNL     1     -25.755 -17.878 -14.740  1.00  0.00     0.051 A 
ATOM     15  C   UNL     1     -24.953 -16.776 -14.414  1.00  0.00     0.157 A 
ATOM     16  C   UNL     1     -24.676 -17.660 -12.170  1.00  0.00     0.062 A 
ATOM     17  C   UNL     1     -24.414 -16.666 -13.121  1.00  0.00     0.158 A 
BRANCH  15  18
ATOM     18  O   UNL     1     -24.695 -15.790 -15.365  1.00  0.00    -0.504 OA
ATOM     19  H   UNL     1     -23.798 -15.728 -15.834  1.00  0.00     0.293 HD
ENDBRANCH  15  18
BRANCH  17  20
ATOM     20  O   UNL     1     -23.618 -15.578 -12.763  1.00  0.00    -0.504 OA
ATOM     21  H   UNL     1     -24.014 -14.676 -12.530  1.00  0.00     0.293 HD
ENDBRANCH  17  20
ENDBRANCH   1  12
BRANCH   2  22
ATOM     22  O   UNL     1     -27.882 -18.795 -10.906  1.00  0.00    -0.502 OA
ATOM     23  H   UNL     1     -27.651 -17.817 -11.032  1.00  0.00     0.293 HD
ENDBRANCH   2  22
BRANCH   6  24
ATOM     24  O   UNL     1     -27.150 -22.843  -7.523  1.00  0.00    -0.507 OA
ATOM     25  H   UNL     1     -27.841 -23.573  -7.436  1.00  0.00     0.293 HD
ENDBRANCH   6  24
BRANCH   8  26
ATOM     26  O   UNL     1     -23.157 -24.769  -9.368  1.00  0.00    -0.508 OA
ATOM     27  H   UNL     1     -22.168 -24.545  -9.333  1.00  0.00     0.293 HD
ENDBRANCH   8  26
TORSDOF 6
ENDMDL
MODEL 8
REMARK VINA RESULT:    -6.809      1.558      7.063
REMARK INTER + INTRA:          -8.521
REMARK INTER:                  -8.210
REMARK INTRA:                  -0.311
REMARK UNBOUND:                -0.319
REMARK SMILES O=c1c(O)c(-c2ccc(O)c(O)c2)oc2cc(O)cc(O)c12
REMARK SMILES IDX 5 1 3 2 2 3 1 4 22 5 20 6 19 7 17 8 16 9 15 10 14 11 6 12
REMARK SMILES IDX 7 13 8 14 9 15 13 16 11 17 10 18 12 20 4 22 21 24 18 26
REMARK H PARENT 10 19 12 21 4 23 21 25 18 27
REMARK Flexibility Score: inf
ROOT
ATOM      1  C   UNL     1     -25.298 -20.098 -12.446  1.00  0.00     0.180 A 
ATOM      2  C   UNL     1     -26.660 -19.761 -12.542  1.00  0.00     0.208 A 
ATOM      3  C   UNL     1     -27.030 -18.628 -13.283  1.00  0.00     0.238 A 
ATOM      4  O   UNL     1     -28.245 -18.300 -13.319  1.00  0.00    -0.285 OA
ATOM      5  C   UNL     1     -26.038 -17.855 -13.932  1.00  0.00     0.111 A 
ATOM      6  C   UNL     1     -26.303 -16.710 -14.742  1.00  0.00     0.134 A 
ATOM      7  C   UNL     1     -25.236 -15.946 -15.228  1.00  0.00     0.093 A 
ATOM      8  C   UNL     1     -23.911 -16.322 -14.989  1.00  0.00     0.123 A 
ATOM      9  C   UNL     1     -23.643 -17.471 -14.249  1.00  0.00     0.094 A 
ATOM     10  C   UNL     1     -24.687 -18.234 -13.721  1.00  0.00     0.146 A 
ATOM     11  O   UNL     1     -24.386 -19.316 -13.012  1.00  0.00    -0.452 OA
ENDROOT
BRANCH   1  12
ATOM     12  C   UNL     1     -24.832 -21.292 -11.704  1.00  0.00     0.025 A 
ATOM     13  C   UNL     1     -24.638 -21.259 -10.312  1.00  0.00     0.016 A 
ATOM     14  C   UNL     1     -24.221 -22.405  -9.630  1.00  0.00     0.051 A 
ATOM     15  C   UNL     1     -24.003 -23.602 -10.325  1.00  0.00     0.157 A 
ATOM     16  C   UNL     1     -24.633 -22.499 -12.393  1.00  0.00     0.062 A 
ATOM     17  C   UNL     1     -24.214 -23.649 -11.713  1.00  0.00     0.158 A 
BRANCH  15  18
ATOM     18  O   UNL     1     -23.585 -24.744  -9.642  1.00  0.00    -0.504 OA
ATOM     19  H   UNL     1     -23.475 -25.634 -10.115  1.00  0.00     0.293 HD
ENDBRANCH  15  18
BRANCH  17  20
ATOM     20  O   UNL     1     -24.014 -24.827 -12.433  1.00  0.00    -0.504 OA
ATOM     21  H   UNL     1     -24.683 -25.160 -13.115  1.00  0.00     0.293 HD
ENDBRANCH  17  20
ENDBRANCH   1  12
BRANCH   2  22
ATOM     22  O   UNL     1     -27.621 -20.525 -11.874  1.00  0.00    -0.502 OA
ATOM     23  H   UNL     1     -27.434 -20.982 -10.990  1.00  0.00     0.293 HD
ENDBRANCH   2  22
BRANCH   6  24
ATOM     24  O   UNL     1     -27.585 -16.301 -15.118  1.00  0.00    -0.507 OA
ATOM     25  H   UNL     1     -28.255 -15.867 -14.500  1.00  0.00     0.293 HD
ENDBRANCH   6  24
BRANCH   8  26
ATOM     26  O   UNL     1     -22.855 -15.565 -15.489  1.00  0.00    -0.508 OA
ATOM     27  H   UNL     1     -22.607 -15.586 -16.473  1.00  0.00     0.293 HD
ENDBRANCH   8  26
TORSDOF 6
ENDMDL
MODEL 9
REMARK VINA RESULT:    -6.771      3.884      7.309
REMARK INTER + INTRA:          -8.475
REMARK INTER:                  -8.299
REMARK INTRA:                  -0.176
REMARK UNBOUND:                -0.319
REMARK SMILES O=c1c(O)c(-c2ccc(O)c(O)c2)oc2cc(O)cc(O)c12
REMARK SMILES IDX 5 1 3 2 2 3 1 4 22 5 20 6 19 7 17 8 16 9 15 10 14 11 6 12
REMARK SMILES IDX 7 13 8 14 9 15 13 16 11 17 10 18 12 20 4 22 21 24 18 26
REMARK H PARENT 10 19 12 21 4 23 21 25 18 27
REMARK Flexibility Score: inf
ROOT
ATOM      1  C   UNL     1     -22.294 -14.947 -13.675  1.00  0.00     0.180 A 
ATOM      2  C   UNL     1     -23.070 -14.199 -14.578  1.00  0.00     0.208 A 
ATOM      3  C   UNL     1     -24.316 -14.703 -14.984  1.00  0.00     0.238 A 
ATOM      4  O   UNL     1     -24.981 -14.056 -15.835  1.00  0.00    -0.285 OA
ATOM      5  C   UNL     1     -24.778 -15.938 -14.471  1.00  0.00     0.111 A 
ATOM      6  C   UNL     1     -26.041 -16.525 -14.783  1.00  0.00     0.134 A 
ATOM      7  C   UNL     1     -26.339 -17.812 -14.320  1.00  0.00     0.093 A 
ATOM      8  C   UNL     1     -25.445 -18.508 -13.501  1.00  0.00     0.123 A 
ATOM      9  C   UNL     1     -24.235 -17.920 -13.143  1.00  0.00     0.094 A 
ATOM     10  C   UNL     1     -23.895 -16.651 -13.619  1.00  0.00     0.146 A 
ATOM     11  O   UNL     1     -22.726 -16.132 -13.261  1.00  0.00    -0.452 OA
ENDROOT
BRANCH   1  12
ATOM     12  C   UNL     1     -20.982 -14.469 -13.180  1.00  0.00     0.025 A 
ATOM     13  C   UNL     1     -20.871 -13.294 -12.416  1.00  0.00     0.016 A 
ATOM     14  C   UNL     1     -19.626 -12.877 -11.940  1.00  0.00     0.051 A 
ATOM     15  C   UNL     1     -18.476 -13.631 -12.209  1.00  0.00     0.157 A 
ATOM     16  C   UNL     1     -19.830 -15.233 -13.429  1.00  0.00     0.062 A 
ATOM     17  C   UNL     1     -18.580 -14.817 -12.955  1.00  0.00     0.158 A 
BRANCH  15  18
ATOM     18  O   UNL     1     -17.234 -13.211 -11.735  1.00  0.00    -0.504 OA
ATOM     19  H   UNL     1     -16.463 -13.019 -12.365  1.00  0.00     0.293 HD
ENDBRANCH  15  18
BRANCH  17  20
ATOM     20  O   UNL     1     -17.457 -15.594 -13.234  1.00  0.00    -0.504 OA
ATOM     21  H   UNL     1     -16.530 -15.328 -12.927  1.00  0.00     0.293 HD
ENDBRANCH  17  20
ENDBRANCH   1  12
BRANCH   2  22
ATOM     22  O   UNL     1     -22.585 -12.993 -15.089  1.00  0.00    -0.502 OA
ATOM     23  H   UNL     1     -22.241 -12.903 -16.038  1.00  0.00     0.293 HD
ENDBRANCH   2  22
BRANCH   6  24
ATOM     24  O   UNL     1     -27.041 -15.878 -15.514  1.00  0.00    -0.507 OA
ATOM     25  H   UNL     1     -27.947 -15.623 -15.149  1.00  0.00     0.293 HD
ENDBRANCH   6  24
BRANCH   8  26
ATOM     26  O   UNL     1     -25.755 -19.782 -13.032  1.00  0.00    -0.508 OA
ATOM     27  H   UNL     1     -26.603 -19.961 -12.504  1.00  0.00     0.293 HD
ENDBRANCH   8  26
TORSDOF 6
ENDMDL
