MODEL 1
REMARK VINA RESULT:    -4.357      0.000      0.000
REMARK INTER + INTRA:          -5.799
REMARK INTER:                  -5.630
REMARK INTRA:                  -0.169
REMARK UNBOUND:                -0.169
REMARK SMILES CCCCCCC(=O)[O-]
REMARK SMILES IDX 5 1 6 2 7 3 8 4 9 5 4 6 3 7 2 8 1 9
REMARK H PARENT
REMARK Flexibility Score: inf
ROOT
ATOM      1  C   UNL     1       8.459  55.142  22.817  1.00  0.00     0.006 C 
ENDROOT
BRANCH   1   2
ATOM      2  C   UNL     1       7.952  55.639  21.453  1.00  0.00     0.053 C 
BRANCH   2   3
ATOM      3  C   UNL     1       7.204  54.576  20.710  1.00  0.00     0.041 C 
ATOM      4  O   UNL     1       7.450  54.360  19.494  1.00  0.00    -0.550 OA
ATOM      5  O   UNL     1       6.259  53.799  21.369  1.00  0.00    -0.550 OA
ENDBRANCH   2   3
ENDBRANCH   1   2
BRANCH   1   6
ATOM      6  C   UNL     1       9.352  53.890  22.742  1.00  0.00     0.000 C 
BRANCH   6   7
ATOM      7  C   UNL     1      10.367  53.812  23.892  1.00  0.00    -0.000 C 
BRANCH   7   8
ATOM      8  C   UNL     1       9.949  54.719  25.055  1.00  0.00    -0.003 C 
ATOM      9  C   UNL     1      10.954  54.645  26.201  1.00  0.00     0.004 C 
ENDBRANCH   7   8
ENDBRANCH   6   7
ENDBRANCH   1   6
TORSDOF 5
ENDMDL
MODEL 2
REMARK VINA RESULT:    -4.353      3.026      5.075
REMARK INTER + INTRA:          -5.794
REMARK INTER:                  -5.600
REMARK INTRA:                  -0.194
REMARK UNBOUND:                -0.169
REMARK SMILES CCCCCCC(=O)[O-]
REMARK SMILES IDX 5 1 6 2 7 3 8 4 9 5 4 6 3 7 2 8 1 9
REMARK H PARENT
REMARK Flexibility Score: inf
ROOT
ATOM      1  C   UNL     1      10.135  53.998  22.947  1.00  0.00     0.006 C 
ENDROOT
BRANCH   1   2
ATOM      2  C   UNL     1      10.084  53.492  24.398  1.00  0.00     0.053 C 
BRANCH   2   3
ATOM      3  C   UNL     1      10.193  54.610  25.388  1.00  0.00     0.041 C 
ATOM      4  O   UNL     1       9.456  55.626  25.281  1.00  0.00    -0.550 OA
ATOM      5  O   UNL     1      11.085  54.516  26.450  1.00  0.00    -0.550 OA
ENDBRANCH   2   3
ENDBRANCH   1   2
BRANCH   1   6
ATOM      6  C   UNL     1       8.765  54.057  22.248  1.00  0.00     0.000 C 
BRANCH   6   7
ATOM      7  C   UNL     1       8.352  55.485  21.865  1.00  0.00    -0.000 C 
BRANCH   7   8
ATOM      8  C   UNL     1       7.303  55.473  20.747  1.00  0.00    -0.003 C 
ATOM      9  C   UNL     1       7.449  54.234  19.868  1.00  0.00     0.004 C 
ENDBRANCH   7   8
ENDBRANCH   6   7
ENDBRANCH   1   6
TORSDOF 5
ENDMDL
MODEL 3
REMARK VINA RESULT:    -4.283      2.761      5.179
REMARK INTER + INTRA:          -5.704
REMARK INTER:                  -5.536
REMARK INTRA:                  -0.168
REMARK UNBOUND:                -0.169
REMARK SMILES CCCCCCC(=O)[O-]
REMARK SMILES IDX 5 1 6 2 7 3 8 4 9 5 4 6 3 7 2 8 1 9
REMARK H PARENT
REMARK Flexibility Score: inf
ROOT
ATOM      1  C   UNL     1       8.794  54.012  22.470  1.00  0.00     0.006 C 
ENDROOT
BRANCH   1   2
ATOM      2  C   UNL     1      10.116  54.003  23.257  1.00  0.00     0.053 C 
BRANCH   2   3
ATOM      3  C   UNL     1       9.894  54.154  24.731  1.00  0.00     0.041 C 
ATOM      4  O   UNL     1       8.734  54.055  25.211  1.00  0.00    -0.550 OA
ATOM      5  O   UNL     1      10.974  54.372  25.578  1.00  0.00    -0.550 OA
ENDBRANCH   2   3
ENDBRANCH   1   2
BRANCH   1   6
ATOM      6  C   UNL     1       8.400  55.392  21.912  1.00  0.00     0.000 C 
BRANCH   6   7
ATOM      7  C   UNL     1       7.116  55.349  21.070  1.00  0.00    -0.000 C 
BRANCH   7   8
ATOM      8  C   UNL     1       7.136  54.163  20.099  1.00  0.00    -0.003 C 
ATOM      9  C   UNL     1       6.874  54.617  18.667  1.00  0.00     0.004 C 
ENDBRANCH   7   8
ENDBRANCH   6   7
ENDBRANCH   1   6
TORSDOF 5
ENDMDL
MODEL 4
REMARK VINA RESULT:    -4.245      2.914      4.590
REMARK INTER + INTRA:          -5.654
REMARK INTER:                  -5.288
REMARK INTRA:                  -0.366
REMARK UNBOUND:                -0.169
REMARK SMILES CCCCCCC(=O)[O-]
REMARK SMILES IDX 5 1 6 2 7 3 8 4 9 5 4 6 3 7 2 8 1 9
REMARK H PARENT
REMARK Flexibility Score: inf
ROOT
ATOM      1  C   UNL     1       7.604  53.511  24.157  1.00  0.00     0.006 C 
ENDROOT
BRANCH   1   2
ATOM      2  C   UNL     1       8.510  54.367  25.057  1.00  0.00     0.053 C 
BRANCH   2   3
ATOM      3  C   UNL     1       9.952  54.260  24.668  1.00  0.00     0.041 C 
ATOM      4  O   UNL     1      10.275  54.140  23.457  1.00  0.00    -0.550 OA
ATOM      5  O   UNL     1      10.942  54.328  25.641  1.00  0.00    -0.550 OA
ENDBRANCH   2   3
ENDBRANCH   1   2
BRANCH   1   6
ATOM      6  C   UNL     1       6.544  54.312  23.380  1.00  0.00     0.000 C 
BRANCH   6   7
ATOM      7  C   UNL     1       6.539  53.994  21.878  1.00  0.00    -0.000 C 
BRANCH   7   8
ATOM      8  C   UNL     1       7.688  54.711  21.161  1.00  0.00    -0.003 C 
ATOM      9  C   UNL     1       7.738  56.189  21.538  1.00  0.00     0.004 C 
ENDBRANCH   7   8
ENDBRANCH   6   7
ENDBRANCH   1   6
TORSDOF 5
ENDMDL
MODEL 5
REMARK VINA RESULT:    -4.219      1.507      2.151
REMARK INTER + INTRA:          -5.621
REMARK INTER:                  -5.209
REMARK INTRA:                  -0.412
REMARK UNBOUND:                -0.169
REMARK SMILES CCCCCCC(=O)[O-]
REMARK SMILES IDX 5 1 6 2 7 3 8 4 9 5 4 6 3 7 2 8 1 9
REMARK H PARENT
REMARK Flexibility Score: inf
ROOT
ATOM      1  C   UNL     1       6.725  54.261  23.247  1.00  0.00     0.006 C 
ENDROOT
BRANCH   1   2
ATOM      2  C   UNL     1       6.519  53.769  21.805  1.00  0.00     0.053 C 
BRANCH   2   3
ATOM      3  C   UNL     1       7.389  54.502  20.830  1.00  0.00     0.041 C 
ATOM      4  O   UNL     1       7.670  53.985  19.717  1.00  0.00    -0.550 OA
ATOM      5  O   UNL     1       7.861  55.773  21.139  1.00  0.00    -0.550 OA
ENDBRANCH   2   3
ENDBRANCH   1   2
BRANCH   1   6
ATOM      6  C   UNL     1       7.841  53.527  24.012  1.00  0.00     0.000 C 
BRANCH   6   7
ATOM      7  C   UNL     1       9.096  54.392  24.209  1.00  0.00    -0.000 C 
BRANCH   7   8
ATOM      8  C   UNL     1      10.201  53.987  23.226  1.00  0.00    -0.003 C 
ATOM      9  C   UNL     1      10.253  52.473  23.047  1.00  0.00     0.004 C 
ENDBRANCH   7   8
ENDBRANCH   6   7
ENDBRANCH   1   6
TORSDOF 5
ENDMDL
MODEL 6
REMARK VINA RESULT:    -4.214      1.740      1.963
REMARK INTER + INTRA:          -5.614
REMARK INTER:                  -5.393
REMARK INTRA:                  -0.221
REMARK UNBOUND:                -0.169
REMARK SMILES CCCCCCC(=O)[O-]
REMARK SMILES IDX 5 1 6 2 7 3 8 4 9 5 4 6 3 7 2 8 1 9
REMARK H PARENT
REMARK Flexibility Score: inf
ROOT
ATOM      1  C   UNL     1       8.315  54.677  21.967  1.00  0.00     0.006 C 
ENDROOT
BRANCH   1   2
ATOM      2  C   UNL     1       7.831  56.134  22.055  1.00  0.00     0.053 C 
BRANCH   2   3
ATOM      3  C   UNL     1       6.393  56.225  22.464  1.00  0.00     0.041 C 
ATOM      4  O   UNL     1       5.756  57.301  22.308  1.00  0.00    -0.550 OA
ATOM      5  O   UNL     1       5.746  55.112  22.986  1.00  0.00    -0.550 OA
ENDBRANCH   2   3
ENDBRANCH   1   2
BRANCH   1   6
ATOM      6  C   UNL     1       9.511  54.351  22.879  1.00  0.00     0.000 C 
BRANCH   6   7
ATOM      7  C   UNL     1       9.115  54.220  24.357  1.00  0.00    -0.000 C 
BRANCH   7   8
ATOM      8  C   UNL     1       9.814  55.285  25.209  1.00  0.00    -0.003 C 
ATOM      9  C   UNL     1      10.851  54.658  26.136  1.00  0.00     0.004 C 
ENDBRANCH   7   8
ENDBRANCH   6   7
ENDBRANCH   1   6
TORSDOF 5
ENDMDL
MODEL 7
REMARK VINA RESULT:    -4.052      2.083      2.470
REMARK INTER + INTRA:          -5.405
REMARK INTER:                  -5.207
REMARK INTRA:                  -0.197
REMARK UNBOUND:                -0.169
REMARK SMILES CCCCCCC(=O)[O-]
REMARK SMILES IDX 5 1 6 2 7 3 8 4 9 5 4 6 3 7 2 8 1 9
REMARK H PARENT
REMARK Flexibility Score: inf
ROOT
ATOM      1  C   UNL     1       7.731  54.149  23.432  1.00  0.00     0.006 C 
ENDROOT
BRANCH   1   2
ATOM      2  C   UNL     1       6.476  54.853  22.891  1.00  0.00     0.053 C 
BRANCH   2   3
ATOM      3  C   UNL     1       6.804  56.156  22.228  1.00  0.00     0.041 C 
ATOM      4  O   UNL     1       5.981  57.108  22.261  1.00  0.00    -0.550 OA
ATOM      5  O   UNL     1       8.033  56.329  21.604  1.00  0.00    -0.550 OA
ENDBRANCH   2   3
ENDBRANCH   1   2
BRANCH   1   6
ATOM      6  C   UNL     1       7.576  53.587  24.857  1.00  0.00     0.000 C 
BRANCH   6   7
ATOM      7  C   UNL     1       8.396  54.366  25.897  1.00  0.00    -0.000 C 
BRANCH   7   8
ATOM      8  C   UNL     1       9.624  55.017  25.252  1.00  0.00    -0.003 C 
ATOM      9  C   UNL     1      10.898  54.674  26.018  1.00  0.00     0.004 C 
ENDBRANCH   7   8
ENDBRANCH   6   7
ENDBRANCH   1   6
TORSDOF 5
ENDMDL
MODEL 8
REMARK VINA RESULT:    -4.046      2.085      2.563
REMARK INTER + INTRA:          -5.397
REMARK INTER:                  -5.069
REMARK INTRA:                  -0.328
REMARK UNBOUND:                -0.169
REMARK SMILES CCCCCCC(=O)[O-]
REMARK SMILES IDX 5 1 6 2 7 3 8 4 9 5 4 6 3 7 2 8 1 9
REMARK H PARENT
REMARK Flexibility Score: inf
ROOT
ATOM      1  C   UNL     1       6.479  54.364  23.470  1.00  0.00     0.006 C 
ENDROOT
BRANCH   1   2
ATOM      2  C   UNL     1       6.537  54.785  21.992  1.00  0.00     0.053 C 
BRANCH   2   3
ATOM      3  C   UNL     1       6.917  56.225  21.832  1.00  0.00     0.041 C 
ATOM      4  O   UNL     1       8.050  56.536  21.380  1.00  0.00    -0.550 OA
ATOM      5  O   UNL     1       6.005  57.224  22.151  1.00  0.00    -0.550 OA
ENDBRANCH   2   3
ENDBRANCH   1   2
BRANCH   1   6
ATOM      6  C   UNL     1       7.640  53.457  23.916  1.00  0.00     0.000 C 
BRANCH   6   7
ATOM      7  C   UNL     1       8.903  54.247  24.290  1.00  0.00    -0.000 C 
BRANCH   7   8
ATOM      8  C   UNL     1       9.996  54.070  23.229  1.00  0.00    -0.003 C 
ATOM      9  C   UNL     1      10.258  52.593  22.949  1.00  0.00     0.004 C 
ENDBRANCH   7   8
ENDBRANCH   6   7
ENDBRANCH   1   6
TORSDOF 5
ENDMDL
MODEL 9
REMARK VINA RESULT:    -4.031      2.602      4.413
REMARK INTER + INTRA:          -5.378
REMARK INTER:                  -5.004
REMARK INTRA:                  -0.374
REMARK UNBOUND:                -0.169
REMARK SMILES CCCCCCC(=O)[O-]
REMARK SMILES IDX 5 1 6 2 7 3 8 4 9 5 4 6 3 7 2 8 1 9
REMARK H PARENT
REMARK Flexibility Score: inf
ROOT
ATOM      1  C   UNL     1       9.055  53.979  22.617  1.00  0.00     0.006 C 
ENDROOT
BRANCH   1   2
ATOM      2  C   UNL     1       9.353  54.743  23.917  1.00  0.00     0.053 C 
BRANCH   2   3
ATOM      3  C   UNL     1       8.565  54.212  25.075  1.00  0.00     0.041 C 
ATOM      4  O   UNL     1       8.708  54.712  26.222  1.00  0.00    -0.550 OA
ATOM      5  O   UNL     1       7.647  53.187  24.880  1.00  0.00    -0.550 OA
ENDBRANCH   2   3
ENDBRANCH   1   2
BRANCH   1   6
ATOM      6  C   UNL     1       8.013  54.656  21.709  1.00  0.00     0.000 C 
BRANCH   6   7
ATOM      7  C   UNL     1       7.965  56.180  21.891  1.00  0.00    -0.000 C 
BRANCH   7   8
ATOM      8  C   UNL     1       6.539  56.651  22.199  1.00  0.00    -0.003 C 
ATOM      9  C   UNL     1       5.710  55.531  22.820  1.00  0.00     0.004 C 
ENDBRANCH   7   8
ENDBRANCH   6   7
ENDBRANCH   1   6
TORSDOF 5
ENDMDL
