MODEL 1
REMARK VINA RESULT:    -3.624      0.000      0.000
REMARK INTER + INTRA:          -6.312
REMARK INTER:                  -5.531
REMARK INTRA:                  -0.781
REMARK UNBOUND:                -0.781
REMARK SMILES CCCCCCCCCCC(=O)[O-]
REMARK SMILES IDX 7 1 8 2 9 3 10 4 11 5 12 6 13 7 6 8 5 9 4 10 3 11 2 12 1 13
REMARK H PARENT
REMARK Flexibility Score: inf
ROOT
ATOM      1  C   UNL     1      -7.240  20.852 -12.683  1.00  0.00     0.000 C 
ENDROOT
BRANCH   1   2
ATOM      2  C   UNL     1      -5.728  21.032 -12.930  1.00  0.00     0.000 C 
BRANCH   2   3
ATOM      3  C   UNL     1      -5.297  22.463 -13.296  1.00  0.00     0.006 C 
BRANCH   3   4
ATOM      4  C   UNL     1      -4.176  22.996 -12.394  1.00  0.00     0.053 C 
BRANCH   4   5
ATOM      5  C   UNL     1      -4.570  24.306 -11.792  1.00  0.00     0.041 C 
ATOM      6  O   UNL     1      -5.198  24.339 -10.701  1.00  0.00    -0.550 OA
ATOM      7  O   UNL     1      -4.287  25.491 -12.459  1.00  0.00    -0.550 OA
ENDBRANCH   4   5
ENDBRANCH   3   4
ENDBRANCH   2   3
ENDBRANCH   1   2
BRANCH   1   8
ATOM      8  C   UNL     1      -7.632  20.514 -11.230  1.00  0.00     0.000 C 
BRANCH   8   9
ATOM      9  C   UNL     1      -6.836  21.264 -10.147  1.00  0.00    -0.000 C 
BRANCH   9  10
ATOM     10  C   UNL     1      -6.053  20.319  -9.221  1.00  0.00    -0.000 C 
BRANCH  10  11
ATOM     11  C   UNL     1      -6.592  18.880  -9.255  1.00  0.00    -0.000 C 
BRANCH  11  12
ATOM     12  C   UNL     1      -6.966  18.355  -7.860  1.00  0.00    -0.003 C 
ATOM     13  C   UNL     1      -7.825  19.365  -7.106  1.00  0.00     0.004 C 
ENDBRANCH  11  12
ENDBRANCH  10  11
ENDBRANCH   9  10
ENDBRANCH   8   9
ENDBRANCH   1   8
TORSDOF 9
ENDMDL
MODEL 2
REMARK VINA RESULT:    -3.562      1.628      2.085
REMARK INTER + INTRA:          -6.217
REMARK INTER:                  -5.430
REMARK INTRA:                  -0.786
REMARK UNBOUND:                -0.781
REMARK SMILES CCCCCCCCCCC(=O)[O-]
REMARK SMILES IDX 7 1 8 2 9 3 10 4 11 5 12 6 13 7 6 8 5 9 4 10 3 11 2 12 1 13
REMARK H PARENT
REMARK Flexibility Score: inf
ROOT
ATOM      1  C   UNL     1      -7.815  20.896 -12.413  1.00  0.00     0.000 C 
ENDROOT
BRANCH   1   2
ATOM      2  C   UNL     1      -8.531  21.884 -11.470  1.00  0.00     0.000 C 
BRANCH   2   3
ATOM      3  C   UNL     1      -8.543  23.346 -11.952  1.00  0.00     0.006 C 
BRANCH   3   4
ATOM      4  C   UNL     1      -7.926  24.314 -10.934  1.00  0.00     0.053 C 
BRANCH   4   5
ATOM      5  C   UNL     1      -6.438  24.162 -10.906  1.00  0.00     0.041 C 
ATOM      6  O   UNL     1      -5.813  24.251  -9.817  1.00  0.00    -0.550 OA
ATOM      7  O   UNL     1      -5.737  23.971 -12.089  1.00  0.00    -0.550 OA
ENDBRANCH   4   5
ENDBRANCH   3   4
ENDBRANCH   2   3
ENDBRANCH   1   2
BRANCH   1   8
ATOM      8  C   UNL     1      -6.505  20.295 -11.864  1.00  0.00     0.000 C 
BRANCH   8   9
ATOM      9  C   UNL     1      -6.240  20.562 -10.371  1.00  0.00    -0.000 C 
BRANCH   9  10
ATOM     10  C   UNL     1      -5.746  19.314  -9.621  1.00  0.00    -0.000 C 
BRANCH  10  11
ATOM     11  C   UNL     1      -6.900  18.454  -9.082  1.00  0.00    -0.000 C 
BRANCH  11  12
ATOM     12  C   UNL     1      -6.955  18.430  -7.547  1.00  0.00    -0.003 C 
ATOM     13  C   UNL     1      -8.015  19.392  -7.021  1.00  0.00     0.004 C 
ENDBRANCH  11  12
ENDBRANCH  10  11
ENDBRANCH   9  10
ENDBRANCH   8   9
ENDBRANCH   1   8
TORSDOF 9
ENDMDL
MODEL 3
REMARK VINA RESULT:    -3.553      2.029      2.550
REMARK INTER + INTRA:          -6.203
REMARK INTER:                  -5.753
REMARK INTRA:                  -0.450
REMARK UNBOUND:                -0.781
REMARK SMILES CCCCCCCCCCC(=O)[O-]
REMARK SMILES IDX 7 1 8 2 9 3 10 4 11 5 12 6 13 7 6 8 5 9 4 10 3 11 2 12 1 13
REMARK H PARENT
REMARK Flexibility Score: inf
ROOT
ATOM      1  C   UNL     1      -6.461  22.981 -10.341  1.00  0.00     0.000 C 
ENDROOT
BRANCH   1   2
ATOM      2  C   UNL     1      -5.467  23.972 -10.980  1.00  0.00     0.000 C 
BRANCH   2   3
ATOM      3  C   UNL     1      -5.969  24.657 -12.263  1.00  0.00     0.006 C 
BRANCH   3   4
ATOM      4  C   UNL     1      -5.679  26.163 -12.286  1.00  0.00     0.053 C 
BRANCH   4   5
ATOM      5  C   UNL     1      -6.689  26.902 -11.468  1.00  0.00     0.041 C 
ATOM      6  O   UNL     1      -6.360  27.418 -10.368  1.00  0.00    -0.550 OA
ATOM      7  O   UNL     1      -8.008  26.980 -11.898  1.00  0.00    -0.550 OA
ENDBRANCH   4   5
ENDBRANCH   3   4
ENDBRANCH   2   3
ENDBRANCH   1   2
BRANCH   1   8
ATOM      8  C   UNL     1      -7.022  21.906 -11.295  1.00  0.00     0.000 C 
BRANCH   8   9
ATOM      9  C   UNL     1      -7.219  20.514 -10.669  1.00  0.00    -0.000 C 
BRANCH   9  10
ATOM     10  C   UNL     1      -6.665  20.420  -9.238  1.00  0.00    -0.000 C 
BRANCH  10  11
ATOM     11  C   UNL     1      -6.127  19.019  -8.905  1.00  0.00    -0.000 C 
BRANCH  11  12
ATOM     12  C   UNL     1      -6.871  18.362  -7.732  1.00  0.00    -0.003 C 
ATOM     13  C   UNL     1      -7.837  19.344  -7.076  1.00  0.00     0.004 C 
ENDBRANCH  11  12
ENDBRANCH  10  11
ENDBRANCH   9  10
ENDBRANCH   8   9
ENDBRANCH   1   8
TORSDOF 9
ENDMDL
MODEL 4
REMARK VINA RESULT:    -3.439      3.206      6.200
REMARK INTER + INTRA:          -6.030
REMARK INTER:                  -5.453
REMARK INTRA:                  -0.577
REMARK UNBOUND:                -0.781
REMARK SMILES CCCCCCCCCCC(=O)[O-]
REMARK SMILES IDX 7 1 8 2 9 3 10 4 11 5 12 6 13 7 6 8 5 9 4 10 3 11 2 12 1 13
REMARK H PARENT
REMARK Flexibility Score: inf
ROOT
ATOM      1  C   UNL     1      -6.452  21.027 -12.707  1.00  0.00     0.000 C 
ENDROOT
BRANCH   1   2
ATOM      2  C   UNL     1      -6.217  20.199 -11.428  1.00  0.00     0.000 C 
BRANCH   2   3
ATOM      3  C   UNL     1      -7.150  20.541 -10.253  1.00  0.00     0.006 C 
BRANCH   3   4
ATOM      4  C   UNL     1      -6.515  20.257  -8.885  1.00  0.00     0.053 C 
BRANCH   4   5
ATOM      5  C   UNL     1      -7.202  19.108  -8.220  1.00  0.00     0.041 C 
ATOM      6  O   UNL     1      -7.161  17.960  -8.736  1.00  0.00    -0.550 OA
ATOM      7  O   UNL     1      -7.928  19.312  -7.054  1.00  0.00    -0.550 OA
ENDBRANCH   4   5
ENDBRANCH   3   4
ENDBRANCH   2   3
ENDBRANCH   1   2
BRANCH   1   8
ATOM      8  C   UNL     1      -6.020  22.505 -12.621  1.00  0.00     0.000 C 
BRANCH   8   9
ATOM      9  C   UNL     1      -4.628  22.744 -12.008  1.00  0.00    -0.000 C 
BRANCH   9  10
ATOM     10  C   UNL     1      -4.352  24.228 -11.716  1.00  0.00    -0.000 C 
BRANCH  10  11
ATOM     11  C   UNL     1      -3.875  24.996 -12.960  1.00  0.00    -0.000 C 
BRANCH  11  12
ATOM     12  C   UNL     1      -4.865  26.086 -13.399  1.00  0.00    -0.003 C 
ATOM     13  C   UNL     1      -5.763  26.510 -12.241  1.00  0.00     0.004 C 
ENDBRANCH  11  12
ENDBRANCH  10  11
ENDBRANCH   9  10
ENDBRANCH   8   9
ENDBRANCH   1   8
TORSDOF 9
ENDMDL
MODEL 5
REMARK VINA RESULT:    -3.436      8.950     10.677
REMARK INTER + INTRA:          -6.024
REMARK INTER:                  -5.185
REMARK INTRA:                  -0.840
REMARK UNBOUND:                -0.781
REMARK SMILES CCCCCCCCCCC(=O)[O-]
REMARK SMILES IDX 7 1 8 2 9 3 10 4 11 5 12 6 13 7 6 8 5 9 4 10 3 11 2 12 1 13
REMARK H PARENT
REMARK Flexibility Score: inf
ROOT
ATOM      1  C   UNL     1      -6.080  30.549  -9.190  1.00  0.00     0.000 C 
ENDROOT
BRANCH   1   2
ATOM      2  C   UNL     1      -4.737  30.844  -8.491  1.00  0.00     0.000 C 
BRANCH   2   3
ATOM      3  C   UNL     1      -4.824  31.009  -6.963  1.00  0.00     0.006 C 
BRANCH   3   4
ATOM      4  C   UNL     1      -5.567  32.284  -6.544  1.00  0.00     0.053 C 
BRANCH   4   5
ATOM      5  C   UNL     1      -4.699  33.130  -5.668  1.00  0.00     0.041 C 
ATOM      6  O   UNL     1      -4.529  32.824  -4.458  1.00  0.00    -0.550 OA
ATOM      7  O   UNL     1      -4.114  34.283  -6.174  1.00  0.00    -0.550 OA
ENDBRANCH   4   5
ENDBRANCH   3   4
ENDBRANCH   2   3
ENDBRANCH   1   2
BRANCH   1   8
ATOM      8  C   UNL     1      -6.483  29.061  -9.236  1.00  0.00     0.000 C 
BRANCH   8   9
ATOM      9  C   UNL     1      -7.998  28.795  -9.295  1.00  0.00    -0.000 C 
BRANCH   9  10
ATOM     10  C   UNL     1      -8.777  29.934  -9.974  1.00  0.00    -0.000 C 
BRANCH  10  11
ATOM     11  C   UNL     1      -9.865  30.527  -9.065  1.00  0.00    -0.000 C 
BRANCH  11  12
ATOM     12  C   UNL     1      -9.642  30.198  -7.581  1.00  0.00    -0.003 C 
ATOM     13  C   UNL     1      -9.088  31.403  -6.829  1.00  0.00     0.004 C 
ENDBRANCH  11  12
ENDBRANCH  10  11
ENDBRANCH   9  10
ENDBRANCH   8   9
ENDBRANCH   1   8
TORSDOF 9
ENDMDL
MODEL 6
REMARK VINA RESULT:    -3.429      2.262      2.689
REMARK INTER + INTRA:          -6.014
REMARK INTER:                  -5.487
REMARK INTRA:                  -0.527
REMARK UNBOUND:                -0.781
REMARK SMILES CCCCCCCCCCC(=O)[O-]
REMARK SMILES IDX 7 1 8 2 9 3 10 4 11 5 12 6 13 7 6 8 5 9 4 10 3 11 2 12 1 13
REMARK H PARENT
REMARK Flexibility Score: inf
ROOT
ATOM      1  C   UNL     1      -7.553  22.628 -12.278  1.00  0.00     0.000 C 
ENDROOT
BRANCH   1   2
ATOM      2  C   UNL     1      -6.837  23.919 -11.829  1.00  0.00     0.000 C 
BRANCH   2   3
ATOM      3  C   UNL     1      -6.894  24.198 -10.316  1.00  0.00     0.006 C 
BRANCH   3   4
ATOM      4  C   UNL     1      -5.591  24.800  -9.773  1.00  0.00     0.053 C 
BRANCH   4   5
ATOM      5  C   UNL     1      -5.791  25.306  -8.380  1.00  0.00     0.041 C 
ATOM      6  O   UNL     1      -5.429  24.610  -7.395  1.00  0.00    -0.550 OA
ATOM      7  O   UNL     1      -6.422  26.524  -8.167  1.00  0.00    -0.550 OA
ENDBRANCH   4   5
ENDBRANCH   3   4
ENDBRANCH   2   3
ENDBRANCH   1   2
BRANCH   1   8
ATOM      8  C   UNL     1      -8.025  21.707 -11.135  1.00  0.00     0.000 C 
BRANCH   8   9
ATOM      9  C   UNL     1      -7.264  20.375 -11.011  1.00  0.00    -0.000 C 
BRANCH   9  10
ATOM     10  C   UNL     1      -6.633  20.176  -9.623  1.00  0.00    -0.000 C 
BRANCH  10  11
ATOM     11  C   UNL     1      -6.608  18.700  -9.193  1.00  0.00    -0.000 C 
BRANCH  11  12
ATOM     12  C   UNL     1      -6.740  18.524  -7.673  1.00  0.00    -0.003 C 
ATOM     13  C   UNL     1      -7.949  19.283  -7.135  1.00  0.00     0.004 C 
ENDBRANCH  11  12
ENDBRANCH  10  11
ENDBRANCH   9  10
ENDBRANCH   8   9
ENDBRANCH   1   8
TORSDOF 9
ENDMDL
MODEL 7
REMARK VINA RESULT:    -3.418      2.772      5.991
REMARK INTER + INTRA:          -5.998
REMARK INTER:                  -5.001
REMARK INTRA:                  -0.996
REMARK UNBOUND:                -0.781
REMARK SMILES CCCCCCCCCCC(=O)[O-]
REMARK SMILES IDX 7 1 8 2 9 3 10 4 11 5 12 6 13 7 6 8 5 9 4 10 3 11 2 12 1 13
REMARK H PARENT
REMARK Flexibility Score: inf
ROOT
ATOM      1  C   UNL     1      -6.983  23.456 -11.734  1.00  0.00     0.000 C 
ENDROOT
BRANCH   1   2
ATOM      2  C   UNL     1      -6.300  22.284 -12.469  1.00  0.00     0.000 C 
BRANCH   2   3
ATOM      3  C   UNL     1      -5.399  21.403 -11.586  1.00  0.00     0.006 C 
BRANCH   3   4
ATOM      4  C   UNL     1      -6.015  20.028 -11.292  1.00  0.00     0.053 C 
BRANCH   4   5
ATOM      5  C   UNL     1      -6.115  19.806  -9.817  1.00  0.00     0.041 C 
ATOM      6  O   UNL     1      -6.413  20.760  -9.051  1.00  0.00    -0.550 OA
ATOM      7  O   UNL     1      -5.831  18.557  -9.282  1.00  0.00    -0.550 OA
ENDBRANCH   4   5
ENDBRANCH   3   4
ENDBRANCH   2   3
ENDBRANCH   1   2
BRANCH   1   8
ATOM      8  C   UNL     1      -6.226  23.986 -10.499  1.00  0.00     0.000 C 
BRANCH   8   9
ATOM      9  C   UNL     1      -5.665  25.413 -10.638  1.00  0.00    -0.000 C 
BRANCH   9  10
ATOM     10  C   UNL     1      -6.397  26.240 -11.707  1.00  0.00    -0.000 C 
BRANCH  10  11
ATOM     11  C   UNL     1      -5.470  26.678 -12.851  1.00  0.00    -0.000 C 
BRANCH  11  12
ATOM     12  C   UNL     1      -4.227  25.784 -12.982  1.00  0.00    -0.003 C 
ATOM     13  C   UNL     1      -4.240  25.015 -14.300  1.00  0.00     0.004 C 
ENDBRANCH  11  12
ENDBRANCH  10  11
ENDBRANCH   9  10
ENDBRANCH   8   9
ENDBRANCH   1   8
TORSDOF 9
ENDMDL
MODEL 8
REMARK VINA RESULT:    -3.415      2.759      3.544
REMARK INTER + INTRA:          -5.994
REMARK INTER:                  -5.308
REMARK INTRA:                  -0.686
REMARK UNBOUND:                -0.781
REMARK SMILES CCCCCCCCCCC(=O)[O-]
REMARK SMILES IDX 7 1 8 2 9 3 10 4 11 5 12 6 13 7 6 8 5 9 4 10 3 11 2 12 1 13
REMARK H PARENT
REMARK Flexibility Score: inf
ROOT
ATOM      1  C   UNL     1      -5.664  23.129 -11.590  1.00  0.00     0.000 C 
ENDROOT
BRANCH   1   2
ATOM      2  C   UNL     1      -6.972  23.717 -11.020  1.00  0.00     0.000 C 
BRANCH   2   3
ATOM      3  C   UNL     1      -7.959  24.244 -12.076  1.00  0.00     0.006 C 
BRANCH   3   4
ATOM      4  C   UNL     1      -8.531  23.132 -12.965  1.00  0.00     0.053 C 
BRANCH   4   5
ATOM      5  C   UNL     1      -9.376  22.200 -12.156  1.00  0.00     0.041 C 
ATOM      6  O   UNL     1     -10.316  22.650 -11.449  1.00  0.00    -0.550 OA
ATOM      7  O   UNL     1      -9.095  20.841 -12.144  1.00  0.00    -0.550 OA
ENDBRANCH   4   5
ENDBRANCH   3   4
ENDBRANCH   2   3
ENDBRANCH   1   2
BRANCH   1   8
ATOM      8  C   UNL     1      -5.530  21.597 -11.480  1.00  0.00     0.000 C 
BRANCH   8   9
ATOM      9  C   UNL     1      -6.198  20.969 -10.243  1.00  0.00    -0.000 C 
BRANCH   9  10
ATOM     10  C   UNL     1      -6.118  19.434 -10.236  1.00  0.00    -0.000 C 
BRANCH  10  11
ATOM     11  C   UNL     1      -5.979  18.857  -8.818  1.00  0.00    -0.000 C 
BRANCH  11  12
ATOM     12  C   UNL     1      -7.322  18.393  -8.234  1.00  0.00    -0.003 C 
ATOM     13  C   UNL     1      -7.770  19.305  -7.096  1.00  0.00     0.004 C 
ENDBRANCH  11  12
ENDBRANCH  10  11
ENDBRANCH   9  10
ENDBRANCH   8   9
ENDBRANCH   1   8
TORSDOF 9
ENDMDL
MODEL 9
REMARK VINA RESULT:    -3.342      2.964      6.144
REMARK INTER + INTRA:          -5.881
REMARK INTER:                  -5.066
REMARK INTRA:                  -0.815
REMARK UNBOUND:                -0.781
REMARK SMILES CCCCCCCCCCC(=O)[O-]
REMARK SMILES IDX 7 1 8 2 9 3 10 4 11 5 12 6 13 7 6 8 5 9 4 10 3 11 2 12 1 13
REMARK H PARENT
REMARK Flexibility Score: inf
ROOT
ATOM      1  C   UNL     1      -6.549  22.735 -12.515  1.00  0.00     0.000 C 
ENDROOT
BRANCH   1   2
ATOM      2  C   UNL     1      -7.048  22.898 -11.064  1.00  0.00     0.000 C 
BRANCH   2   3
ATOM      3  C   UNL     1      -6.459  21.891 -10.060  1.00  0.00     0.006 C 
BRANCH   3   4
ATOM      4  C   UNL     1      -7.059  20.486 -10.205  1.00  0.00     0.053 C 
BRANCH   4   5
ATOM      5  C   UNL     1      -6.732  19.653  -9.007  1.00  0.00     0.041 C 
ATOM      6  O   UNL     1      -5.773  18.838  -9.045  1.00  0.00    -0.550 OA
ATOM      7  O   UNL     1      -7.515  19.741  -7.864  1.00  0.00    -0.550 OA
ENDBRANCH   4   5
ENDBRANCH   3   4
ENDBRANCH   2   3
ENDBRANCH   1   2
BRANCH   1   8
ATOM      8  C   UNL     1      -5.026  22.884 -12.705  1.00  0.00     0.000 C 
BRANCH   8   9
ATOM      9  C   UNL     1      -4.588  24.090 -13.556  1.00  0.00    -0.000 C 
BRANCH   9  10
ATOM     10  C   UNL     1      -4.175  25.302 -12.705  1.00  0.00    -0.000 C 
BRANCH  10  11
ATOM     11  C   UNL     1      -5.151  26.481 -12.845  1.00  0.00    -0.000 C 
BRANCH  11  12
ATOM     12  C   UNL     1      -6.172  26.545 -11.699  1.00  0.00    -0.003 C 
ATOM     13  C   UNL     1      -7.595  26.656 -12.236  1.00  0.00     0.004 C 
ENDBRANCH  11  12
ENDBRANCH  10  11
ENDBRANCH   9  10
ENDBRANCH   8   9
ENDBRANCH   1   8
TORSDOF 9
ENDMDL
