MODEL 1
REMARK VINA RESULT:    -4.040      0.000      0.000
REMARK INTER + INTRA:          -7.069
REMARK INTER:                  -6.166
REMARK INTRA:                  -0.903
REMARK UNBOUND:                -0.903
REMARK SMILES CCCCCCCCCC=CC(=O)[O-]
REMARK SMILES IDX 7 1 8 2 9 3 10 4 11 5 12 6 13 7 14 8 6 9 5 10 4 11 3 12 2 13
REMARK SMILES IDX 1 14
REMARK H PARENT
REMARK Flexibility Score: inf
ROOT
ATOM      1  C   UNL     1      46.170  26.065   3.968  1.00  0.00     0.000 C 
ENDROOT
BRANCH   1   2
ATOM      2  C   UNL     1      46.754  26.467   5.333  1.00  0.00     0.004 C 
BRANCH   2   3
ATOM      3  C   UNL     1      46.317  27.872   5.773  1.00  0.00     0.027 C 
BRANCH   3   4
ATOM      4  C   UNL     1      45.900  27.881   7.216  1.00  0.00    -0.025 C 
ATOM      5  C   UNL     1      45.976  26.780   7.971  1.00  0.00     0.020 C 
BRANCH   5   6
ATOM      6  C   UNL     1      45.559  26.761   9.383  1.00  0.00     0.064 C 
ATOM      7  O   UNL     1      44.719  27.590   9.824  1.00  0.00    -0.545 OA
ATOM      8  O   UNL     1      46.104  25.817  10.242  1.00  0.00    -0.545 OA
ENDBRANCH   5   6
ENDBRANCH   3   4
ENDBRANCH   2   3
ENDBRANCH   1   2
BRANCH   1   9
ATOM      9  C   UNL     1      44.637  26.172   3.929  1.00  0.00     0.000 C 
BRANCH   9  10
ATOM     10  C   UNL     1      44.123  26.998   2.735  1.00  0.00     0.000 C 
BRANCH  10  11
ATOM     11  C   UNL     1      44.267  28.524   2.880  1.00  0.00    -0.000 C 
BRANCH  11  12
ATOM     12  C   UNL     1      45.187  29.143   1.814  1.00  0.00    -0.000 C 
BRANCH  12  13
ATOM     13  C   UNL     1      45.899  28.080   0.962  1.00  0.00    -0.003 C 
ATOM     14  C   UNL     1      45.510  28.146  -0.515  1.00  0.00     0.004 C 
ENDBRANCH  12  13
ENDBRANCH  11  12
ENDBRANCH  10  11
ENDBRANCH   9  10
ENDBRANCH   1   9
TORSDOF 9
ENDMDL
MODEL 2
REMARK VINA RESULT:    -3.980      4.344      7.072
REMARK INTER + INTRA:          -6.977
REMARK INTER:                  -6.168
REMARK INTRA:                  -0.809
REMARK UNBOUND:                -0.903
REMARK SMILES CCCCCCCCCC=CC(=O)[O-]
REMARK SMILES IDX 7 1 8 2 9 3 10 4 11 5 12 6 13 7 14 8 6 9 5 10 4 11 3 12 2 13
REMARK SMILES IDX 1 14
REMARK H PARENT
REMARK Flexibility Score: inf
ROOT
ATOM      1  C   UNL     1      44.892  26.007   4.140  1.00  0.00     0.000 C 
ENDROOT
BRANCH   1   2
ATOM      2  C   UNL     1      44.269  26.862   3.024  1.00  0.00     0.004 C 
BRANCH   2   3
ATOM      3  C   UNL     1      44.740  28.324   3.066  1.00  0.00     0.027 C 
BRANCH   3   4
ATOM      4  C   UNL     1      45.245  28.767   1.723  1.00  0.00    -0.025 C 
ATOM      5  C   UNL     1      45.526  27.887   0.756  1.00  0.00     0.020 C 
BRANCH   5   6
ATOM      6  C   UNL     1      46.035  28.296  -0.563  1.00  0.00     0.064 C 
ATOM      7  O   UNL     1      46.769  27.530  -1.243  1.00  0.00    -0.545 OA
ATOM      8  O   UNL     1      45.704  29.548  -1.063  1.00  0.00    -0.545 OA
ENDBRANCH   5   6
ENDBRANCH   3   4
ENDBRANCH   2   3
ENDBRANCH   1   2
BRANCH   1   9
ATOM      9  C   UNL     1      46.430  26.041   4.119  1.00  0.00     0.000 C 
BRANCH   9  10
ATOM     10  C   UNL     1      47.035  26.664   5.391  1.00  0.00     0.000 C 
BRANCH  10  11
ATOM     11  C   UNL     1      46.086  26.739   6.601  1.00  0.00    -0.000 C 
BRANCH  11  12
ATOM     12  C   UNL     1      45.823  28.181   7.069  1.00  0.00    -0.000 C 
BRANCH  12  13
ATOM     13  C   UNL     1      45.352  28.248   8.531  1.00  0.00    -0.003 C 
ATOM     14  C   UNL     1      45.299  26.874   9.200  1.00  0.00     0.004 C 
ENDBRANCH  12  13
ENDBRANCH  11  12
ENDBRANCH  10  11
ENDBRANCH   9  10
ENDBRANCH   1   9
TORSDOF 9
ENDMDL
MODEL 3
REMARK VINA RESULT:    -3.785      0.672      1.549
REMARK INTER + INTRA:          -6.680
REMARK INTER:                  -6.099
REMARK INTRA:                  -0.581
REMARK UNBOUND:                -0.903
REMARK SMILES CCCCCCCCCC=CC(=O)[O-]
REMARK SMILES IDX 7 1 8 2 9 3 10 4 11 5 12 6 13 7 14 8 6 9 5 10 4 11 3 12 2 13
REMARK SMILES IDX 1 14
REMARK H PARENT
REMARK Flexibility Score: inf
ROOT
ATOM      1  C   UNL     1      44.992  26.249   3.944  1.00  0.00     0.000 C 
ENDROOT
BRANCH   1   2
ATOM      2  C   UNL     1      45.712  27.179   4.933  1.00  0.00     0.004 C 
BRANCH   2   3
ATOM      3  C   UNL     1      46.944  26.523   5.574  1.00  0.00     0.027 C 
BRANCH   3   4
ATOM      4  C   UNL     1      46.816  26.479   7.070  1.00  0.00    -0.025 C 
ATOM      5  C   UNL     1      45.691  26.857   7.687  1.00  0.00     0.020 C 
BRANCH   5   6
ATOM      6  C   UNL     1      45.548  26.835   9.151  1.00  0.00     0.064 C 
ATOM      7  O   UNL     1      46.076  25.924   9.843  1.00  0.00    -0.545 OA
ATOM      8  O   UNL     1      44.817  27.834   9.780  1.00  0.00    -0.545 OA
ENDBRANCH   5   6
ENDBRANCH   3   4
ENDBRANCH   2   3
ENDBRANCH   1   2
BRANCH   1   9
ATOM      9  C   UNL     1      44.179  27.022   2.893  1.00  0.00     0.000 C 
BRANCH   9  10
ATOM     10  C   UNL     1      44.411  28.543   2.952  1.00  0.00     0.000 C 
BRANCH  10  11
ATOM     11  C   UNL     1      45.173  29.139   1.754  1.00  0.00    -0.000 C 
BRANCH  11  12
ATOM     12  C   UNL     1      45.576  28.080   0.713  1.00  0.00    -0.000 C 
BRANCH  12  13
ATOM     13  C   UNL     1      45.680  28.661  -0.706  1.00  0.00    -0.003 C 
ATOM     14  C   UNL     1      45.295  27.652  -1.789  1.00  0.00     0.004 C 
ENDBRANCH  12  13
ENDBRANCH  11  12
ENDBRANCH  10  11
ENDBRANCH   9  10
ENDBRANCH   1   9
TORSDOF 9
ENDMDL
MODEL 4
REMARK VINA RESULT:    -3.659      5.315      7.970
REMARK INTER + INTRA:          -6.487
REMARK INTER:                  -5.622
REMARK INTRA:                  -0.865
REMARK UNBOUND:                -0.903
REMARK SMILES CCCCCCCCCC=CC(=O)[O-]
REMARK SMILES IDX 7 1 8 2 9 3 10 4 11 5 12 6 13 7 14 8 6 9 5 10 4 11 3 12 2 13
REMARK SMILES IDX 1 14
REMARK H PARENT
REMARK Flexibility Score: inf
ROOT
ATOM      1  C   UNL     1      44.738  28.579   2.904  1.00  0.00     0.000 C 
ENDROOT
BRANCH   1   2
ATOM      2  C   UNL     1      45.233  29.140   1.561  1.00  0.00     0.004 C 
BRANCH   2   3
ATOM      3  C   UNL     1      45.755  28.045   0.618  1.00  0.00     0.027 C 
BRANCH   3   4
ATOM      4  C   UNL     1      45.507  28.407  -0.819  1.00  0.00    -0.025 C 
ATOM      5  C   UNL     1      45.165  27.483  -1.723  1.00  0.00     0.020 C 
BRANCH   5   6
ATOM      6  C   UNL     1      44.932  27.811  -3.139  1.00  0.00     0.064 C 
ATOM      7  O   UNL     1      45.563  27.220  -4.056  1.00  0.00    -0.545 OA
ATOM      8  O   UNL     1      44.003  28.788  -3.468  1.00  0.00    -0.545 OA
ENDBRANCH   5   6
ENDBRANCH   3   4
ENDBRANCH   2   3
ENDBRANCH   1   2
BRANCH   1   9
ATOM      9  C   UNL     1      44.178  27.152   2.776  1.00  0.00     0.000 C 
BRANCH   9  10
ATOM     10  C   UNL     1      44.788  26.173   3.796  1.00  0.00     0.000 C 
BRANCH  10  11
ATOM     11  C   UNL     1      46.326  26.106   3.804  1.00  0.00    -0.000 C 
BRANCH  11  12
ATOM     12  C   UNL     1      46.928  26.298   5.207  1.00  0.00    -0.000 C 
BRANCH  12  13
ATOM     13  C   UNL     1      45.907  26.852   6.214  1.00  0.00    -0.003 C 
ATOM     14  C   UNL     1      46.051  28.358   6.436  1.00  0.00     0.004 C 
ENDBRANCH  12  13
ENDBRANCH  11  12
ENDBRANCH  10  11
ENDBRANCH   9  10
ENDBRANCH   1   9
TORSDOF 9
ENDMDL
MODEL 5
REMARK VINA RESULT:    -3.610      3.837      7.260
REMARK INTER + INTRA:          -6.412
REMARK INTER:                  -5.926
REMARK INTRA:                  -0.486
REMARK UNBOUND:                -0.903
REMARK SMILES CCCCCCCCCC=CC(=O)[O-]
REMARK SMILES IDX 7 1 8 2 9 3 10 4 11 5 12 6 13 7 14 8 6 9 5 10 4 11 3 12 2 13
REMARK SMILES IDX 1 14
REMARK H PARENT
REMARK Flexibility Score: inf
ROOT
ATOM      1  C   UNL     1      46.023  27.622   6.268  1.00  0.00     0.000 C 
ENDROOT
BRANCH   1   2
ATOM      2  C   UNL     1      46.422  26.603   5.188  1.00  0.00     0.004 C 
BRANCH   2   3
ATOM      3  C   UNL     1      45.215  26.070   4.402  1.00  0.00     0.027 C 
BRANCH   3   4
ATOM      4  C   UNL     1      44.891  26.962   3.238  1.00  0.00    -0.025 C 
ATOM      5  C   UNL     1      45.794  27.228   2.288  1.00  0.00     0.020 C 
BRANCH   5   6
ATOM      6  C   UNL     1      45.504  28.111   1.147  1.00  0.00     0.064 C 
ATOM      7  O   UNL     1      45.587  27.690  -0.038  1.00  0.00    -0.545 OA
ATOM      8  O   UNL     1      45.135  29.428   1.380  1.00  0.00    -0.545 OA
ENDBRANCH   5   6
ENDBRANCH   3   4
ENDBRANCH   2   3
ENDBRANCH   1   2
BRANCH   1   9
ATOM      9  C   UNL     1      46.639  27.298   7.640  1.00  0.00     0.000 C 
BRANCH   9  10
ATOM     10  C   UNL     1      45.668  26.551   8.573  1.00  0.00     0.000 C 
BRANCH  10  11
ATOM     11  C   UNL     1      45.021  27.413   9.674  1.00  0.00    -0.000 C 
BRANCH  11  12
ATOM     12  C   UNL     1      46.053  28.054  10.618  1.00  0.00    -0.000 C 
BRANCH  12  13
ATOM     13  C   UNL     1      45.716  29.517  10.950  1.00  0.00    -0.003 C 
ATOM     14  C   UNL     1      44.272  29.885  10.609  1.00  0.00     0.004 C 
ENDBRANCH  12  13
ENDBRANCH  11  12
ENDBRANCH  10  11
ENDBRANCH   9  10
ENDBRANCH   1   9
TORSDOF 9
ENDMDL
MODEL 6
REMARK VINA RESULT:    -3.522      6.071      9.130
REMARK INTER + INTRA:          -6.279
REMARK INTER:                  -5.751
REMARK INTRA:                  -0.528
REMARK UNBOUND:                -0.903
REMARK SMILES CCCCCCCCCC=CC(=O)[O-]
REMARK SMILES IDX 7 1 8 2 9 3 10 4 11 5 12 6 13 7 14 8 6 9 5 10 4 11 3 12 2 13
REMARK SMILES IDX 1 14
REMARK H PARENT
REMARK Flexibility Score: inf
ROOT
ATOM      1  C   UNL     1      45.530  29.538  -0.656  1.00  0.00     0.000 C 
ENDROOT
BRANCH   1   2
ATOM      2  C   UNL     1      45.502  28.027  -0.934  1.00  0.00     0.004 C 
BRANCH   2   3
ATOM      3  C   UNL     1      45.963  27.677  -2.356  1.00  0.00     0.027 C 
BRANCH   3   4
ATOM      4  C   UNL     1      44.966  28.144  -3.378  1.00  0.00    -0.025 C 
ATOM      5  C   UNL     1      43.849  27.453  -3.630  1.00  0.00     0.020 C 
BRANCH   5   6
ATOM      6  C   UNL     1      42.865  27.884  -4.637  1.00  0.00     0.064 C 
ATOM      7  O   UNL     1      41.681  28.165  -4.309  1.00  0.00    -0.545 OA
ATOM      8  O   UNL     1      43.247  27.979  -5.968  1.00  0.00    -0.545 OA
ENDBRANCH   5   6
ENDBRANCH   3   4
ENDBRANCH   2   3
ENDBRANCH   1   2
BRANCH   1   9
ATOM      9  C   UNL     1      45.215  29.875   0.811  1.00  0.00     0.000 C 
BRANCH   9  10
ATOM     10  C   UNL     1      45.594  28.741   1.782  1.00  0.00     0.000 C 
BRANCH  10  11
ATOM     11  C   UNL     1      44.611  28.519   2.947  1.00  0.00    -0.000 C 
BRANCH  11  12
ATOM     12  C   UNL     1      44.052  27.086   2.995  1.00  0.00    -0.000 C 
BRANCH  12  13
ATOM     13  C   UNL     1      44.969  26.123   3.766  1.00  0.00    -0.003 C 
ATOM     14  C   UNL     1      45.712  26.805   4.916  1.00  0.00     0.004 C 
ENDBRANCH  12  13
ENDBRANCH  11  12
ENDBRANCH  10  11
ENDBRANCH   9  10
ENDBRANCH   1   9
TORSDOF 9
ENDMDL
MODEL 7
REMARK VINA RESULT:    -3.211      4.337      7.127
REMARK INTER + INTRA:          -5.802
REMARK INTER:                  -4.991
REMARK INTRA:                  -0.812
REMARK UNBOUND:                -0.903
REMARK SMILES CCCCCCCCCC=CC(=O)[O-]
REMARK SMILES IDX 7 1 8 2 9 3 10 4 11 5 12 6 13 7 14 8 6 9 5 10 4 11 3 12 2 13
REMARK SMILES IDX 1 14
REMARK H PARENT
REMARK Flexibility Score: inf
ROOT
ATOM      1  C   UNL     1      44.839  27.903  -2.706  1.00  0.00     0.000 C 
ENDROOT
BRANCH   1   2
ATOM      2  C   UNL     1      45.793  27.861  -1.501  1.00  0.00     0.004 C 
BRANCH   2   3
ATOM      3  C   UNL     1      45.804  29.176  -0.708  1.00  0.00     0.027 C 
BRANCH   3   4
ATOM      4  C   UNL     1      45.420  28.947   0.725  1.00  0.00    -0.025 C 
ATOM      5  C   UNL     1      45.202  27.716   1.202  1.00  0.00     0.020 C 
BRANCH   5   6
ATOM      6  C   UNL     1      44.811  27.467   2.599  1.00  0.00     0.064 C 
ATOM      7  O   UNL     1      44.400  26.334   2.967  1.00  0.00    -0.545 OA
ATOM      8  O   UNL     1      44.894  28.498   3.524  1.00  0.00    -0.545 OA
ENDBRANCH   5   6
ENDBRANCH   3   4
ENDBRANCH   2   3
ENDBRANCH   1   2
BRANCH   1   9
ATOM      9  C   UNL     1      44.275  29.311  -2.963  1.00  0.00     0.000 C 
BRANCH   9  10
ATOM     10  C   UNL     1      42.859  29.290  -3.568  1.00  0.00     0.000 C 
BRANCH  10  11
ATOM     11  C   UNL     1      42.639  28.257  -4.689  1.00  0.00    -0.000 C 
BRANCH  11  12
ATOM     12  C   UNL     1      43.128  28.748  -6.062  1.00  0.00    -0.000 C 
BRANCH  12  13
ATOM     13  C   UNL     1      44.040  27.727  -6.761  1.00  0.00    -0.003 C 
ATOM     14  C   UNL     1      45.498  27.832  -6.314  1.00  0.00     0.004 C 
ENDBRANCH  12  13
ENDBRANCH  11  12
ENDBRANCH  10  11
ENDBRANCH   9  10
ENDBRANCH   1   9
TORSDOF 9
ENDMDL
MODEL 8
REMARK VINA RESULT:    -3.210      3.750      6.376
REMARK INTER + INTRA:          -5.802
REMARK INTER:                  -5.278
REMARK INTRA:                  -0.524
REMARK UNBOUND:                -0.903
REMARK SMILES CCCCCCCCCC=CC(=O)[O-]
REMARK SMILES IDX 7 1 8 2 9 3 10 4 11 5 12 6 13 7 14 8 6 9 5 10 4 11 3 12 2 13
REMARK SMILES IDX 1 14
REMARK H PARENT
REMARK Flexibility Score: inf
ROOT
ATOM      1  C   UNL     1      45.569  27.817  -1.985  1.00  0.00     0.000 C 
ENDROOT
BRANCH   1   2
ATOM      2  C   UNL     1      46.272  28.316  -0.712  1.00  0.00     0.004 C 
BRANCH   2   3
ATOM      3  C   UNL     1      45.296  28.551   0.450  1.00  0.00     0.027 C 
BRANCH   3   4
ATOM      4  C   UNL     1      45.711  27.780   1.670  1.00  0.00    -0.025 C 
ATOM      5  C   UNL     1      44.816  27.370   2.576  1.00  0.00     0.020 C 
BRANCH   5   6
ATOM      6  C   UNL     1      45.201  26.625   3.785  1.00  0.00     0.064 C 
ATOM      7  O   UNL     1      45.619  27.224   4.813  1.00  0.00    -0.545 OA
ATOM      8  O   UNL     1      45.105  25.241   3.794  1.00  0.00    -0.545 OA
ENDBRANCH   5   6
ENDBRANCH   3   4
ENDBRANCH   2   3
ENDBRANCH   1   2
BRANCH   1   9
ATOM      9  C   UNL     1      46.557  27.517  -3.125  1.00  0.00     0.000 C 
BRANCH   9  10
ATOM     10  C   UNL     1      45.857  27.185  -4.455  1.00  0.00     0.000 C 
BRANCH  10  11
ATOM     11  C   UNL     1      44.944  28.294  -5.012  1.00  0.00    -0.000 C 
BRANCH  11  12
ATOM     12  C   UNL     1      43.630  27.750  -5.600  1.00  0.00    -0.000 C 
BRANCH  12  13
ATOM     13  C   UNL     1      42.389  28.358  -4.927  1.00  0.00    -0.003 C 
ATOM     14  C   UNL     1      42.736  29.216  -3.709  1.00  0.00     0.004 C 
ENDBRANCH  12  13
ENDBRANCH  11  12
ENDBRANCH  10  11
ENDBRANCH   9  10
ENDBRANCH   1   9
TORSDOF 9
ENDMDL
MODEL 9
REMARK VINA RESULT:    -2.954      2.759      4.768
REMARK INTER + INTRA:          -5.411
REMARK INTER:                  -5.005
REMARK INTRA:                  -0.406
REMARK UNBOUND:                -0.903
REMARK SMILES CCCCCCCCCC=CC(=O)[O-]
REMARK SMILES IDX 7 1 8 2 9 3 10 4 11 5 12 6 13 7 14 8 6 9 5 10 4 11 3 12 2 13
REMARK SMILES IDX 1 14
REMARK H PARENT
REMARK Flexibility Score: inf
ROOT
ATOM      1  C   UNL     1      45.605  29.324   0.622  1.00  0.00     0.000 C 
ENDROOT
BRANCH   1   2
ATOM      2  C   UNL     1      45.904  27.960   1.266  1.00  0.00     0.004 C 
BRANCH   2   3
ATOM      3  C   UNL     1      44.830  27.535   2.280  1.00  0.00     0.027 C 
BRANCH   3   4
ATOM      4  C   UNL     1      45.277  27.809   3.687  1.00  0.00    -0.025 C 
ATOM      5  C   UNL     1      45.822  26.852   4.446  1.00  0.00     0.020 C 
BRANCH   5   6
ATOM      6  C   UNL     1      46.254  27.092   5.832  1.00  0.00     0.064 C 
ATOM      7  O   UNL     1      47.125  26.362   6.377  1.00  0.00    -0.545 OA
ATOM      8  O   UNL     1      45.693  28.139   6.550  1.00  0.00    -0.545 OA
ENDBRANCH   5   6
ENDBRANCH   3   4
ENDBRANCH   2   3
ENDBRANCH   1   2
BRANCH   1   9
ATOM      9  C   UNL     1      45.306  29.212  -0.882  1.00  0.00     0.000 C 
BRANCH   9  10
ATOM     10  C   UNL     1      45.539  27.795  -1.438  1.00  0.00     0.000 C 
BRANCH  10  11
ATOM     11  C   UNL     1      45.224  27.617  -2.935  1.00  0.00    -0.000 C 
BRANCH  11  12
ATOM     12  C   UNL     1      44.079  28.523  -3.419  1.00  0.00    -0.000 C 
BRANCH  12  13
ATOM     13  C   UNL     1      43.010  27.749  -4.207  1.00  0.00    -0.003 C 
ATOM     14  C   UNL     1      42.209  28.644  -5.155  1.00  0.00     0.004 C 
ENDBRANCH  12  13
ENDBRANCH  11  12
ENDBRANCH  10  11
ENDBRANCH   9  10
ENDBRANCH   1   9
TORSDOF 9
ENDMDL
