MODEL 1
REMARK VINA RESULT:     0.583      0.000      0.000
REMARK INTER + INTRA:           0.466
REMARK INTER:                   0.634
REMARK INTRA:                  -0.168
REMARK UNBOUND:                -0.168
REMARK SMILES O=C([O-])c1ccccc1O
REMARK SMILES IDX 4 1 9 2 5 3 8 4 6 5 7 6 2 7 1 8 3 9 10 10
REMARK H PARENT 10 11
REMARK Flexibility Score: inf
ROOT
ATOM      1  C   UNL     1      -7.588  -5.011  20.422  1.00  0.00     0.039 A 
ATOM      2  C   UNL     1      -8.139  -5.704  19.314  1.00  0.00     0.124 A 
ATOM      3  C   UNL     1      -7.859  -5.484  21.721  1.00  0.00     0.014 A 
ATOM      4  C   UNL     1      -8.883  -6.871  19.526  1.00  0.00     0.047 A 
ATOM      5  C   UNL     1      -8.621  -6.637  21.917  1.00  0.00     0.001 A 
ATOM      6  C   UNL     1      -9.124  -7.336  20.820  1.00  0.00     0.004 A 
ENDROOT
BRANCH   1   7
ATOM      7  C   UNL     1      -6.708  -3.833  20.264  1.00  0.00     0.075 C 
ATOM      8  O   UNL     1      -6.500  -3.349  19.120  1.00  0.00    -0.545 OA
ATOM      9  O   UNL     1      -6.158  -3.202  21.372  1.00  0.00    -0.545 OA
ENDBRANCH   1   7
BRANCH   2  10
ATOM     10  O   UNL     1      -8.002  -5.250  18.000  1.00  0.00    -0.507 OA
ATOM     11  H   UNL     1      -7.301  -5.598  17.362  1.00  0.00     0.293 HD
ENDBRANCH   2  10
TORSDOF 2
ENDMDL
MODEL 2
REMARK VINA RESULT:     2.564      1.257      2.236
REMARK INTER + INTRA:           2.621
REMARK INTER:                   2.831
REMARK INTRA:                  -0.211
REMARK UNBOUND:                -0.168
REMARK SMILES O=C([O-])c1ccccc1O
REMARK SMILES IDX 4 1 9 2 5 3 8 4 6 5 7 6 2 7 1 8 3 9 10 10
REMARK H PARENT 10 11
REMARK Flexibility Score: inf
ROOT
ATOM      1  C   UNL     1      -7.353  -4.601  20.243  1.00  0.00     0.039 A 
ATOM      2  C   UNL     1      -7.753  -5.415  21.333  1.00  0.00     0.124 A 
ATOM      3  C   UNL     1      -7.824  -4.913  18.953  1.00  0.00     0.014 A 
ATOM      4  C   UNL     1      -8.652  -6.467  21.120  1.00  0.00     0.047 A 
ATOM      5  C   UNL     1      -8.703  -5.979  18.754  1.00  0.00     0.001 A 
ATOM      6  C   UNL     1      -9.125  -6.749  19.837  1.00  0.00     0.004 A 
ENDROOT
BRANCH   1   7
ATOM      7  C   UNL     1      -6.489  -3.412  20.415  1.00  0.00     0.075 C 
ATOM      8  O   UNL     1      -6.121  -2.748  19.409  1.00  0.00    -0.545 OA
ATOM      9  O   UNL     1      -6.128  -2.972  21.681  1.00  0.00    -0.545 OA
ENDBRANCH   1   7
BRANCH   2  10
ATOM     10  O   UNL     1      -7.257  -5.235  22.627  1.00  0.00    -0.507 OA
ATOM     11  H   UNL     1      -6.616  -4.496  22.879  1.00  0.00     0.293 HD
ENDBRANCH   2  10
TORSDOF 2
ENDMDL
MODEL 3
REMARK VINA RESULT:     2.764      2.079      3.387
REMARK INTER + INTRA:           2.839
REMARK INTER:                   3.059
REMARK INTRA:                  -0.220
REMARK UNBOUND:                -0.168
REMARK SMILES O=C([O-])c1ccccc1O
REMARK SMILES IDX 4 1 9 2 5 3 8 4 6 5 7 6 2 7 1 8 3 9 10 10
REMARK H PARENT 10 11
REMARK Flexibility Score: inf
ROOT
ATOM      1  C   UNL     1      -7.961  -5.622  20.725  1.00  0.00     0.039 A 
ATOM      2  C   UNL     1      -7.961  -5.246  19.358  1.00  0.00     0.124 A 
ATOM      3  C   UNL     1      -7.188  -4.875  21.635  1.00  0.00     0.014 A 
ATOM      4  C   UNL     1      -7.249  -4.111  18.951  1.00  0.00     0.047 A 
ATOM      5  C   UNL     1      -6.466  -3.759  21.209  1.00  0.00     0.001 A 
ATOM      6  C   UNL     1      -6.504  -3.371  19.870  1.00  0.00     0.004 A 
ENDROOT
BRANCH   1   7
ATOM      7  C   UNL     1      -8.773  -6.747  21.240  1.00  0.00     0.075 C 
ATOM      8  O   UNL     1      -9.125  -7.677  20.466  1.00  0.00    -0.545 OA
ATOM      9  O   UNL     1      -9.099  -6.831  22.587  1.00  0.00    -0.545 OA
ENDBRANCH   1   7
BRANCH   2  10
ATOM     10  O   UNL     1      -8.621  -5.988  18.375  1.00  0.00    -0.507 OA
ATOM     11  H   UNL     1      -8.362  -6.930  18.121  1.00  0.00     0.293 HD
ENDBRANCH   2  10
TORSDOF 2
ENDMDL
MODEL 4
REMARK VINA RESULT:     3.179      2.551      3.984
REMARK INTER + INTRA:           3.290
REMARK INTER:                   3.541
REMARK INTRA:                  -0.251
REMARK UNBOUND:                -0.168
REMARK SMILES O=C([O-])c1ccccc1O
REMARK SMILES IDX 4 1 9 2 5 3 8 4 6 5 7 6 2 7 1 8 3 9 10 10
REMARK H PARENT 10 11
REMARK Flexibility Score: inf
ROOT
ATOM      1  C   UNL     1      -8.569  -6.418  21.061  1.00  0.00     0.039 A 
ATOM      2  C   UNL     1      -7.619  -5.397  21.324  1.00  0.00     0.124 A 
ATOM      3  C   UNL     1      -9.125  -6.512  19.770  1.00  0.00     0.014 A 
ATOM      4  C   UNL     1      -7.208  -4.549  20.288  1.00  0.00     0.047 A 
ATOM      5  C   UNL     1      -8.720  -5.645  18.754  1.00  0.00     0.001 A 
ATOM      6  C   UNL     1      -7.756  -4.671  19.009  1.00  0.00     0.004 A 
ENDROOT
BRANCH   1   7
ATOM      7  C   UNL     1      -8.970  -7.411  22.081  1.00  0.00     0.075 C 
ATOM      8  O   UNL     1      -9.113  -8.621  21.762  1.00  0.00    -0.545 OA
ATOM      9  O   UNL     1      -9.124  -7.042  23.411  1.00  0.00    -0.545 OA
ENDBRANCH   1   7
BRANCH   2  10
ATOM     10  O   UNL     1      -7.091  -5.172  22.597  1.00  0.00    -0.507 OA
ATOM     11  H   UNL     1      -6.344  -4.518  22.782  1.00  0.00     0.293 HD
ENDBRANCH   2  10
TORSDOF 2
ENDMDL
