MODEL 1
REMARK VINA RESULT:    -3.572      0.000      0.000
REMARK INTER + INTRA:          -5.147
REMARK INTER:                  -4.824
REMARK INTRA:                  -0.323
REMARK UNBOUND:                -0.323
REMARK SMILES CCCCCCC=CC(=O)[O-]
REMARK SMILES IDX 5 1 6 2 7 3 8 4 9 5 10 6 11 7 4 8 3 9 2 10 1 11
REMARK H PARENT
REMARK Flexibility Score: inf
ROOT
ATOM      1  C   UNL     1      61.883  34.236  60.028  1.00  0.00     0.004 C 
ENDROOT
BRANCH   1   2
ATOM      2  C   UNL     1      61.117  33.045  60.616  1.00  0.00     0.027 C 
BRANCH   2   3
ATOM      3  C   UNL     1      61.997  31.834  60.729  1.00  0.00    -0.025 C 
ATOM      4  C   UNL     1      61.647  30.783  61.477  1.00  0.00     0.020 C 
BRANCH   4   5
ATOM      5  C   UNL     1      62.493  29.586  61.586  1.00  0.00     0.064 C 
ATOM      6  O   UNL     1      63.745  29.701  61.524  1.00  0.00    -0.545 OA
ATOM      7  O   UNL     1      61.931  28.325  61.757  1.00  0.00    -0.545 OA
ENDBRANCH   4   5
ENDBRANCH   2   3
ENDBRANCH   1   2
BRANCH   1   8
ATOM      8  C   UNL     1      61.481  35.545  60.719  1.00  0.00     0.000 C 
BRANCH   8   9
ATOM      9  C   UNL     1      62.716  36.324  61.186  1.00  0.00    -0.000 C 
BRANCH   9  10
ATOM     10  C   UNL     1      63.916  35.388  61.377  1.00  0.00    -0.003 C 
ATOM     11  C   UNL     1      65.158  36.165  61.801  1.00  0.00     0.004 C 
ENDBRANCH   9  10
ENDBRANCH   8   9
ENDBRANCH   1   8
TORSDOF 6
ENDMDL
MODEL 2
REMARK VINA RESULT:    -3.551     13.331     14.246
REMARK INTER + INTRA:          -5.119
REMARK INTER:                  -4.718
REMARK INTRA:                  -0.401
REMARK UNBOUND:                -0.323
REMARK SMILES CCCCCCC=CC(=O)[O-]
REMARK SMILES IDX 5 1 6 2 7 3 8 4 9 5 10 6 11 7 4 8 3 9 2 10 1 11
REMARK H PARENT
REMARK Flexibility Score: inf
ROOT
ATOM      1  C   UNL     1      57.353  28.401  50.487  1.00  0.00     0.004 C 
ENDROOT
BRANCH   1   2
ATOM      2  C   UNL     1      55.981  29.071  50.634  1.00  0.00     0.027 C 
BRANCH   2   3
ATOM      3  C   UNL     1      54.869  28.080  50.447  1.00  0.00    -0.025 C 
ATOM      4  C   UNL     1      55.093  26.869  49.926  1.00  0.00     0.020 C 
BRANCH   4   5
ATOM      5  C   UNL     1      54.017  25.883  49.751  1.00  0.00     0.064 C 
ATOM      6  O   UNL     1      53.510  25.712  48.612  1.00  0.00    -0.545 OA
ATOM      7  O   UNL     1      53.549  25.135  50.826  1.00  0.00    -0.545 OA
ENDBRANCH   4   5
ENDBRANCH   2   3
ENDBRANCH   1   2
BRANCH   1   8
ATOM      8  C   UNL     1      58.346  29.329  49.778  1.00  0.00     0.000 C 
BRANCH   8   9
ATOM      9  C   UNL     1      59.474  28.528  49.117  1.00  0.00    -0.000 C 
BRANCH   9  10
ATOM     10  C   UNL     1      59.358  27.037  49.453  1.00  0.00    -0.003 C 
ATOM     11  C   UNL     1      60.663  26.500  50.036  1.00  0.00     0.004 C 
ENDBRANCH   9  10
ENDBRANCH   8   9
ENDBRANCH   1   8
TORSDOF 6
ENDMDL
MODEL 3
REMARK VINA RESULT:    -3.541     12.892     14.156
REMARK INTER + INTRA:          -5.107
REMARK INTER:                  -4.748
REMARK INTRA:                  -0.358
REMARK UNBOUND:                -0.323
REMARK SMILES CCCCCCC=CC(=O)[O-]
REMARK SMILES IDX 5 1 6 2 7 3 8 4 9 5 10 6 11 7 4 8 3 9 2 10 1 11
REMARK H PARENT
REMARK Flexibility Score: inf
ROOT
ATOM      1  C   UNL     1      56.527  28.237  50.482  1.00  0.00     0.004 C 
ENDROOT
BRANCH   1   2
ATOM      2  C   UNL     1      57.597  29.260  50.081  1.00  0.00     0.027 C 
BRANCH   2   3
ATOM      3  C   UNL     1      58.928  28.599  49.869  1.00  0.00    -0.025 C 
ATOM      4  C   UNL     1      59.094  27.286  50.059  1.00  0.00     0.020 C 
BRANCH   4   5
ATOM      5  C   UNL     1      60.388  26.623  49.841  1.00  0.00     0.064 C 
ATOM      6  O   UNL     1      61.399  27.313  49.548  1.00  0.00    -0.545 OA
ATOM      7  O   UNL     1      60.512  25.242  49.953  1.00  0.00    -0.545 OA
ENDBRANCH   4   5
ENDBRANCH   2   3
ENDBRANCH   1   2
BRANCH   1   8
ATOM      8  C   UNL     1      55.134  28.879  50.506  1.00  0.00     0.000 C 
BRANCH   8   9
ATOM      9  C   UNL     1      54.076  27.921  49.946  1.00  0.00    -0.000 C 
BRANCH   9  10
ATOM     10  C   UNL     1      54.685  26.547  49.643  1.00  0.00    -0.003 C 
ATOM     11  C   UNL     1      53.625  25.574  49.133  1.00  0.00     0.004 C 
ENDBRANCH   9  10
ENDBRANCH   8   9
ENDBRANCH   1   8
TORSDOF 6
ENDMDL
MODEL 4
REMARK VINA RESULT:    -3.522      1.219      2.217
REMARK INTER + INTRA:          -5.080
REMARK INTER:                  -4.771
REMARK INTRA:                  -0.309
REMARK UNBOUND:                -0.323
REMARK SMILES CCCCCCC=CC(=O)[O-]
REMARK SMILES IDX 5 1 6 2 7 3 8 4 9 5 10 6 11 7 4 8 3 9 2 10 1 11
REMARK H PARENT
REMARK Flexibility Score: inf
ROOT
ATOM      1  C   UNL     1      60.768  32.163  60.784  1.00  0.00     0.004 C 
ENDROOT
BRANCH   1   2
ATOM      2  C   UNL     1      60.966  31.056  61.827  1.00  0.00     0.027 C 
BRANCH   2   3
ATOM      3  C   UNL     1      62.279  30.354  61.632  1.00  0.00    -0.025 C 
ATOM      4  C   UNL     1      62.336  29.060  61.301  1.00  0.00     0.020 C 
BRANCH   4   5
ATOM      5  C   UNL     1      63.613  28.363  61.093  1.00  0.00     0.064 C 
ATOM      6  O   UNL     1      63.626  27.110  60.976  1.00  0.00    -0.545 OA
ATOM      7  O   UNL     1      64.811  29.067  61.023  1.00  0.00    -0.545 OA
ENDBRANCH   4   5
ENDBRANCH   2   3
ENDBRANCH   1   2
BRANCH   1   8
ATOM      8  C   UNL     1      61.998  33.076  60.711  1.00  0.00     0.000 C 
BRANCH   8   9
ATOM      9  C   UNL     1      61.586  34.542  60.534  1.00  0.00    -0.000 C 
BRANCH   9  10
ATOM     10  C   UNL     1      62.667  35.486  61.074  1.00  0.00    -0.003 C 
ATOM     11  C   UNL     1      63.981  34.745  61.302  1.00  0.00     0.004 C 
ENDBRANCH   9  10
ENDBRANCH   8   9
ENDBRANCH   1   8
TORSDOF 6
ENDMDL
MODEL 5
REMARK VINA RESULT:    -3.500      0.990      1.615
REMARK INTER + INTRA:          -5.050
REMARK INTER:                  -4.619
REMARK INTRA:                  -0.431
REMARK UNBOUND:                -0.323
REMARK SMILES CCCCCCC=CC(=O)[O-]
REMARK SMILES IDX 5 1 6 2 7 3 8 4 9 5 10 6 11 7 4 8 3 9 2 10 1 11
REMARK H PARENT
REMARK Flexibility Score: inf
ROOT
ATOM      1  C   UNL     1      60.931  35.479  60.451  1.00  0.00     0.004 C 
ENDROOT
BRANCH   1   2
ATOM      2  C   UNL     1      61.325  34.212  59.680  1.00  0.00     0.027 C 
BRANCH   2   3
ATOM      3  C   UNL     1      61.107  32.981  60.510  1.00  0.00    -0.025 C 
ATOM      4  C   UNL     1      62.072  32.071  60.679  1.00  0.00     0.020 C 
BRANCH   4   5
ATOM      5  C   UNL     1      61.877  30.868  61.500  1.00  0.00     0.064 C 
ATOM      6  O   UNL     1      60.750  30.641  62.012  1.00  0.00    -0.545 OA
ATOM      7  O   UNL     1      62.919  29.974  61.720  1.00  0.00    -0.545 OA
ENDBRANCH   4   5
ENDBRANCH   2   3
ENDBRANCH   1   2
BRANCH   1   8
ATOM      8  C   UNL     1      62.155  36.123  61.112  1.00  0.00     0.000 C 
BRANCH   8   9
ATOM      9  C   UNL     1      63.456  35.601  60.491  1.00  0.00    -0.000 C 
BRANCH   9  10
ATOM     10  C   UNL     1      64.493  35.282  61.574  1.00  0.00    -0.003 C 
ATOM     11  C   UNL     1      64.948  36.549  62.292  1.00  0.00     0.004 C 
ENDBRANCH   9  10
ENDBRANCH   8   9
ENDBRANCH   1   8
TORSDOF 6
ENDMDL
MODEL 6
REMARK VINA RESULT:    -3.442      3.177      5.320
REMARK INTER + INTRA:          -4.972
REMARK INTER:                  -4.593
REMARK INTRA:                  -0.379
REMARK UNBOUND:                -0.323
REMARK SMILES CCCCCCC=CC(=O)[O-]
REMARK SMILES IDX 5 1 6 2 7 3 8 4 9 5 10 6 11 7 4 8 3 9 2 10 1 11
REMARK H PARENT
REMARK Flexibility Score: inf
ROOT
ATOM      1  C   UNL     1      61.072  31.846  60.410  1.00  0.00     0.004 C 
ENDROOT
BRANCH   1   2
ATOM      2  C   UNL     1      61.183  33.365  60.592  1.00  0.00     0.027 C 
BRANCH   2   3
ATOM      3  C   UNL     1      62.618  33.801  60.649  1.00  0.00    -0.025 C 
ATOM      4  C   UNL     1      62.956  35.050  60.987  1.00  0.00     0.020 C 
BRANCH   4   5
ATOM      5  C   UNL     1      64.357  35.487  61.060  1.00  0.00     0.064 C 
ATOM      6  O   UNL     1      64.877  35.724  62.181  1.00  0.00    -0.545 OA
ATOM      7  O   UNL     1      65.120  35.645  59.907  1.00  0.00    -0.545 OA
ENDBRANCH   4   5
ENDBRANCH   2   3
ENDBRANCH   1   2
BRANCH   1   8
ATOM      8  C   UNL     1      60.992  31.134  61.766  1.00  0.00     0.000 C 
BRANCH   8   9
ATOM      9  C   UNL     1      61.974  29.959  61.830  1.00  0.00    -0.000 C 
BRANCH   9  10
ATOM     10  C   UNL     1      63.401  30.418  61.505  1.00  0.00    -0.003 C 
ATOM     11  C   UNL     1      64.267  29.246  61.051  1.00  0.00     0.004 C 
ENDBRANCH   9  10
ENDBRANCH   8   9
ENDBRANCH   1   8
TORSDOF 6
ENDMDL
MODEL 7
REMARK VINA RESULT:    -3.401     12.364     13.413
REMARK INTER + INTRA:          -4.917
REMARK INTER:                  -4.256
REMARK INTRA:                  -0.660
REMARK UNBOUND:                -0.323
REMARK SMILES CCCCCCC=CC(=O)[O-]
REMARK SMILES IDX 5 1 6 2 7 3 8 4 9 5 10 6 11 7 4 8 3 9 2 10 1 11
REMARK H PARENT
REMARK Flexibility Score: inf
ROOT
ATOM      1  C   UNL     1      58.658  29.397  49.243  1.00  0.00     0.004 C 
ENDROOT
BRANCH   1   2
ATOM      2  C   UNL     1      59.861  28.447  49.206  1.00  0.00     0.027 C 
BRANCH   2   3
ATOM      3  C   UNL     1      59.438  27.025  49.436  1.00  0.00    -0.025 C 
ATOM      4  C   UNL     1      60.090  26.231  50.292  1.00  0.00     0.020 C 
BRANCH   4   5
ATOM      5  C   UNL     1      59.678  24.842  50.538  1.00  0.00     0.064 C 
ATOM      6  O   UNL     1      58.733  24.605  51.334  1.00  0.00    -0.545 OA
ATOM      7  O   UNL     1      60.317  23.783  49.903  1.00  0.00    -0.545 OA
ENDBRANCH   4   5
ENDBRANCH   2   3
ENDBRANCH   1   2
BRANCH   1   8
ATOM      8  C   UNL     1      57.979  29.373  50.618  1.00  0.00     0.000 C 
BRANCH   8   9
ATOM      9  C   UNL     1      56.492  29.021  50.492  1.00  0.00    -0.000 C 
BRANCH   9  10
ATOM     10  C   UNL     1      56.196  27.655  51.123  1.00  0.00    -0.003 C 
ATOM     11  C   UNL     1      55.814  26.628  50.060  1.00  0.00     0.004 C 
ENDBRANCH   9  10
ENDBRANCH   8   9
ENDBRANCH   1   8
TORSDOF 6
ENDMDL
MODEL 8
REMARK VINA RESULT:    -3.378     12.394     13.658
REMARK INTER + INTRA:          -4.886
REMARK INTER:                  -4.616
REMARK INTRA:                  -0.269
REMARK UNBOUND:                -0.323
REMARK SMILES CCCCCCC=CC(=O)[O-]
REMARK SMILES IDX 5 1 6 2 7 3 8 4 9 5 10 6 11 7 4 8 3 9 2 10 1 11
REMARK H PARENT
REMARK Flexibility Score: inf
ROOT
ATOM      1  C   UNL     1      57.696  29.356  50.699  1.00  0.00     0.004 C 
ENDROOT
BRANCH   1   2
ATOM      2  C   UNL     1      58.434  29.586  49.374  1.00  0.00     0.027 C 
BRANCH   2   3
ATOM      3  C   UNL     1      59.498  28.549  49.158  1.00  0.00    -0.025 C 
ATOM      4  C   UNL     1      60.674  28.611  49.792  1.00  0.00     0.020 C 
BRANCH   4   5
ATOM      5  C   UNL     1      61.719  27.595  49.601  1.00  0.00     0.064 C 
ATOM      6  O   UNL     1      61.528  26.421  50.013  1.00  0.00    -0.545 OA
ATOM      7  O   UNL     1      62.918  27.911  48.971  1.00  0.00    -0.545 OA
ENDBRANCH   4   5
ENDBRANCH   2   3
ENDBRANCH   1   2
BRANCH   1   8
ATOM      8  C   UNL     1      56.526  28.382  50.515  1.00  0.00     0.000 C 
BRANCH   8   9
ATOM      9  C   UNL     1      55.186  29.126  50.505  1.00  0.00    -0.000 C 
BRANCH   9  10
ATOM     10  C   UNL     1      54.029  28.171  50.190  1.00  0.00    -0.003 C 
ATOM     11  C   UNL     1      54.546  26.820  49.704  1.00  0.00     0.004 C 
ENDBRANCH   9  10
ENDBRANCH   8   9
ENDBRANCH   1   8
TORSDOF 6
ENDMDL
MODEL 9
REMARK VINA RESULT:    -3.313     13.041     14.412
REMARK INTER + INTRA:          -4.798
REMARK INTER:                  -4.203
REMARK INTRA:                  -0.595
REMARK UNBOUND:                -0.323
REMARK SMILES CCCCCCC=CC(=O)[O-]
REMARK SMILES IDX 5 1 6 2 7 3 8 4 9 5 10 6 11 7 4 8 3 9 2 10 1 11
REMARK H PARENT
REMARK Flexibility Score: inf
ROOT
ATOM      1  C   UNL     1      54.697  29.549  50.604  1.00  0.00     0.004 C 
ENDROOT
BRANCH   1   2
ATOM      2  C   UNL     1      55.822  28.740  51.262  1.00  0.00     0.027 C 
BRANCH   2   3
ATOM      3  C   UNL     1      56.960  28.516  50.309  1.00  0.00    -0.025 C 
ATOM      4  C   UNL     1      57.951  27.664  50.591  1.00  0.00     0.020 C 
BRANCH   4   5
ATOM      5  C   UNL     1      59.063  27.424  49.661  1.00  0.00     0.064 C 
ATOM      6  O   UNL     1      59.462  26.248  49.459  1.00  0.00    -0.545 OA
ATOM      7  O   UNL     1      59.684  28.478  49.001  1.00  0.00    -0.545 OA
ENDBRANCH   4   5
ENDBRANCH   2   3
ENDBRANCH   1   2
BRANCH   1   8
ATOM      8  C   UNL     1      53.608  28.624  50.048  1.00  0.00     0.000 C 
BRANCH   8   9
ATOM      9  C   UNL     1      53.389  27.417  50.967  1.00  0.00    -0.000 C 
BRANCH   9  10
ATOM     10  C   UNL     1      53.235  26.126  50.153  1.00  0.00    -0.003 C 
ATOM     11  C   UNL     1      54.412  25.931  49.202  1.00  0.00     0.004 C 
ENDBRANCH   9  10
ENDBRANCH   8   9
ENDBRANCH   1   8
TORSDOF 6
ENDMDL
