MODEL 1
REMARK VINA RESULT:    -3.284      0.000      0.000
REMARK INTER + INTRA:          -3.380
REMARK INTER:                  -3.380
REMARK INTRA:                   0.000
REMARK UNBOUND:                 0.000
REMARK SMILES CC1(C)[C@@H]2CC[C@@](C)(C2)[C@@H]1O
REMARK SMILES IDX 1 1 2 2 4 3 5 4 6 5 7 6 9 7 10 8 8 9 3 10 11 11
REMARK H PARENT 11 12
REMARK Flexibility Score: inf
ROOT
ATOM      1  C   UNL     1     143.564 143.883 144.059  1.00  0.00     0.014 C 
ATOM      2  C   UNL     1     143.619 142.972 142.807  1.00  0.00    -0.006 C 
ATOM      3  C   UNL     1     145.109 142.638 142.451  1.00  0.00    -0.002 C 
ATOM      4  C   UNL     1     145.214 141.958 141.069  1.00  0.00     0.005 C 
ATOM      5  C   UNL     1     144.552 140.593 141.309  1.00  0.00     0.010 C 
ATOM      6  C   UNL     1     144.252 140.623 142.826  1.00  0.00    -0.006 C 
ATOM      7  C   UNL     1     145.406 141.449 143.348  1.00  0.00     0.013 C 
ATOM      8  C   UNL     1     143.043 141.553 143.120  1.00  0.00     0.126 C 
ATOM      9  C   UNL     1     144.147 139.233 143.466  1.00  0.00     0.014 C 
ATOM     10  C   UNL     1     142.866 143.710 141.669  1.00  0.00     0.014 C 
ENDROOT
BRANCH   8  11
ATOM     11  O   UNL     1     141.924 141.229 142.331  1.00  0.00    -0.392 OA
ATOM     12  H   UNL     1     141.734 140.268 142.485  1.00  0.00     0.211 HD
ENDBRANCH   8  11
TORSDOF 1
ENDMDL
MODEL 2
REMARK VINA RESULT:    -3.269      1.126      3.067
REMARK INTER + INTRA:          -3.365
REMARK INTER:                  -3.365
REMARK INTRA:                   0.000
REMARK UNBOUND:                 0.000
REMARK SMILES CC1(C)[C@@H]2CC[C@@](C)(C2)[C@@H]1O
REMARK SMILES IDX 1 1 2 2 4 3 5 4 6 5 7 6 9 7 10 8 8 9 3 10 11 11
REMARK H PARENT 11 12
REMARK Flexibility Score: inf
ROOT
ATOM      1  C   UNL     1     146.475 141.884 141.280  1.00  0.00     0.014 C 
ATOM      2  C   UNL     1     145.046 141.533 141.764  1.00  0.00    -0.006 C 
ATOM      3  C   UNL     1     145.101 140.936 143.213  1.00  0.00    -0.002 C 
ATOM      4  C   UNL     1     143.739 140.335 143.621  1.00  0.00     0.005 C 
ATOM      5  C   UNL     1     142.841 141.576 143.742  1.00  0.00     0.010 C 
ATOM      6  C   UNL     1     143.831 142.738 143.494  1.00  0.00    -0.006 C 
ATOM      7  C   UNL     1     145.108 142.180 144.084  1.00  0.00     0.013 C 
ATOM      8  C   UNL     1     144.196 142.827 141.987  1.00  0.00     0.126 C 
ATOM      9  C   UNL     1     143.394 144.069 144.116  1.00  0.00     0.014 C 
ATOM     10  C   UNL     1     144.434 140.561 140.721  1.00  0.00     0.014 C 
ENDROOT
BRANCH   8  11
ATOM     11  O   UNL     1     143.052 142.879 141.170  1.00  0.00    -0.392 OA
ATOM     12  H   UNL     1     143.345 143.226 140.289  1.00  0.00     0.211 HD
ENDBRANCH   8  11
TORSDOF 1
ENDMDL
MODEL 3
REMARK VINA RESULT:    -3.259      5.909      7.429
REMARK INTER + INTRA:          -3.355
REMARK INTER:                  -3.355
REMARK INTRA:                   0.000
REMARK UNBOUND:                 0.000
REMARK SMILES CC1(C)[C@@H]2CC[C@@](C)(C2)[C@@H]1O
REMARK SMILES IDX 1 1 2 2 4 3 5 4 6 5 7 6 9 7 10 8 8 9 3 10 11 11
REMARK H PARENT 11 12
REMARK Flexibility Score: inf
ROOT
ATOM      1  C   UNL     1     138.334 137.517 143.906  1.00  0.00     0.014 C 
ATOM      2  C   UNL     1     138.158 138.505 142.726  1.00  0.00    -0.006 C 
ATOM      3  C   UNL     1     136.634 138.773 142.473  1.00  0.00    -0.002 C 
ATOM      4  C   UNL     1     136.414 139.537 141.149  1.00  0.00     0.005 C 
ATOM      5  C   UNL     1     137.011 140.920 141.451  1.00  0.00     0.010 C 
ATOM      6  C   UNL     1     137.398 140.806 142.944  1.00  0.00    -0.006 C 
ATOM      7  C   UNL     1     136.323 139.879 143.466  1.00  0.00     0.013 C 
ATOM      8  C   UNL     1     138.671 139.932 143.108  1.00  0.00     0.126 C 
ATOM      9  C   UNL     1     137.460 142.153 143.674  1.00  0.00     0.014 C 
ATOM     10  C   UNL     1     138.886 137.891 141.501  1.00  0.00     0.014 C 
ENDROOT
BRANCH   8  11
ATOM     11  O   UNL     1     139.724 140.375 142.286  1.00  0.00    -0.392 OA
ATOM     12  H   UNL     1     139.470 141.275 141.956  1.00  0.00     0.211 HD
ENDBRANCH   8  11
TORSDOF 1
ENDMDL
MODEL 4
REMARK VINA RESULT:    -3.255      3.545      5.146
REMARK INTER + INTRA:          -3.350
REMARK INTER:                  -3.350
REMARK INTRA:                   0.000
REMARK UNBOUND:                 0.000
REMARK SMILES CC1(C)[C@@H]2CC[C@@](C)(C2)[C@@H]1O
REMARK SMILES IDX 1 1 2 2 4 3 5 4 6 5 7 6 9 7 10 8 8 9 3 10 11 11
REMARK H PARENT 11 12
REMARK Flexibility Score: inf
ROOT
ATOM      1  C   UNL     1     144.028 138.363 143.974  1.00  0.00     0.014 C 
ATOM      2  C   UNL     1     143.077 138.145 142.770  1.00  0.00    -0.006 C 
ATOM      3  C   UNL     1     142.823 136.613 142.557  1.00  0.00    -0.002 C 
ATOM      4  C   UNL     1     142.100 136.347 141.219  1.00  0.00     0.005 C 
ATOM      5  C   UNL     1     140.706 136.947 141.460  1.00  0.00     0.010 C 
ATOM      6  C   UNL     1     140.773 137.380 142.943  1.00  0.00    -0.006 C 
ATOM      7  C   UNL     1     141.689 136.326 143.526  1.00  0.00     0.013 C 
ATOM      8  C   UNL     1     141.637 138.662 143.093  1.00  0.00     0.126 C 
ATOM      9  C   UNL     1     139.405 137.459 143.630  1.00  0.00     0.014 C 
ATOM     10  C   UNL     1     143.724 138.837 141.542  1.00  0.00     0.014 C 
ENDROOT
BRANCH   8  11
ATOM     11  O   UNL     1     141.215 139.687 142.226  1.00  0.00    -0.392 OA
ATOM     12  H   UNL     1     140.618 140.279 142.752  1.00  0.00     0.211 HD
ENDBRANCH   8  11
TORSDOF 1
ENDMDL
MODEL 5
REMARK VINA RESULT:    -3.237      3.585      5.162
REMARK INTER + INTRA:          -3.331
REMARK INTER:                  -3.331
REMARK INTRA:                   0.000
REMARK UNBOUND:                 0.000
REMARK SMILES CC1(C)[C@@H]2CC[C@@](C)(C2)[C@@H]1O
REMARK SMILES IDX 1 1 2 2 4 3 5 4 6 5 7 6 9 7 10 8 8 9 3 10 11 11
REMARK H PARENT 11 12
REMARK Flexibility Score: inf
ROOT
ATOM      1  C   UNL     1     137.670 143.624 144.124  1.00  0.00     0.014 C 
ATOM      2  C   UNL     1     138.686 143.610 142.955  1.00  0.00    -0.006 C 
ATOM      3  C   UNL     1     139.127 145.074 142.609  1.00  0.00    -0.002 C 
ATOM      4  C   UNL     1     139.927 145.119 141.289  1.00  0.00     0.005 C 
ATOM      5  C   UNL     1     141.231 144.393 141.656  1.00  0.00     0.010 C 
ATOM      6  C   UNL     1     141.056 144.122 143.168  1.00  0.00    -0.006 C 
ATOM      7  C   UNL     1     140.249 145.326 143.601  1.00  0.00     0.013 C 
ATOM      8  C   UNL     1     140.042 142.968 143.397  1.00  0.00     0.126 C 
ATOM      9  C   UNL     1     142.378 143.959 143.927  1.00  0.00     0.014 C 
ATOM     10  C   UNL     1     138.010 142.875 141.768  1.00  0.00     0.014 C 
ENDROOT
BRANCH   8  11
ATOM     11  O   UNL     1     140.373 141.820 142.655  1.00  0.00    -0.392 OA
ATOM     12  H   UNL     1     140.126 142.007 141.713  1.00  0.00     0.211 HD
ENDBRANCH   8  11
TORSDOF 1
ENDMDL
MODEL 6
REMARK VINA RESULT:    -3.230      4.034      5.792
REMARK INTER + INTRA:          -3.325
REMARK INTER:                  -3.325
REMARK INTRA:                   0.000
REMARK UNBOUND:                 0.000
REMARK SMILES CC1(C)[C@@H]2CC[C@@](C)(C2)[C@@H]1O
REMARK SMILES IDX 1 1 2 2 4 3 5 4 6 5 7 6 9 7 10 8 8 9 3 10 11 11
REMARK H PARENT 11 12
REMARK Flexibility Score: inf
ROOT
ATOM      1  C   UNL     1     141.834 135.274 141.304  1.00  0.00     0.014 C 
ATOM      2  C   UNL     1     141.482 136.680 141.849  1.00  0.00    -0.006 C 
ATOM      3  C   UNL     1     140.978 136.572 143.330  1.00  0.00    -0.002 C 
ATOM      4  C   UNL     1     140.373 137.907 143.814  1.00  0.00     0.005 C 
ATOM      5  C   UNL     1     141.599 138.831 143.883  1.00  0.00     0.010 C 
ATOM      6  C   UNL     1     142.765 137.876 143.536  1.00  0.00    -0.006 C 
ATOM      7  C   UNL     1     142.273 136.571 144.122  1.00  0.00     0.013 C 
ATOM      8  C   UNL     1     142.767 137.555 142.017  1.00  0.00     0.126 C 
ATOM      9  C   UNL     1     144.122 138.328 144.087  1.00  0.00     0.014 C 
ATOM     10  C   UNL     1     140.433 137.297 140.887  1.00  0.00     0.014 C 
ENDROOT
BRANCH   8  11
ATOM     11  O   UNL     1     142.743 138.722 141.231  1.00  0.00    -0.392 OA
ATOM     12  H   UNL     1     143.449 139.321 141.586  1.00  0.00     0.211 HD
ENDBRANCH   8  11
TORSDOF 1
ENDMDL
MODEL 7
REMARK VINA RESULT:    -3.217      1.539      2.879
REMARK INTER + INTRA:          -3.311
REMARK INTER:                  -3.311
REMARK INTRA:                   0.000
REMARK UNBOUND:                 0.000
REMARK SMILES CC1(C)[C@@H]2CC[C@@](C)(C2)[C@@H]1O
REMARK SMILES IDX 1 1 2 2 4 3 5 4 6 5 7 6 9 7 10 8 8 9 3 10 11 11
REMARK H PARENT 11 12
REMARK Flexibility Score: inf
ROOT
ATOM      1  C   UNL     1     141.622 141.820 141.704  1.00  0.00     0.014 C 
ATOM      2  C   UNL     1     142.728 141.748 142.787  1.00  0.00    -0.006 C 
ATOM      3  C   UNL     1     143.325 140.299 142.849  1.00  0.00    -0.002 C 
ATOM      4  C   UNL     1     144.233 140.122 144.084  1.00  0.00     0.005 C 
ATOM      5  C   UNL     1     145.432 141.026 143.758  1.00  0.00     0.010 C 
ATOM      6  C   UNL     1     145.107 141.521 142.329  1.00  0.00    -0.006 C 
ATOM      7  C   UNL     1     144.376 140.327 141.753  1.00  0.00     0.013 C 
ATOM      8  C   UNL     1     143.979 142.587 142.368  1.00  0.00     0.126 C 
ATOM      9  C   UNL     1     146.340 141.939 141.520  1.00  0.00     0.014 C 
ATOM     10  C   UNL     1     142.091 142.207 144.125  1.00  0.00     0.014 C 
ENDROOT
BRANCH   8  11
ATOM     11  O   UNL     1     144.268 143.627 143.271  1.00  0.00    -0.392 OA
ATOM     12  H   UNL     1     143.719 143.464 144.080  1.00  0.00     0.211 HD
ENDBRANCH   8  11
TORSDOF 1
ENDMDL
MODEL 8
REMARK VINA RESULT:    -3.214      3.810      5.531
REMARK INTER + INTRA:          -3.308
REMARK INTER:                  -3.308
REMARK INTRA:                   0.000
REMARK UNBOUND:                 0.000
REMARK SMILES CC1(C)[C@@H]2CC[C@@](C)(C2)[C@@H]1O
REMARK SMILES IDX 1 1 2 2 4 3 5 4 6 5 7 6 9 7 10 8 8 9 3 10 11 11
REMARK H PARENT 11 12
REMARK Flexibility Score: inf
ROOT
ATOM      1  C   UNL     1     141.867 139.967 141.710  1.00  0.00     0.014 C 
ATOM      2  C   UNL     1     141.777 138.858 142.788  1.00  0.00    -0.006 C 
ATOM      3  C   UNL     1     140.314 138.297 142.860  1.00  0.00    -0.002 C 
ATOM      4  C   UNL     1     140.125 137.387 144.092  1.00  0.00     0.005 C 
ATOM      5  C   UNL     1     140.997 136.168 143.753  1.00  0.00     0.010 C 
ATOM      6  C   UNL     1     141.487 136.488 142.321  1.00  0.00    -0.006 C 
ATOM      7  C   UNL     1     140.307 137.250 141.760  1.00  0.00     0.013 C 
ATOM      8  C   UNL     1     142.582 137.589 142.357  1.00  0.00     0.126 C 
ATOM      9  C   UNL     1     141.868 135.248 141.504  1.00  0.00     0.014 C 
ATOM     10  C   UNL     1     142.263 139.477 144.125  1.00  0.00     0.014 C 
ENDROOT
BRANCH   8  11
ATOM     11  O   UNL     1     143.622 137.270 143.250  1.00  0.00    -0.392 OA
ATOM     12  H   UNL     1     144.015 138.130 143.549  1.00  0.00     0.211 HD
ENDBRANCH   8  11
TORSDOF 1
ENDMDL
MODEL 9
REMARK VINA RESULT:    -3.184      6.094      7.315
REMARK INTER + INTRA:          -3.277
REMARK INTER:                  -3.277
REMARK INTRA:                   0.000
REMARK UNBOUND:                 0.000
REMARK SMILES CC1(C)[C@@H]2CC[C@@](C)(C2)[C@@H]1O
REMARK SMILES IDX 1 1 2 2 4 3 5 4 6 5 7 6 9 7 10 8 8 9 3 10 11 11
REMARK H PARENT 11 12
REMARK Flexibility Score: inf
ROOT
ATOM      1  C   UNL     1     137.575 142.816 143.890  1.00  0.00     0.014 C 
ATOM      2  C   UNL     1     137.911 141.422 143.302  1.00  0.00    -0.006 C 
ATOM      3  C   UNL     1     137.185 140.303 144.125  1.00  0.00    -0.002 C 
ATOM      4  C   UNL     1     137.701 138.900 143.737  1.00  0.00     0.005 C 
ATOM      5  C   UNL     1     137.182 138.731 142.301  1.00  0.00     0.010 C 
ATOM      6  C   UNL     1     136.342 140.012 142.090  1.00  0.00    -0.006 C 
ATOM      7  C   UNL     1     135.809 140.260 143.484  1.00  0.00     0.013 C 
ATOM      8  C   UNL     1     137.270 141.241 141.887  1.00  0.00     0.126 C 
ATOM      9  C   UNL     1     135.247 139.868 141.026  1.00  0.00     0.014 C 
ATOM     10  C   UNL     1     139.456 141.283 143.305  1.00  0.00     0.014 C 
ENDROOT
BRANCH   8  11
ATOM     11  O   UNL     1     138.223 141.020 140.877  1.00  0.00    -0.392 OA
ATOM     12  H   UNL     1     137.898 141.493 140.068  1.00  0.00     0.211 HD
ENDBRANCH   8  11
TORSDOF 1
ENDMDL
