MODEL 1
REMARK VINA RESULT:    -4.793      0.000      0.000
REMARK INTER + INTRA:         -10.741
REMARK INTER:                  -8.716
REMARK INTRA:                  -2.025
REMARK UNBOUND:                -2.025
REMARK SMILES CCCCCCCCCCCCCCCC(=O)[O-]
REMARK SMILES IDX 9 1 10 2 11 3 12 4 13 5 14 6 15 7 16 8 17 9 18 10 8 11 7 12
REMARK SMILES IDX 6 13 5 14 4 15 3 16 2 17 1 18
REMARK H PARENT
REMARK Flexibility Score: inf
ROOT
ATOM      1  C   UNL     1      15.585 -34.995  20.423  1.00  0.00     0.000 C 
ENDROOT
BRANCH   1   2
ATOM      2  C   UNL     1      14.615 -33.895  19.966  1.00  0.00     0.000 C 
BRANCH   2   3
ATOM      3  C   UNL     1      14.252 -32.918  21.096  1.00  0.00     0.000 C 
BRANCH   3   4
ATOM      4  C   UNL     1      13.428 -31.741  20.561  1.00  0.00     0.000 C 
BRANCH   4   5
ATOM      5  C   UNL     1      12.716 -31.004  21.706  1.00  0.00     0.000 C 
BRANCH   5   6
ATOM      6  C   UNL     1      13.673 -30.135  22.538  1.00  0.00     0.006 C 
BRANCH   6   7
ATOM      7  C   UNL     1      13.203 -29.959  23.987  1.00  0.00     0.053 C 
BRANCH   7   8
ATOM      8  C   UNL     1      12.517 -28.639  24.157  1.00  0.00     0.041 C 
ATOM      9  O   UNL     1      12.959 -27.797  24.982  1.00  0.00    -0.550 OA
ATOM     10  O   UNL     1      11.359 -28.360  23.441  1.00  0.00    -0.550 OA
ENDBRANCH   7   8
ENDBRANCH   6   7
ENDBRANCH   5   6
ENDBRANCH   4   5
ENDBRANCH   3   4
ENDBRANCH   2   3
ENDBRANCH   1   2
BRANCH   1  11
ATOM     11  C   UNL     1      16.677 -35.294  19.379  1.00  0.00     0.000 C 
BRANCH  11  12
ATOM     12  C   UNL     1      17.497 -34.037  19.011  1.00  0.00    -0.000 C 
BRANCH  12  13
ATOM     13  C   UNL     1      18.252 -33.421  20.203  1.00  0.00    -0.000 C 
BRANCH  13  14
ATOM     14  C   UNL     1      17.914 -31.945  20.489  1.00  0.00    -0.000 C 
BRANCH  14  15
ATOM     15  C   UNL     1      17.631 -31.613  21.969  1.00  0.00    -0.000 C 
BRANCH  15  16
ATOM     16  C   UNL     1      17.437 -32.833  22.888  1.00  0.00    -0.000 C 
BRANCH  16  17
ATOM     17  C   UNL     1      16.399 -32.589  23.993  1.00  0.00    -0.003 C 
ATOM     18  C   UNL     1      15.675 -33.881  24.362  1.00  0.00     0.004 C 
ENDBRANCH  16  17
ENDBRANCH  15  16
ENDBRANCH  14  15
ENDBRANCH  13  14
ENDBRANCH  12  13
ENDBRANCH  11  12
ENDBRANCH   1  11
TORSDOF 14
ENDMDL
MODEL 2
REMARK VINA RESULT:    -4.644      2.255      3.880
REMARK INTER + INTRA:         -10.470
REMARK INTER:                  -8.530
REMARK INTRA:                  -1.940
REMARK UNBOUND:                -2.025
REMARK SMILES CCCCCCCCCCCCCCCC(=O)[O-]
REMARK SMILES IDX 9 1 10 2 11 3 12 4 13 5 14 6 15 7 16 8 17 9 18 10 8 11 7 12
REMARK SMILES IDX 6 13 5 14 4 15 3 16 2 17 1 18
REMARK H PARENT
REMARK Flexibility Score: inf
ROOT
ATOM      1  C   UNL     1      17.212 -32.410  21.063  1.00  0.00     0.000 C 
ENDROOT
BRANCH   1   2
ATOM      2  C   UNL     1      17.446 -32.610  22.569  1.00  0.00     0.000 C 
BRANCH   2   3
ATOM      3  C   UNL     1      16.314 -32.022  23.427  1.00  0.00     0.000 C 
BRANCH   3   4
ATOM      4  C   UNL     1      15.391 -33.129  23.951  1.00  0.00     0.000 C 
BRANCH   4   5
ATOM      5  C   UNL     1      13.975 -32.588  24.206  1.00  0.00     0.000 C 
BRANCH   5   6
ATOM      6  C   UNL     1      13.784 -31.157  23.679  1.00  0.00     0.006 C 
BRANCH   6   7
ATOM      7  C   UNL     1      12.803 -31.087  22.502  1.00  0.00     0.053 C 
BRANCH   7   8
ATOM      8  C   UNL     1      13.543 -31.117  21.201  1.00  0.00     0.041 C 
ATOM      9  O   UNL     1      14.406 -30.237  20.944  1.00  0.00    -0.550 OA
ATOM     10  O   UNL     1      13.244 -32.086  20.253  1.00  0.00    -0.550 OA
ENDBRANCH   7   8
ENDBRANCH   6   7
ENDBRANCH   5   6
ENDBRANCH   4   5
ENDBRANCH   3   4
ENDBRANCH   2   3
ENDBRANCH   1   2
BRANCH   1  11
ATOM     11  C   UNL     1      18.350 -32.992  20.205  1.00  0.00     0.000 C 
BRANCH  11  12
ATOM     12  C   UNL     1      17.834 -33.990  19.144  1.00  0.00    -0.000 C 
BRANCH  12  13
ATOM     13  C   UNL     1      16.356 -34.382  19.331  1.00  0.00    -0.000 C 
BRANCH  13  14
ATOM     14  C   UNL     1      16.127 -35.827  19.815  1.00  0.00    -0.000 C 
BRANCH  14  15
ATOM     15  C   UNL     1      17.322 -36.782  19.613  1.00  0.00    -0.000 C 
BRANCH  15  16
ATOM     16  C   UNL     1      17.957 -37.319  20.909  1.00  0.00    -0.000 C 
BRANCH  16  17
ATOM     17  C   UNL     1      18.059 -36.254  22.010  1.00  0.00    -0.003 C 
ATOM     18  C   UNL     1      19.512 -35.863  22.264  1.00  0.00     0.004 C 
ENDBRANCH  16  17
ENDBRANCH  15  16
ENDBRANCH  14  15
ENDBRANCH  13  14
ENDBRANCH  12  13
ENDBRANCH  11  12
ENDBRANCH   1  11
TORSDOF 14
ENDMDL
MODEL 3
REMARK VINA RESULT:    -4.521      1.779      3.591
REMARK INTER + INTRA:         -10.246
REMARK INTER:                  -8.065
REMARK INTRA:                  -2.181
REMARK UNBOUND:                -2.025
REMARK SMILES CCCCCCCCCCCCCCCC(=O)[O-]
REMARK SMILES IDX 9 1 10 2 11 3 12 4 13 5 14 6 15 7 16 8 17 9 18 10 8 11 7 12
REMARK SMILES IDX 6 13 5 14 4 15 3 16 2 17 1 18
REMARK H PARENT
REMARK Flexibility Score: inf
ROOT
ATOM      1  C   UNL     1      17.418 -35.485  23.686  1.00  0.00     0.000 C 
ENDROOT
BRANCH   1   2
ATOM      2  C   UNL     1      16.652 -34.153  23.638  1.00  0.00     0.000 C 
BRANCH   2   3
ATOM      3  C   UNL     1      15.435 -34.203  22.702  1.00  0.00     0.000 C 
BRANCH   3   4
ATOM      4  C   UNL     1      14.922 -32.791  22.392  1.00  0.00     0.000 C 
BRANCH   4   5
ATOM      5  C   UNL     1      14.194 -32.756  21.039  1.00  0.00     0.000 C 
BRANCH   5   6
ATOM      6  C   UNL     1      13.360 -31.480  20.849  1.00  0.00     0.006 C 
BRANCH   6   7
ATOM      7  C   UNL     1      13.821 -30.331  21.754  1.00  0.00     0.053 C 
BRANCH   7   8
ATOM      8  C   UNL     1      12.773 -30.016  22.775  1.00  0.00     0.041 C 
ATOM      9  O   UNL     1      11.616 -29.677  22.410  1.00  0.00    -0.550 OA
ATOM     10  O   UNL     1      13.087 -30.047  24.127  1.00  0.00    -0.550 OA
ENDBRANCH   7   8
ENDBRANCH   6   7
ENDBRANCH   5   6
ENDBRANCH   4   5
ENDBRANCH   3   4
ENDBRANCH   2   3
ENDBRANCH   1   2
BRANCH   1  11
ATOM     11  C   UNL     1      18.865 -35.356  23.176  1.00  0.00     0.000 C 
BRANCH  11  12
ATOM     12  C   UNL     1      19.220 -36.441  22.135  1.00  0.00    -0.000 C 
BRANCH  12  13
ATOM     13  C   UNL     1      18.010 -36.934  21.319  1.00  0.00    -0.000 C 
BRANCH  13  14
ATOM     14  C   UNL     1      17.961 -36.426  19.865  1.00  0.00    -0.000 C 
BRANCH  14  15
ATOM     15  C   UNL     1      16.810 -35.448  19.551  1.00  0.00    -0.000 C 
BRANCH  15  16
ATOM     16  C   UNL     1      17.246 -34.009  19.218  1.00  0.00    -0.000 C 
BRANCH  16  17
ATOM     17  C   UNL     1      18.212 -33.422  20.256  1.00  0.00    -0.003 C 
ATOM     18  C   UNL     1      17.937 -31.939  20.487  1.00  0.00     0.004 C 
ENDBRANCH  16  17
ENDBRANCH  15  16
ENDBRANCH  14  15
ENDBRANCH  13  14
ENDBRANCH  12  13
ENDBRANCH  11  12
ENDBRANCH   1  11
TORSDOF 14
ENDMDL
MODEL 4
REMARK VINA RESULT:    -4.494      1.678      2.645
REMARK INTER + INTRA:         -10.197
REMARK INTER:                  -8.007
REMARK INTRA:                  -2.190
REMARK UNBOUND:                -2.025
REMARK SMILES CCCCCCCCCCCCCCCC(=O)[O-]
REMARK SMILES IDX 9 1 10 2 11 3 12 4 13 5 14 6 15 7 16 8 17 9 18 10 8 11 7 12
REMARK SMILES IDX 6 13 5 14 4 15 3 16 2 17 1 18
REMARK H PARENT
REMARK Flexibility Score: inf
ROOT
ATOM      1  C   UNL     1      16.194 -34.235  19.220  1.00  0.00     0.000 C 
ENDROOT
BRANCH   1   2
ATOM      2  C   UNL     1      15.192 -34.631  20.316  1.00  0.00     0.000 C 
BRANCH   2   3
ATOM      3  C   UNL     1      14.653 -33.420  21.093  1.00  0.00     0.000 C 
BRANCH   3   4
ATOM      4  C   UNL     1      14.958 -33.548  22.590  1.00  0.00     0.000 C 
BRANCH   4   5
ATOM      5  C   UNL     1      14.987 -32.167  23.264  1.00  0.00     0.000 C 
BRANCH   5   6
ATOM      6  C   UNL     1      13.591 -31.688  23.694  1.00  0.00     0.006 C 
BRANCH   6   7
ATOM      7  C   UNL     1      13.025 -30.606  22.765  1.00  0.00     0.053 C 
BRANCH   7   8
ATOM      8  C   UNL     1      13.174 -29.253  23.389  1.00  0.00     0.041 C 
ATOM      9  O   UNL     1      14.191 -28.553  23.145  1.00  0.00    -0.550 OA
ATOM     10  O   UNL     1      12.213 -28.788  24.278  1.00  0.00    -0.550 OA
ENDBRANCH   7   8
ENDBRANCH   6   7
ENDBRANCH   5   6
ENDBRANCH   4   5
ENDBRANCH   3   4
ENDBRANCH   2   3
ENDBRANCH   1   2
BRANCH   1  11
ATOM     11  C   UNL     1      17.376 -35.216  19.114  1.00  0.00     0.000 C 
BRANCH  11  12
ATOM     12  C   UNL     1      17.005 -36.636  19.595  1.00  0.00    -0.000 C 
BRANCH  12  13
ATOM     13  C   UNL     1      17.824 -37.111  20.811  1.00  0.00    -0.000 C 
BRANCH  13  14
ATOM     14  C   UNL     1      18.709 -36.027  21.455  1.00  0.00    -0.000 C 
BRANCH  14  15
ATOM     15  C   UNL     1      18.117 -35.360  22.715  1.00  0.00    -0.000 C 
BRANCH  15  16
ATOM     16  C   UNL     1      18.585 -33.916  22.972  1.00  0.00    -0.000 C 
BRANCH  16  17
ATOM     17  C   UNL     1      19.073 -33.210  21.700  1.00  0.00    -0.003 C 
ATOM     18  C   UNL     1      18.193 -32.009  21.366  1.00  0.00     0.004 C 
ENDBRANCH  16  17
ENDBRANCH  15  16
ENDBRANCH  14  15
ENDBRANCH  13  14
ENDBRANCH  12  13
ENDBRANCH  11  12
ENDBRANCH   1  11
TORSDOF 14
ENDMDL
MODEL 5
REMARK VINA RESULT:    -4.491      1.483      1.938
REMARK INTER + INTRA:         -10.192
REMARK INTER:                  -7.940
REMARK INTRA:                  -2.251
REMARK UNBOUND:                -2.025
REMARK SMILES CCCCCCCCCCCCCCCC(=O)[O-]
REMARK SMILES IDX 9 1 10 2 11 3 12 4 13 5 14 6 15 7 16 8 17 9 18 10 8 11 7 12
REMARK SMILES IDX 6 13 5 14 4 15 3 16 2 17 1 18
REMARK H PARENT
REMARK Flexibility Score: inf
ROOT
ATOM      1  C   UNL     1      16.438 -35.382  19.842  1.00  0.00     0.000 C 
ENDROOT
BRANCH   1   2
ATOM      2  C   UNL     1      15.350 -34.813  20.767  1.00  0.00     0.000 C 
BRANCH   2   3
ATOM      3  C   UNL     1      14.540 -33.686  20.106  1.00  0.00     0.000 C 
BRANCH   3   4
ATOM      4  C   UNL     1      14.151 -32.615  21.133  1.00  0.00     0.000 C 
BRANCH   4   5
ATOM      5  C   UNL     1      14.906 -32.822  22.455  1.00  0.00     0.000 C 
BRANCH   5   6
ATOM      6  C   UNL     1      14.253 -32.082  23.633  1.00  0.00     0.006 C 
BRANCH   6   7
ATOM      7  C   UNL     1      13.087 -31.186  23.195  1.00  0.00     0.053 C 
BRANCH   7   8
ATOM      8  C   UNL     1      13.344 -29.765  23.590  1.00  0.00     0.041 C 
ATOM      9  O   UNL     1      12.500 -29.139  24.284  1.00  0.00    -0.550 OA
ATOM     10  O   UNL     1      14.490 -29.116  23.148  1.00  0.00    -0.550 OA
ENDBRANCH   7   8
ENDBRANCH   6   7
ENDBRANCH   5   6
ENDBRANCH   4   5
ENDBRANCH   3   4
ENDBRANCH   2   3
ENDBRANCH   1   2
BRANCH   1  11
ATOM     11  C   UNL     1      17.142 -34.292  19.015  1.00  0.00     0.000 C 
BRANCH  11  12
ATOM     12  C   UNL     1      18.323 -33.648  19.775  1.00  0.00    -0.000 C 
BRANCH  12  13
ATOM     13  C   UNL     1      17.953 -32.339  20.498  1.00  0.00    -0.000 C 
BRANCH  13  14
ATOM     14  C   UNL     1      18.595 -32.165  21.888  1.00  0.00    -0.000 C 
BRANCH  14  15
ATOM     15  C   UNL     1      19.445 -33.358  22.371  1.00  0.00    -0.000 C 
BRANCH  15  16
ATOM     16  C   UNL     1      18.937 -34.049  23.649  1.00  0.00    -0.000 C 
BRANCH  16  17
ATOM     17  C   UNL     1      17.917 -35.160  23.362  1.00  0.00    -0.003 C 
ATOM     18  C   UNL     1      16.825 -35.194  24.429  1.00  0.00     0.004 C 
ENDBRANCH  16  17
ENDBRANCH  15  16
ENDBRANCH  14  15
ENDBRANCH  13  14
ENDBRANCH  12  13
ENDBRANCH  11  12
ENDBRANCH   1  11
TORSDOF 14
ENDMDL
MODEL 6
REMARK VINA RESULT:    -4.488      3.594      6.065
REMARK INTER + INTRA:         -10.186
REMARK INTER:                  -8.011
REMARK INTRA:                  -2.175
REMARK UNBOUND:                -2.025
REMARK SMILES CCCCCCCCCCCCCCCC(=O)[O-]
REMARK SMILES IDX 9 1 10 2 11 3 12 4 13 5 14 6 15 7 16 8 17 9 18 10 8 11 7 12
REMARK SMILES IDX 6 13 5 14 4 15 3 16 2 17 1 18
REMARK H PARENT
REMARK Flexibility Score: inf
ROOT
ATOM      1  C   UNL     1      14.931 -33.640  21.056  1.00  0.00     0.000 C 
ENDROOT
BRANCH   1   2
ATOM      2  C   UNL     1      15.326 -34.781  20.105  1.00  0.00     0.000 C 
BRANCH   2   3
ATOM      3  C   UNL     1      16.467 -34.391  19.153  1.00  0.00     0.000 C 
BRANCH   3   4
ATOM      4  C   UNL     1      17.663 -35.338  19.312  1.00  0.00     0.000 C 
BRANCH   4   5
ATOM      5  C   UNL     1      17.202 -36.736  19.754  1.00  0.00     0.000 C 
BRANCH   5   6
ATOM      6  C   UNL     1      17.960 -37.247  20.989  1.00  0.00     0.006 C 
BRANCH   6   7
ATOM      7  C   UNL     1      18.685 -36.126  21.744  1.00  0.00     0.053 C 
BRANCH   7   8
ATOM      8  C   UNL     1      18.093 -35.945  23.107  1.00  0.00     0.041 C 
ATOM      9  O   UNL     1      17.162 -35.118  23.288  1.00  0.00    -0.550 OA
ATOM     10  O   UNL     1      18.605 -36.654  24.186  1.00  0.00    -0.550 OA
ENDBRANCH   7   8
ENDBRANCH   6   7
ENDBRANCH   5   6
ENDBRANCH   4   5
ENDBRANCH   3   4
ENDBRANCH   2   3
ENDBRANCH   1   2
BRANCH   1  11
ATOM     11  C   UNL     1      13.876 -32.699  20.447  1.00  0.00     0.000 C 
BRANCH  11  12
ATOM     12  C   UNL     1      13.590 -31.476  21.348  1.00  0.00    -0.000 C 
BRANCH  12  13
ATOM     13  C   UNL     1      14.003 -31.681  22.817  1.00  0.00    -0.000 C 
BRANCH  13  14
ATOM     14  C   UNL     1      15.035 -30.666  23.345  1.00  0.00    -0.000 C 
BRANCH  14  15
ATOM     15  C   UNL     1      16.508 -31.011  23.041  1.00  0.00    -0.000 C 
BRANCH  15  16
ATOM     16  C   UNL     1      17.112 -30.285  21.825  1.00  0.00    -0.000 C 
BRANCH  16  17
ATOM     17  C   UNL     1      17.733 -31.248  20.802  1.00  0.00    -0.003 C 
ATOM     18  C   UNL     1      18.550 -32.334  21.497  1.00  0.00     0.004 C 
ENDBRANCH  16  17
ENDBRANCH  15  16
ENDBRANCH  14  15
ENDBRANCH  13  14
ENDBRANCH  12  13
ENDBRANCH  11  12
ENDBRANCH   1  11
TORSDOF 14
ENDMDL
MODEL 7
REMARK VINA RESULT:    -4.487      3.282      5.335
REMARK INTER + INTRA:         -10.185
REMARK INTER:                  -7.748
REMARK INTRA:                  -2.437
REMARK UNBOUND:                -2.025
REMARK SMILES CCCCCCCCCCCCCCCC(=O)[O-]
REMARK SMILES IDX 9 1 10 2 11 3 12 4 13 5 14 6 15 7 16 8 17 9 18 10 8 11 7 12
REMARK SMILES IDX 6 13 5 14 4 15 3 16 2 17 1 18
REMARK H PARENT
REMARK Flexibility Score: inf
ROOT
ATOM      1  C   UNL     1      16.710 -35.312  19.399  1.00  0.00     0.000 C 
ENDROOT
BRANCH   1   2
ATOM      2  C   UNL     1      17.406 -34.000  19.003  1.00  0.00     0.000 C 
BRANCH   2   3
ATOM      3  C   UNL     1      18.348 -33.475  20.097  1.00  0.00     0.000 C 
BRANCH   3   4
ATOM      4  C   UNL     1      17.890 -32.101  20.603  1.00  0.00     0.000 C 
BRANCH   4   5
ATOM      5  C   UNL     1      18.084 -31.983  22.123  1.00  0.00     0.000 C 
BRANCH   5   6
ATOM      6  C   UNL     1      18.652 -33.267  22.749  1.00  0.00     0.006 C 
BRANCH   6   7
ATOM      7  C   UNL     1      17.881 -33.707  23.999  1.00  0.00     0.053 C 
BRANCH   7   8
ATOM      8  C   UNL     1      17.536 -35.161  23.916  1.00  0.00     0.041 C 
ATOM      9  O   UNL     1      17.664 -35.780  22.828  1.00  0.00    -0.550 OA
ATOM     10  O   UNL     1      17.025 -35.819  25.028  1.00  0.00    -0.550 OA
ENDBRANCH   7   8
ENDBRANCH   6   7
ENDBRANCH   5   6
ENDBRANCH   4   5
ENDBRANCH   3   4
ENDBRANCH   2   3
ENDBRANCH   1   2
BRANCH   1  11
ATOM     11  C   UNL     1      15.447 -35.080  20.249  1.00  0.00     0.000 C 
BRANCH  11  12
ATOM     12  C   UNL     1      14.626 -33.865  19.762  1.00  0.00    -0.000 C 
BRANCH  12  13
ATOM     13  C   UNL     1      14.275 -32.868  20.883  1.00  0.00    -0.000 C 
BRANCH  13  14
ATOM     14  C   UNL     1      14.701 -33.310  22.296  1.00  0.00    -0.000 C 
BRANCH  14  15
ATOM     15  C   UNL     1      14.482 -32.258  23.404  1.00  0.00    -0.000 C 
BRANCH  15  16
ATOM     16  C   UNL     1      13.537 -31.102  23.032  1.00  0.00    -0.000 C 
BRANCH  16  17
ATOM     17  C   UNL     1      14.192 -29.722  23.184  1.00  0.00    -0.003 C 
ATOM     18  C   UNL     1      15.035 -29.375  21.960  1.00  0.00     0.004 C 
ENDBRANCH  16  17
ENDBRANCH  15  16
ENDBRANCH  14  15
ENDBRANCH  13  14
ENDBRANCH  12  13
ENDBRANCH  11  12
ENDBRANCH   1  11
TORSDOF 14
ENDMDL
MODEL 8
REMARK VINA RESULT:    -4.486      3.934      6.793
REMARK INTER + INTRA:         -10.182
REMARK INTER:                  -7.808
REMARK INTRA:                  -2.374
REMARK UNBOUND:                -2.025
REMARK SMILES CCCCCCCCCCCCCCCC(=O)[O-]
REMARK SMILES IDX 9 1 10 2 11 3 12 4 13 5 14 6 15 7 16 8 17 9 18 10 8 11 7 12
REMARK SMILES IDX 6 13 5 14 4 15 3 16 2 17 1 18
REMARK H PARENT
REMARK Flexibility Score: inf
ROOT
ATOM      1  C   UNL     1      16.249 -29.972  23.312  1.00  0.00     0.000 C 
ENDROOT
BRANCH   1   2
ATOM      2  C   UNL     1      17.363 -30.785  22.635  1.00  0.00     0.000 C 
BRANCH   2   3
ATOM      3  C   UNL     1      17.244 -30.793  21.103  1.00  0.00     0.000 C 
BRANCH   3   4
ATOM      4  C   UNL     1      18.015 -31.973  20.498  1.00  0.00     0.000 C 
BRANCH   4   5
ATOM      5  C   UNL     1      18.814 -32.719  21.578  1.00  0.00     0.000 C 
BRANCH   5   6
ATOM      6  C   UNL     1      18.703 -34.246  21.449  1.00  0.00     0.006 C 
BRANCH   6   7
ATOM      7  C   UNL     1      18.344 -34.695  20.026  1.00  0.00     0.053 C 
BRANCH   7   8
ATOM      8  C   UNL     1      17.844 -36.106  20.034  1.00  0.00     0.041 C 
ATOM      9  O   UNL     1      17.117 -36.524  19.095  1.00  0.00    -0.550 OA
ATOM     10  O   UNL     1      18.139 -36.942  21.103  1.00  0.00    -0.550 OA
ENDBRANCH   7   8
ENDBRANCH   6   7
ENDBRANCH   5   6
ENDBRANCH   4   5
ENDBRANCH   3   4
ENDBRANCH   2   3
ENDBRANCH   1   2
BRANCH   1  11
ATOM     11  C   UNL     1      15.501 -29.056  22.327  1.00  0.00     0.000 C 
BRANCH  11  12
ATOM     12  C   UNL     1      14.037 -28.804  22.754  1.00  0.00    -0.000 C 
BRANCH  12  13
ATOM     13  C   UNL     1      13.226 -30.095  22.969  1.00  0.00    -0.000 C 
BRANCH  13  14
ATOM     14  C   UNL     1      12.684 -30.740  21.679  1.00  0.00    -0.000 C 
BRANCH  14  15
ATOM     15  C   UNL     1      13.577 -31.843  21.073  1.00  0.00    -0.000 C 
BRANCH  15  16
ATOM     16  C   UNL     1      14.263 -32.765  22.097  1.00  0.00    -0.000 C 
BRANCH  16  17
ATOM     17  C   UNL     1      15.003 -33.940  21.441  1.00  0.00    -0.003 C 
ATOM     18  C   UNL     1      14.716 -34.002  19.943  1.00  0.00     0.004 C 
ENDBRANCH  16  17
ENDBRANCH  15  16
ENDBRANCH  14  15
ENDBRANCH  13  14
ENDBRANCH  12  13
ENDBRANCH  11  12
ENDBRANCH   1  11
TORSDOF 14
ENDMDL
MODEL 9
REMARK VINA RESULT:    -4.454      1.507      3.414
REMARK INTER + INTRA:         -10.123
REMARK INTER:                  -8.012
REMARK INTRA:                  -2.112
REMARK UNBOUND:                -2.025
REMARK SMILES CCCCCCCCCCCCCCCC(=O)[O-]
REMARK SMILES IDX 9 1 10 2 11 3 12 4 13 5 14 6 15 7 16 8 17 9 18 10 8 11 7 12
REMARK SMILES IDX 6 13 5 14 4 15 3 16 2 17 1 18
REMARK H PARENT
REMARK Flexibility Score: inf
ROOT
ATOM      1  C   UNL     1      18.567 -34.713  23.435  1.00  0.00     0.000 C 
ENDROOT
BRANCH   1   2
ATOM      2  C   UNL     1      17.082 -35.110  23.438  1.00  0.00     0.000 C 
BRANCH   2   3
ATOM      3  C   UNL     1      16.151 -33.920  23.716  1.00  0.00     0.000 C 
BRANCH   3   4
ATOM      4  C   UNL     1      15.055 -33.818  22.647  1.00  0.00     0.000 C 
BRANCH   4   5
ATOM      5  C   UNL     1      14.663 -32.353  22.400  1.00  0.00     0.000 C 
BRANCH   5   6
ATOM      6  C   UNL     1      13.947 -31.720  23.603  1.00  0.00     0.006 C 
BRANCH   6   7
ATOM      7  C   UNL     1      14.045 -30.190  23.612  1.00  0.00     0.053 C 
BRANCH   7   8
ATOM      8  C   UNL     1      12.684 -29.578  23.491  1.00  0.00     0.041 C 
ATOM      9  O   UNL     1      12.253 -28.811  24.391  1.00  0.00    -0.550 OA
ATOM     10  O   UNL     1      11.872 -29.897  22.409  1.00  0.00    -0.550 OA
ENDBRANCH   7   8
ENDBRANCH   6   7
ENDBRANCH   5   6
ENDBRANCH   4   5
ENDBRANCH   3   4
ENDBRANCH   2   3
ENDBRANCH   1   2
BRANCH   1  11
ATOM     11  C   UNL     1      18.773 -33.189  23.365  1.00  0.00     0.000 C 
BRANCH  11  12
ATOM     12  C   UNL     1      19.654 -32.770  22.167  1.00  0.00    -0.000 C 
BRANCH  12  13
ATOM     13  C   UNL     1      18.937 -31.841  21.169  1.00  0.00    -0.000 C 
BRANCH  13  14
ATOM     14  C   UNL     1      17.761 -32.489  20.413  1.00  0.00    -0.000 C 
BRANCH  14  15
ATOM     15  C   UNL     1      18.068 -33.860  19.776  1.00  0.00    -0.000 C 
BRANCH  15  16
ATOM     16  C   UNL     1      16.871 -34.549  19.098  1.00  0.00    -0.000 C 
BRANCH  16  17
ATOM     17  C   UNL     1      16.379 -35.784  19.866  1.00  0.00    -0.003 C 
ATOM     18  C   UNL     1      17.466 -36.853  19.943  1.00  0.00     0.004 C 
ENDBRANCH  16  17
ENDBRANCH  15  16
ENDBRANCH  14  15
ENDBRANCH  13  14
ENDBRANCH  12  13
ENDBRANCH  11  12
ENDBRANCH   1  11
TORSDOF 14
ENDMDL
