MODEL 1
REMARK VINA RESULT:    -2.769      0.000      0.000
REMARK INTER + INTRA:          -2.769
REMARK INTER:                  -2.769
REMARK INTRA:                   0.000
REMARK UNBOUND:                 0.000
REMARK SMILES CC(=O)[O-]
REMARK SMILES IDX 1 1 2 2 3 3 4 4
REMARK H PARENT
REMARK Flexibility Score: inf
ROOT
ATOM      1  C   UNL     1      24.145   7.881   7.869  1.00  0.00     0.063 C 
ATOM      2  C   UNL     1      25.545   7.676   8.341  1.00  0.00     0.038 C 
ATOM      3  O   UNL     1      26.011   6.511   8.446  1.00  0.00    -0.550 OA
ATOM      4  O   UNL     1      26.319   8.765   8.719  1.00  0.00    -0.550 OA
ENDROOT
TORSDOF 0
ENDMDL
MODEL 2
REMARK VINA RESULT:    -2.342      1.300      1.817
REMARK INTER + INTRA:          -2.342
REMARK INTER:                  -2.342
REMARK INTRA:                   0.000
REMARK UNBOUND:                 0.000
REMARK SMILES CC(=O)[O-]
REMARK SMILES IDX 1 1 2 2 3 3 4 4
REMARK H PARENT
REMARK Flexibility Score: inf
ROOT
ATOM      1  C   UNL     1      27.124   8.271   8.510  1.00  0.00     0.063 C 
ATOM      2  C   UNL     1      25.817   7.608   8.232  1.00  0.00     0.038 C 
ATOM      3  O   UNL     1      25.703   6.360   8.358  1.00  0.00    -0.550 OA
ATOM      4  O   UNL     1      24.739   8.356   7.779  1.00  0.00    -0.550 OA
ENDROOT
TORSDOF 0
ENDMDL
MODEL 3
REMARK VINA RESULT:    -2.245     17.362     17.796
REMARK INTER + INTRA:          -2.245
REMARK INTER:                  -2.245
REMARK INTRA:                   0.000
REMARK UNBOUND:                 0.000
REMARK SMILES CC(=O)[O-]
REMARK SMILES IDX 1 1 2 2 3 3 4 4
REMARK H PARENT
REMARK Flexibility Score: inf
ROOT
ATOM      1  C   UNL     1      10.614  15.816  16.731  1.00  0.00     0.063 C 
ATOM      2  C   UNL     1      12.105  15.758  16.717  1.00  0.00     0.038 C 
ATOM      3  O   UNL     1      12.731  15.365  17.736  1.00  0.00    -0.550 OA
ATOM      4  O   UNL     1      12.808  16.190  15.601  1.00  0.00    -0.550 OA
ENDROOT
TORSDOF 0
ENDMDL
MODEL 4
REMARK VINA RESULT:    -2.214     17.501     17.898
REMARK INTER + INTRA:          -2.214
REMARK INTER:                  -2.214
REMARK INTRA:                   0.000
REMARK UNBOUND:                 0.000
REMARK SMILES CC(=O)[O-]
REMARK SMILES IDX 1 1 2 2 3 3 4 4
REMARK H PARENT
REMARK Flexibility Score: inf
ROOT
ATOM      1  C   UNL     1      10.631  15.880  16.864  1.00  0.00     0.063 C 
ATOM      2  C   UNL     1      12.120  15.901  16.783  1.00  0.00     0.038 C 
ATOM      3  O   UNL     1      12.690  16.287  15.729  1.00  0.00    -0.550 OA
ATOM      4  O   UNL     1      12.882  15.441  17.849  1.00  0.00    -0.550 OA
ENDROOT
TORSDOF 0
ENDMDL
MODEL 5
REMARK VINA RESULT:    -2.159      1.472      2.026
REMARK INTER + INTRA:          -2.159
REMARK INTER:                  -2.159
REMARK INTRA:                   0.000
REMARK UNBOUND:                 0.000
REMARK SMILES CC(=O)[O-]
REMARK SMILES IDX 1 1 2 2 3 3 4 4
REMARK H PARENT
REMARK Flexibility Score: inf
ROOT
ATOM      1  C   UNL     1      26.046   6.580   8.424  1.00  0.00     0.063 C 
ATOM      2  C   UNL     1      25.639   8.013   8.345  1.00  0.00     0.038 C 
ATOM      3  O   UNL     1      26.390   8.909   8.811  1.00  0.00    -0.550 OA
ATOM      4  O   UNL     1      24.405   8.357   7.810  1.00  0.00    -0.550 OA
ENDROOT
TORSDOF 0
ENDMDL
MODEL 6
REMARK VINA RESULT:    -2.126     17.417     17.762
REMARK INTER + INTRA:          -2.126
REMARK INTER:                  -2.126
REMARK INTRA:                   0.000
REMARK UNBOUND:                 0.000
REMARK SMILES CC(=O)[O-]
REMARK SMILES IDX 1 1 2 2 3 3 4 4
REMARK H PARENT
REMARK Flexibility Score: inf
ROOT
ATOM      1  C   UNL     1      12.596  16.535  15.671  1.00  0.00     0.063 C 
ATOM      2  C   UNL     1      12.146  15.677  16.804  1.00  0.00     0.038 C 
ATOM      3  O   UNL     1      10.978  15.204  16.813  1.00  0.00    -0.550 OA
ATOM      4  O   UNL     1      12.992  15.442  17.879  1.00  0.00    -0.550 OA
ENDROOT
TORSDOF 0
ENDMDL
MODEL 7
REMARK VINA RESULT:    -2.121     18.433     18.793
REMARK INTER + INTRA:          -2.121
REMARK INTER:                  -2.121
REMARK INTRA:                   0.000
REMARK UNBOUND:                 0.000
REMARK SMILES CC(=O)[O-]
REMARK SMILES IDX 1 1 2 2 3 3 4 4
REMARK H PARENT
REMARK Flexibility Score: inf
ROOT
ATOM      1  C   UNL     1      11.325  15.340  16.856  1.00  0.00     0.063 C 
ATOM      2  C   UNL     1      11.237  16.749  16.377  1.00  0.00     0.038 C 
ATOM      3  O   UNL     1      11.369  17.702  17.189  1.00  0.00    -0.550 OA
ATOM      4  O   UNL     1      10.952  17.016  15.044  1.00  0.00    -0.550 OA
ENDROOT
TORSDOF 0
ENDMDL
MODEL 8
REMARK VINA RESULT:    -2.107     17.527     17.971
REMARK INTER + INTRA:          -2.107
REMARK INTER:                  -2.107
REMARK INTRA:                   0.000
REMARK UNBOUND:                 0.000
REMARK SMILES CC(=O)[O-]
REMARK SMILES IDX 1 1 2 2 3 3 4 4
REMARK H PARENT
REMARK Flexibility Score: inf
ROOT
ATOM      1  C   UNL     1      12.446  16.598  15.545  1.00  0.00     0.063 C 
ATOM      2  C   UNL     1      11.878  15.790  16.663  1.00  0.00     0.038 C 
ATOM      3  O   UNL     1      12.625  15.386  17.592  1.00  0.00    -0.550 OA
ATOM      4  O   UNL     1      10.536  15.433  16.653  1.00  0.00    -0.550 OA
ENDROOT
TORSDOF 0
ENDMDL
MODEL 9
REMARK VINA RESULT:    -1.721     18.697     19.182
REMARK INTER + INTRA:          -1.721
REMARK INTER:                  -1.721
REMARK INTRA:                   0.000
REMARK UNBOUND:                 0.000
REMARK SMILES CC(=O)[O-]
REMARK SMILES IDX 1 1 2 2 3 3 4 4
REMARK H PARENT
REMARK Flexibility Score: inf
ROOT
ATOM      1  C   UNL     1       9.830  16.587  11.962  1.00  0.00     0.063 C 
ATOM      2  C   UNL     1       8.634  16.260  11.134  1.00  0.00     0.038 C 
ATOM      3  O   UNL     1       7.547  15.949  11.689  1.00  0.00    -0.550 OA
ATOM      4  O   UNL     1       8.729  16.242   9.749  1.00  0.00    -0.550 OA
ENDROOT
TORSDOF 0
ENDMDL
