MODEL 1
REMARK VINA RESULT:    -5.315      0.000      0.000
REMARK INTER + INTRA:          -6.140
REMARK INTER:                  -5.937
REMARK INTRA:                  -0.203
REMARK UNBOUND:                -0.203
REMARK SMILES CC(C)c1ccc(C(=O)[O-])cc1
REMARK SMILES IDX 7 1 6 2 11 3 5 4 12 5 4 6 8 7 9 8 10 9 2 10 1 11 3 12
REMARK H PARENT
REMARK Flexibility Score: inf
ROOT
ATOM      1  C   UNL     1      40.829  18.403  10.639  1.00  0.00    -0.003 A 
ATOM      2  C   UNL     1      39.870  18.412   9.612  1.00  0.00     0.010 A 
ATOM      3  C   UNL     1      40.403  18.238  11.968  1.00  0.00     0.010 A 
ATOM      4  C   UNL     1      38.513  18.259   9.908  1.00  0.00     0.004 A 
ATOM      5  C   UNL     1      39.045  18.085  12.263  1.00  0.00     0.004 A 
ATOM      6  C   UNL     1      38.085  18.093  11.238  1.00  0.00    -0.045 A 
ENDROOT
BRANCH   1   7
ATOM      7  C   UNL     1      42.265  18.565  10.321  1.00  0.00     0.071 C 
ATOM      8  O   UNL     1      42.785  19.712  10.275  1.00  0.00    -0.545 OA
ATOM      9  O   UNL     1      43.062  17.454  10.069  1.00  0.00    -0.545 OA
ENDBRANCH   1   7
BRANCH   6  10
ATOM     10  C   UNL     1      36.614  17.927  11.574  1.00  0.00     0.013 C 
ATOM     11  C   UNL     1      36.188  16.458  11.478  1.00  0.00     0.012 C 
ATOM     12  C   UNL     1      36.295  18.504  12.959  1.00  0.00     0.012 C 
ENDBRANCH   6  10
TORSDOF 2
ENDMDL
MODEL 2
REMARK VINA RESULT:    -5.293      1.422      2.015
REMARK INTER + INTRA:          -6.115
REMARK INTER:                  -5.911
REMARK INTRA:                  -0.204
REMARK UNBOUND:                -0.203
REMARK SMILES CC(C)c1ccc(C(=O)[O-])cc1
REMARK SMILES IDX 7 1 6 2 11 3 5 4 12 5 4 6 8 7 9 8 10 9 2 10 1 11 3 12
REMARK H PARENT
REMARK Flexibility Score: inf
ROOT
ATOM      1  C   UNL     1      39.175  18.216  10.535  1.00  0.00    -0.003 A 
ATOM      2  C   UNL     1      37.972  18.226   9.810  1.00  0.00     0.010 A 
ATOM      3  C   UNL     1      39.123  18.208  11.940  1.00  0.00     0.010 A 
ATOM      4  C   UNL     1      36.743  18.228  10.475  1.00  0.00     0.004 A 
ATOM      5  C   UNL     1      37.894  18.209  12.605  1.00  0.00     0.004 A 
ATOM      6  C   UNL     1      36.691  18.218  11.881  1.00  0.00    -0.045 A 
ENDROOT
BRANCH   1   7
ATOM      7  C   UNL     1      40.474  18.216   9.827  1.00  0.00     0.071 C 
ATOM      8  O   UNL     1      41.426  18.935  10.233  1.00  0.00    -0.545 OA
ATOM      9  O   UNL     1      40.664  17.420   8.703  1.00  0.00    -0.545 OA
ENDBRANCH   1   7
BRANCH   6  10
ATOM     10  C   UNL     1      35.362  18.220  12.617  1.00  0.00     0.013 C 
ATOM     11  C   UNL     1      34.424  19.296  12.060  1.00  0.00     0.012 C 
ATOM     12  C   UNL     1      34.704  16.836  12.570  1.00  0.00     0.012 C 
ENDBRANCH   6  10
TORSDOF 2
ENDMDL
MODEL 3
REMARK VINA RESULT:    -5.266      1.379      2.377
REMARK INTER + INTRA:          -6.085
REMARK INTER:                  -5.878
REMARK INTRA:                  -0.207
REMARK UNBOUND:                -0.203
REMARK SMILES CC(C)c1ccc(C(=O)[O-])cc1
REMARK SMILES IDX 7 1 6 2 11 3 5 4 12 5 4 6 8 7 9 8 10 9 2 10 1 11 3 12
REMARK H PARENT
REMARK Flexibility Score: inf
ROOT
ATOM      1  C   UNL     1      39.245  18.194  10.571  1.00  0.00    -0.003 A 
ATOM      2  C   UNL     1      39.215  18.202  11.975  1.00  0.00     0.010 A 
ATOM      3  C   UNL     1      38.030  18.178   9.864  1.00  0.00     0.010 A 
ATOM      4  C   UNL     1      37.997  18.196  12.659  1.00  0.00     0.004 A 
ATOM      5  C   UNL     1      36.811  18.172  10.549  1.00  0.00     0.004 A 
ATOM      6  C   UNL     1      36.780  18.181  11.952  1.00  0.00    -0.045 A 
ENDROOT
BRANCH   1   7
ATOM      7  C   UNL     1      40.537  18.200   9.851  1.00  0.00     0.071 C 
ATOM      8  O   UNL     1      41.465  18.975  10.206  1.00  0.00    -0.545 OA
ATOM      9  O   UNL     1      40.748  17.348   8.773  1.00  0.00    -0.545 OA
ENDBRANCH   1   7
BRANCH   6  10
ATOM     10  C   UNL     1      35.449  18.174  12.682  1.00  0.00     0.013 C 
ATOM     11  C   UNL     1      34.468  19.170  12.054  1.00  0.00     0.012 C 
ATOM     12  C   UNL     1      34.851  16.762  12.725  1.00  0.00     0.012 C 
ENDBRANCH   6  10
TORSDOF 2
ENDMDL
MODEL 4
REMARK VINA RESULT:    -5.248      0.743      2.023
REMARK INTER + INTRA:          -6.065
REMARK INTER:                  -5.851
REMARK INTRA:                  -0.214
REMARK UNBOUND:                -0.203
REMARK SMILES CC(C)c1ccc(C(=O)[O-])cc1
REMARK SMILES IDX 7 1 6 2 11 3 5 4 12 5 4 6 8 7 9 8 10 9 2 10 1 11 3 12
REMARK H PARENT
REMARK Flexibility Score: inf
ROOT
ATOM      1  C   UNL     1      40.723  18.432  10.839  1.00  0.00    -0.003 A 
ATOM      2  C   UNL     1      40.095  18.254  12.083  1.00  0.00     0.010 A 
ATOM      3  C   UNL     1      39.933  18.467   9.677  1.00  0.00     0.010 A 
ATOM      4  C   UNL     1      38.707  18.114  12.164  1.00  0.00     0.004 A 
ATOM      5  C   UNL     1      38.544  18.327   9.758  1.00  0.00     0.004 A 
ATOM      6  C   UNL     1      37.916  18.150  11.001  1.00  0.00    -0.045 A 
ENDROOT
BRANCH   1   7
ATOM      7  C   UNL     1      42.192  18.578  10.758  1.00  0.00     0.071 C 
ATOM      8  O   UNL     1      42.950  17.626  11.084  1.00  0.00    -0.545 OA
ATOM      9  O   UNL     1      42.759  19.770  10.320  1.00  0.00    -0.545 OA
ENDBRANCH   1   7
BRANCH   6  10
ATOM     10  C   UNL     1      36.407  17.999  11.075  1.00  0.00     0.013 C 
ATOM     11  C   UNL     1      35.872  18.445  12.440  1.00  0.00     0.012 C 
ATOM     12  C   UNL     1      35.720  18.763   9.936  1.00  0.00     0.012 C 
ENDBRANCH   6  10
TORSDOF 2
ENDMDL
MODEL 5
REMARK VINA RESULT:    -5.199      3.913      5.016
REMARK INTER + INTRA:          -6.010
REMARK INTER:                  -5.789
REMARK INTRA:                  -0.221
REMARK UNBOUND:                -0.203
REMARK SMILES CC(C)c1ccc(C(=O)[O-])cc1
REMARK SMILES IDX 7 1 6 2 11 3 5 4 12 5 4 6 8 7 9 8 10 9 2 10 1 11 3 12
REMARK H PARENT
REMARK Flexibility Score: inf
ROOT
ATOM      1  C   UNL     1      36.411  19.194   8.025  1.00  0.00    -0.003 A 
ATOM      2  C   UNL     1      35.502  18.952   9.068  1.00  0.00     0.010 A 
ATOM      3  C   UNL     1      37.781  18.980   8.254  1.00  0.00     0.010 A 
ATOM      4  C   UNL     1      35.953  18.506  10.314  1.00  0.00     0.004 A 
ATOM      5  C   UNL     1      38.232  18.534   9.499  1.00  0.00     0.004 A 
ATOM      6  C   UNL     1      37.325  18.291  10.542  1.00  0.00    -0.045 A 
ENDROOT
BRANCH   1   7
ATOM      7  C   UNL     1      35.929  19.666   6.709  1.00  0.00     0.071 C 
ATOM      8  O   UNL     1      36.718  19.749   5.730  1.00  0.00    -0.545 OA
ATOM      9  O   UNL     1      34.598  20.025   6.533  1.00  0.00    -0.545 OA
ENDBRANCH   1   7
BRANCH   6  10
ATOM     10  C   UNL     1      37.829  17.807  11.890  1.00  0.00     0.013 C 
ATOM     11  C   UNL     1      39.324  18.098  12.058  1.00  0.00     0.012 C 
ATOM     12  C   UNL     1      37.015  18.421  13.037  1.00  0.00     0.012 C 
ENDBRANCH   6  10
TORSDOF 2
ENDMDL
MODEL 6
REMARK VINA RESULT:    -5.189      2.224      3.243
REMARK INTER + INTRA:          -5.998
REMARK INTER:                  -5.794
REMARK INTRA:                  -0.204
REMARK UNBOUND:                -0.203
REMARK SMILES CC(C)c1ccc(C(=O)[O-])cc1
REMARK SMILES IDX 7 1 6 2 11 3 5 4 12 5 4 6 8 7 9 8 10 9 2 10 1 11 3 12
REMARK H PARENT
REMARK Flexibility Score: inf
ROOT
ATOM      1  C   UNL     1      38.016  17.878  11.641  1.00  0.00    -0.003 A 
ATOM      2  C   UNL     1      37.273  16.918  10.936  1.00  0.00     0.010 A 
ATOM      3  C   UNL     1      37.427  18.517  12.746  1.00  0.00     0.010 A 
ATOM      4  C   UNL     1      35.968  16.602  11.326  1.00  0.00     0.004 A 
ATOM      5  C   UNL     1      36.123  18.201  13.137  1.00  0.00     0.004 A 
ATOM      6  C   UNL     1      35.379  17.241  12.433  1.00  0.00    -0.045 A 
ENDROOT
BRANCH   1   7
ATOM      7  C   UNL     1      39.396  18.209  11.224  1.00  0.00     0.071 C 
ATOM      8  O   UNL     1      40.337  18.201  12.061  1.00  0.00    -0.545 OA
ATOM      9  O   UNL     1      39.674  18.533   9.901  1.00  0.00    -0.545 OA
ENDBRANCH   1   7
BRANCH   6  10
ATOM     10  C   UNL     1      33.963  16.908  12.868  1.00  0.00     0.013 C 
ATOM     11  C   UNL     1      33.943  16.322  14.284  1.00  0.00     0.012 C 
ATOM     12  C   UNL     1      33.051  18.137  12.766  1.00  0.00     0.012 C 
ENDBRANCH   6  10
TORSDOF 2
ENDMDL
MODEL 7
REMARK VINA RESULT:    -5.165      3.071      5.005
REMARK INTER + INTRA:          -5.972
REMARK INTER:                  -5.767
REMARK INTRA:                  -0.204
REMARK UNBOUND:                -0.203
REMARK SMILES CC(C)c1ccc(C(=O)[O-])cc1
REMARK SMILES IDX 7 1 6 2 11 3 5 4 12 5 4 6 8 7 9 8 10 9 2 10 1 11 3 12
REMARK H PARENT
REMARK Flexibility Score: inf
ROOT
ATOM      1  C   UNL     1      37.976  18.129  10.876  1.00  0.00    -0.003 A 
ATOM      2  C   UNL     1      38.636  18.198   9.638  1.00  0.00     0.010 A 
ATOM      3  C   UNL     1      38.741  18.090  12.054  1.00  0.00     0.010 A 
ATOM      4  C   UNL     1      40.032  18.227   9.579  1.00  0.00     0.004 A 
ATOM      5  C   UNL     1      40.137  18.120  11.995  1.00  0.00     0.004 A 
ATOM      6  C   UNL     1      40.799  18.189  10.758  1.00  0.00    -0.045 A 
ENDROOT
BRANCH   1   7
ATOM      7  C   UNL     1      36.498  18.098  10.933  1.00  0.00     0.071 C 
ATOM      8  O   UNL     1      35.905  17.375  11.777  1.00  0.00    -0.545 OA
ATOM      9  O   UNL     1      35.742  18.867  10.057  1.00  0.00    -0.545 OA
ENDBRANCH   1   7
BRANCH   6  10
ATOM     10  C   UNL     1      42.316  18.220  10.709  1.00  0.00     0.013 C 
ATOM     11  C   UNL     1      42.863  17.104   9.812  1.00  0.00     0.012 C 
ATOM     12  C   UNL     1      42.826  19.593  10.255  1.00  0.00     0.012 C 
ENDBRANCH   6  10
TORSDOF 2
ENDMDL
MODEL 8
REMARK VINA RESULT:    -5.163      3.699      5.385
REMARK INTER + INTRA:          -5.970
REMARK INTER:                  -5.761
REMARK INTRA:                  -0.209
REMARK UNBOUND:                -0.203
REMARK SMILES CC(C)c1ccc(C(=O)[O-])cc1
REMARK SMILES IDX 7 1 6 2 11 3 5 4 12 5 4 6 8 7 9 8 10 9 2 10 1 11 3 12
REMARK H PARENT
REMARK Flexibility Score: inf
ROOT
ATOM      1  C   UNL     1      36.476  18.031  11.635  1.00  0.00    -0.003 A 
ATOM      2  C   UNL     1      36.622  18.241  10.254  1.00  0.00     0.010 A 
ATOM      3  C   UNL     1      37.627  17.975  12.441  1.00  0.00     0.010 A 
ATOM      4  C   UNL     1      37.891  18.393   9.690  1.00  0.00     0.004 A 
ATOM      5  C   UNL     1      38.896  18.128  11.876  1.00  0.00     0.004 A 
ATOM      6  C   UNL     1      39.043  18.338  10.495  1.00  0.00    -0.045 A 
ENDROOT
BRANCH   1   7
ATOM      7  C   UNL     1      35.131  17.869  12.228  1.00  0.00     0.071 C 
ATOM      8  O   UNL     1      34.741  16.743  12.637  1.00  0.00    -0.545 OA
ATOM      9  O   UNL     1      34.276  18.960  12.345  1.00  0.00    -0.545 OA
ENDBRANCH   1   7
BRANCH   6  10
ATOM     10  C   UNL     1      40.428  18.501   9.896  1.00  0.00     0.013 C 
ATOM     11  C   UNL     1      41.507  18.496  10.985  1.00  0.00     0.012 C 
ATOM     12  C   UNL     1      40.704  17.423   8.841  1.00  0.00     0.012 C 
ENDBRANCH   6  10
TORSDOF 2
ENDMDL
MODEL 9
REMARK VINA RESULT:    -5.152      3.725      5.581
REMARK INTER + INTRA:          -5.957
REMARK INTER:                  -5.748
REMARK INTRA:                  -0.209
REMARK UNBOUND:                -0.203
REMARK SMILES CC(C)c1ccc(C(=O)[O-])cc1
REMARK SMILES IDX 7 1 6 2 11 3 5 4 12 5 4 6 8 7 9 8 10 9 2 10 1 11 3 12
REMARK H PARENT
REMARK Flexibility Score: inf
ROOT
ATOM      1  C   UNL     1      36.400  18.073  11.653  1.00  0.00    -0.003 A 
ATOM      2  C   UNL     1      37.553  18.003  12.451  1.00  0.00     0.010 A 
ATOM      3  C   UNL     1      36.541  18.281  10.270  1.00  0.00     0.010 A 
ATOM      4  C   UNL     1      38.822  18.138  11.880  1.00  0.00     0.004 A 
ATOM      5  C   UNL     1      37.809  18.416   9.698  1.00  0.00     0.004 A 
ATOM      6  C   UNL     1      38.963  18.346  10.495  1.00  0.00    -0.045 A 
ENDROOT
BRANCH   1   7
ATOM      7  C   UNL     1      35.060  17.930  12.262  1.00  0.00     0.071 C 
ATOM      8  O   UNL     1      34.678  16.819  12.717  1.00  0.00    -0.545 OA
ATOM      9  O   UNL     1      34.202  19.021  12.343  1.00  0.00    -0.545 OA
ENDBRANCH   1   7
BRANCH   6  10
ATOM     10  C   UNL     1      40.335  18.495   9.861  1.00  0.00     0.013 C 
ATOM     11  C   UNL     1      41.441  18.455  10.920  1.00  0.00     0.012 C 
ATOM     12  C   UNL     1      40.563  17.427   8.783  1.00  0.00     0.012 C 
ENDBRANCH   6  10
TORSDOF 2
ENDMDL
