MODEL 1
REMARK VINA RESULT:    -7.506      0.000      0.000
REMARK INTER + INTRA:         -10.767
REMARK INTER:                 -10.139
REMARK INTRA:                  -0.627
REMARK UNBOUND:                -0.627
REMARK SMILES O=c1c(-c2ccc(O)cc2)coc2c([C@H]3O[C@H](CO)[C@@H](O)[C@@H](O)[C@@H]3O)c(O)ccc12
REMARK SMILES IDX 3 1 11 2 12 3 13 4 30 5 2 6 1 7 29 8 28 9 26 10 14 11 4 12
REMARK SMILES IDX 5 13 6 14 7 15 10 16 9 17 8 18 15 20 24 21 16 22 22 23 17 24
REMARK SMILES IDX 20 25 25 26 23 28 18 30 19 31 21 33 27 35
REMARK H PARENT 8 19 25 27 23 29 19 32 21 34 27 36
REMARK Flexibility Score: inf
ROOT
ATOM      1  C   UNL     1      31.193   9.077  33.729  1.00  0.00     0.065 A 
ATOM      2  C   UNL     1      30.565   8.481  32.635  1.00  0.00     0.208 A 
ATOM      3  O   UNL     1      30.681   8.996  31.419  1.00  0.00    -0.463 OA
ATOM      4  C   UNL     1      31.403  10.088  31.147  1.00  0.00     0.147 A 
ATOM      5  C   UNL     1      32.076  10.751  32.211  1.00  0.00     0.066 A 
ATOM      6  C   UNL     1      31.959  10.235  33.512  1.00  0.00     0.200 A 
ATOM      7  O   UNL     1      32.524  10.810  34.486  1.00  0.00    -0.288 OA
ATOM      8  C   UNL     1      32.873  11.878  31.967  1.00  0.00     0.020 A 
ATOM      9  C   UNL     1      33.021  12.350  30.678  1.00  0.00     0.047 A 
ATOM     10  C   UNL     1      32.388  11.720  29.601  1.00  0.00     0.125 A 
ATOM     11  C   UNL     1      31.552  10.585  29.817  1.00  0.00     0.069 A 
ENDROOT
BRANCH   1  12
ATOM     12  C   UNL     1      31.123   8.512  35.098  1.00  0.00    -0.011 A 
ATOM     13  C   UNL     1      31.547   7.193  35.299  1.00  0.00     0.013 A 
ATOM     14  C   UNL     1      30.915   6.390  36.247  1.00  0.00     0.047 A 
ATOM     15  C   UNL     1      29.895   6.943  37.066  1.00  0.00     0.115 A 
ATOM     16  C   UNL     1      30.253   9.093  36.046  1.00  0.00     0.013 A 
ATOM     17  C   UNL     1      29.634   8.309  37.025  1.00  0.00     0.047 A 
BRANCH  15  18
ATOM     18  O   UNL     1      29.050   6.080  37.781  1.00  0.00    -0.508 OA
ATOM     19  H   UNL     1      29.481   5.250  38.186  1.00  0.00     0.293 HD
ENDBRANCH  15  18
ENDBRANCH   1  12
BRANCH  11  20
ATOM     20  C   UNL     1      31.034   9.836  28.582  1.00  0.00     0.188 C 
ATOM     21  C   UNL     1      31.797   9.924  27.210  1.00  0.00     0.179 C 
ATOM     22  O   UNL     1      29.631  10.034  28.449  1.00  0.00    -0.362 OA
ATOM     23  C   UNL     1      30.790  10.089  26.070  1.00  0.00     0.177 C 
ATOM     24  C   UNL     1      29.334  11.273  27.798  1.00  0.00     0.176 C 
ATOM     25  C   UNL     1      29.885  11.317  26.341  1.00  0.00     0.177 C 
BRANCH  21  26
ATOM     26  O   UNL     1      32.629   8.811  26.984  1.00  0.00    -0.387 OA
ATOM     27  H   UNL     1      32.753   8.311  27.843  1.00  0.00     0.211 HD
ENDBRANCH  21  26
BRANCH  23  28
ATOM     28  O   UNL     1      31.445  10.213  24.831  1.00  0.00    -0.387 OA
ATOM     29  H   UNL     1      32.347   9.789  24.922  1.00  0.00     0.211 HD
ENDBRANCH  23  28
BRANCH  24  30
ATOM     30  C   UNL     1      27.807  11.494  27.812  1.00  0.00     0.191 C 
BRANCH  30  31
ATOM     31  O   UNL     1      27.390  12.212  26.667  1.00  0.00    -0.394 OA
ATOM     32  H   UNL     1      27.549  13.189  26.863  1.00  0.00     0.210 HD
ENDBRANCH  30  31
ENDBRANCH  24  30
BRANCH  25  33
ATOM     33  O   UNL     1      30.550  12.557  26.168  1.00  0.00    -0.388 OA
ATOM     34  H   UNL     1      31.507  12.474  26.395  1.00  0.00     0.211 HD
ENDBRANCH  25  33
ENDBRANCH  11  20
BRANCH  10  35
ATOM     35  O   UNL     1      32.649  12.298  28.348  1.00  0.00    -0.507 OA
ATOM     36  H   UNL     1      32.039  12.907  27.816  1.00  0.00     0.293 HD
ENDBRANCH  10  35
TORSDOF 9
ENDMDL
MODEL 2
REMARK VINA RESULT:    -7.342      2.070      3.072
REMARK INTER + INTRA:         -10.545
REMARK INTER:                  -9.590
REMARK INTRA:                  -0.955
REMARK UNBOUND:                -0.627
REMARK SMILES O=c1c(-c2ccc(O)cc2)coc2c([C@H]3O[C@H](CO)[C@@H](O)[C@@H](O)[C@@H]3O)c(O)ccc12
REMARK SMILES IDX 3 1 11 2 12 3 13 4 30 5 2 6 1 7 29 8 28 9 26 10 14 11 4 12
REMARK SMILES IDX 5 13 6 14 7 15 10 16 9 17 8 18 15 20 24 21 16 22 22 23 17 24
REMARK SMILES IDX 20 25 25 26 23 28 18 30 19 31 21 33 27 35
REMARK H PARENT 8 19 25 27 23 29 19 32 21 34 27 36
REMARK Flexibility Score: inf
ROOT
ATOM      1  C   UNL     1      30.931  10.159  33.203  1.00  0.00     0.065 A 
ATOM      2  C   UNL     1      31.131  11.086  32.180  1.00  0.00     0.208 A 
ATOM      3  O   UNL     1      31.197  10.698  30.913  1.00  0.00    -0.463 OA
ATOM      4  C   UNL     1      31.065   9.426  30.524  1.00  0.00     0.147 A 
ATOM      5  C   UNL     1      30.855   8.422  31.511  1.00  0.00     0.066 A 
ATOM      6  C   UNL     1      30.794   8.802  32.862  1.00  0.00     0.200 A 
ATOM      7  O   UNL     1      30.632   7.936  33.768  1.00  0.00    -0.288 OA
ATOM      8  C   UNL     1      30.675   7.080  31.146  1.00  0.00     0.020 A 
ATOM      9  C   UNL     1      30.688   6.722  29.812  1.00  0.00     0.047 A 
ATOM     10  C   UNL     1      30.877   7.679  28.809  1.00  0.00     0.125 A 
ATOM     11  C   UNL     1      31.087   9.050  29.147  1.00  0.00     0.069 A 
ENDROOT
BRANCH   1  12
ATOM     12  C   UNL     1      30.809  10.552  34.627  1.00  0.00    -0.011 A 
ATOM     13  C   UNL     1      31.979  10.702  35.382  1.00  0.00     0.013 A 
ATOM     14  C   UNL     1      31.989  10.369  36.735  1.00  0.00     0.047 A 
ATOM     15  C   UNL     1      30.784   9.957  37.364  1.00  0.00     0.115 A 
ATOM     16  C   UNL     1      29.591  10.334  35.308  1.00  0.00     0.013 A 
ATOM     17  C   UNL     1      29.578  10.030  36.673  1.00  0.00     0.047 A 
BRANCH  15  18
ATOM     18  O   UNL     1      30.848   9.325  38.616  1.00  0.00    -0.508 OA
ATOM     19  H   UNL     1      31.545   8.589  38.721  1.00  0.00     0.293 HD
ENDBRANCH  15  18
ENDBRANCH   1  12
BRANCH  11  20
ATOM     20  C   UNL     1      31.109  10.070  28.002  1.00  0.00     0.188 C 
ATOM     21  C   UNL     1      31.835  11.454  28.172  1.00  0.00     0.179 C 
ATOM     22  O   UNL     1      29.808  10.193  27.438  1.00  0.00    -0.362 OA
ATOM     23  C   UNL     1      30.974  12.566  27.570  1.00  0.00     0.177 C 
ATOM     24  C   UNL     1      28.990  11.091  28.196  1.00  0.00     0.176 C 
ATOM     25  C   UNL     1      29.562  12.540  28.205  1.00  0.00     0.177 C 
BRANCH  21  26
ATOM     26  O   UNL     1      33.125  11.459  27.606  1.00  0.00    -0.387 OA
ATOM     27  H   UNL     1      33.583  10.595  27.819  1.00  0.00     0.211 HD
ENDBRANCH  21  26
BRANCH  23  28
ATOM     28  O   UNL     1      31.579  13.824  27.744  1.00  0.00    -0.387 OA
ATOM     29  H   UNL     1      31.680  13.978  28.728  1.00  0.00     0.211 HD
ENDBRANCH  23  28
BRANCH  24  30
ATOM     30  C   UNL     1      27.558  11.072  27.620  1.00  0.00     0.191 C 
BRANCH  30  31
ATOM     31  O   UNL     1      26.780  12.118  28.168  1.00  0.00    -0.394 OA
ATOM     32  H   UNL     1      26.884  12.910  27.552  1.00  0.00     0.210 HD
ENDBRANCH  30  31
ENDBRANCH  24  30
BRANCH  25  33
ATOM     33  O   UNL     1      29.537  13.006  29.544  1.00  0.00    -0.388 OA
ATOM     34  H   UNL     1      28.684  13.464  29.737  1.00  0.00     0.211 HD
ENDBRANCH  25  33
ENDBRANCH  11  20
BRANCH  10  35
ATOM     35  O   UNL     1      30.845   7.172  27.501  1.00  0.00    -0.507 OA
ATOM     36  H   UNL     1      30.235   6.447  27.140  1.00  0.00     0.293 HD
ENDBRANCH  10  35
TORSDOF 9
ENDMDL
MODEL 3
REMARK VINA RESULT:    -7.341      1.940      3.364
REMARK INTER + INTRA:         -10.543
REMARK INTER:                 -10.167
REMARK INTRA:                  -0.376
REMARK UNBOUND:                -0.627
REMARK SMILES O=c1c(-c2ccc(O)cc2)coc2c([C@H]3O[C@H](CO)[C@@H](O)[C@@H](O)[C@@H]3O)c(O)ccc12
REMARK SMILES IDX 3 1 11 2 12 3 13 4 30 5 2 6 1 7 29 8 28 9 26 10 14 11 4 12
REMARK SMILES IDX 5 13 6 14 7 15 10 16 9 17 8 18 15 20 24 21 16 22 22 23 17 24
REMARK SMILES IDX 20 25 25 26 23 28 18 30 19 31 21 33 27 35
REMARK H PARENT 8 19 25 27 23 29 19 32 21 34 27 36
REMARK Flexibility Score: inf
ROOT
ATOM      1  C   UNL     1      31.122   8.640  31.858  1.00  0.00     0.065 A 
ATOM      2  C   UNL     1      31.682   9.584  30.998  1.00  0.00     0.208 A 
ATOM      3  O   UNL     1      31.325   9.639  29.722  1.00  0.00    -0.463 OA
ATOM      4  C   UNL     1      30.413   8.828  29.176  1.00  0.00     0.147 A 
ATOM      5  C   UNL     1      29.795   7.840  29.992  1.00  0.00     0.066 A 
ATOM      6  C   UNL     1      30.164   7.750  31.344  1.00  0.00     0.200 A 
ATOM      7  O   UNL     1      29.653   6.870  32.093  1.00  0.00    -0.288 OA
ATOM      8  C   UNL     1      28.807   6.992  29.471  1.00  0.00     0.020 A 
ATOM      9  C   UNL     1      28.416   7.119  28.153  1.00  0.00     0.047 A 
ATOM     10  C   UNL     1      28.988   8.087  27.319  1.00  0.00     0.125 A 
ATOM     11  C   UNL     1      30.012   8.950  27.811  1.00  0.00     0.069 A 
ENDROOT
BRANCH   1  12
ATOM     12  C   UNL     1      31.461   8.570  33.300  1.00  0.00    -0.011 A 
ATOM     13  C   UNL     1      31.886   7.344  33.828  1.00  0.00     0.013 A 
ATOM     14  C   UNL     1      31.555   6.990  35.134  1.00  0.00     0.047 A 
ATOM     15  C   UNL     1      30.854   7.913  35.954  1.00  0.00     0.115 A 
ATOM     16  C   UNL     1      30.943   9.541  34.184  1.00  0.00     0.013 A 
ATOM     17  C   UNL     1      30.634   9.213  35.508  1.00  0.00     0.047 A 
BRANCH  15  18
ATOM     18  O   UNL     1      30.246   7.456  37.133  1.00  0.00    -0.508 OA
ATOM     19  H   UNL     1      29.818   8.162  37.731  1.00  0.00     0.293 HD
ENDBRANCH  15  18
ENDBRANCH   1  12
BRANCH  11  20
ATOM     20  C   UNL     1      30.469  10.101  26.905  1.00  0.00     0.188 C 
ATOM     21  C   UNL     1      31.656  11.039  27.333  1.00  0.00     0.179 C 
ATOM     22  O   UNL     1      29.337  10.822  26.431  1.00  0.00    -0.362 OA
ATOM     23  C   UNL     1      31.307  12.493  27.011  1.00  0.00     0.177 C 
ATOM     24  C   UNL     1      28.887  11.783  27.391  1.00  0.00     0.176 C 
ATOM     25  C   UNL     1      29.963  12.871  27.682  1.00  0.00     0.177 C 
BRANCH  21  26
ATOM     26  O   UNL     1      32.876  10.673  26.731  1.00  0.00    -0.387 OA
ATOM     27  H   UNL     1      33.633  11.090  27.236  1.00  0.00     0.211 HD
ENDBRANCH  21  26
BRANCH  23  28
ATOM     28  O   UNL     1      32.335  13.362  27.422  1.00  0.00    -0.387 OA
ATOM     29  H   UNL     1      33.187  12.838  27.436  1.00  0.00     0.211 HD
ENDBRANCH  23  28
BRANCH  24  30
ATOM     30  C   UNL     1      27.581  12.428  26.880  1.00  0.00     0.191 C 
BRANCH  30  31
ATOM     31  O   UNL     1      27.704  12.812  25.524  1.00  0.00    -0.394 OA
ATOM     32  H   UNL     1      26.878  12.478  25.051  1.00  0.00     0.210 HD
ENDBRANCH  30  31
ENDBRANCH  24  30
BRANCH  25  33
ATOM     33  O   UNL     1      30.057  13.022  29.088  1.00  0.00    -0.388 OA
ATOM     34  H   UNL     1      30.211  13.967  29.327  1.00  0.00     0.211 HD
ENDBRANCH  25  33
ENDBRANCH  11  20
BRANCH  10  35
ATOM     35  O   UNL     1      28.476   8.113  26.013  1.00  0.00    -0.507 OA
ATOM     36  H   UNL     1      28.506   7.367  25.328  1.00  0.00     0.293 HD
ENDBRANCH  10  35
TORSDOF 9
ENDMDL
MODEL 4
REMARK VINA RESULT:    -7.259      2.717      8.742
REMARK INTER + INTRA:         -10.432
REMARK INTER:                  -9.445
REMARK INTRA:                  -0.987
REMARK UNBOUND:                -0.627
REMARK SMILES O=c1c(-c2ccc(O)cc2)coc2c([C@H]3O[C@H](CO)[C@@H](O)[C@@H](O)[C@@H]3O)c(O)ccc12
REMARK SMILES IDX 3 1 11 2 12 3 13 4 30 5 2 6 1 7 29 8 28 9 26 10 14 11 4 12
REMARK SMILES IDX 5 13 6 14 7 15 10 16 9 17 8 18 15 20 24 21 16 22 22 23 17 24
REMARK SMILES IDX 20 25 25 26 23 28 18 30 19 31 21 33 27 35
REMARK H PARENT 8 19 25 27 23 29 19 32 21 34 27 36
REMARK Flexibility Score: inf
ROOT
ATOM      1  C   UNL     1      31.294   9.562  33.019  1.00  0.00     0.065 A 
ATOM      2  C   UNL     1      30.305  10.317  33.650  1.00  0.00     0.208 A 
ATOM      3  O   UNL     1      29.770   9.916  34.795  1.00  0.00    -0.463 OA
ATOM      4  C   UNL     1      30.136   8.797  35.428  1.00  0.00     0.147 A 
ATOM      5  C   UNL     1      31.142   7.976  34.847  1.00  0.00     0.066 A 
ATOM      6  C   UNL     1      31.716   8.368  33.627  1.00  0.00     0.200 A 
ATOM      7  O   UNL     1      32.596   7.652  33.070  1.00  0.00    -0.288 OA
ATOM      8  C   UNL     1      31.583   6.812  35.494  1.00  0.00     0.020 A 
ATOM      9  C   UNL     1      31.046   6.459  36.716  1.00  0.00     0.047 A 
ATOM     10  C   UNL     1      30.065   7.246  37.330  1.00  0.00     0.125 A 
ATOM     11  C   UNL     1      29.578   8.424  36.688  1.00  0.00     0.069 A 
ENDROOT
BRANCH   1  12
ATOM     12  C   UNL     1      31.948   9.992  31.759  1.00  0.00    -0.011 A 
ATOM     13  C   UNL     1      32.966  10.951  31.828  1.00  0.00     0.013 A 
ATOM     14  C   UNL     1      33.124  11.881  30.803  1.00  0.00     0.047 A 
ATOM     15  C   UNL     1      32.301  11.799  29.649  1.00  0.00     0.115 A 
ATOM     16  C   UNL     1      31.278   9.806  30.530  1.00  0.00     0.013 A 
ATOM     17  C   UNL     1      31.449  10.712  29.478  1.00  0.00     0.047 A 
BRANCH  15  18
ATOM     18  O   UNL     1      32.233  12.897  28.777  1.00  0.00    -0.508 OA
ATOM     19  H   UNL     1      32.153  12.687  27.783  1.00  0.00     0.293 HD
ENDBRANCH  15  18
ENDBRANCH   1  12
BRANCH  11  20
ATOM     20  C   UNL     1      28.638   9.334  37.489  1.00  0.00     0.188 C 
ATOM     21  C   UNL     1      27.548  10.204  36.763  1.00  0.00     0.179 C 
ATOM     22  O   UNL     1      29.383  10.071  38.453  1.00  0.00    -0.362 OA
ATOM     23  C   UNL     1      27.509  11.603  37.381  1.00  0.00     0.177 C 
ATOM     24  C   UNL     1      29.984  11.234  37.874  1.00  0.00     0.176 C 
ATOM     25  C   UNL     1      28.921  12.237  37.335  1.00  0.00     0.177 C 
BRANCH  21  26
ATOM     26  O   UNL     1      26.273   9.607  36.796  1.00  0.00    -0.387 OA
ATOM     27  H   UNL     1      25.818   9.846  37.655  1.00  0.00     0.211 HD
ENDBRANCH  21  26
BRANCH  23  28
ATOM     28  O   UNL     1      26.571  12.419  36.723  1.00  0.00    -0.387 OA
ATOM     29  H   UNL     1      26.893  12.556  35.785  1.00  0.00     0.211 HD
ENDBRANCH  23  28
BRANCH  24  30
ATOM     30  C   UNL     1      30.888  11.908  38.928  1.00  0.00     0.191 C 
BRANCH  30  31
ATOM     31  O   UNL     1      30.923  11.150  40.122  1.00  0.00    -0.394 OA
ATOM     32  H   UNL     1      30.631  10.215  39.881  1.00  0.00     0.210 HD
ENDBRANCH  30  31
ENDBRANCH  24  30
BRANCH  25  33
ATOM     33  O   UNL     1      29.321  12.633  36.034  1.00  0.00    -0.388 OA
ATOM     34  H   UNL     1      28.818  12.131  35.348  1.00  0.00     0.211 HD
ENDBRANCH  25  33
ENDBRANCH  11  20
BRANCH  10  35
ATOM     35  O   UNL     1      29.631   6.775  38.579  1.00  0.00    -0.507 OA
ATOM     36  H   UNL     1      30.107   6.870  39.468  1.00  0.00     0.293 HD
ENDBRANCH  10  35
TORSDOF 9
ENDMDL
MODEL 5
REMARK VINA RESULT:    -7.185      2.224      4.479
REMARK INTER + INTRA:         -10.333
REMARK INTER:                  -9.648
REMARK INTRA:                  -0.685
REMARK UNBOUND:                -0.627
REMARK SMILES O=c1c(-c2ccc(O)cc2)coc2c([C@H]3O[C@H](CO)[C@@H](O)[C@@H](O)[C@@H]3O)c(O)ccc12
REMARK SMILES IDX 3 1 11 2 12 3 13 4 30 5 2 6 1 7 29 8 28 9 26 10 14 11 4 12
REMARK SMILES IDX 5 13 6 14 7 15 10 16 9 17 8 18 15 20 24 21 16 22 22 23 17 24
REMARK SMILES IDX 20 25 25 26 23 28 18 30 19 31 21 33 27 35
REMARK H PARENT 8 19 25 27 23 29 19 32 21 34 27 36
REMARK Flexibility Score: inf
ROOT
ATOM      1  C   UNL     1      31.279   9.846  30.549  1.00  0.00     0.065 A 
ATOM      2  C   UNL     1      31.061  11.097  29.970  1.00  0.00     0.208 A 
ATOM      3  O   UNL     1      30.482  11.205  28.781  1.00  0.00    -0.463 OA
ATOM      4  C   UNL     1      30.058  10.155  28.070  1.00  0.00     0.147 A 
ATOM      5  C   UNL     1      30.244   8.846  28.597  1.00  0.00     0.066 A 
ATOM      6  C   UNL     1      30.866   8.701  29.847  1.00  0.00     0.200 A 
ATOM      7  O   UNL     1      31.068   7.554  30.336  1.00  0.00    -0.288 OA
ATOM      8  C   UNL     1      29.783   7.719  27.902  1.00  0.00     0.020 A 
ATOM      9  C   UNL     1      29.129   7.874  26.695  1.00  0.00     0.047 A 
ATOM     10  C   UNL     1      28.914   9.144  26.148  1.00  0.00     0.125 A 
ATOM     11  C   UNL     1      29.390  10.310  26.818  1.00  0.00     0.069 A 
ENDROOT
BRANCH   1  12
ATOM     12  C   UNL     1      31.884   9.681  31.892  1.00  0.00    -0.011 A 
ATOM     13  C   UNL     1      31.220   8.884  32.832  1.00  0.00     0.013 A 
ATOM     14  C   UNL     1      31.268   9.208  34.187  1.00  0.00     0.047 A 
ATOM     15  C   UNL     1      32.063  10.302  34.618  1.00  0.00     0.115 A 
ATOM     16  C   UNL     1      32.817  10.635  32.356  1.00  0.00     0.013 A 
ATOM     17  C   UNL     1      32.902  10.951  33.716  1.00  0.00     0.047 A 
BRANCH  15  18
ATOM     18  O   UNL     1      31.867  10.824  35.906  1.00  0.00    -0.508 OA
ATOM     19  H   UNL     1      31.992  11.830  36.015  1.00  0.00     0.293 HD
ENDBRANCH  15  18
ENDBRANCH   1  12
BRANCH  11  20
ATOM     20  C   UNL     1      28.967  11.675  26.259  1.00  0.00     0.188 C 
ATOM     21  C   UNL     1      29.852  12.952  26.501  1.00  0.00     0.179 C 
ATOM     22  O   UNL     1      27.587  11.900  26.524  1.00  0.00    -0.362 OA
ATOM     23  C   UNL     1      28.956  14.141  26.852  1.00  0.00     0.177 C 
ATOM     24  C   UNL     1      27.381  12.400  27.849  1.00  0.00     0.176 C 
ATOM     25  C   UNL     1      28.061  13.785  28.065  1.00  0.00     0.177 C 
BRANCH  21  26
ATOM     26  O   UNL     1      30.673  13.254  25.397  1.00  0.00    -0.387 OA
ATOM     27  H   UNL     1      31.559  13.585  25.725  1.00  0.00     0.211 HD
ENDBRANCH  21  26
BRANCH  23  28
ATOM     28  O   UNL     1      29.723  15.291  27.115  1.00  0.00    -0.387 OA
ATOM     29  H   UNL     1      30.434  15.348  26.413  1.00  0.00     0.211 HD
ENDBRANCH  23  28
BRANCH  24  30
ATOM     30  C   UNL     1      25.864  12.487  28.121  1.00  0.00     0.191 C 
BRANCH  30  31
ATOM     31  O   UNL     1      25.609  13.140  29.350  1.00  0.00    -0.394 OA
ATOM     32  H   UNL     1      25.002  12.534  29.880  1.00  0.00     0.210 HD
ENDBRANCH  30  31
ENDBRANCH  24  30
BRANCH  25  33
ATOM     33  O   UNL     1      28.769  13.731  29.292  1.00  0.00    -0.388 OA
ATOM     34  H   UNL     1      29.704  14.025  29.168  1.00  0.00     0.211 HD
ENDBRANCH  25  33
ENDBRANCH  11  20
BRANCH  10  35
ATOM     35  O   UNL     1      28.217   9.147  24.929  1.00  0.00    -0.507 OA
ATOM     36  H   UNL     1      28.569   8.866  24.022  1.00  0.00     0.293 HD
ENDBRANCH  10  35
TORSDOF 9
ENDMDL
MODEL 6
REMARK VINA RESULT:    -7.020      4.647      7.924
REMARK INTER + INTRA:         -10.109
REMARK INTER:                  -8.900
REMARK INTRA:                  -1.209
REMARK UNBOUND:                -0.627
REMARK SMILES O=c1c(-c2ccc(O)cc2)coc2c([C@H]3O[C@H](CO)[C@@H](O)[C@@H](O)[C@@H]3O)c(O)ccc12
REMARK SMILES IDX 3 1 11 2 12 3 13 4 30 5 2 6 1 7 29 8 28 9 26 10 14 11 4 12
REMARK SMILES IDX 5 13 6 14 7 15 10 16 9 17 8 18 15 20 24 21 16 22 22 23 17 24
REMARK SMILES IDX 20 25 25 26 23 28 18 30 19 31 21 33 27 35
REMARK H PARENT 8 19 25 27 23 29 19 32 21 34 27 36
REMARK Flexibility Score: inf
ROOT
ATOM      1  C   UNL     1      30.850  10.374  26.105  1.00  0.00     0.065 A 
ATOM      2  C   UNL     1      31.248  11.375  25.218  1.00  0.00     0.208 A 
ATOM      3  O   UNL     1      31.171  11.193  23.907  1.00  0.00    -0.463 OA
ATOM      4  C   UNL     1      30.704  10.074  23.345  1.00  0.00     0.147 A 
ATOM      5  C   UNL     1      30.276   9.008  24.185  1.00  0.00     0.066 A 
ATOM      6  C   UNL     1      30.359   9.167  25.577  1.00  0.00     0.200 A 
ATOM      7  O   UNL     1      30.010   8.234  26.354  1.00  0.00    -0.288 OA
ATOM      8  C   UNL     1      29.746   7.830  23.639  1.00  0.00     0.020 A 
ATOM      9  C   UNL     1      29.624   7.700  22.270  1.00  0.00     0.047 A 
ATOM     10  C   UNL     1      30.019   8.730  21.408  1.00  0.00     0.125 A 
ATOM     11  C   UNL     1      30.584   9.932  21.929  1.00  0.00     0.069 A 
ENDROOT
BRANCH   1  12
ATOM     12  C   UNL     1      30.880  10.550  27.577  1.00  0.00    -0.011 A 
ATOM     13  C   UNL     1      29.886  11.332  28.178  1.00  0.00     0.013 A 
ATOM     14  C   UNL     1      30.183  12.104  29.299  1.00  0.00     0.047 A 
ATOM     15  C   UNL     1      31.477  12.030  29.878  1.00  0.00     0.115 A 
ATOM     16  C   UNL     1      32.089  10.341  28.277  1.00  0.00     0.013 A 
ATOM     17  C   UNL     1      32.391  11.085  29.423  1.00  0.00     0.047 A 
BRANCH  15  18
ATOM     18  O   UNL     1      31.876  13.022  30.788  1.00  0.00    -0.508 OA
ATOM     19  H   UNL     1      31.314  13.871  30.815  1.00  0.00     0.293 HD
ENDBRANCH  15  18
ENDBRANCH   1  12
BRANCH  11  20
ATOM     20  C   UNL     1      30.830  11.086  20.949  1.00  0.00     0.188 C 
ATOM     21  C   UNL     1      31.898  12.196  21.265  1.00  0.00     0.179 C 
ATOM     22  O   UNL     1      29.586  11.623  20.512  1.00  0.00    -0.362 OA
ATOM     23  C   UNL     1      31.336  13.571  20.902  1.00  0.00     0.177 C 
ATOM     24  C   UNL     1      29.060  12.562  21.456  1.00  0.00     0.176 C 
ATOM     25  C   UNL     1      29.990  13.799  21.635  1.00  0.00     0.177 C 
BRANCH  21  26
ATOM     26  O   UNL     1      33.122  11.967  20.607  1.00  0.00    -0.387 OA
ATOM     27  H   UNL     1      33.009  11.225  19.945  1.00  0.00     0.211 HD
ENDBRANCH  21  26
BRANCH  23  28
ATOM     28  O   UNL     1      32.255  14.591  21.213  1.00  0.00    -0.387 OA
ATOM     29  H   UNL     1      32.449  14.534  22.193  1.00  0.00     0.211 HD
ENDBRANCH  23  28
BRANCH  24  30
ATOM     30  C   UNL     1      27.652  12.998  20.997  1.00  0.00     0.191 C 
BRANCH  30  31
ATOM     31  O   UNL     1      27.202  14.114  21.740  1.00  0.00    -0.394 OA
ATOM     32  H   UNL     1      27.955  14.786  21.740  1.00  0.00     0.210 HD
ENDBRANCH  30  31
ENDBRANCH  24  30
BRANCH  25  33
ATOM     33  O   UNL     1      30.137  14.031  23.025  1.00  0.00    -0.388 OA
ATOM     34  H   UNL     1      31.058  14.317  23.235  1.00  0.00     0.211 HD
ENDBRANCH  25  33
ENDBRANCH  11  20
BRANCH  10  35
ATOM     35  O   UNL     1      29.815   8.465  20.045  1.00  0.00    -0.507 OA
ATOM     36  H   UNL     1      28.929   8.431  19.553  1.00  0.00     0.293 HD
ENDBRANCH  10  35
TORSDOF 9
ENDMDL
MODEL 7
REMARK VINA RESULT:    -6.894      2.342      3.779
REMARK INTER + INTRA:          -9.940
REMARK INTER:                  -9.365
REMARK INTRA:                  -0.575
REMARK UNBOUND:                -0.627
REMARK SMILES O=c1c(-c2ccc(O)cc2)coc2c([C@H]3O[C@H](CO)[C@@H](O)[C@@H](O)[C@@H]3O)c(O)ccc12
REMARK SMILES IDX 3 1 11 2 12 3 13 4 30 5 2 6 1 7 29 8 28 9 26 10 14 11 4 12
REMARK SMILES IDX 5 13 6 14 7 15 10 16 9 17 8 18 15 20 24 21 16 22 22 23 17 24
REMARK SMILES IDX 20 25 25 26 23 28 18 30 19 31 21 33 27 35
REMARK H PARENT 8 19 25 27 23 29 19 32 21 34 27 36
REMARK Flexibility Score: inf
ROOT
ATOM      1  C   UNL     1      30.992  10.006  31.705  1.00  0.00     0.065 A 
ATOM      2  C   UNL     1      31.130  11.240  31.069  1.00  0.00     0.208 A 
ATOM      3  O   UNL     1      31.309  11.314  29.757  1.00  0.00    -0.463 OA
ATOM      4  C   UNL     1      31.356  10.243  28.958  1.00  0.00     0.147 A 
ATOM      5  C   UNL     1      31.220   8.949  29.534  1.00  0.00     0.066 A 
ATOM      6  C   UNL     1      31.043   8.840  30.922  1.00  0.00     0.200 A 
ATOM      7  O   UNL     1      30.942   7.706  31.472  1.00  0.00    -0.288 OA
ATOM      8  C   UNL     1      31.227   7.800  28.730  1.00  0.00     0.020 A 
ATOM      9  C   UNL     1      31.354   7.919  27.360  1.00  0.00     0.047 A 
ATOM     10  C   UNL     1      31.476   9.173  26.752  1.00  0.00     0.125 A 
ATOM     11  C   UNL     1      31.496  10.361  27.542  1.00  0.00     0.069 A 
ENDROOT
BRANCH   1  12
ATOM     12  C   UNL     1      30.749   9.879  33.162  1.00  0.00    -0.011 A 
ATOM     13  C   UNL     1      29.431   9.953  33.629  1.00  0.00     0.013 A 
ATOM     14  C   UNL     1      29.156  10.533  34.865  1.00  0.00     0.047 A 
ATOM     15  C   UNL     1      30.227  10.974  35.686  1.00  0.00     0.115 A 
ATOM     16  C   UNL     1      31.801  10.140  34.067  1.00  0.00     0.013 A 
ATOM     17  C   UNL     1      31.541  10.693  35.326  1.00  0.00     0.047 A 
BRANCH  15  18
ATOM     18  O   UNL     1      29.955  11.832  36.763  1.00  0.00    -0.508 OA
ATOM     19  H   UNL     1      30.297  11.541  37.678  1.00  0.00     0.293 HD
ENDBRANCH  15  18
ENDBRANCH   1  12
BRANCH  11  20
ATOM     20  C   UNL     1      31.452  11.707  26.807  1.00  0.00     0.188 C 
ATOM     21  C   UNL     1      31.149  13.039  27.585  1.00  0.00     0.179 C 
ATOM     22  O   UNL     1      30.692  11.580  25.610  1.00  0.00    -0.362 OA
ATOM     23  C   UNL     1      30.185  13.904  26.771  1.00  0.00     0.177 C 
ATOM     24  C   UNL     1      29.288  11.695  25.866  1.00  0.00     0.176 C 
ATOM     25  C   UNL     1      28.908  13.094  26.435  1.00  0.00     0.177 C 
BRANCH  21  26
ATOM     26  O   UNL     1      32.320  13.756  27.900  1.00  0.00    -0.387 OA
ATOM     27  H   UNL     1      32.937  13.744  27.113  1.00  0.00     0.211 HD
ENDBRANCH  21  26
BRANCH  23  28
ATOM     28  O   UNL     1      29.862  15.087  27.462  1.00  0.00    -0.387 OA
ATOM     29  H   UNL     1      30.493  15.168  28.234  1.00  0.00     0.211 HD
ENDBRANCH  23  28
BRANCH  24  30
ATOM     30  C   UNL     1      28.516  11.408  24.560  1.00  0.00     0.191 C 
BRANCH  30  31
ATOM     31  O   UNL     1      28.121  12.612  23.932  1.00  0.00    -0.394 OA
ATOM     32  H   UNL     1      28.710  12.724  23.121  1.00  0.00     0.210 HD
ENDBRANCH  30  31
ENDBRANCH  24  30
BRANCH  25  33
ATOM     33  O   UNL     1      28.059  12.890  27.552  1.00  0.00    -0.388 OA
ATOM     34  H   UNL     1      27.220  12.450  27.275  1.00  0.00     0.211 HD
ENDBRANCH  25  33
ENDBRANCH  11  20
BRANCH  10  35
ATOM     35  O   UNL     1      31.574   9.140  25.352  1.00  0.00    -0.507 OA
ATOM     36  H   UNL     1      30.878   9.445  24.681  1.00  0.00     0.293 HD
ENDBRANCH  10  35
TORSDOF 9
ENDMDL
MODEL 8
REMARK VINA RESULT:    -6.791      1.395      1.986
REMARK INTER + INTRA:          -9.800
REMARK INTER:                  -9.901
REMARK INTRA:                   0.101
REMARK UNBOUND:                -0.627
REMARK SMILES O=c1c(-c2ccc(O)cc2)coc2c([C@H]3O[C@H](CO)[C@@H](O)[C@@H](O)[C@@H]3O)c(O)ccc12
REMARK SMILES IDX 3 1 11 2 12 3 13 4 30 5 2 6 1 7 29 8 28 9 26 10 14 11 4 12
REMARK SMILES IDX 5 13 6 14 7 15 10 16 9 17 8 18 15 20 24 21 16 22 22 23 17 24
REMARK SMILES IDX 20 25 25 26 23 28 18 30 19 31 21 33 27 35
REMARK H PARENT 8 19 25 27 23 29 19 32 21 34 27 36
REMARK Flexibility Score: inf
ROOT
ATOM      1  C   UNL     1      31.212   8.686  33.968  1.00  0.00     0.065 A 
ATOM      2  C   UNL     1      30.973   7.829  32.893  1.00  0.00     0.208 A 
ATOM      3  O   UNL     1      31.127   8.245  31.644  1.00  0.00    -0.463 OA
ATOM      4  C   UNL     1      31.528   9.479  31.322  1.00  0.00     0.147 A 
ATOM      5  C   UNL     1      31.795  10.410  32.365  1.00  0.00     0.066 A 
ATOM      6  C   UNL     1      31.627  10.001  33.698  1.00  0.00     0.200 A 
ATOM      7  O   UNL     1      31.832  10.807  34.649  1.00  0.00    -0.288 OA
ATOM      8  C   UNL     1      32.252  11.703  32.075  1.00  0.00     0.020 A 
ATOM      9  C   UNL     1      32.460  12.082  30.764  1.00  0.00     0.047 A 
ATOM     10  C   UNL     1      32.224  11.193  29.709  1.00  0.00     0.125 A 
ATOM     11  C   UNL     1      31.736   9.878  29.967  1.00  0.00     0.069 A 
ENDROOT
BRANCH   1  12
ATOM     12  C   UNL     1      31.093   8.251  35.381  1.00  0.00    -0.011 A 
ATOM     13  C   UNL     1      31.598   6.995  35.739  1.00  0.00     0.013 A 
ATOM     14  C   UNL     1      30.965   6.238  36.723  1.00  0.00     0.047 A 
ATOM     15  C   UNL     1      29.854   6.783  37.420  1.00  0.00     0.115 A 
ATOM     16  C   UNL     1      30.120   8.848  36.212  1.00  0.00     0.013 A 
ATOM     17  C   UNL     1      29.496   8.114  37.226  1.00  0.00     0.047 A 
BRANCH  15  18
ATOM     18  O   UNL     1      29.029   5.928  38.166  1.00  0.00    -0.508 OA
ATOM     19  H   UNL     1      28.033   6.147  38.175  1.00  0.00     0.293 HD
ENDBRANCH  15  18
ENDBRANCH   1  12
BRANCH  11  20
ATOM     20  C   UNL     1      31.669   8.899  28.788  1.00  0.00     0.188 C 
ATOM     21  C   UNL     1      31.581   9.426  27.309  1.00  0.00     0.179 C 
ATOM     22  O   UNL     1      30.726   7.870  29.066  1.00  0.00    -0.362 OA
ATOM     23  C   UNL     1      30.563   8.595  26.525  1.00  0.00     0.177 C 
ATOM     24  C   UNL     1      29.390   8.288  28.769  1.00  0.00     0.176 C 
ATOM     25  C   UNL     1      29.198   8.610  27.257  1.00  0.00     0.177 C 
BRANCH  21  26
ATOM     26  O   UNL     1      32.832   9.424  26.661  1.00  0.00    -0.387 OA
ATOM     27  H   UNL     1      33.550   9.627  27.328  1.00  0.00     0.211 HD
ENDBRANCH  21  26
BRANCH  23  28
ATOM     28  O   UNL     1      30.430   9.070  25.208  1.00  0.00    -0.387 OA
ATOM     29  H   UNL     1      30.012   9.978  25.254  1.00  0.00     0.211 HD
ENDBRANCH  23  28
BRANCH  24  30
ATOM     30  C   UNL     1      28.407   7.188  29.224  1.00  0.00     0.191 C 
BRANCH  30  31
ATOM     31  O   UNL     1      28.741   6.714  30.514  1.00  0.00    -0.394 OA
ATOM     32  H   UNL     1      27.975   6.962  31.122  1.00  0.00     0.210 HD
ENDBRANCH  30  31
ENDBRANCH  24  30
BRANCH  25  33
ATOM     33  O   UNL     1      28.520   9.852  27.162  1.00  0.00    -0.388 OA
ATOM     34  H   UNL     1      28.693  10.276  26.288  1.00  0.00     0.211 HD
ENDBRANCH  25  33
ENDBRANCH  11  20
BRANCH  10  35
ATOM     35  O   UNL     1      32.501  11.710  28.433  1.00  0.00    -0.507 OA
ATOM     36  H   UNL     1      32.179  11.348  27.543  1.00  0.00     0.293 HD
ENDBRANCH  10  35
TORSDOF 9
ENDMDL
MODEL 9
REMARK VINA RESULT:    -6.784      2.239      2.911
REMARK INTER + INTRA:          -9.791
REMARK INTER:                  -9.486
REMARK INTRA:                  -0.305
REMARK UNBOUND:                -0.627
REMARK SMILES O=c1c(-c2ccc(O)cc2)coc2c([C@H]3O[C@H](CO)[C@@H](O)[C@@H](O)[C@@H]3O)c(O)ccc12
REMARK SMILES IDX 3 1 11 2 12 3 13 4 30 5 2 6 1 7 29 8 28 9 26 10 14 11 4 12
REMARK SMILES IDX 5 13 6 14 7 15 10 16 9 17 8 18 15 20 24 21 16 22 22 23 17 24
REMARK SMILES IDX 20 25 25 26 23 28 18 30 19 31 21 33 27 35
REMARK H PARENT 8 19 25 27 23 29 19 32 21 34 27 36
REMARK Flexibility Score: inf
ROOT
ATOM      1  C   UNL     1      30.998   9.183  33.589  1.00  0.00     0.065 A 
ATOM      2  C   UNL     1      31.596   8.397  32.603  1.00  0.00     0.208 A 
ATOM      3  O   UNL     1      31.266   8.538  31.327  1.00  0.00    -0.463 OA
ATOM      4  C   UNL     1      30.370   9.431  30.892  1.00  0.00     0.147 A 
ATOM      5  C   UNL     1      29.720  10.270  31.838  1.00  0.00     0.066 A 
ATOM      6  C   UNL     1      30.040  10.133  33.199  1.00  0.00     0.200 A 
ATOM      7  O   UNL     1      29.466  10.846  34.070  1.00  0.00    -0.288 OA
ATOM      8  C   UNL     1      28.801  11.245  31.423  1.00  0.00     0.020 A 
ATOM      9  C   UNL     1      28.527  11.405  30.079  1.00  0.00     0.047 A 
ATOM     10  C   UNL     1      29.155  10.610  29.114  1.00  0.00     0.125 A 
ATOM     11  C   UNL     1      30.078   9.594  29.504  1.00  0.00     0.069 A 
ENDROOT
BRANCH   1  12
ATOM     12  C   UNL     1      31.367   9.087  35.022  1.00  0.00    -0.011 A 
ATOM     13  C   UNL     1      30.809   8.056  35.789  1.00  0.00     0.013 A 
ATOM     14  C   UNL     1      30.508   8.266  37.133  1.00  0.00     0.047 A 
ATOM     15  C   UNL     1      30.847   9.503  37.742  1.00  0.00     0.115 A 
ATOM     16  C   UNL     1      31.871  10.226  35.688  1.00  0.00     0.013 A 
ATOM     17  C   UNL     1      31.606  10.438  37.045  1.00  0.00     0.047 A 
BRANCH  15  18
ATOM     18  O   UNL     1      30.271   9.837  38.978  1.00  0.00    -0.508 OA
ATOM     19  H   UNL     1      29.258   9.947  38.995  1.00  0.00     0.293 HD
ENDBRANCH  15  18
ENDBRANCH   1  12
BRANCH  11  20
ATOM     20  C   UNL     1      30.863   8.881  28.395  1.00  0.00     0.188 C 
ATOM     21  C   UNL     1      31.218   9.625  27.056  1.00  0.00     0.179 C 
ATOM     22  O   UNL     1      30.325   7.581  28.180  1.00  0.00    -0.362 OA
ATOM     23  C   UNL     1      30.990   8.687  25.868  1.00  0.00     0.177 C 
ATOM     24  C   UNL     1      29.183   7.621  27.319  1.00  0.00     0.176 C 
ATOM     25  C   UNL     1      29.538   8.148  25.897  1.00  0.00     0.177 C 
BRANCH  21  26
ATOM     26  O   UNL     1      32.534  10.126  27.051  1.00  0.00    -0.387 OA
ATOM     27  H   UNL     1      32.658  10.724  26.257  1.00  0.00     0.211 HD
ENDBRANCH  21  26
BRANCH  23  28
ATOM     28  O   UNL     1      31.259   9.339  24.651  1.00  0.00    -0.387 OA
ATOM     29  H   UNL     1      30.622   8.979  23.968  1.00  0.00     0.211 HD
ENDBRANCH  23  28
BRANCH  24  30
ATOM     30  C   UNL     1      28.565   6.209  27.241  1.00  0.00     0.191 C 
BRANCH  30  31
ATOM     31  O   UNL     1      27.158   6.280  27.110  1.00  0.00    -0.394 OA
ATOM     32  H   UNL     1      26.909   7.255  27.179  1.00  0.00     0.210 HD
ENDBRANCH  30  31
ENDBRANCH  24  30
BRANCH  25  33
ATOM     33  O   UNL     1      28.568   9.119  25.541  1.00  0.00    -0.388 OA
ATOM     34  H   UNL     1      28.425   9.126  24.564  1.00  0.00     0.211 HD
ENDBRANCH  25  33
ENDBRANCH  11  20
BRANCH  10  35
ATOM     35  O   UNL     1      28.796  10.901  27.789  1.00  0.00    -0.507 OA
ATOM     36  H   UNL     1      29.384  10.836  26.966  1.00  0.00     0.293 HD
ENDBRANCH  10  35
TORSDOF 9
ENDMDL
