MODEL 1
REMARK VINA RESULT:    -5.591      0.000      0.000
REMARK INTER + INTRA:          -6.040
REMARK INTER:                  -5.918
REMARK INTRA:                  -0.122
REMARK UNBOUND:                -0.122
REMARK SMILES C=C(C)[C@H]1CC=C(C)CC1
REMARK SMILES IDX 8 1 7 2 6 3 5 4 4 5 10 6 9 7 2 8 1 9 3 10
REMARK H PARENT
REMARK Flexibility Score: inf
ROOT
ATOM      1  C   UNL     1       4.381  14.008   3.491  1.00  0.00     0.039 C 
ATOM      2  C   UNL     1       3.054  13.750   4.148  1.00  0.00    -0.077 C 
ATOM      3  C   UNL     1       1.935  13.758   3.390  1.00  0.00    -0.027 C 
ATOM      4  C   UNL     1       0.552  13.562   3.962  1.00  0.00     0.035 C 
ATOM      5  C   UNL     1       0.582  12.830   5.315  1.00  0.00     0.018 C 
ATOM      6  C   UNL     1       1.628  13.476   6.236  1.00  0.00     0.013 C 
ATOM      7  C   UNL     1       3.024  13.359   5.612  1.00  0.00     0.031 C 
ENDROOT
BRANCH   5   8
ATOM      8  C   UNL     1      -0.797  12.809   5.963  1.00  0.00    -0.077 C 
ATOM      9  C   UNL     1      -1.262  11.677   6.516  1.00  0.00     0.008 C 
ATOM     10  C   UNL     1      -1.672  14.037   5.990  1.00  0.00     0.039 C 
ENDBRANCH   5   8
TORSDOF 1
ENDMDL
MODEL 2
REMARK VINA RESULT:    -5.582      1.233      4.438
REMARK INTER + INTRA:          -6.030
REMARK INTER:                  -5.910
REMARK INTRA:                  -0.120
REMARK UNBOUND:                -0.122
REMARK SMILES C=C(C)[C@H]1CC=C(C)CC1
REMARK SMILES IDX 8 1 7 2 6 3 5 4 4 5 10 6 9 7 2 8 1 9 3 10
REMARK H PARENT
REMARK Flexibility Score: inf
ROOT
ATOM      1  C   UNL     1      -2.029  14.405   6.212  1.00  0.00     0.039 C 
ATOM      2  C   UNL     1      -0.712  14.049   5.580  1.00  0.00    -0.077 C 
ATOM      3  C   UNL     1       0.315  13.673   6.372  1.00  0.00    -0.027 C 
ATOM      4  C   UNL     1       1.689  13.347   5.840  1.00  0.00     0.035 C 
ATOM      5  C   UNL     1       1.657  12.954   4.352  1.00  0.00     0.018 C 
ATOM      6  C   UNL     1       0.831  13.979   3.559  1.00  0.00     0.013 C 
ATOM      7  C   UNL     1      -0.616  13.997   4.068  1.00  0.00     0.031 C 
ENDROOT
BRANCH   5   8
ATOM      8  C   UNL     1       3.065  12.813   3.787  1.00  0.00    -0.077 C 
ATOM      9  C   UNL     1       3.566  11.594   3.528  1.00  0.00     0.008 C 
ATOM     10  C   UNL     1       3.929  14.020   3.516  1.00  0.00     0.039 C 
ENDBRANCH   5   8
TORSDOF 1
ENDMDL
MODEL 3
REMARK VINA RESULT:    -5.412      1.148      4.327
REMARK INTER + INTRA:          -5.851
REMARK INTER:                  -5.731
REMARK INTRA:                  -0.120
REMARK UNBOUND:                -0.122
REMARK SMILES C=C(C)[C@H]1CC=C(C)CC1
REMARK SMILES IDX 8 1 7 2 6 3 5 4 4 5 10 6 9 7 2 8 1 9 3 10
REMARK H PARENT
REMARK Flexibility Score: inf
ROOT
ATOM      1  C   UNL     1      -2.002  14.119   6.082  1.00  0.00     0.039 C 
ATOM      2  C   UNL     1      -0.637  13.843   5.515  1.00  0.00    -0.077 C 
ATOM      3  C   UNL     1      -0.468  13.863   4.176  1.00  0.00    -0.027 C 
ATOM      4  C   UNL     1       0.848  13.548   3.508  1.00  0.00     0.035 C 
ATOM      5  C   UNL     1       2.043  13.749   4.456  1.00  0.00     0.018 C 
ATOM      6  C   UNL     1       1.765  13.059   5.800  1.00  0.00     0.013 C 
ATOM      7  C   UNL     1       0.532  13.680   6.467  1.00  0.00     0.031 C 
ENDROOT
BRANCH   5   8
ATOM      8  C   UNL     1       3.338  13.249   3.828  1.00  0.00    -0.077 C 
ATOM      9  C   UNL     1       4.300  14.121   3.485  1.00  0.00     0.008 C 
ATOM     10  C   UNL     1       3.570  11.781   3.565  1.00  0.00     0.039 C 
ENDBRANCH   5   8
TORSDOF 1
ENDMDL
MODEL 4
REMARK VINA RESULT:    -5.039      1.369      2.327
REMARK INTER + INTRA:          -5.455
REMARK INTER:                  -5.327
REMARK INTRA:                  -0.129
REMARK UNBOUND:                -0.122
REMARK SMILES C=C(C)[C@H]1CC=C(C)CC1
REMARK SMILES IDX 8 1 7 2 6 3 5 4 4 5 10 6 9 7 2 8 1 9 3 10
REMARK H PARENT
REMARK Flexibility Score: inf
ROOT
ATOM      1  C   UNL     1       2.084  15.001   0.687  1.00  0.00     0.039 C 
ATOM      2  C   UNL     1       1.699  14.450   2.032  1.00  0.00    -0.077 C 
ATOM      3  C   UNL     1       0.404  14.495   2.412  1.00  0.00    -0.027 C 
ATOM      4  C   UNL     1      -0.075  14.017   3.761  1.00  0.00     0.035 C 
ATOM      5  C   UNL     1       0.898  13.012   4.400  1.00  0.00     0.018 C 
ATOM      6  C   UNL     1       2.333  13.556   4.327  1.00  0.00     0.013 C 
ATOM      7  C   UNL     1       2.752  13.744   2.864  1.00  0.00     0.031 C 
ENDROOT
BRANCH   5   8
ATOM      8  C   UNL     1       0.496  12.687   5.833  1.00  0.00    -0.077 C 
ATOM      9  C   UNL     1       1.244  13.127   6.858  1.00  0.00     0.008 C 
ATOM     10  C   UNL     1      -0.730  11.862   6.138  1.00  0.00     0.039 C 
ENDBRANCH   5   8
TORSDOF 1
ENDMDL
MODEL 5
REMARK VINA RESULT:    -5.000      1.778      4.349
REMARK INTER + INTRA:          -5.415
REMARK INTER:                  -5.283
REMARK INTRA:                  -0.132
REMARK UNBOUND:                -0.122
REMARK SMILES C=C(C)[C@H]1CC=C(C)CC1
REMARK SMILES IDX 8 1 7 2 6 3 5 4 4 5 10 6 9 7 2 8 1 9 3 10
REMARK H PARENT
REMARK Flexibility Score: inf
ROOT
ATOM      1  C   UNL     1      -2.161  14.985   1.982  1.00  0.00     0.039 C 
ATOM      2  C   UNL     1      -0.876  14.539   2.623  1.00  0.00    -0.077 C 
ATOM      3  C   UNL     1      -0.894  14.123   3.907  1.00  0.00    -0.027 C 
ATOM      4  C   UNL     1       0.349  13.706   4.656  1.00  0.00     0.035 C 
ATOM      5  C   UNL     1       1.482  13.281   3.707  1.00  0.00     0.018 C 
ATOM      6  C   UNL     1       1.659  14.332   2.600  1.00  0.00     0.013 C 
ATOM      7  C   UNL     1       0.374  14.446   1.770  1.00  0.00     0.031 C 
ENDROOT
BRANCH   5   8
ATOM      8  C   UNL     1       2.782  13.045   4.467  1.00  0.00    -0.077 C 
ATOM      9  C   UNL     1       2.884  13.413   5.754  1.00  0.00     0.008 C 
ATOM     10  C   UNL     1       3.978  12.412   3.801  1.00  0.00     0.039 C 
ENDBRANCH   5   8
TORSDOF 1
ENDMDL
MODEL 6
REMARK VINA RESULT:    -4.949      1.474      1.858
REMARK INTER + INTRA:          -5.360
REMARK INTER:                  -5.230
REMARK INTRA:                  -0.130
REMARK UNBOUND:                -0.122
REMARK SMILES C=C(C)[C@H]1CC=C(C)CC1
REMARK SMILES IDX 8 1 7 2 6 3 5 4 4 5 10 6 9 7 2 8 1 9 3 10
REMARK H PARENT
REMARK Flexibility Score: inf
ROOT
ATOM      1  C   UNL     1       3.616  12.251   3.877  1.00  0.00     0.039 C 
ATOM      2  C   UNL     1       2.273  12.872   4.143  1.00  0.00    -0.077 C 
ATOM      3  C   UNL     1       1.578  13.398   3.112  1.00  0.00    -0.027 C 
ATOM      4  C   UNL     1       0.247  14.089   3.283  1.00  0.00     0.035 C 
ATOM      5  C   UNL     1      -0.466  13.661   4.577  1.00  0.00     0.018 C 
ATOM      6  C   UNL     1       0.510  13.734   5.761  1.00  0.00     0.013 C 
ATOM      7  C   UNL     1       1.684  12.772   5.537  1.00  0.00     0.031 C 
ENDROOT
BRANCH   5   8
ATOM      8  C   UNL     1      -1.711  14.503   4.827  1.00  0.00    -0.077 C 
ATOM      9  C   UNL     1      -2.169  14.672   6.078  1.00  0.00     0.008 C 
ATOM     10  C   UNL     1      -2.463  15.153   3.691  1.00  0.00     0.039 C 
ENDBRANCH   5   8
TORSDOF 1
ENDMDL
MODEL 7
REMARK VINA RESULT:    -4.944      1.780      4.362
REMARK INTER + INTRA:          -5.355
REMARK INTER:                  -5.234
REMARK INTRA:                  -0.121
REMARK UNBOUND:                -0.122
REMARK SMILES C=C(C)[C@H]1CC=C(C)CC1
REMARK SMILES IDX 8 1 7 2 6 3 5 4 4 5 10 6 9 7 2 8 1 9 3 10
REMARK H PARENT
REMARK Flexibility Score: inf
ROOT
ATOM      1  C   UNL     1       1.332  12.993   6.855  1.00  0.00     0.039 C 
ATOM      2  C   UNL     1       1.477  13.326   5.396  1.00  0.00    -0.077 C 
ATOM      3  C   UNL     1       0.400  13.776   4.716  1.00  0.00    -0.027 C 
ATOM      4  C   UNL     1       0.429  14.086   3.239  1.00  0.00     0.035 C 
ATOM      5  C   UNL     1       1.854  14.370   2.734  1.00  0.00     0.018 C 
ATOM      6  C   UNL     1       2.813  13.277   3.232  1.00  0.00     0.013 C 
ATOM      7  C   UNL     1       2.855  13.270   4.765  1.00  0.00     0.031 C 
ENDROOT
BRANCH   5   8
ATOM      8  C   UNL     1       1.889  14.495   1.216  1.00  0.00    -0.077 C 
ATOM      9  C   UNL     1       2.360  15.615   0.644  1.00  0.00     0.008 C 
ATOM     10  C   UNL     1       1.392  13.384   0.324  1.00  0.00     0.039 C 
ENDBRANCH   5   8
TORSDOF 1
ENDMDL
MODEL 8
REMARK VINA RESULT:    -4.900      1.815      4.444
REMARK INTER + INTRA:          -5.309
REMARK INTER:                  -5.180
REMARK INTRA:                  -0.129
REMARK UNBOUND:                -0.122
REMARK SMILES C=C(C)[C@H]1CC=C(C)CC1
REMARK SMILES IDX 8 1 7 2 6 3 5 4 4 5 10 6 9 7 2 8 1 9 3 10
REMARK H PARENT
REMARK Flexibility Score: inf
ROOT
ATOM      1  C   UNL     1       1.419  13.142   6.853  1.00  0.00     0.039 C 
ATOM      2  C   UNL     1       1.471  13.424   5.377  1.00  0.00    -0.077 C 
ATOM      3  C   UNL     1       2.661  13.371   4.741  1.00  0.00    -0.027 C 
ATOM      4  C   UNL     1       2.826  13.689   3.275  1.00  0.00     0.035 C 
ATOM      5  C   UNL     1       1.509  13.532   2.495  1.00  0.00     0.018 C 
ATOM      6  C   UNL     1       0.374  14.254   3.237  1.00  0.00     0.013 C 
ATOM      7  C   UNL     1       0.171  13.631   4.624  1.00  0.00     0.031 C 
ENDROOT
BRANCH   5   8
ATOM      8  C   UNL     1       1.650  14.035   1.064  1.00  0.00    -0.077 C 
ATOM      9  C   UNL     1       2.147  15.260   0.827  1.00  0.00     0.008 C 
ATOM     10  C   UNL     1       1.230  13.189  -0.112  1.00  0.00     0.039 C 
ENDBRANCH   5   8
TORSDOF 1
ENDMDL
MODEL 9
REMARK VINA RESULT:    -4.793      1.729      3.165
REMARK INTER + INTRA:          -5.196
REMARK INTER:                  -5.066
REMARK INTRA:                  -0.129
REMARK UNBOUND:                -0.122
REMARK SMILES C=C(C)[C@H]1CC=C(C)CC1
REMARK SMILES IDX 8 1 7 2 6 3 5 4 4 5 10 6 9 7 2 8 1 9 3 10
REMARK H PARENT
REMARK Flexibility Score: inf
ROOT
ATOM      1  C   UNL     1       1.256  13.980  -0.149  1.00  0.00     0.039 C 
ATOM      2  C   UNL     1       1.095  13.876   1.342  1.00  0.00    -0.077 C 
ATOM      3  C   UNL     1       2.041  13.233   2.060  1.00  0.00    -0.027 C 
ATOM      4  C   UNL     1       1.944  13.030   3.553  1.00  0.00     0.035 C 
ATOM      5  C   UNL     1       1.010  14.055   4.219  1.00  0.00     0.018 C 
ATOM      6  C   UNL     1      -0.314  14.137   3.444  1.00  0.00     0.013 C 
ATOM      7  C   UNL     1      -0.055  14.607   2.007  1.00  0.00     0.031 C 
ENDROOT
BRANCH   5   8
ATOM      8  C   UNL     1       0.778  13.720   5.687  1.00  0.00    -0.077 C 
ATOM      9  C   UNL     1      -0.468  13.716   6.187  1.00  0.00     0.008 C 
ATOM     10  C   UNL     1       1.927  13.400   6.612  1.00  0.00     0.039 C 
ENDBRANCH   5   8
TORSDOF 1
ENDMDL
