MODEL 1
REMARK VINA RESULT:    -3.131      0.000      0.000
REMARK INTER + INTRA:          -3.535
REMARK INTER:                  -3.497
REMARK INTRA:                  -0.038
REMARK UNBOUND:                -0.038
REMARK SMILES CCCC(=O)[O-]
REMARK SMILES IDX 3 1 4 2 5 3 6 4 2 5 1 6
REMARK H PARENT
REMARK Flexibility Score: inf
ROOT
ATOM      1  C   UNL     1      -1.733  -3.107  22.822  1.00  0.00     0.052 C 
ENDROOT
BRANCH   1   2
ATOM      2  C   UNL     1      -1.316  -3.002  24.254  1.00  0.00     0.041 C 
ATOM      3  O   UNL     1      -0.624  -3.912  24.781  1.00  0.00    -0.550 OA
ATOM      4  O   UNL     1      -1.731  -1.921  25.022  1.00  0.00    -0.550 OA
ENDBRANCH   1   2
BRANCH   1   5
ATOM      5  C   UNL     1      -2.489  -1.846  22.391  1.00  0.00     0.003 C 
ATOM      6  C   UNL     1      -3.985  -2.118  22.265  1.00  0.00     0.004 C 
ENDBRANCH   1   5
TORSDOF 2
ENDMDL
MODEL 2
REMARK VINA RESULT:    -3.105      0.102      1.323
REMARK INTER + INTRA:          -3.505
REMARK INTER:                  -3.475
REMARK INTRA:                  -0.031
REMARK UNBOUND:                -0.038
REMARK SMILES CCCC(=O)[O-]
REMARK SMILES IDX 3 1 4 2 5 3 6 4 2 5 1 6
REMARK H PARENT
REMARK Flexibility Score: inf
ROOT
ATOM      1  C   UNL     1      -1.742  -3.134  22.889  1.00  0.00     0.052 C 
ENDROOT
BRANCH   1   2
ATOM      2  C   UNL     1      -1.327  -2.969  24.316  1.00  0.00     0.041 C 
ATOM      3  O   UNL     1      -1.731  -1.981  24.984  1.00  0.00    -0.550 OA
ATOM      4  O   UNL     1      -0.454  -3.881  24.896  1.00  0.00    -0.550 OA
ENDBRANCH   1   2
BRANCH   1   5
ATOM      5  C   UNL     1      -2.447  -1.870  22.387  1.00  0.00     0.003 C 
ATOM      6  C   UNL     1      -3.952  -2.090  22.264  1.00  0.00     0.004 C 
ENDBRANCH   1   5
TORSDOF 2
ENDMDL
MODEL 3
REMARK VINA RESULT:    -2.945     12.787     13.625
REMARK INTER + INTRA:          -3.327
REMARK INTER:                  -3.321
REMARK INTRA:                  -0.006
REMARK UNBOUND:                -0.038
REMARK SMILES CCCC(=O)[O-]
REMARK SMILES IDX 3 1 4 2 5 3 6 4 2 5 1 6
REMARK H PARENT
REMARK Flexibility Score: inf
ROOT
ATOM      1  C   UNL     1     -10.589   0.659  14.174  1.00  0.00     0.052 C 
ENDROOT
BRANCH   1   2
ATOM      2  C   UNL     1     -12.035   0.309  14.323  1.00  0.00     0.041 C 
ATOM      3  O   UNL     1     -12.671   0.665  15.350  1.00  0.00    -0.550 OA
ATOM      4  O   UNL     1     -12.671  -0.451  13.349  1.00  0.00    -0.550 OA
ENDBRANCH   1   2
BRANCH   1   5
ATOM      5  C   UNL     1      -9.973   0.983  15.538  1.00  0.00     0.003 C 
ATOM      6  C   UNL     1      -9.806   2.489  15.723  1.00  0.00     0.004 C 
ENDBRANCH   1   5
TORSDOF 2
ENDMDL
MODEL 4
REMARK VINA RESULT:    -2.939     13.400     14.109
REMARK INTER + INTRA:          -3.320
REMARK INTER:                  -3.297
REMARK INTRA:                  -0.023
REMARK UNBOUND:                -0.038
REMARK SMILES CCCC(=O)[O-]
REMARK SMILES IDX 3 1 4 2 5 3 6 4 2 5 1 6
REMARK H PARENT
REMARK Flexibility Score: inf
ROOT
ATOM      1  C   UNL     1     -12.485  -0.005  13.536  1.00  0.00     0.052 C 
ENDROOT
BRANCH   1   2
ATOM      2  C   UNL     1     -11.776   0.592  14.709  1.00  0.00     0.041 C 
ATOM      3  O   UNL     1     -10.517   0.586  14.760  1.00  0.00    -0.550 OA
ATOM      4  O   UNL     1     -12.504   1.114  15.771  1.00  0.00    -0.550 OA
ENDBRANCH   1   2
BRANCH   1   5
ATOM      5  C   UNL     1     -13.034  -1.390  13.891  1.00  0.00     0.003 C 
ATOM      6  C   UNL     1     -12.405  -2.472  13.017  1.00  0.00     0.004 C 
ENDBRANCH   1   5
TORSDOF 2
ENDMDL
MODEL 5
REMARK VINA RESULT:    -2.910     13.373     13.997
REMARK INTER + INTRA:          -3.288
REMARK INTER:                  -3.280
REMARK INTRA:                  -0.009
REMARK UNBOUND:                -0.038
REMARK SMILES CCCC(=O)[O-]
REMARK SMILES IDX 3 1 4 2 5 3 6 4 2 5 1 6
REMARK H PARENT
REMARK Flexibility Score: inf
ROOT
ATOM      1  C   UNL     1     -12.537   0.891  15.413  1.00  0.00     0.052 C 
ENDROOT
BRANCH   1   2
ATOM      2  C   UNL     1     -11.891   0.282  14.210  1.00  0.00     0.041 C 
ATOM      3  O   UNL     1     -12.584  -0.348  13.369  1.00  0.00    -0.550 OA
ATOM      4  O   UNL     1     -10.515   0.370  14.040  1.00  0.00    -0.550 OA
ENDBRANCH   1   2
BRANCH   1   5
ATOM      5  C   UNL     1     -11.718   2.085  15.913  1.00  0.00     0.003 C 
ATOM      6  C   UNL     1     -12.601   3.087  16.653  1.00  0.00     0.004 C 
ENDBRANCH   1   5
TORSDOF 2
ENDMDL
MODEL 6
REMARK VINA RESULT:    -2.872     12.694     13.263
REMARK INTER + INTRA:          -3.245
REMARK INTER:                  -3.221
REMARK INTRA:                  -0.024
REMARK UNBOUND:                -0.038
REMARK SMILES CCCC(=O)[O-]
REMARK SMILES IDX 3 1 4 2 5 3 6 4 2 5 1 6
REMARK H PARENT
REMARK Flexibility Score: inf
ROOT
ATOM      1  C   UNL     1     -10.659   2.313  15.517  1.00  0.00     0.052 C 
ENDROOT
BRANCH   1   2
ATOM      2  C   UNL     1     -12.068   2.052  15.947  1.00  0.00     0.041 C 
ATOM      3  O   UNL     1     -12.626   0.961  15.661  1.00  0.00    -0.550 OA
ATOM      4  O   UNL     1     -12.781   3.034  16.623  1.00  0.00    -0.550 OA
ENDBRANCH   1   2
BRANCH   1   5
ATOM      5  C   UNL     1      -9.851   1.012  15.513  1.00  0.00     0.003 C 
ATOM      6  C   UNL     1      -9.547   0.559  14.088  1.00  0.00     0.004 C 
ENDBRANCH   1   5
TORSDOF 2
ENDMDL
MODEL 7
REMARK VINA RESULT:    -2.714     13.061     13.731
REMARK INTER + INTRA:          -3.069
REMARK INTER:                  -3.041
REMARK INTRA:                  -0.029
REMARK UNBOUND:                -0.038
REMARK SMILES CCCC(=O)[O-]
REMARK SMILES IDX 3 1 4 2 5 3 6 4 2 5 1 6
REMARK H PARENT
REMARK Flexibility Score: inf
ROOT
ATOM      1  C   UNL     1     -11.180   0.379  14.225  1.00  0.00     0.052 C 
ENDROOT
BRANCH   1   2
ATOM      2  C   UNL     1     -11.311   1.392  15.318  1.00  0.00     0.041 C 
ATOM      3  O   UNL     1     -12.324   1.392  16.065  1.00  0.00    -0.550 OA
ATOM      4  O   UNL     1     -10.334   2.366  15.482  1.00  0.00    -0.550 OA
ENDBRANCH   1   2
BRANCH   1   5
ATOM      5  C   UNL     1     -12.562  -0.022  13.700  1.00  0.00     0.003 C 
ATOM      6  C   UNL     1     -12.664  -1.533  13.516  1.00  0.00     0.004 C 
ENDBRANCH   1   5
TORSDOF 2
ENDMDL
MODEL 8
REMARK VINA RESULT:    -2.679     12.229     13.074
REMARK INTER + INTRA:          -3.030
REMARK INTER:                  -3.023
REMARK INTRA:                  -0.006
REMARK UNBOUND:                -0.038
REMARK SMILES CCCC(=O)[O-]
REMARK SMILES IDX 3 1 4 2 5 3 6 4 2 5 1 6
REMARK H PARENT
REMARK Flexibility Score: inf
ROOT
ATOM      1  C   UNL     1     -11.671   1.377  15.510  1.00  0.00     0.052 C 
ENDROOT
BRANCH   1   2
ATOM      2  C   UNL     1     -12.083   2.208  16.682  1.00  0.00     0.041 C 
ATOM      3  O   UNL     1     -12.879   3.172  16.529  1.00  0.00    -0.550 OA
ATOM      4  O   UNL     1     -11.551   1.950  17.939  1.00  0.00    -0.550 OA
ENDBRANCH   1   2
BRANCH   1   5
ATOM      5  C   UNL     1     -10.145   1.328  15.398  1.00  0.00     0.003 C 
ATOM      6  C   UNL     1      -9.708   0.531  14.173  1.00  0.00     0.004 C 
ENDBRANCH   1   5
TORSDOF 2
ENDMDL
MODEL 9
REMARK VINA RESULT:    -2.574      2.253      2.548
REMARK INTER + INTRA:          -2.913
REMARK INTER:                  -2.899
REMARK INTRA:                  -0.013
REMARK UNBOUND:                -0.038
REMARK SMILES CCCC(=O)[O-]
REMARK SMILES IDX 3 1 4 2 5 3 6 4 2 5 1 6
REMARK H PARENT
REMARK Flexibility Score: inf
ROOT
ATOM      1  C   UNL     1      -1.719  -3.047  22.936  1.00  0.00     0.052 C 
ENDROOT
BRANCH   1   2
ATOM      2  C   UNL     1      -0.813  -3.743  21.971  1.00  0.00     0.041 C 
ATOM      3  O   UNL     1      -1.272  -4.612  21.183  1.00  0.00    -0.550 OA
ATOM      4  O   UNL     1       0.549  -3.468  21.974  1.00  0.00    -0.550 OA
ENDBRANCH   1   2
BRANCH   1   5
ATOM      5  C   UNL     1      -3.150  -3.006  22.391  1.00  0.00     0.003 C 
ATOM      6  C   UNL     1      -3.806  -1.657  22.671  1.00  0.00     0.004 C 
ENDBRANCH   1   5
TORSDOF 2
ENDMDL
