MODEL 1
REMARK VINA RESULT:    -4.447      0.000      0.000
REMARK INTER + INTRA:          -5.355
REMARK INTER:                  -5.227
REMARK INTRA:                  -0.128
REMARK UNBOUND:                -0.128
REMARK SMILES O=C([O-])C=Cc1ccc(O)c(O)c1
REMARK SMILES IDX 6 1 13 2 7 3 11 4 8 5 9 6 5 7 4 8 2 9 1 10 3 11 12 12 10 14
REMARK H PARENT 12 13 10 15
REMARK Flexibility Score: inf
ROOT
ATOM      1  C   UNL     1       7.183   6.530  26.623  1.00  0.00    -0.022 A 
ATOM      2  C   UNL     1       8.178   7.190  25.875  1.00  0.00     0.058 A 
ATOM      3  C   UNL     1       6.971   5.158  26.406  1.00  0.00     0.012 A 
ATOM      4  C   UNL     1       8.960   6.486  24.949  1.00  0.00     0.157 A 
ATOM      5  C   UNL     1       7.750   4.456  25.484  1.00  0.00     0.051 A 
ATOM      6  C   UNL     1       8.747   5.111  24.756  1.00  0.00     0.157 A 
ENDROOT
BRANCH   1   7
ATOM      7  C   UNL     1       6.322   7.234  27.606  1.00  0.00     0.010 C 
ATOM      8  C   UNL     1       5.528   8.267  27.294  1.00  0.00     0.025 C 
BRANCH   8   9
ATOM      9  C   UNL     1       4.700   8.944  28.304  1.00  0.00     0.064 C 
ATOM     10  O   UNL     1       5.001   8.845  29.522  1.00  0.00    -0.545 OA
ATOM     11  O   UNL     1       3.590   9.697  27.935  1.00  0.00    -0.545 OA
ENDBRANCH   8   9
ENDBRANCH   1   7
BRANCH   4  12
ATOM     12  O   UNL     1       9.945   7.147  24.216  1.00  0.00    -0.504 OA
ATOM     13  H   UNL     1       9.766   7.501  23.284  1.00  0.00     0.293 HD
ENDBRANCH   4  12
BRANCH   6  14
ATOM     14  O   UNL     1       9.511   4.383  23.844  1.00  0.00    -0.504 OA
ATOM     15  H   UNL     1       9.128   3.606  23.320  1.00  0.00     0.293 HD
ENDBRANCH   6  14
TORSDOF 4
ENDMDL
MODEL 2
REMARK VINA RESULT:    -4.294     14.325     15.449
REMARK INTER + INTRA:          -5.175
REMARK INTER:                  -5.047
REMARK INTRA:                  -0.128
REMARK UNBOUND:                -0.128
REMARK SMILES O=C([O-])C=Cc1ccc(O)c(O)c1
REMARK SMILES IDX 6 1 13 2 7 3 11 4 8 5 9 6 5 7 4 8 2 9 1 10 3 11 12 12 10 14
REMARK H PARENT 12 13 10 15
REMARK Flexibility Score: inf
ROOT
ATOM      1  C   UNL     1      18.003   6.521  35.759  1.00  0.00    -0.022 A 
ATOM      2  C   UNL     1      16.983   7.166  36.488  1.00  0.00     0.058 A 
ATOM      3  C   UNL     1      18.278   5.171  36.030  1.00  0.00     0.012 A 
ATOM      4  C   UNL     1      16.240   6.465  37.449  1.00  0.00     0.157 A 
ATOM      5  C   UNL     1      17.538   4.472  36.986  1.00  0.00     0.051 A 
ATOM      6  C   UNL     1      16.517   5.110  37.695  1.00  0.00     0.157 A 
ENDROOT
BRANCH   1   7
ATOM      7  C   UNL     1      18.824   7.224  34.741  1.00  0.00     0.010 C 
ATOM      8  C   UNL     1      19.631   8.256  35.020  1.00  0.00     0.025 C 
BRANCH   8   9
ATOM      9  C   UNL     1      20.418   8.931  33.977  1.00  0.00     0.064 C 
ATOM     10  O   UNL     1      20.051   8.856  32.775  1.00  0.00    -0.545 OA
ATOM     11  O   UNL     1      21.562   9.655  34.296  1.00  0.00    -0.545 OA
ENDBRANCH   8   9
ENDBRANCH   1   7
BRANCH   4  12
ATOM     12  O   UNL     1      15.231   7.111  38.162  1.00  0.00    -0.504 OA
ATOM     13  H   UNL     1      14.274   6.780  38.148  1.00  0.00     0.293 HD
ENDBRANCH   4  12
BRANCH   6  14
ATOM     14  O   UNL     1      15.793   4.386  38.642  1.00  0.00    -0.504 OA
ATOM     15  H   UNL     1      15.415   3.468  38.443  1.00  0.00     0.293 HD
ENDBRANCH   6  14
TORSDOF 4
ENDMDL
MODEL 3
REMARK VINA RESULT:    -4.130     12.054     12.932
REMARK INTER + INTRA:          -4.982
REMARK INTER:                  -4.841
REMARK INTRA:                  -0.141
REMARK UNBOUND:                -0.128
REMARK SMILES O=C([O-])C=Cc1ccc(O)c(O)c1
REMARK SMILES IDX 6 1 13 2 7 3 11 4 8 5 9 6 5 7 4 8 2 9 1 10 3 11 12 12 10 14
REMARK H PARENT 12 13 10 15
REMARK Flexibility Score: inf
ROOT
ATOM      1  C   UNL     1      13.682   6.857  36.946  1.00  0.00    -0.022 A 
ATOM      2  C   UNL     1      13.692   6.957  38.352  1.00  0.00     0.058 A 
ATOM      3  C   UNL     1      14.719   6.153  36.311  1.00  0.00     0.012 A 
ATOM      4  C   UNL     1      14.704   6.343  39.105  1.00  0.00     0.157 A 
ATOM      5  C   UNL     1      15.726   5.541  37.059  1.00  0.00     0.051 A 
ATOM      6  C   UNL     1      15.723   5.629  38.454  1.00  0.00     0.157 A 
ENDROOT
BRANCH   1   7
ATOM      7  C   UNL     1      12.640   7.499  36.106  1.00  0.00     0.010 C 
ATOM      8  C   UNL     1      12.095   6.922  35.027  1.00  0.00     0.025 C 
BRANCH   8   9
ATOM      9  C   UNL     1      11.073   7.600  34.216  1.00  0.00     0.064 C 
ATOM     10  O   UNL     1      11.429   8.384  33.297  1.00  0.00    -0.545 OA
ATOM     11  O   UNL     1       9.717   7.389  34.445  1.00  0.00    -0.545 OA
ENDBRANCH   8   9
ENDBRANCH   1   7
BRANCH   4  12
ATOM     12  O   UNL     1      14.702   6.445  40.495  1.00  0.00    -0.504 OA
ATOM     13  H   UNL     1      14.003   5.981  41.062  1.00  0.00     0.293 HD
ENDBRANCH   4  12
BRANCH   6  14
ATOM     14  O   UNL     1      16.741   5.005  39.175  1.00  0.00    -0.504 OA
ATOM     15  H   UNL     1      16.957   4.023  39.061  1.00  0.00     0.293 HD
ENDBRANCH   6  14
TORSDOF 4
ENDMDL
MODEL 4
REMARK VINA RESULT:    -4.109     17.130     18.208
REMARK INTER + INTRA:          -4.957
REMARK INTER:                  -4.826
REMARK INTRA:                  -0.131
REMARK UNBOUND:                -0.128
REMARK SMILES O=C([O-])C=Cc1ccc(O)c(O)c1
REMARK SMILES IDX 6 1 13 2 7 3 11 4 8 5 9 6 5 7 4 8 2 9 1 10 3 11 12 12 10 14
REMARK H PARENT 12 13 10 15
REMARK Flexibility Score: inf
ROOT
ATOM      1  C   UNL     1      10.483  -5.940  37.986  1.00  0.00    -0.022 A 
ATOM      2  C   UNL     1      10.659  -5.984  36.588  1.00  0.00     0.058 A 
ATOM      3  C   UNL     1       9.478  -6.729  38.568  1.00  0.00     0.012 A 
ATOM      4  C   UNL     1       9.861  -6.822  35.795  1.00  0.00     0.157 A 
ATOM      5  C   UNL     1       8.684  -7.564  37.779  1.00  0.00     0.051 A 
ATOM      6  C   UNL     1       8.871  -7.618  36.395  1.00  0.00     0.157 A 
ENDROOT
BRANCH   1   7
ATOM      7  C   UNL     1      11.294  -5.061  38.866  1.00  0.00     0.010 C 
ATOM      8  C   UNL     1      12.320  -5.495  39.610  1.00  0.00     0.025 C 
BRANCH   8   9
ATOM      9  C   UNL     1      13.089  -4.591  40.478  1.00  0.00     0.064 C 
ATOM     10  O   UNL     1      12.638  -3.444  40.736  1.00  0.00    -0.545 OA
ATOM     11  O   UNL     1      14.308  -4.982  41.022  1.00  0.00    -0.545 OA
ENDBRANCH   8   9
ENDBRANCH   1   7
BRANCH   4  12
ATOM     12  O   UNL     1      10.044  -6.861  34.414  1.00  0.00    -0.504 OA
ATOM     13  H   UNL     1       9.445  -6.343  33.783  1.00  0.00     0.293 HD
ENDBRANCH   4  12
BRANCH   6  14
ATOM     14  O   UNL     1       8.065  -8.463  35.633  1.00  0.00    -0.504 OA
ATOM     15  H   UNL     1       7.338  -8.108  35.024  1.00  0.00     0.293 HD
ENDBRANCH   6  14
TORSDOF 4
ENDMDL
MODEL 5
REMARK VINA RESULT:    -4.072     11.982     13.295
REMARK INTER + INTRA:          -4.914
REMARK INTER:                  -4.776
REMARK INTRA:                  -0.139
REMARK UNBOUND:                -0.128
REMARK SMILES O=C([O-])C=Cc1ccc(O)c(O)c1
REMARK SMILES IDX 6 1 13 2 7 3 11 4 8 5 9 6 5 7 4 8 2 9 1 10 3 11 12 12 10 14
REMARK H PARENT 12 13 10 15
REMARK Flexibility Score: inf
ROOT
ATOM      1  C   UNL     1      12.320   7.333  37.808  1.00  0.00    -0.022 A 
ATOM      2  C   UNL     1      12.461   8.294  38.830  1.00  0.00     0.058 A 
ATOM      3  C   UNL     1      13.033   6.128  37.909  1.00  0.00     0.012 A 
ATOM      4  C   UNL     1      13.281   8.040  39.939  1.00  0.00     0.157 A 
ATOM      5  C   UNL     1      13.849   5.874  39.014  1.00  0.00     0.051 A 
ATOM      6  C   UNL     1      13.975   6.822  40.032  1.00  0.00     0.157 A 
ENDROOT
BRANCH   1   7
ATOM      7  C   UNL     1      11.474   7.560  36.610  1.00  0.00     0.010 C 
ATOM      8  C   UNL     1      11.935   7.507  35.353  1.00  0.00     0.025 C 
BRANCH   8   9
ATOM      9  C   UNL     1      11.063   7.752  34.194  1.00  0.00     0.064 C 
ATOM     10  O   UNL     1       9.858   7.387  34.234  1.00  0.00    -0.545 OA
ATOM     11  O   UNL     1      11.546   8.384  33.053  1.00  0.00    -0.545 OA
ENDBRANCH   8   9
ENDBRANCH   1   7
BRANCH   4  12
ATOM     12  O   UNL     1      13.413   8.996  40.946  1.00  0.00    -0.504 OA
ATOM     13  H   UNL     1      12.709   9.707  41.099  1.00  0.00     0.293 HD
ENDBRANCH   4  12
BRANCH   6  14
ATOM     14  O   UNL     1      14.794   6.540  41.125  1.00  0.00    -0.504 OA
ATOM     15  H   UNL     1      15.780   6.769  41.131  1.00  0.00     0.293 HD
ENDBRANCH   6  14
TORSDOF 4
ENDMDL
MODEL 6
REMARK VINA RESULT:    -4.019     12.114     14.705
REMARK INTER + INTRA:          -4.851
REMARK INTER:                  -4.724
REMARK INTRA:                  -0.127
REMARK UNBOUND:                -0.128
REMARK SMILES O=C([O-])C=Cc1ccc(O)c(O)c1
REMARK SMILES IDX 6 1 13 2 7 3 11 4 8 5 9 6 5 7 4 8 2 9 1 10 3 11 12 12 10 14
REMARK H PARENT 12 13 10 15
REMARK Flexibility Score: inf
ROOT
ATOM      1  C   UNL     1      13.218  -4.786  23.799  1.00  0.00    -0.022 A 
ATOM      2  C   UNL     1      12.315  -5.524  23.007  1.00  0.00     0.058 A 
ATOM      3  C   UNL     1      13.340  -3.405  23.577  1.00  0.00     0.012 A 
ATOM      4  C   UNL     1      11.535  -4.886  22.032  1.00  0.00     0.157 A 
ATOM      5  C   UNL     1      12.564  -2.768  22.607  1.00  0.00     0.051 A 
ATOM      6  C   UNL     1      11.658  -3.501  21.835  1.00  0.00     0.157 A 
ENDROOT
BRANCH   1   7
ATOM      7  C   UNL     1      14.073  -5.418  24.835  1.00  0.00     0.010 C 
ATOM      8  C   UNL     1      14.808  -6.518  24.623  1.00  0.00     0.025 C 
BRANCH   8   9
ATOM      9  C   UNL     1      15.632  -7.118  25.684  1.00  0.00     0.064 C 
ATOM     10  O   UNL     1      15.261  -7.031  26.884  1.00  0.00    -0.545 OA
ATOM     11  O   UNL     1      16.816  -7.784  25.383  1.00  0.00    -0.545 OA
ENDBRANCH   8   9
ENDBRANCH   1   7
BRANCH   4  12
ATOM     12  O   UNL     1      10.642  -5.624  21.255  1.00  0.00    -0.504 OA
ATOM     13  H   UNL     1      10.937  -6.448  20.746  1.00  0.00     0.293 HD
ENDBRANCH   4  12
BRANCH   6  14
ATOM     14  O   UNL     1      10.893  -2.838  20.875  1.00  0.00    -0.504 OA
ATOM     15  H   UNL     1      11.210  -1.985  20.430  1.00  0.00     0.293 HD
ENDBRANCH   6  14
TORSDOF 4
ENDMDL
MODEL 7
REMARK VINA RESULT:    -3.948      5.926      9.018
REMARK INTER + INTRA:          -4.768
REMARK INTER:                  -4.645
REMARK INTRA:                  -0.123
REMARK UNBOUND:                -0.128
REMARK SMILES O=C([O-])C=Cc1ccc(O)c(O)c1
REMARK SMILES IDX 6 1 13 2 7 3 11 4 8 5 9 6 5 7 4 8 2 9 1 10 3 11 12 12 10 14
REMARK H PARENT 12 13 10 15
REMARK Flexibility Score: inf
ROOT
ATOM      1  C   UNL     1      12.786   5.208  21.802  1.00  0.00    -0.022 A 
ATOM      2  C   UNL     1      11.794   5.536  22.748  1.00  0.00     0.058 A 
ATOM      3  C   UNL     1      13.312   6.228  20.992  1.00  0.00     0.012 A 
ATOM      4  C   UNL     1      11.357   6.861  22.894  1.00  0.00     0.157 A 
ATOM      5  C   UNL     1      12.879   7.547  21.138  1.00  0.00     0.051 A 
ATOM      6  C   UNL     1      11.907   7.871  22.088  1.00  0.00     0.157 A 
ENDROOT
BRANCH   1   7
ATOM      7  C   UNL     1      13.271   3.820  21.601  1.00  0.00     0.010 C 
ATOM      8  C   UNL     1      12.941   2.794  22.397  1.00  0.00     0.025 C 
BRANCH   8   9
ATOM      9  C   UNL     1      13.456   1.435  22.168  1.00  0.00     0.064 C 
ATOM     10  O   UNL     1      14.666   1.181  22.407  1.00  0.00    -0.545 OA
ATOM     11  O   UNL     1      12.627   0.424  21.694  1.00  0.00    -0.545 OA
ENDBRANCH   8   9
ENDBRANCH   1   7
BRANCH   4  12
ATOM     12  O   UNL     1      10.378   7.176  23.835  1.00  0.00    -0.504 OA
ATOM     13  H   UNL     1      10.607   7.341  24.807  1.00  0.00     0.293 HD
ENDBRANCH   4  12
BRANCH   6  14
ATOM     14  O   UNL     1      11.496   9.198  22.213  1.00  0.00    -0.504 OA
ATOM     15  H   UNL     1      12.002   9.961  21.780  1.00  0.00     0.293 HD
ENDBRANCH   6  14
TORSDOF 4
ENDMDL
MODEL 8
REMARK VINA RESULT:    -3.943     13.046     15.469
REMARK INTER + INTRA:          -4.762
REMARK INTER:                  -4.635
REMARK INTRA:                  -0.127
REMARK UNBOUND:                -0.128
REMARK SMILES O=C([O-])C=Cc1ccc(O)c(O)c1
REMARK SMILES IDX 6 1 13 2 7 3 11 4 8 5 9 6 5 7 4 8 2 9 1 10 3 11 12 12 10 14
REMARK H PARENT 12 13 10 15
REMARK Flexibility Score: inf
ROOT
ATOM      1  C   UNL     1      14.771  -5.901  25.095  1.00  0.00    -0.022 A 
ATOM      2  C   UNL     1      14.418  -6.126  26.441  1.00  0.00     0.058 A 
ATOM      3  C   UNL     1      15.948  -6.485  24.597  1.00  0.00     0.012 A 
ATOM      4  C   UNL     1      15.214  -6.939  27.261  1.00  0.00     0.157 A 
ATOM      5  C   UNL     1      16.740  -7.295  25.413  1.00  0.00     0.051 A 
ATOM      6  C   UNL     1      16.378  -7.529  26.742  1.00  0.00     0.157 A 
ENDROOT
BRANCH   1   7
ATOM      7  C   UNL     1      13.968  -5.039  24.191  1.00  0.00     0.010 C 
ATOM      8  C   UNL     1      12.899  -5.469  23.508  1.00  0.00     0.025 C 
BRANCH   8   9
ATOM      9  C   UNL     1      12.140  -4.583  22.613  1.00  0.00     0.064 C 
ATOM     10  O   UNL     1      11.424  -5.082  21.706  1.00  0.00    -0.545 OA
ATOM     11  O   UNL     1      12.198  -3.200  22.754  1.00  0.00    -0.545 OA
ENDBRANCH   8   9
ENDBRANCH   1   7
BRANCH   4  12
ATOM     12  O   UNL     1      14.854  -7.158  28.590  1.00  0.00    -0.504 OA
ATOM     13  H   UNL     1      14.493  -8.050  28.903  1.00  0.00     0.293 HD
ENDBRANCH   4  12
BRANCH   6  14
ATOM     14  O   UNL     1      17.187  -8.345  27.532  1.00  0.00    -0.504 OA
ATOM     15  H   UNL     1      17.385  -9.307  27.286  1.00  0.00     0.293 HD
ENDBRANCH   6  14
TORSDOF 4
ENDMDL
MODEL 9
REMARK VINA RESULT:    -3.860     13.375     14.834
REMARK INTER + INTRA:          -4.665
REMARK INTER:                  -4.542
REMARK INTRA:                  -0.123
REMARK UNBOUND:                -0.128
REMARK SMILES O=C([O-])C=Cc1ccc(O)c(O)c1
REMARK SMILES IDX 6 1 13 2 7 3 11 4 8 5 9 6 5 7 4 8 2 9 1 10 3 11 12 12 10 14
REMARK H PARENT 12 13 10 15
REMARK Flexibility Score: inf
ROOT
ATOM      1  C   UNL     1      15.501   6.505  36.790  1.00  0.00    -0.022 A 
ATOM      2  C   UNL     1      15.685   6.380  38.182  1.00  0.00     0.058 A 
ATOM      3  C   UNL     1      14.208   6.744  36.298  1.00  0.00     0.012 A 
ATOM      4  C   UNL     1      14.601   6.516  39.061  1.00  0.00     0.157 A 
ATOM      5  C   UNL     1      13.127   6.880  37.172  1.00  0.00     0.051 A 
ATOM      6  C   UNL     1      13.317   6.771  38.552  1.00  0.00     0.157 A 
ENDROOT
BRANCH   1   7
ATOM      7  C   UNL     1      16.615   6.358  35.820  1.00  0.00     0.010 C 
ATOM      8  C   UNL     1      17.720   7.114  35.836  1.00  0.00     0.025 C 
BRANCH   8   9
ATOM      9  C   UNL     1      18.795   6.941  34.846  1.00  0.00     0.064 C 
ATOM     10  O   UNL     1      19.941   7.403  35.086  1.00  0.00    -0.545 OA
ATOM     11  O   UNL     1      18.566   6.273  33.648  1.00  0.00    -0.545 OA
ENDBRANCH   8   9
ENDBRANCH   1   7
BRANCH   4  12
ATOM     12  O   UNL     1      14.794   6.393  40.436  1.00  0.00    -0.504 OA
ATOM     13  H   UNL     1      14.149   5.875  41.019  1.00  0.00     0.293 HD
ENDBRANCH   4  12
BRANCH   6  14
ATOM     14  O   UNL     1      12.219   6.915  39.401  1.00  0.00    -0.504 OA
ATOM     15  H   UNL     1      12.198   6.505  40.327  1.00  0.00     0.293 HD
ENDBRANCH   6  14
TORSDOF 4
ENDMDL
