MODEL 1
REMARK VINA RESULT:    -3.555      0.000      0.000
REMARK INTER + INTRA:          -4.478
REMARK INTER:                  -4.386
REMARK INTRA:                  -0.092
REMARK UNBOUND:                -0.092
REMARK SMILES CCCCCC(=O)[O-]
REMARK SMILES IDX 4 1 5 2 6 3 7 4 8 5 3 6 2 7 1 8
REMARK H PARENT
REMARK Flexibility Score: inf
ROOT
ATOM      1  C   UNL     1      51.920  41.227  47.809  1.00  0.00     0.006 C 
ENDROOT
BRANCH   1   2
ATOM      2  C   UNL     1      52.976  40.389  48.543  1.00  0.00     0.053 C 
BRANCH   2   3
ATOM      3  C   UNL     1      53.769  39.579  47.568  1.00  0.00     0.041 C 
ATOM      4  O   UNL     1      53.499  39.625  46.339  1.00  0.00    -0.550 OA
ATOM      5  O   UNL     1      54.839  38.812  48.009  1.00  0.00    -0.550 OA
ENDBRANCH   2   3
ENDBRANCH   1   2
BRANCH   1   6
ATOM      6  C   UNL     1      52.318  42.706  47.686  1.00  0.00     0.000 C 
BRANCH   6   7
ATOM      7  C   UNL     1      51.863  43.333  46.360  1.00  0.00    -0.003 C 
ATOM      8  C   UNL     1      51.896  44.857  46.432  1.00  0.00     0.004 C 
ENDBRANCH   6   7
ENDBRANCH   1   6
TORSDOF 4
ENDMDL
MODEL 2
REMARK VINA RESULT:    -3.527      3.116      4.621
REMARK INTER + INTRA:          -4.444
REMARK INTER:                  -4.344
REMARK INTRA:                  -0.100
REMARK UNBOUND:                -0.092
REMARK SMILES CCCCCC(=O)[O-]
REMARK SMILES IDX 4 1 5 2 6 3 7 4 8 5 3 6 2 7 1 8
REMARK H PARENT
REMARK Flexibility Score: inf
ROOT
ATOM      1  C   UNL     1      52.310  42.439  47.975  1.00  0.00     0.006 C 
ENDROOT
BRANCH   1   2
ATOM      2  C   UNL     1      51.915  43.063  46.630  1.00  0.00     0.053 C 
BRANCH   2   3
ATOM      3  C   UNL     1      52.061  44.550  46.683  1.00  0.00     0.041 C 
ATOM      4  O   UNL     1      51.352  45.284  45.945  1.00  0.00    -0.550 OA
ATOM      5  O   UNL     1      52.946  45.131  47.582  1.00  0.00    -0.550 OA
ENDBRANCH   2   3
ENDBRANCH   1   2
BRANCH   1   6
ATOM      6  C   UNL     1      51.967  40.944  48.057  1.00  0.00     0.000 C 
BRANCH   6   7
ATOM      7  C   UNL     1      53.216  40.049  48.042  1.00  0.00    -0.003 C 
ATOM      8  C   UNL     1      53.631  39.709  46.614  1.00  0.00     0.004 C 
ENDBRANCH   6   7
ENDBRANCH   1   6
TORSDOF 4
ENDMDL
MODEL 3
REMARK VINA RESULT:    -3.515      2.749      3.361
REMARK INTER + INTRA:          -4.429
REMARK INTER:                  -4.348
REMARK INTRA:                  -0.082
REMARK UNBOUND:                -0.092
REMARK SMILES CCCCCC(=O)[O-]
REMARK SMILES IDX 4 1 5 2 6 3 7 4 8 5 3 6 2 7 1 8
REMARK H PARENT
REMARK Flexibility Score: inf
ROOT
ATOM      1  C   UNL     1      52.740  40.404  48.779  1.00  0.00     0.006 C 
ENDROOT
BRANCH   1   2
ATOM      2  C   UNL     1      51.844  39.890  49.914  1.00  0.00     0.053 C 
BRANCH   2   3
ATOM      3  C   UNL     1      52.326  40.407  51.232  1.00  0.00     0.041 C 
ATOM      4  O   UNL     1      53.248  39.811  51.847  1.00  0.00    -0.550 OA
ATOM      5  O   UNL     1      51.791  41.575  51.759  1.00  0.00    -0.550 OA
ENDBRANCH   2   3
ENDBRANCH   1   2
BRANCH   1   6
ATOM      6  C   UNL     1      51.963  41.217  47.732  1.00  0.00     0.000 C 
BRANCH   6   7
ATOM      7  C   UNL     1      52.337  42.706  47.744  1.00  0.00    -0.003 C 
ATOM      8  C   UNL     1      51.929  43.386  46.440  1.00  0.00     0.004 C 
ENDBRANCH   6   7
ENDBRANCH   1   6
TORSDOF 4
ENDMDL
MODEL 4
REMARK VINA RESULT:    -3.491      2.370      3.197
REMARK INTER + INTRA:          -4.400
REMARK INTER:                  -4.147
REMARK INTRA:                  -0.253
REMARK UNBOUND:                -0.092
REMARK SMILES CCCCCC(=O)[O-]
REMARK SMILES IDX 4 1 5 2 6 3 7 4 8 5 3 6 2 7 1 8
REMARK H PARENT
REMARK Flexibility Score: inf
ROOT
ATOM      1  C   UNL     1      51.803  40.247  48.534  1.00  0.00     0.006 C 
ENDROOT
BRANCH   1   2
ATOM      2  C   UNL     1      52.075  40.448  50.031  1.00  0.00     0.053 C 
BRANCH   2   3
ATOM      3  C   UNL     1      53.300  39.698  50.444  1.00  0.00     0.041 C 
ATOM      4  O   UNL     1      53.197  38.586  51.027  1.00  0.00    -0.550 OA
ATOM      5  O   UNL     1      54.559  40.201  50.142  1.00  0.00    -0.550 OA
ENDBRANCH   2   3
ENDBRANCH   1   2
BRANCH   1   6
ATOM      6  C   UNL     1      52.214  41.463  47.689  1.00  0.00     0.000 C 
BRANCH   6   7
ATOM      7  C   UNL     1      53.391  41.159  46.749  1.00  0.00    -0.003 C 
ATOM      8  C   UNL     1      53.683  39.662  46.701  1.00  0.00     0.004 C 
ENDBRANCH   6   7
ENDBRANCH   1   6
TORSDOF 4
ENDMDL
MODEL 5
REMARK VINA RESULT:    -3.489      2.051      3.135
REMARK INTER + INTRA:          -4.397
REMARK INTER:                  -4.243
REMARK INTRA:                  -0.154
REMARK UNBOUND:                -0.092
REMARK SMILES CCCCCC(=O)[O-]
REMARK SMILES IDX 4 1 5 2 6 3 7 4 8 5 3 6 2 7 1 8
REMARK H PARENT
REMARK Flexibility Score: inf
ROOT
ATOM      1  C   UNL     1      53.194  40.132  50.323  1.00  0.00     0.006 C 
ENDROOT
BRANCH   1   2
ATOM      2  C   UNL     1      53.763  38.784  50.782  1.00  0.00     0.053 C 
BRANCH   2   3
ATOM      3  C   UNL     1      54.968  38.424  49.974  1.00  0.00     0.041 C 
ATOM      4  O   UNL     1      54.955  38.559  48.722  1.00  0.00    -0.550 OA
ATOM      5  O   UNL     1      56.125  37.986  50.605  1.00  0.00    -0.550 OA
ENDBRANCH   2   3
ENDBRANCH   1   2
BRANCH   1   6
ATOM      6  C   UNL     1      51.838  39.992  49.614  1.00  0.00     0.000 C 
BRANCH   6   7
ATOM      7  C   UNL     1      51.907  40.366  48.126  1.00  0.00    -0.003 C 
ATOM      8  C   UNL     1      52.245  41.843  47.945  1.00  0.00     0.004 C 
ENDBRANCH   6   7
ENDBRANCH   1   6
TORSDOF 4
ENDMDL
MODEL 6
REMARK VINA RESULT:    -3.467      2.560      3.819
REMARK INTER + INTRA:          -4.370
REMARK INTER:                  -4.116
REMARK INTRA:                  -0.254
REMARK UNBOUND:                -0.092
REMARK SMILES CCCCCC(=O)[O-]
REMARK SMILES IDX 4 1 5 2 6 3 7 4 8 5 3 6 2 7 1 8
REMARK H PARENT
REMARK Flexibility Score: inf
ROOT
ATOM      1  C   UNL     1      52.112  41.554  47.737  1.00  0.00     0.006 C 
ENDROOT
BRANCH   1   2
ATOM      2  C   UNL     1      52.633  42.130  49.060  1.00  0.00     0.053 C 
BRANCH   2   3
ATOM      3  C   UNL     1      52.478  41.130  50.161  1.00  0.00     0.041 C 
ATOM      4  O   UNL     1      52.893  41.393  51.320  1.00  0.00    -0.550 OA
ATOM      5  O   UNL     1      51.829  39.926  49.920  1.00  0.00    -0.550 OA
ENDBRANCH   2   3
ENDBRANCH   1   2
BRANCH   1   6
ATOM      6  C   UNL     1      53.244  41.208  46.756  1.00  0.00     0.000 C 
BRANCH   6   7
ATOM      7  C   UNL     1      53.474  39.695  46.628  1.00  0.00    -0.003 C 
ATOM      8  C   UNL     1      54.540  39.216  47.610  1.00  0.00     0.004 C 
ENDBRANCH   6   7
ENDBRANCH   1   6
TORSDOF 4
ENDMDL
MODEL 7
REMARK VINA RESULT:    -3.458      1.422      1.786
REMARK INTER + INTRA:          -4.358
REMARK INTER:                  -4.117
REMARK INTRA:                  -0.241
REMARK UNBOUND:                -0.092
REMARK SMILES CCCCCC(=O)[O-]
REMARK SMILES IDX 4 1 5 2 6 3 7 4 8 5 3 6 2 7 1 8
REMARK H PARENT
REMARK Flexibility Score: inf
ROOT
ATOM      1  C   UNL     1      52.211  40.944  48.134  1.00  0.00     0.006 C 
ENDROOT
BRANCH   1   2
ATOM      2  C   UNL     1      53.039  39.929  47.335  1.00  0.00     0.053 C 
BRANCH   2   3
ATOM      3  C   UNL     1      54.423  39.832  47.893  1.00  0.00     0.041 C 
ATOM      4  O   UNL     1      55.205  40.816  47.825  1.00  0.00    -0.550 OA
ATOM      5  O   UNL     1      54.835  38.670  48.534  1.00  0.00    -0.550 OA
ENDBRANCH   2   3
ENDBRANCH   1   2
BRANCH   1   6
ATOM      6  C   UNL     1      51.922  42.228  47.339  1.00  0.00     0.000 C 
BRANCH   6   7
ATOM      7  C   UNL     1      52.610  43.462  47.940  1.00  0.00    -0.003 C 
ATOM      8  C   UNL     1      52.929  43.250  49.418  1.00  0.00     0.004 C 
ENDBRANCH   6   7
ENDBRANCH   1   6
TORSDOF 4
ENDMDL
MODEL 8
REMARK VINA RESULT:    -3.422      1.720      2.442
REMARK INTER + INTRA:          -4.314
REMARK INTER:                  -4.146
REMARK INTRA:                  -0.168
REMARK UNBOUND:                -0.092
REMARK SMILES CCCCCC(=O)[O-]
REMARK SMILES IDX 4 1 5 2 6 3 7 4 8 5 3 6 2 7 1 8
REMARK H PARENT
REMARK Flexibility Score: inf
ROOT
ATOM      1  C   UNL     1      53.561  40.099  46.823  1.00  0.00     0.006 C 
ENDROOT
BRANCH   1   2
ATOM      2  C   UNL     1      54.484  38.992  47.352  1.00  0.00     0.053 C 
BRANCH   2   3
ATOM      3  C   UNL     1      54.989  39.342  48.715  1.00  0.00     0.041 C 
ATOM      4  O   UNL     1      54.806  38.555  49.680  1.00  0.00    -0.550 OA
ATOM      5  O   UNL     1      55.706  40.515  48.911  1.00  0.00    -0.550 OA
ENDBRANCH   2   3
ENDBRANCH   1   2
BRANCH   1   6
ATOM      6  C   UNL     1      52.393  40.401  47.774  1.00  0.00     0.000 C 
BRANCH   6   7
ATOM      7  C   UNL     1      52.354  41.873  48.213  1.00  0.00    -0.003 C 
ATOM      8  C   UNL     1      52.016  42.788  47.039  1.00  0.00     0.004 C 
ENDBRANCH   6   7
ENDBRANCH   1   6
TORSDOF 4
ENDMDL
MODEL 9
REMARK VINA RESULT:    -3.388      2.543      4.657
REMARK INTER + INTRA:          -4.272
REMARK INTER:                  -4.128
REMARK INTRA:                  -0.145
REMARK UNBOUND:                -0.092
REMARK SMILES CCCCCC(=O)[O-]
REMARK SMILES IDX 4 1 5 2 6 3 7 4 8 5 3 6 2 7 1 8
REMARK H PARENT
REMARK Flexibility Score: inf
ROOT
ATOM      1  C   UNL     1      53.364  39.997  47.188  1.00  0.00     0.006 C 
ENDROOT
BRANCH   1   2
ATOM      2  C   UNL     1      52.259  40.529  48.110  1.00  0.00     0.053 C 
BRANCH   2   3
ATOM      3  C   UNL     1      52.219  42.023  48.067  1.00  0.00     0.041 C 
ATOM      4  O   UNL     1      52.637  42.696  49.046  1.00  0.00    -0.550 OA
ATOM      5  O   UNL     1      51.767  42.674  46.927  1.00  0.00    -0.550 OA
ENDBRANCH   2   3
ENDBRANCH   1   2
BRANCH   1   6
ATOM      6  C   UNL     1      54.452  39.225  47.951  1.00  0.00     0.000 C 
BRANCH   6   7
ATOM      7  C   UNL     1      54.262  39.288  49.474  1.00  0.00    -0.003 C 
ATOM      8  C   UNL     1      55.013  38.155  50.169  1.00  0.00     0.004 C 
ENDBRANCH   6   7
ENDBRANCH   1   6
TORSDOF 4
ENDMDL
