MODEL 1
REMARK VINA RESULT:    -3.083      0.000      0.000
REMARK INTER + INTRA:         -12.767
REMARK INTER:                  -8.039
REMARK INTRA:                  -4.728
REMARK UNBOUND:                -4.728
REMARK SMILES CCCCCCCCCCCCCCCCCCCCCCCCCCCCCO
REMARK SMILES IDX 16 1 15 2 14 3 13 4 12 5 11 6 10 7 9 8 8 9 7 10 6 11 5 12
REMARK SMILES IDX 4 13 3 14 2 15 1 16 17 17 18 18 19 19 20 20 21 21 22 22
REMARK SMILES IDX 23 23 24 24 25 25 26 26 27 27 28 28 29 29 30 30
REMARK H PARENT 30 31
REMARK Flexibility Score: inf
ROOT
ATOM      1  C   UNL     1       8.763   2.075   0.379  1.00  0.00     0.000 C 
ENDROOT
BRANCH   1   2
ATOM      2  C   UNL     1       8.850   2.901  -0.922  1.00  0.00     0.000 C 
BRANCH   2   3
ATOM      3  C   UNL     1       9.318   2.126  -2.165  1.00  0.00     0.000 C 
BRANCH   3   4
ATOM      4  C   UNL     1       8.361   2.278  -3.361  1.00  0.00     0.000 C 
BRANCH   4   5
ATOM      5  C   UNL     1       7.395   3.467  -3.199  1.00  0.00     0.000 C 
BRANCH   5   6
ATOM      6  C   UNL     1       5.905   3.108  -3.345  1.00  0.00     0.000 C 
BRANCH   6   7
ATOM      7  C   UNL     1       4.974   4.283  -2.999  1.00  0.00     0.000 C 
BRANCH   7   8
ATOM      8  C   UNL     1       5.577   5.655  -3.357  1.00  0.00    -0.000 C 
BRANCH   8   9
ATOM      9  C   UNL     1       4.803   6.451  -4.425  1.00  0.00    -0.000 C 
BRANCH   9  10
ATOM     10  C   UNL     1       5.653   6.786  -5.662  1.00  0.00    -0.000 C 
BRANCH  10  11
ATOM     11  C   UNL     1       6.469   5.586  -6.169  1.00  0.00    -0.000 C 
BRANCH  11  12
ATOM     12  C   UNL     1       5.713   4.762  -7.224  1.00  0.00    -0.000 C 
BRANCH  12  13
ATOM     13  C   UNL     1       5.530   3.289  -6.817  1.00  0.00    -0.000 C 
BRANCH  13  14
ATOM     14  C   UNL     1       4.127   2.702  -7.077  1.00  0.00    -0.000 C 
BRANCH  14  15
ATOM     15  C   UNL     1       3.222   2.602  -5.837  1.00  0.00    -0.003 C 
ATOM     16  C   UNL     1       2.373   3.853  -5.616  1.00  0.00     0.004 C 
ENDBRANCH  14  15
ENDBRANCH  13  14
ENDBRANCH  12  13
ENDBRANCH  11  12
ENDBRANCH  10  11
ENDBRANCH   9  10
ENDBRANCH   8   9
ENDBRANCH   7   8
ENDBRANCH   6   7
ENDBRANCH   5   6
ENDBRANCH   4   5
ENDBRANCH   3   4
ENDBRANCH   2   3
ENDBRANCH   1   2
BRANCH   1  17
ATOM     17  C   UNL     1       7.474   2.314   1.193  1.00  0.00     0.000 C 
BRANCH  17  18
ATOM     18  C   UNL     1       6.390   3.038   0.375  1.00  0.00     0.000 C 
BRANCH  18  19
ATOM     19  C   UNL     1       5.257   2.098  -0.076  1.00  0.00     0.000 C 
BRANCH  19  20
ATOM     20  C   UNL     1       5.596   0.596   0.007  1.00  0.00     0.000 C 
BRANCH  20  21
ATOM     21  C   UNL     1       6.203   0.050  -1.300  1.00  0.00     0.000 C 
BRANCH  21  22
ATOM     22  C   UNL     1       5.126  -0.332  -2.339  1.00  0.00     0.000 C 
BRANCH  22  23
ATOM     23  C   UNL     1       5.703  -0.853  -3.666  1.00  0.00     0.000 C 
BRANCH  23  24
ATOM     24  C   UNL     1       5.296  -2.300  -3.971  1.00  0.00     0.000 C 
BRANCH  24  25
ATOM     25  C   UNL     1       4.391  -2.855  -2.862  1.00  0.00     0.000 C 
BRANCH  25  26
ATOM     26  C   UNL     1       3.246  -3.721  -3.409  1.00  0.00     0.000 C 
BRANCH  26  27
ATOM     27  C   UNL     1       2.456  -4.425  -2.297  1.00  0.00     0.002 C 
BRANCH  27  28
ATOM     28  C   UNL     1       2.659  -3.723  -0.948  1.00  0.00     0.028 C 
BRANCH  28  29
ATOM     29  C   UNL     1       1.443  -2.875  -0.577  1.00  0.00     0.156 C 
BRANCH  29  30
ATOM     30  O   UNL     1       1.797  -1.967   0.428  1.00  0.00    -0.396 OA
ATOM     31  H   UNL     1       1.142  -1.220   0.366  1.00  0.00     0.210 HD
ENDBRANCH  29  30
ENDBRANCH  28  29
ENDBRANCH  27  28
ENDBRANCH  26  27
ENDBRANCH  25  26
ENDBRANCH  24  25
ENDBRANCH  23  24
ENDBRANCH  22  23
ENDBRANCH  21  22
ENDBRANCH  20  21
ENDBRANCH  19  20
ENDBRANCH  18  19
ENDBRANCH  17  18
ENDBRANCH   1  17
TORSDOF 28
ENDMDL
MODEL 2
REMARK VINA RESULT:    -3.051      2.977      8.642
REMARK INTER + INTRA:         -12.683
REMARK INTER:                  -8.420
REMARK INTRA:                  -4.263
REMARK UNBOUND:                -4.728
REMARK SMILES CCCCCCCCCCCCCCCCCCCCCCCCCCCCCO
REMARK SMILES IDX 16 1 15 2 14 3 13 4 12 5 11 6 10 7 9 8 8 9 7 10 6 11 5 12
REMARK SMILES IDX 4 13 3 14 2 15 1 16 17 17 18 18 19 19 20 20 21 21 22 22
REMARK SMILES IDX 23 23 24 24 25 25 26 26 27 27 28 28 29 29 30 30
REMARK H PARENT 30 31
REMARK Flexibility Score: inf
ROOT
ATOM      1  C   UNL     1       6.665  -1.162  -3.141  1.00  0.00     0.000 C 
ENDROOT
BRANCH   1   2
ATOM      2  C   UNL     1       5.981  -2.543  -3.216  1.00  0.00     0.000 C 
BRANCH   2   3
ATOM      3  C   UNL     1       4.519  -2.581  -2.739  1.00  0.00     0.000 C 
BRANCH   3   4
ATOM      4  C   UNL     1       4.322  -3.445  -1.481  1.00  0.00     0.000 C 
BRANCH   4   5
ATOM      5  C   UNL     1       2.847  -3.819  -1.243  1.00  0.00     0.000 C 
BRANCH   5   6
ATOM      6  C   UNL     1       2.554  -5.330  -1.277  1.00  0.00     0.000 C 
BRANCH   6   7
ATOM      7  C   UNL     1       3.107  -6.013  -2.540  1.00  0.00     0.000 C 
BRANCH   7   8
ATOM      8  C   UNL     1       2.065  -6.131  -3.668  1.00  0.00    -0.000 C 
BRANCH   8   9
ATOM      9  C   UNL     1       2.350  -5.270  -4.913  1.00  0.00    -0.000 C 
BRANCH   9  10
ATOM     10  C   UNL     1       1.694  -3.880  -4.849  1.00  0.00    -0.000 C 
BRANCH  10  11
ATOM     11  C   UNL     1       0.185  -3.945  -4.564  1.00  0.00    -0.000 C 
BRANCH  11  12
ATOM     12  C   UNL     1      -0.659  -3.942  -5.850  1.00  0.00    -0.000 C 
BRANCH  12  13
ATOM     13  C   UNL     1      -1.834  -4.934  -5.798  1.00  0.00    -0.000 C 
BRANCH  13  14
ATOM     14  C   UNL     1      -1.513  -6.304  -5.164  1.00  0.00    -0.000 C 
BRANCH  14  15
ATOM     15  C   UNL     1      -0.912  -7.343  -6.127  1.00  0.00    -0.003 C 
ATOM     16  C   UNL     1      -0.183  -8.475  -5.404  1.00  0.00     0.004 C 
ENDBRANCH  14  15
ENDBRANCH  13  14
ENDBRANCH  12  13
ENDBRANCH  11  12
ENDBRANCH  10  11
ENDBRANCH   9  10
ENDBRANCH   8   9
ENDBRANCH   7   8
ENDBRANCH   6   7
ENDBRANCH   5   6
ENDBRANCH   4   5
ENDBRANCH   3   4
ENDBRANCH   2   3
ENDBRANCH   1   2
BRANCH   1  17
ATOM     17  C   UNL     1       6.606  -0.503  -1.746  1.00  0.00     0.000 C 
BRANCH  17  18
ATOM     18  C   UNL     1       5.667   0.716  -1.715  1.00  0.00     0.000 C 
BRANCH  18  19
ATOM     19  C   UNL     1       5.328   1.171  -0.283  1.00  0.00     0.000 C 
BRANCH  19  20
ATOM     20  C   UNL     1       5.251   2.699  -0.095  1.00  0.00     0.000 C 
BRANCH  20  21
ATOM     21  C   UNL     1       6.546   3.293   0.493  1.00  0.00     0.000 C 
BRANCH  21  22
ATOM     22  C   UNL     1       7.396   2.240   1.237  1.00  0.00     0.000 C 
BRANCH  22  23
ATOM     23  C   UNL     1       8.705   1.880   0.516  1.00  0.00     0.000 C 
BRANCH  23  24
ATOM     24  C   UNL     1       9.006   2.796  -0.676  1.00  0.00     0.000 C 
BRANCH  24  25
ATOM     25  C   UNL     1       9.277   1.970  -1.942  1.00  0.00     0.000 C 
BRANCH  25  26
ATOM     26  C   UNL     1       8.533   2.510  -3.173  1.00  0.00     0.000 C 
BRANCH  26  27
ATOM     27  C   UNL     1       7.786   3.819  -2.883  1.00  0.00     0.002 C 
BRANCH  27  28
ATOM     28  C   UNL     1       6.693   4.074  -3.929  1.00  0.00     0.028 C 
BRANCH  28  29
ATOM     29  C   UNL     1       5.353   4.388  -3.265  1.00  0.00     0.156 C 
BRANCH  29  30
ATOM     30  O   UNL     1       5.473   5.552  -2.499  1.00  0.00    -0.396 OA
ATOM     31  H   UNL     1       6.025   6.180  -3.039  1.00  0.00     0.210 HD
ENDBRANCH  29  30
ENDBRANCH  28  29
ENDBRANCH  27  28
ENDBRANCH  26  27
ENDBRANCH  25  26
ENDBRANCH  24  25
ENDBRANCH  23  24
ENDBRANCH  22  23
ENDBRANCH  21  22
ENDBRANCH  20  21
ENDBRANCH  19  20
ENDBRANCH  18  19
ENDBRANCH  17  18
ENDBRANCH   1  17
TORSDOF 28
ENDMDL
MODEL 3
REMARK VINA RESULT:    -3.047      2.130      6.404
REMARK INTER + INTRA:         -12.675
REMARK INTER:                  -7.479
REMARK INTRA:                  -5.196
REMARK UNBOUND:                -4.728
REMARK SMILES CCCCCCCCCCCCCCCCCCCCCCCCCCCCCO
REMARK SMILES IDX 16 1 15 2 14 3 13 4 12 5 11 6 10 7 9 8 8 9 7 10 6 11 5 12
REMARK SMILES IDX 4 13 3 14 2 15 1 16 17 17 18 18 19 19 20 20 21 21 22 22
REMARK SMILES IDX 23 23 24 24 25 25 26 26 27 27 28 28 29 29 30 30
REMARK H PARENT 30 31
REMARK Flexibility Score: inf
ROOT
ATOM      1  C   UNL     1       5.265   3.603  -2.815  1.00  0.00     0.000 C 
ENDROOT
BRANCH   1   2
ATOM      2  C   UNL     1       5.422   2.779  -1.521  1.00  0.00     0.000 C 
BRANCH   2   3
ATOM      3  C   UNL     1       5.936   3.560  -0.300  1.00  0.00     0.000 C 
BRANCH   3   4
ATOM      4  C   UNL     1       6.833   2.711   0.620  1.00  0.00     0.000 C 
BRANCH   4   5
ATOM      5  C   UNL     1       8.157   2.306  -0.054  1.00  0.00     0.000 C 
BRANCH   5   6
ATOM      6  C   UNL     1       8.863   3.441  -0.818  1.00  0.00     0.000 C 
BRANCH   6   7
ATOM      7  C   UNL     1       9.527   2.957  -2.119  1.00  0.00     0.000 C 
BRANCH   7   8
ATOM      8  C   UNL     1       8.973   3.657  -3.375  1.00  0.00    -0.000 C 
BRANCH   8   9
ATOM      9  C   UNL     1       8.504   2.712  -4.497  1.00  0.00    -0.000 C 
BRANCH   9  10
ATOM     10  C   UNL     1       8.237   1.278  -4.005  1.00  0.00    -0.000 C 
BRANCH  10  11
ATOM     11  C   UNL     1       6.823   0.784  -4.348  1.00  0.00    -0.000 C 
BRANCH  11  12
ATOM     12  C   UNL     1       6.358  -0.357  -3.428  1.00  0.00    -0.000 C 
BRANCH  12  13
ATOM     13  C   UNL     1       7.243  -0.519  -2.180  1.00  0.00    -0.000 C 
BRANCH  13  14
ATOM     14  C   UNL     1       6.491  -0.867  -0.877  1.00  0.00    -0.000 C 
BRANCH  14  15
ATOM     15  C   UNL     1       4.956  -0.846  -0.986  1.00  0.00    -0.003 C 
ATOM     16  C   UNL     1       4.348  -2.242  -1.112  1.00  0.00     0.004 C 
ENDBRANCH  14  15
ENDBRANCH  13  14
ENDBRANCH  12  13
ENDBRANCH  11  12
ENDBRANCH  10  11
ENDBRANCH   9  10
ENDBRANCH   8   9
ENDBRANCH   7   8
ENDBRANCH   6   7
ENDBRANCH   5   6
ENDBRANCH   4   5
ENDBRANCH   3   4
ENDBRANCH   2   3
ENDBRANCH   1   2
BRANCH   1  17
ATOM     17  C   UNL     1       5.612   5.099  -2.657  1.00  0.00     0.000 C 
BRANCH  17  18
ATOM     18  C   UNL     1       5.005   5.962  -3.778  1.00  0.00     0.000 C 
BRANCH  18  19
ATOM     19  C   UNL     1       5.985   6.207  -4.939  1.00  0.00     0.000 C 
BRANCH  19  20
ATOM     20  C   UNL     1       5.533   5.631  -6.295  1.00  0.00     0.000 C 
BRANCH  20  21
ATOM     21  C   UNL     1       5.962   4.164  -6.492  1.00  0.00     0.000 C 
BRANCH  21  22
ATOM     22  C   UNL     1       4.776   3.244  -6.855  1.00  0.00     0.000 C 
BRANCH  22  23
ATOM     23  C   UNL     1       3.400   3.894  -6.636  1.00  0.00     0.000 C 
BRANCH  23  24
ATOM     24  C   UNL     1       2.713   3.428  -5.346  1.00  0.00     0.000 C 
BRANCH  24  25
ATOM     25  C   UNL     1       1.655   4.446  -4.896  1.00  0.00     0.000 C 
BRANCH  25  26
ATOM     26  C   UNL     1       0.331   4.303  -5.663  1.00  0.00     0.000 C 
BRANCH  26  27
ATOM     27  C   UNL     1      -0.831   5.030  -4.973  1.00  0.00     0.002 C 
BRANCH  27  28
ATOM     28  C   UNL     1      -0.965   4.589  -3.510  1.00  0.00     0.028 C 
BRANCH  28  29
ATOM     29  C   UNL     1      -2.214   3.732  -3.301  1.00  0.00     0.156 C 
BRANCH  29  30
ATOM     30  O   UNL     1      -1.862   2.547  -2.646  1.00  0.00    -0.396 OA
ATOM     31  H   UNL     1      -2.526   1.866  -2.936  1.00  0.00     0.210 HD
ENDBRANCH  29  30
ENDBRANCH  28  29
ENDBRANCH  27  28
ENDBRANCH  26  27
ENDBRANCH  25  26
ENDBRANCH  24  25
ENDBRANCH  23  24
ENDBRANCH  22  23
ENDBRANCH  21  22
ENDBRANCH  20  21
ENDBRANCH  19  20
ENDBRANCH  18  19
ENDBRANCH  17  18
ENDBRANCH   1  17
TORSDOF 28
ENDMDL
MODEL 4
REMARK VINA RESULT:    -3.041      1.340      3.052
REMARK INTER + INTRA:         -12.659
REMARK INTER:                  -7.438
REMARK INTRA:                  -5.221
REMARK UNBOUND:                -4.728
REMARK SMILES CCCCCCCCCCCCCCCCCCCCCCCCCCCCCO
REMARK SMILES IDX 16 1 15 2 14 3 13 4 12 5 11 6 10 7 9 8 8 9 7 10 6 11 5 12
REMARK SMILES IDX 4 13 3 14 2 15 1 16 17 17 18 18 19 19 20 20 21 21 22 22
REMARK SMILES IDX 23 23 24 24 25 25 26 26 27 27 28 28 29 29 30 30
REMARK H PARENT 30 31
REMARK Flexibility Score: inf
ROOT
ATOM      1  C   UNL     1       5.570   3.491  -1.838  1.00  0.00     0.000 C 
ENDROOT
BRANCH   1   2
ATOM      2  C   UNL     1       6.770   3.826  -2.748  1.00  0.00     0.000 C 
BRANCH   2   3
ATOM      3  C   UNL     1       6.536   4.966  -3.754  1.00  0.00     0.000 C 
BRANCH   3   4
ATOM      4  C   UNL     1       5.336   5.854  -3.382  1.00  0.00     0.000 C 
BRANCH   4   5
ATOM      5  C   UNL     1       4.634   6.449  -4.617  1.00  0.00     0.000 C 
BRANCH   5   6
ATOM      6  C   UNL     1       5.584   7.055  -5.667  1.00  0.00     0.000 C 
BRANCH   6   7
ATOM      7  C   UNL     1       5.199   6.674  -7.106  1.00  0.00     0.000 C 
BRANCH   7   8
ATOM      8  C   UNL     1       6.359   6.035  -7.893  1.00  0.00    -0.000 C 
BRANCH   8   9
ATOM      9  C   UNL     1       7.670   5.866  -7.101  1.00  0.00    -0.000 C 
BRANCH   9  10
ATOM     10  C   UNL     1       8.377   4.529  -7.383  1.00  0.00    -0.000 C 
BRANCH  10  11
ATOM     11  C   UNL     1       7.877   3.388  -6.483  1.00  0.00    -0.000 C 
BRANCH  11  12
ATOM     12  C   UNL     1       7.227   2.247  -7.284  1.00  0.00    -0.000 C 
BRANCH  12  13
ATOM     13  C   UNL     1       5.855   1.831  -6.727  1.00  0.00    -0.000 C 
BRANCH  13  14
ATOM     14  C   UNL     1       4.865   2.988  -6.477  1.00  0.00    -0.000 C 
BRANCH  14  15
ATOM     15  C   UNL     1       3.956   2.815  -5.247  1.00  0.00    -0.003 C 
ATOM     16  C   UNL     1       2.596   3.492  -5.411  1.00  0.00     0.004 C 
ENDBRANCH  14  15
ENDBRANCH  13  14
ENDBRANCH  12  13
ENDBRANCH  11  12
ENDBRANCH  10  11
ENDBRANCH   9  10
ENDBRANCH   8   9
ENDBRANCH   7   8
ENDBRANCH   6   7
ENDBRANCH   5   6
ENDBRANCH   4   5
ENDBRANCH   3   4
ENDBRANCH   2   3
ENDBRANCH   1   2
BRANCH   1  17
ATOM     17  C   UNL     1       5.887   3.550  -0.328  1.00  0.00     0.000 C 
BRANCH  17  18
ATOM     18  C   UNL     1       5.550   2.232   0.392  1.00  0.00     0.000 C 
BRANCH  18  19
ATOM     19  C   UNL     1       6.801   1.398   0.725  1.00  0.00     0.000 C 
BRANCH  19  20
ATOM     20  C   UNL     1       8.136   2.055   0.323  1.00  0.00     0.000 C 
BRANCH  20  21
ATOM     21  C   UNL     1       8.762   1.414  -0.931  1.00  0.00     0.000 C 
BRANCH  21  22
ATOM     22  C   UNL     1       7.941   0.216  -1.455  1.00  0.00     0.000 C 
BRANCH  22  23
ATOM     23  C   UNL     1       7.815   0.175  -2.987  1.00  0.00     0.000 C 
BRANCH  23  24
ATOM     24  C   UNL     1       6.361   0.086  -3.468  1.00  0.00     0.000 C 
BRANCH  24  25
ATOM     25  C   UNL     1       5.411  -0.156  -2.286  1.00  0.00     0.000 C 
BRANCH  25  26
ATOM     26  C   UNL     1       4.834  -1.580  -2.271  1.00  0.00     0.000 C 
BRANCH  26  27
ATOM     27  C   UNL     1       3.968  -1.852  -1.033  1.00  0.00     0.002 C 
BRANCH  27  28
ATOM     28  C   UNL     1       3.064  -3.072  -1.251  1.00  0.00     0.028 C 
BRANCH  28  29
ATOM     29  C   UNL     1       1.669  -2.838  -0.671  1.00  0.00     0.156 C 
BRANCH  29  30
ATOM     30  O   UNL     1       1.768  -2.041   0.475  1.00  0.00    -0.396 OA
ATOM     31  H   UNL     1       0.876  -2.081   0.914  1.00  0.00     0.210 HD
ENDBRANCH  29  30
ENDBRANCH  28  29
ENDBRANCH  27  28
ENDBRANCH  26  27
ENDBRANCH  25  26
ENDBRANCH  24  25
ENDBRANCH  23  24
ENDBRANCH  22  23
ENDBRANCH  21  22
ENDBRANCH  20  21
ENDBRANCH  19  20
ENDBRANCH  18  19
ENDBRANCH  17  18
ENDBRANCH   1  17
TORSDOF 28
ENDMDL
MODEL 5
REMARK VINA RESULT:    -3.014      1.245      3.090
REMARK INTER + INTRA:         -12.587
REMARK INTER:                  -7.139
REMARK INTRA:                  -5.448
REMARK UNBOUND:                -4.728
REMARK SMILES CCCCCCCCCCCCCCCCCCCCCCCCCCCCCO
REMARK SMILES IDX 16 1 15 2 14 3 13 4 12 5 11 6 10 7 9 8 8 9 7 10 6 11 5 12
REMARK SMILES IDX 4 13 3 14 2 15 1 16 17 17 18 18 19 19 20 20 21 21 22 22
REMARK SMILES IDX 23 23 24 24 25 25 26 26 27 27 28 28 29 29 30 30
REMARK H PARENT 30 31
REMARK Flexibility Score: inf
ROOT
ATOM      1  C   UNL     1       6.530   3.285   0.456  1.00  0.00     0.000 C 
ENDROOT
BRANCH   1   2
ATOM      2  C   UNL     1       5.347   2.712  -0.351  1.00  0.00     0.000 C 
BRANCH   2   3
ATOM      3  C   UNL     1       5.595   2.550  -1.860  1.00  0.00     0.000 C 
BRANCH   3   4
ATOM      4  C   UNL     1       7.018   2.960  -2.280  1.00  0.00     0.000 C 
BRANCH   4   5
ATOM      5  C   UNL     1       7.800   1.805  -2.932  1.00  0.00     0.000 C 
BRANCH   5   6
ATOM      6  C   UNL     1       8.250   2.071  -4.381  1.00  0.00     0.000 C 
BRANCH   6   7
ATOM      7  C   UNL     1       7.570   1.134  -5.395  1.00  0.00     0.000 C 
BRANCH   7   8
ATOM      8  C   UNL     1       6.321   1.756  -6.047  1.00  0.00    -0.000 C 
BRANCH   8   9
ATOM      9  C   UNL     1       5.002   1.006  -5.780  1.00  0.00    -0.000 C 
BRANCH   9  10
ATOM     10  C   UNL     1       3.934   1.884  -5.105  1.00  0.00    -0.000 C 
BRANCH  10  11
ATOM     11  C   UNL     1       3.406   2.995  -6.027  1.00  0.00    -0.000 C 
BRANCH  11  12
ATOM     12  C   UNL     1       2.962   4.246  -5.249  1.00  0.00    -0.000 C 
BRANCH  12  13
ATOM     13  C   UNL     1       3.886   4.573  -4.063  1.00  0.00    -0.000 C 
BRANCH  13  14
ATOM     14  C   UNL     1       4.902   5.708  -4.313  1.00  0.00    -0.000 C 
BRANCH  14  15
ATOM     15  C   UNL     1       6.248   5.259  -4.909  1.00  0.00    -0.003 C 
ATOM     16  C   UNL     1       6.468   5.766  -6.333  1.00  0.00     0.004 C 
ENDBRANCH  14  15
ENDBRANCH  13  14
ENDBRANCH  12  13
ENDBRANCH  11  12
ENDBRANCH  10  11
ENDBRANCH   9  10
ENDBRANCH   8   9
ENDBRANCH   7   8
ENDBRANCH   6   7
ENDBRANCH   5   6
ENDBRANCH   4   5
ENDBRANCH   3   4
ENDBRANCH   2   3
ENDBRANCH   1   2
BRANCH   1  17
ATOM     17  C   UNL     1       7.175   2.278   1.432  1.00  0.00     0.000 C 
BRANCH  17  18
ATOM     18  C   UNL     1       8.602   1.886   1.009  1.00  0.00     0.000 C 
BRANCH  18  19
ATOM     19  C   UNL     1       8.671   0.485   0.374  1.00  0.00     0.000 C 
BRANCH  19  20
ATOM     20  C   UNL     1       7.421  -0.387   0.604  1.00  0.00     0.000 C 
BRANCH  20  21
ATOM     21  C   UNL     1       6.904  -1.040  -0.693  1.00  0.00     0.000 C 
BRANCH  21  22
ATOM     22  C   UNL     1       5.364  -0.985  -0.809  1.00  0.00     0.000 C 
BRANCH  22  23
ATOM     23  C   UNL     1       4.858  -0.856  -2.255  1.00  0.00     0.000 C 
BRANCH  23  24
ATOM     24  C   UNL     1       5.660  -1.703  -3.251  1.00  0.00     0.000 C 
BRANCH  24  25
ATOM     25  C   UNL     1       5.311  -3.191  -3.103  1.00  0.00     0.000 C 
BRANCH  25  26
ATOM     26  C   UNL     1       3.848  -3.496  -3.465  1.00  0.00     0.000 C 
BRANCH  26  27
ATOM     27  C   UNL     1       3.123  -4.287  -2.367  1.00  0.00     0.002 C 
BRANCH  27  28
ATOM     28  C   UNL     1       1.830  -3.580  -1.943  1.00  0.00     0.028 C 
BRANCH  28  29
ATOM     29  C   UNL     1       2.036  -2.766  -0.665  1.00  0.00     0.156 C 
BRANCH  29  30
ATOM     30  O   UNL     1       0.813  -2.221  -0.258  1.00  0.00    -0.396 OA
ATOM     31  H   UNL     1       0.914  -2.016   0.711  1.00  0.00     0.210 HD
ENDBRANCH  29  30
ENDBRANCH  28  29
ENDBRANCH  27  28
ENDBRANCH  26  27
ENDBRANCH  25  26
ENDBRANCH  24  25
ENDBRANCH  23  24
ENDBRANCH  22  23
ENDBRANCH  21  22
ENDBRANCH  20  21
ENDBRANCH  19  20
ENDBRANCH  18  19
ENDBRANCH  17  18
ENDBRANCH   1  17
TORSDOF 28
ENDMDL
MODEL 6
REMARK VINA RESULT:    -3.014      1.585      3.848
REMARK INTER + INTRA:         -12.587
REMARK INTER:                  -6.662
REMARK INTRA:                  -5.925
REMARK UNBOUND:                -4.728
REMARK SMILES CCCCCCCCCCCCCCCCCCCCCCCCCCCCCO
REMARK SMILES IDX 16 1 15 2 14 3 13 4 12 5 11 6 10 7 9 8 8 9 7 10 6 11 5 12
REMARK SMILES IDX 4 13 3 14 2 15 1 16 17 17 18 18 19 19 20 20 21 21 22 22
REMARK SMILES IDX 23 23 24 24 25 25 26 26 27 27 28 28 29 29 30 30
REMARK H PARENT 30 31
REMARK Flexibility Score: inf
ROOT
ATOM      1  C   UNL     1       7.041   4.516  -3.317  1.00  0.00     0.000 C 
ENDROOT
BRANCH   1   2
ATOM      2  C   UNL     1       8.348   4.103  -2.609  1.00  0.00     0.000 C 
BRANCH   2   3
ATOM      3  C   UNL     1       9.238   3.120  -3.389  1.00  0.00     0.000 C 
BRANCH   3   4
ATOM      4  C   UNL     1       8.750   2.885  -4.830  1.00  0.00     0.000 C 
BRANCH   4   5
ATOM      5  C   UNL     1       8.068   1.516  -5.009  1.00  0.00     0.000 C 
BRANCH   5   6
ATOM      6  C   UNL     1       6.999   1.471  -6.117  1.00  0.00     0.000 C 
BRANCH   6   7
ATOM      7  C   UNL     1       6.749   2.848  -6.756  1.00  0.00     0.000 C 
BRANCH   7   8
ATOM      8  C   UNL     1       5.266   3.264  -6.731  1.00  0.00    -0.000 C 
BRANCH   8   9
ATOM      9  C   UNL     1       4.437   2.656  -5.584  1.00  0.00    -0.000 C 
BRANCH   9  10
ATOM     10  C   UNL     1       2.979   3.150  -5.566  1.00  0.00    -0.000 C 
BRANCH  10  11
ATOM     11  C   UNL     1       2.777   4.380  -4.668  1.00  0.00    -0.000 C 
BRANCH  11  12
ATOM     12  C   UNL     1       2.951   5.704  -5.432  1.00  0.00    -0.000 C 
BRANCH  12  13
ATOM     13  C   UNL     1       4.230   6.462  -5.035  1.00  0.00    -0.000 C 
BRANCH  13  14
ATOM     14  C   UNL     1       4.989   7.131  -6.200  1.00  0.00    -0.000 C 
BRANCH  14  15
ATOM     15  C   UNL     1       6.482   6.773  -6.296  1.00  0.00    -0.003 C 
ATOM     16  C   UNL     1       6.936   6.487  -7.727  1.00  0.00     0.004 C 
ENDBRANCH  14  15
ENDBRANCH  13  14
ENDBRANCH  12  13
ENDBRANCH  11  12
ENDBRANCH  10  11
ENDBRANCH   9  10
ENDBRANCH   8   9
ENDBRANCH   7   8
ENDBRANCH   6   7
ENDBRANCH   5   6
ENDBRANCH   4   5
ENDBRANCH   3   4
ENDBRANCH   2   3
ENDBRANCH   1   2
BRANCH   1  17
ATOM     17  C   UNL     1       5.764   4.249  -2.491  1.00  0.00     0.000 C 
BRANCH  17  18
ATOM     18  C   UNL     1       5.567   2.754  -2.185  1.00  0.00     0.000 C 
BRANCH  18  19
ATOM     19  C   UNL     1       5.351   2.476  -0.687  1.00  0.00     0.000 C 
BRANCH  19  20
ATOM     20  C   UNL     1       6.159   3.386   0.259  1.00  0.00     0.000 C 
BRANCH  20  21
ATOM     21  C   UNL     1       7.136   2.599   1.154  1.00  0.00     0.000 C 
BRANCH  21  22
ATOM     22  C   UNL     1       7.453   1.196   0.592  1.00  0.00     0.000 C 
BRANCH  22  23
ATOM     23  C   UNL     1       8.730   1.146  -0.263  1.00  0.00     0.000 C 
BRANCH  23  24
ATOM     24  C   UNL     1       8.663   0.101  -1.383  1.00  0.00     0.000 C 
BRANCH  24  25
ATOM     25  C   UNL     1       7.358  -0.705  -1.297  1.00  0.00     0.000 C 
BRANCH  25  26
ATOM     26  C   UNL     1       6.560  -0.685  -2.611  1.00  0.00     0.000 C 
BRANCH  26  27
ATOM     27  C   UNL     1       5.054  -0.882  -2.388  1.00  0.00     0.002 C 
BRANCH  27  28
ATOM     28  C   UNL     1       4.776  -1.472  -0.999  1.00  0.00     0.028 C 
BRANCH  28  29
ATOM     29  C   UNL     1       3.443  -2.220  -0.972  1.00  0.00     0.156 C 
BRANCH  29  30
ATOM     30  O   UNL     1       3.281  -2.928  -2.169  1.00  0.00    -0.396 OA
ATOM     31  H   UNL     1       3.081  -3.866  -1.907  1.00  0.00     0.210 HD
ENDBRANCH  29  30
ENDBRANCH  28  29
ENDBRANCH  27  28
ENDBRANCH  26  27
ENDBRANCH  25  26
ENDBRANCH  24  25
ENDBRANCH  23  24
ENDBRANCH  22  23
ENDBRANCH  21  22
ENDBRANCH  20  21
ENDBRANCH  19  20
ENDBRANCH  18  19
ENDBRANCH  17  18
ENDBRANCH   1  17
TORSDOF 28
ENDMDL
MODEL 7
REMARK VINA RESULT:    -2.965      2.498      6.572
REMARK INTER + INTRA:         -12.459
REMARK INTER:                  -6.489
REMARK INTRA:                  -5.970
REMARK UNBOUND:                -4.728
REMARK SMILES CCCCCCCCCCCCCCCCCCCCCCCCCCCCCO
REMARK SMILES IDX 16 1 15 2 14 3 13 4 12 5 11 6 10 7 9 8 8 9 7 10 6 11 5 12
REMARK SMILES IDX 4 13 3 14 2 15 1 16 17 17 18 18 19 19 20 20 21 21 22 22
REMARK SMILES IDX 23 23 24 24 25 25 26 26 27 27 28 28 29 29 30 30
REMARK H PARENT 30 31
REMARK Flexibility Score: inf
ROOT
ATOM      1  C   UNL     1       6.450   4.546  -2.996  1.00  0.00     0.000 C 
ENDROOT
BRANCH   1   2
ATOM      2  C   UNL     1       5.390   3.436  -2.838  1.00  0.00     0.000 C 
BRANCH   2   3
ATOM      3  C   UNL     1       5.608   2.481  -1.652  1.00  0.00     0.000 C 
BRANCH   3   4
ATOM      4  C   UNL     1       5.524   3.191  -0.289  1.00  0.00     0.000 C 
BRANCH   4   5
ATOM      5  C   UNL     1       6.780   2.968   0.573  1.00  0.00     0.000 C 
BRANCH   5   6
ATOM      6  C   UNL     1       7.882   2.130  -0.101  1.00  0.00     0.000 C 
BRANCH   6   7
ATOM      7  C   UNL     1       9.015   2.996  -0.679  1.00  0.00     0.000 C 
BRANCH   7   8
ATOM      8  C   UNL     1       9.806   2.288  -1.795  1.00  0.00    -0.000 C 
BRANCH   8   9
ATOM      9  C   UNL     1       9.621   2.881  -3.205  1.00  0.00    -0.000 C 
BRANCH   9  10
ATOM     10  C   UNL     1       8.770   1.990  -4.127  1.00  0.00    -0.000 C 
BRANCH  10  11
ATOM     11  C   UNL     1       8.409   0.641  -3.486  1.00  0.00    -0.000 C 
BRANCH  11  12
ATOM     12  C   UNL     1       7.048   0.106  -3.963  1.00  0.00    -0.000 C 
BRANCH  12  13
ATOM     13  C   UNL     1       6.529  -1.062  -3.106  1.00  0.00    -0.000 C 
BRANCH  13  14
ATOM     14  C   UNL     1       7.244  -1.255  -1.752  1.00  0.00    -0.000 C 
BRANCH  14  15
ATOM     15  C   UNL     1       6.318  -1.280  -0.524  1.00  0.00    -0.003 C 
ATOM     16  C   UNL     1       4.841  -1.124  -0.887  1.00  0.00     0.004 C 
ENDBRANCH  14  15
ENDBRANCH  13  14
ENDBRANCH  12  13
ENDBRANCH  11  12
ENDBRANCH  10  11
ENDBRANCH   9  10
ENDBRANCH   8   9
ENDBRANCH   7   8
ENDBRANCH   6   7
ENDBRANCH   5   6
ENDBRANCH   4   5
ENDBRANCH   3   4
ENDBRANCH   2   3
ENDBRANCH   1   2
BRANCH   1  17
ATOM     17  C   UNL     1       5.869   5.926  -3.370  1.00  0.00     0.000 C 
BRANCH  17  18
ATOM     18  C   UNL     1       4.558   5.811  -4.169  1.00  0.00     0.000 C 
BRANCH  18  19
ATOM     19  C   UNL     1       4.563   6.669  -5.448  1.00  0.00     0.000 C 
BRANCH  19  20
ATOM     20  C   UNL     1       5.959   6.906  -6.057  1.00  0.00     0.000 C 
BRANCH  20  21
ATOM     21  C   UNL     1       6.317   5.875  -7.146  1.00  0.00     0.000 C 
BRANCH  21  22
ATOM     22  C   UNL     1       7.239   4.754  -6.618  1.00  0.00     0.000 C 
BRANCH  22  23
ATOM     23  C   UNL     1       6.688   3.338  -6.856  1.00  0.00     0.000 C 
BRANCH  23  24
ATOM     24  C   UNL     1       5.157   3.292  -6.919  1.00  0.00     0.000 C 
BRANCH  24  25
ATOM     25  C   UNL     1       4.604   2.236  -5.951  1.00  0.00     0.000 C 
BRANCH  25  26
ATOM     26  C   UNL     1       3.068   2.188  -5.938  1.00  0.00     0.000 C 
BRANCH  26  27
ATOM     27  C   UNL     1       2.434   3.521  -6.360  1.00  0.00     0.002 C 
BRANCH  27  28
ATOM     28  C   UNL     1       1.616   4.129  -5.214  1.00  0.00     0.028 C 
BRANCH  28  29
ATOM     29  C   UNL     1       1.035   5.487  -5.607  1.00  0.00     0.156 C 
BRANCH  29  30
ATOM     30  O   UNL     1       0.022   5.838  -4.707  1.00  0.00    -0.396 OA
ATOM     31  H   UNL     1       0.040   6.831  -4.648  1.00  0.00     0.210 HD
ENDBRANCH  29  30
ENDBRANCH  28  29
ENDBRANCH  27  28
ENDBRANCH  26  27
ENDBRANCH  25  26
ENDBRANCH  24  25
ENDBRANCH  23  24
ENDBRANCH  22  23
ENDBRANCH  21  22
ENDBRANCH  20  21
ENDBRANCH  19  20
ENDBRANCH  18  19
ENDBRANCH  17  18
ENDBRANCH   1  17
TORSDOF 28
ENDMDL
MODEL 8
REMARK VINA RESULT:    -2.950      1.379      2.519
REMARK INTER + INTRA:         -12.422
REMARK INTER:                  -7.427
REMARK INTRA:                  -4.996
REMARK UNBOUND:                -4.728
REMARK SMILES CCCCCCCCCCCCCCCCCCCCCCCCCCCCCO
REMARK SMILES IDX 16 1 15 2 14 3 13 4 12 5 11 6 10 7 9 8 8 9 7 10 6 11 5 12
REMARK SMILES IDX 4 13 3 14 2 15 1 16 17 17 18 18 19 19 20 20 21 21 22 22
REMARK SMILES IDX 23 23 24 24 25 25 26 26 27 27 28 28 29 29 30 30
REMARK H PARENT 30 31
REMARK Flexibility Score: inf
ROOT
ATOM      1  C   UNL     1       5.638   3.372  -0.051  1.00  0.00     0.000 C 
ENDROOT
BRANCH   1   2
ATOM      2  C   UNL     1       5.729   3.619  -1.571  1.00  0.00     0.000 C 
BRANCH   2   3
ATOM      3  C   UNL     1       5.561   2.370  -2.453  1.00  0.00     0.000 C 
BRANCH   3   4
ATOM      4  C   UNL     1       6.671   2.232  -3.512  1.00  0.00     0.000 C 
BRANCH   4   5
ATOM      5  C   UNL     1       7.739   3.336  -3.398  1.00  0.00     0.000 C 
BRANCH   5   6
ATOM      6  C   UNL     1       7.986   4.126  -4.697  1.00  0.00     0.000 C 
BRANCH   6   7
ATOM      7  C   UNL     1       7.310   3.484  -5.920  1.00  0.00     0.000 C 
BRANCH   7   8
ATOM      8  C   UNL     1       6.412   4.466  -6.697  1.00  0.00    -0.000 C 
BRANCH   8   9
ATOM      9  C   UNL     1       6.279   5.866  -6.068  1.00  0.00    -0.000 C 
BRANCH   9  10
ATOM     10  C   UNL     1       4.844   6.191  -5.616  1.00  0.00    -0.000 C 
BRANCH  10  11
ATOM     11  C   UNL     1       4.434   5.432  -4.344  1.00  0.00    -0.000 C 
BRANCH  11  12
ATOM     12  C   UNL     1       3.170   4.578  -4.548  1.00  0.00    -0.000 C 
BRANCH  12  13
ATOM     13  C   UNL     1       3.453   3.255  -5.280  1.00  0.00    -0.000 C 
BRANCH  13  14
ATOM     14  C   UNL     1       2.566   2.980  -6.513  1.00  0.00    -0.000 C 
BRANCH  14  15
ATOM     15  C   UNL     1       2.916   3.803  -7.765  1.00  0.00    -0.003 C 
ATOM     16  C   UNL     1       2.039   5.044  -7.927  1.00  0.00     0.004 C 
ENDBRANCH  14  15
ENDBRANCH  13  14
ENDBRANCH  12  13
ENDBRANCH  11  12
ENDBRANCH  10  11
ENDBRANCH   9  10
ENDBRANCH   8   9
ENDBRANCH   7   8
ENDBRANCH   6   7
ENDBRANCH   5   6
ENDBRANCH   4   5
ENDBRANCH   3   4
ENDBRANCH   2   3
ENDBRANCH   1   2
BRANCH   1  17
ATOM     17  C   UNL     1       6.029   1.943   0.381  1.00  0.00     0.000 C 
BRANCH  17  18
ATOM     18  C   UNL     1       7.467   1.869   0.924  1.00  0.00     0.000 C 
BRANCH  18  19
ATOM     19  C   UNL     1       8.517   1.706  -0.191  1.00  0.00     0.000 C 
BRANCH  19  20
ATOM     20  C   UNL     1       8.895   0.246  -0.509  1.00  0.00     0.000 C 
BRANCH  20  21
ATOM     21  C   UNL     1       7.959  -0.399  -1.550  1.00  0.00     0.000 C 
BRANCH  21  22
ATOM     22  C   UNL     1       7.381  -1.749  -1.070  1.00  0.00     0.000 C 
BRANCH  22  23
ATOM     23  C   UNL     1       5.952  -1.647  -0.514  1.00  0.00     0.000 C 
BRANCH  23  24
ATOM     24  C   UNL     1       4.940  -1.132  -1.545  1.00  0.00     0.000 C 
BRANCH  24  25
ATOM     25  C   UNL     1       4.804  -2.120  -2.714  1.00  0.00     0.000 C 
BRANCH  25  26
ATOM     26  C   UNL     1       4.340  -3.513  -2.262  1.00  0.00     0.000 C 
BRANCH  26  27
ATOM     27  C   UNL     1       2.811  -3.640  -2.223  1.00  0.00     0.002 C 
BRANCH  27  28
ATOM     28  C   UNL     1       2.310  -3.831  -0.785  1.00  0.00     0.028 C 
BRANCH  28  29
ATOM     29  C   UNL     1       1.512  -2.617  -0.311  1.00  0.00     0.156 C 
BRANCH  29  30
ATOM     30  O   UNL     1       0.585  -2.255  -1.295  1.00  0.00    -0.396 OA
ATOM     31  H   UNL     1      -0.018  -1.586  -0.872  1.00  0.00     0.210 HD
ENDBRANCH  29  30
ENDBRANCH  28  29
ENDBRANCH  27  28
ENDBRANCH  26  27
ENDBRANCH  25  26
ENDBRANCH  24  25
ENDBRANCH  23  24
ENDBRANCH  22  23
ENDBRANCH  21  22
ENDBRANCH  20  21
ENDBRANCH  19  20
ENDBRANCH  18  19
ENDBRANCH  17  18
ENDBRANCH   1  17
TORSDOF 28
ENDMDL
MODEL 9
REMARK VINA RESULT:    -2.908      2.995      7.258
REMARK INTER + INTRA:         -12.311
REMARK INTER:                  -6.228
REMARK INTRA:                  -6.083
REMARK UNBOUND:                -4.728
REMARK SMILES CCCCCCCCCCCCCCCCCCCCCCCCCCCCCO
REMARK SMILES IDX 16 1 15 2 14 3 13 4 12 5 11 6 10 7 9 8 8 9 7 10 6 11 5 12
REMARK SMILES IDX 4 13 3 14 2 15 1 16 17 17 18 18 19 19 20 20 21 21 22 22
REMARK SMILES IDX 23 23 24 24 25 25 26 26 27 27 28 28 29 29 30 30
REMARK H PARENT 30 31
REMARK Flexibility Score: inf
ROOT
ATOM      1  C   UNL     1       5.581   3.129  -2.104  1.00  0.00     0.000 C 
ENDROOT
BRANCH   1   2
ATOM      2  C   UNL     1       5.200   3.245  -0.614  1.00  0.00     0.000 C 
BRANCH   2   3
ATOM      3  C   UNL     1       6.382   3.400   0.358  1.00  0.00     0.000 C 
BRANCH   3   4
ATOM      4  C   UNL     1       6.939   2.050   0.843  1.00  0.00     0.000 C 
BRANCH   4   5
ATOM      5  C   UNL     1       8.449   1.902   0.577  1.00  0.00     0.000 C 
BRANCH   5   6
ATOM      6  C   UNL     1       8.976   2.725  -0.612  1.00  0.00     0.000 C 
BRANCH   6   7
ATOM      7  C   UNL     1       9.616   1.850  -1.703  1.00  0.00     0.000 C 
BRANCH   7   8
ATOM      8  C   UNL     1       8.580   1.199  -2.639  1.00  0.00    -0.000 C 
BRANCH   8   9
ATOM      9  C   UNL     1       8.921  -0.232  -3.098  1.00  0.00    -0.000 C 
BRANCH   9  10
ATOM     10  C   UNL     1       9.644  -1.055  -2.018  1.00  0.00    -0.000 C 
BRANCH  10  11
ATOM     11  C   UNL     1       8.884  -2.333  -1.632  1.00  0.00    -0.000 C 
BRANCH  11  12
ATOM     12  C   UNL     1       8.486  -2.358  -0.147  1.00  0.00    -0.000 C 
BRANCH  12  13
ATOM     13  C   UNL     1       7.202  -1.560   0.143  1.00  0.00    -0.000 C 
BRANCH  13  14
ATOM     14  C   UNL     1       6.057  -1.762  -0.872  1.00  0.00    -0.000 C 
BRANCH  14  15
ATOM     15  C   UNL     1       5.391  -0.467  -1.370  1.00  0.00    -0.003 C 
ATOM     16  C   UNL     1       5.248  -0.416  -2.890  1.00  0.00     0.004 C 
ENDBRANCH  14  15
ENDBRANCH  13  14
ENDBRANCH  12  13
ENDBRANCH  11  12
ENDBRANCH  10  11
ENDBRANCH   9  10
ENDBRANCH   8   9
ENDBRANCH   7   8
ENDBRANCH   6   7
ENDBRANCH   5   6
ENDBRANCH   4   5
ENDBRANCH   3   4
ENDBRANCH   2   3
ENDBRANCH   1   2
BRANCH   1  17
ATOM     17  C   UNL     1       6.322   4.362  -2.665  1.00  0.00     0.000 C 
BRANCH  17  18
ATOM     18  C   UNL     1       5.362   5.516  -3.005  1.00  0.00     0.000 C 
BRANCH  18  19
ATOM     19  C   UNL     1       5.600   6.095  -4.411  1.00  0.00     0.000 C 
BRANCH  19  20
ATOM     20  C   UNL     1       4.668   5.534  -5.503  1.00  0.00     0.000 C 
BRANCH  20  21
ATOM     21  C   UNL     1       3.238   5.277  -4.991  1.00  0.00     0.000 C 
BRANCH  21  22
ATOM     22  C   UNL     1       2.766   3.830  -5.256  1.00  0.00     0.000 C 
BRANCH  22  23
ATOM     23  C   UNL     1       3.903   2.796  -5.238  1.00  0.00     0.000 C 
BRANCH  23  24
ATOM     24  C   UNL     1       4.126   2.124  -6.599  1.00  0.00     0.000 C 
BRANCH  24  25
ATOM     25  C   UNL     1       5.619   1.849  -6.832  1.00  0.00     0.000 C 
BRANCH  25  26
ATOM     26  C   UNL     1       6.462   2.034  -5.560  1.00  0.00     0.000 C 
BRANCH  26  27
ATOM     27  C   UNL     1       7.603   3.042  -5.751  1.00  0.00     0.002 C 
BRANCH  27  28
ATOM     28  C   UNL     1       7.471   3.776  -7.091  1.00  0.00     0.028 C 
BRANCH  28  29
ATOM     29  C   UNL     1       8.437   4.958  -7.174  1.00  0.00     0.156 C 
BRANCH  29  30
ATOM     30  O   UNL     1       9.625   4.635  -6.510  1.00  0.00    -0.396 OA
ATOM     31  H   UNL     1      10.351   5.107  -7.001  1.00  0.00     0.210 HD
ENDBRANCH  29  30
ENDBRANCH  28  29
ENDBRANCH  27  28
ENDBRANCH  26  27
ENDBRANCH  25  26
ENDBRANCH  24  25
ENDBRANCH  23  24
ENDBRANCH  22  23
ENDBRANCH  21  22
ENDBRANCH  20  21
ENDBRANCH  19  20
ENDBRANCH  18  19
ENDBRANCH  17  18
ENDBRANCH   1  17
TORSDOF 28
ENDMDL
