MODEL 1
REMARK VINA RESULT:    -4.333      0.000      0.000
REMARK INTER + INTRA:          -4.460
REMARK INTER:                  -4.460
REMARK INTRA:                   0.000
REMARK UNBOUND:                 0.000
REMARK SMILES Oc1ccc2[nH]ccc2c1
REMARK SMILES IDX 3 1 4 2 5 3 9 4 8 5 7 6 6 7 10 8 2 9 1 11
REMARK H PARENT 6 10 1 12
REMARK Flexibility Score: inf
ROOT
ATOM      1  C   UNL     1       7.256 -32.539  18.088  1.00  0.00     0.048 A 
ATOM      2  C   UNL     1       6.619 -32.848  16.873  1.00  0.00     0.030 A 
ATOM      3  C   UNL     1       7.395 -32.860  15.715  1.00  0.00     0.046 A 
ATOM      4  C   UNL     1       8.736 -32.583  15.745  1.00  0.00     0.003 A 
ATOM      5  C   UNL     1       9.206 -32.677  14.453  1.00  0.00     0.028 A 
ATOM      6  C   UNL     1       8.095 -33.016  13.687  1.00  0.00     0.083 A 
ATOM      7  N   UNL     1       6.992 -33.127  14.463  1.00  0.00    -0.361 N 
ATOM      8  C   UNL     1       9.398 -32.274  16.932  1.00  0.00     0.056 A 
ATOM      9  C   UNL     1       8.641 -32.252  18.123  1.00  0.00     0.116 A 
ATOM     10  H   UNL     1       6.027 -33.370  14.148  1.00  0.00     0.166 HD
ENDROOT
BRANCH   9  11
ATOM     11  O   UNL     1       9.247 -31.950  19.339  1.00  0.00    -0.508 OA
ATOM     12  H   UNL     1       9.176 -31.027  19.751  1.00  0.00     0.293 HD
ENDBRANCH   9  11
TORSDOF 1
ENDMDL
MODEL 2
REMARK VINA RESULT:    -3.999      1.275      2.168
REMARK INTER + INTRA:          -4.116
REMARK INTER:                  -4.116
REMARK INTRA:                   0.000
REMARK UNBOUND:                 0.000
REMARK SMILES Oc1ccc2[nH]ccc2c1
REMARK SMILES IDX 3 1 4 2 5 3 9 4 8 5 7 6 6 7 10 8 2 9 1 11
REMARK H PARENT 6 10 1 12
REMARK Flexibility Score: inf
ROOT
ATOM      1  C   UNL     1       8.801 -32.521  17.238  1.00  0.00     0.048 A 
ATOM      2  C   UNL     1       8.884 -32.446  15.835  1.00  0.00     0.030 A 
ATOM      3  C   UNL     1       7.851 -33.014  15.091  1.00  0.00     0.046 A 
ATOM      4  C   UNL     1       6.784 -33.628  15.692  1.00  0.00     0.003 A 
ATOM      5  C   UNL     1       5.951 -34.079  14.692  1.00  0.00     0.028 A 
ATOM      6  C   UNL     1       6.572 -33.704  13.505  1.00  0.00     0.083 A 
ATOM      7  N   UNL     1       7.733 -33.053  13.755  1.00  0.00    -0.361 N 
ATOM      8  C   UNL     1       6.671 -33.720  17.078  1.00  0.00     0.056 A 
ATOM      9  C   UNL     1       7.701 -33.155  17.861  1.00  0.00     0.116 A 
ATOM     10  H   UNL     1       8.397 -32.665  13.049  1.00  0.00     0.166 HD
ENDROOT
BRANCH   9  11
ATOM     11  O   UNL     1       7.643 -33.215  19.251  1.00  0.00    -0.508 OA
ATOM     12  H   UNL     1       7.250 -34.016  19.730  1.00  0.00     0.293 HD
ENDBRANCH   9  11
TORSDOF 1
ENDMDL
MODEL 3
REMARK VINA RESULT:    -3.993     16.197     17.324
REMARK INTER + INTRA:          -4.110
REMARK INTER:                  -4.110
REMARK INTRA:                   0.000
REMARK UNBOUND:                 0.000
REMARK SMILES Oc1ccc2[nH]ccc2c1
REMARK SMILES IDX 3 1 4 2 5 3 9 4 8 5 7 6 6 7 10 8 2 9 1 11
REMARK H PARENT 6 10 1 12
REMARK Flexibility Score: inf
ROOT
ATOM      1  C   UNL     1      17.163 -35.873  28.914  1.00  0.00     0.048 A 
ATOM      2  C   UNL     1      16.720 -35.316  30.128  1.00  0.00     0.030 A 
ATOM      3  C   UNL     1      16.246 -36.186  31.108  1.00  0.00     0.046 A 
ATOM      4  C   UNL     1      16.207 -37.541  30.911  1.00  0.00     0.003 A 
ATOM      5  C   UNL     1      15.692 -38.110  32.054  1.00  0.00     0.028 A 
ATOM      6  C   UNL     1      15.440 -37.042  32.910  1.00  0.00     0.083 A 
ATOM      7  N   UNL     1      15.781 -35.869  32.326  1.00  0.00    -0.361 N 
ATOM      8  C   UNL     1      16.638 -38.125  29.720  1.00  0.00     0.056 A 
ATOM      9  C   UNL     1      17.124 -37.271  28.706  1.00  0.00     0.116 A 
ATOM     10  H   UNL     1      15.695 -34.915  32.743  1.00  0.00     0.166 HD
ENDROOT
BRANCH   9  11
ATOM     11  O   UNL     1      17.569 -37.796  27.496  1.00  0.00    -0.508 OA
ATOM     12  H   UNL     1      17.126 -37.552  26.618  1.00  0.00     0.293 HD
ENDBRANCH   9  11
TORSDOF 1
ENDMDL
MODEL 4
REMARK VINA RESULT:    -3.899      2.390      3.584
REMARK INTER + INTRA:          -4.013
REMARK INTER:                  -4.013
REMARK INTRA:                   0.000
REMARK UNBOUND:                 0.000
REMARK SMILES Oc1ccc2[nH]ccc2c1
REMARK SMILES IDX 3 1 4 2 5 3 9 4 8 5 7 6 6 7 10 8 2 9 1 11
REMARK H PARENT 6 10 1 12
REMARK Flexibility Score: inf
ROOT
ATOM      1  C   UNL     1       7.423 -33.930  15.065  1.00  0.00     0.048 A 
ATOM      2  C   UNL     1       8.411 -32.929  15.059  1.00  0.00     0.030 A 
ATOM      3  C   UNL     1       8.803 -32.393  16.285  1.00  0.00     0.046 A 
ATOM      4  C   UNL     1       8.252 -32.818  17.465  1.00  0.00     0.003 A 
ATOM      5  C   UNL     1       8.846 -32.100  18.479  1.00  0.00     0.028 A 
ATOM      6  C   UNL     1       9.751 -31.255  17.844  1.00  0.00     0.083 A 
ATOM      7  N   UNL     1       9.721 -31.439  16.504  1.00  0.00    -0.361 N 
ATOM      8  C   UNL     1       7.271 -33.807  17.506  1.00  0.00     0.056 A 
ATOM      9  C   UNL     1       6.852 -34.370  16.282  1.00  0.00     0.116 A 
ATOM     10  H   UNL     1      10.295 -30.937  15.790  1.00  0.00     0.166 HD
ENDROOT
BRANCH   9  11
ATOM     11  O   UNL     1       5.876 -35.363  16.260  1.00  0.00    -0.508 OA
ATOM     12  H   UNL     1       5.801 -36.015  15.487  1.00  0.00     0.293 HD
ENDBRANCH   9  11
TORSDOF 1
ENDMDL
MODEL 5
REMARK VINA RESULT:    -3.887      2.577      3.732
REMARK INTER + INTRA:          -4.001
REMARK INTER:                  -4.001
REMARK INTRA:                   0.000
REMARK UNBOUND:                 0.000
REMARK SMILES Oc1ccc2[nH]ccc2c1
REMARK SMILES IDX 3 1 4 2 5 3 9 4 8 5 7 6 6 7 10 8 2 9 1 11
REMARK H PARENT 6 10 1 12
REMARK Flexibility Score: inf
ROOT
ATOM      1  C   UNL     1       9.061 -34.417  14.775  1.00  0.00     0.048 A 
ATOM      2  C   UNL     1       8.471 -35.129  15.835  1.00  0.00     0.030 A 
ATOM      3  C   UNL     1       8.071 -34.408  16.959  1.00  0.00     0.046 A 
ATOM      4  C   UNL     1       8.239 -33.051  17.042  1.00  0.00     0.003 A 
ATOM      5  C   UNL     1       7.746 -32.648  18.264  1.00  0.00     0.028 A 
ATOM      6  C   UNL     1       7.291 -33.814  18.874  1.00  0.00     0.083 A 
ATOM      7  N   UNL     1       7.492 -34.886  18.072  1.00  0.00    -0.361 N 
ATOM      8  C   UNL     1       8.819 -32.316  16.010  1.00  0.00     0.056 A 
ATOM      9  C   UNL     1       9.237 -33.016  14.858  1.00  0.00     0.116 A 
ATOM     10  H   UNL     1       7.246 -35.878  18.282  1.00  0.00     0.166 HD
ENDROOT
BRANCH   9  11
ATOM     11  O   UNL     1       9.823 -32.336  13.793  1.00  0.00    -0.508 OA
ATOM     12  H   UNL     1       9.850 -32.734  12.862  1.00  0.00     0.293 HD
ENDBRANCH   9  11
TORSDOF 1
ENDMDL
MODEL 6
REMARK VINA RESULT:    -3.871      2.619      3.612
REMARK INTER + INTRA:          -3.984
REMARK INTER:                  -3.984
REMARK INTRA:                   0.000
REMARK UNBOUND:                 0.000
REMARK SMILES Oc1ccc2[nH]ccc2c1
REMARK SMILES IDX 3 1 4 2 5 3 9 4 8 5 7 6 6 7 10 8 2 9 1 11
REMARK H PARENT 6 10 1 12
REMARK Flexibility Score: inf
ROOT
ATOM      1  C   UNL     1       7.077 -34.121  15.895  1.00  0.00     0.048 A 
ATOM      2  C   UNL     1       7.153 -33.819  17.267  1.00  0.00     0.030 A 
ATOM      3  C   UNL     1       8.106 -32.888  17.677  1.00  0.00     0.046 A 
ATOM      4  C   UNL     1       8.948 -32.279  16.784  1.00  0.00     0.003 A 
ATOM      5  C   UNL     1       9.760 -31.426  17.499  1.00  0.00     0.028 A 
ATOM      6  C   UNL     1       9.356 -31.564  18.823  1.00  0.00     0.083 A 
ATOM      7  N   UNL     1       8.345 -32.459  18.926  1.00  0.00    -0.361 N 
ATOM      8  C   UNL     1       8.899 -32.556  15.419  1.00  0.00     0.056 A 
ATOM      9  C   UNL     1       7.945 -33.494  14.971  1.00  0.00     0.116 A 
ATOM     10  H   UNL     1       7.857 -32.752  19.801  1.00  0.00     0.166 HD
ENDROOT
BRANCH   9  11
ATOM     11  O   UNL     1       7.848 -33.811  13.618  1.00  0.00    -0.508 OA
ATOM     12  H   UNL     1       7.094 -34.387  13.263  1.00  0.00     0.293 HD
ENDBRANCH   9  11
TORSDOF 1
ENDMDL
MODEL 7
REMARK VINA RESULT:    -3.861      1.974      2.446
REMARK INTER + INTRA:          -3.973
REMARK INTER:                  -3.973
REMARK INTRA:                   0.000
REMARK UNBOUND:                 0.000
REMARK SMILES Oc1ccc2[nH]ccc2c1
REMARK SMILES IDX 3 1 4 2 5 3 9 4 8 5 7 6 6 7 10 8 2 9 1 11
REMARK H PARENT 6 10 1 12
REMARK Flexibility Score: inf
ROOT
ATOM      1  C   UNL     1       8.204 -32.613  17.759  1.00  0.00     0.048 A 
ATOM      2  C   UNL     1       8.558 -32.702  16.400  1.00  0.00     0.030 A 
ATOM      3  C   UNL     1       8.216 -33.865  15.713  1.00  0.00     0.046 A 
ATOM      4  C   UNL     1       7.555 -34.896  16.327  1.00  0.00     0.003 A 
ATOM      5  C   UNL     1       7.369 -35.885  15.386  1.00  0.00     0.028 A 
ATOM      6  C   UNL     1       7.941 -35.388  14.219  1.00  0.00     0.083 A 
ATOM      7  N   UNL     1       8.456 -34.153  14.424  1.00  0.00    -0.361 N 
ATOM      8  C   UNL     1       7.190 -34.841  17.670  1.00  0.00     0.056 A 
ATOM      9  C   UNL     1       7.522 -33.676  18.396  1.00  0.00     0.116 A 
ATOM     10  H   UNL     1       8.941 -33.553  13.721  1.00  0.00     0.166 HD
ENDROOT
BRANCH   9  11
ATOM     11  O   UNL     1       7.183 -33.563  19.742  1.00  0.00    -0.508 OA
ATOM     12  H   UNL     1       7.861 -33.272  20.436  1.00  0.00     0.293 HD
ENDBRANCH   9  11
TORSDOF 1
ENDMDL
MODEL 8
REMARK VINA RESULT:    -3.713      2.401      2.646
REMARK INTER + INTRA:          -3.821
REMARK INTER:                  -3.821
REMARK INTRA:                   0.000
REMARK UNBOUND:                 0.000
REMARK SMILES Oc1ccc2[nH]ccc2c1
REMARK SMILES IDX 3 1 4 2 5 3 9 4 8 5 7 6 6 7 10 8 2 9 1 11
REMARK H PARENT 6 10 1 12
REMARK Flexibility Score: inf
ROOT
ATOM      1  C   UNL     1       8.086 -32.902  17.640  1.00  0.00     0.048 A 
ATOM      2  C   UNL     1       7.337 -34.090  17.724  1.00  0.00     0.030 A 
ATOM      3  C   UNL     1       7.338 -34.940  16.619  1.00  0.00     0.046 A 
ATOM      4  C   UNL     1       8.041 -34.641  15.482  1.00  0.00     0.003 A 
ATOM      5  C   UNL     1       7.837 -35.670  14.588  1.00  0.00     0.028 A 
ATOM      6  C   UNL     1       6.998 -36.563  15.248  1.00  0.00     0.083 A 
ATOM      7  N   UNL     1       6.697 -36.112  16.488  1.00  0.00    -0.361 N 
ATOM      8  C   UNL     1       8.793 -33.474  15.366  1.00  0.00     0.056 A 
ATOM      9  C   UNL     1       8.813 -32.591  16.467  1.00  0.00     0.116 A 
ATOM     10  H   UNL     1       6.089 -36.583  17.195  1.00  0.00     0.166 HD
ENDROOT
BRANCH   9  11
ATOM     11  O   UNL     1       9.547 -31.409  16.411  1.00  0.00    -0.508 OA
ATOM     12  H   UNL     1       9.381 -30.652  17.064  1.00  0.00     0.293 HD
ENDBRANCH   9  11
TORSDOF 1
ENDMDL
MODEL 9
REMARK VINA RESULT:    -3.685      2.822      4.072
REMARK INTER + INTRA:          -3.792
REMARK INTER:                  -3.792
REMARK INTRA:                   0.000
REMARK UNBOUND:                 0.000
REMARK SMILES Oc1ccc2[nH]ccc2c1
REMARK SMILES IDX 3 1 4 2 5 3 9 4 8 5 7 6 6 7 10 8 2 9 1 11
REMARK H PARENT 6 10 1 12
REMARK Flexibility Score: inf
ROOT
ATOM      1  C   UNL     1       9.525 -33.563  14.255  1.00  0.00     0.048 A 
ATOM      2  C   UNL     1       9.270 -32.562  15.209  1.00  0.00     0.030 A 
ATOM      3  C   UNL     1       8.538 -32.914  16.342  1.00  0.00     0.046 A 
ATOM      4  C   UNL     1       8.078 -34.190  16.534  1.00  0.00     0.003 A 
ATOM      5  C   UNL     1       7.401 -34.208  17.734  1.00  0.00     0.028 A 
ATOM      6  C   UNL     1       7.489 -32.908  18.221  1.00  0.00     0.083 A 
ATOM      7  N   UNL     1       8.186 -32.121  17.367  1.00  0.00    -0.361 N 
ATOM      8  C   UNL     1       8.313 -35.205  15.608  1.00  0.00     0.056 A 
ATOM      9  C   UNL     1       9.050 -34.881  14.449  1.00  0.00     0.116 A 
ATOM     10  H   UNL     1       8.401 -31.107  17.485  1.00  0.00     0.166 HD
ENDROOT
BRANCH   9  11
ATOM     11  O   UNL     1       9.318 -35.853  13.489  1.00  0.00    -0.508 OA
ATOM     12  H   UNL     1      10.164 -36.409  13.521  1.00  0.00     0.293 HD
ENDBRANCH   9  11
TORSDOF 1
ENDMDL
