MODEL 1
REMARK VINA RESULT:    -3.915      0.000      0.000
REMARK INTER + INTRA:         -12.187
REMARK INTER:                  -8.492
REMARK INTRA:                  -3.695
REMARK UNBOUND:                -3.695
REMARK SMILES CCCCCCCCCCCCCCCCCCCCCC(=O)[O-]
REMARK SMILES IDX 12 1 11 2 10 3 9 4 8 5 7 6 6 7 5 8 4 9 3 10 2 11 1 12 13 13
REMARK SMILES IDX 14 14 15 15 16 16 17 17 18 18 19 19 20 20 21 21 22 22 23 23
REMARK SMILES IDX 24 24
REMARK H PARENT
REMARK Flexibility Score: inf
ROOT
ATOM      1  C   UNL     1     163.891 162.100 182.820  1.00  0.00     0.000 C 
ENDROOT
BRANCH   1   2
ATOM      2  C   UNL     1     162.487 162.639 183.127  1.00  0.00     0.000 C 
BRANCH   2   3
ATOM      3  C   UNL     1     161.564 161.525 183.638  1.00  0.00     0.000 C 
BRANCH   3   4
ATOM      4  C   UNL     1     160.218 161.543 182.898  1.00  0.00    -0.000 C 
BRANCH   4   5
ATOM      5  C   UNL     1     159.993 160.290 182.038  1.00  0.00    -0.000 C 
BRANCH   5   6
ATOM      6  C   UNL     1     160.004 160.598 180.530  1.00  0.00    -0.000 C 
BRANCH   6   7
ATOM      7  C   UNL     1     161.425 160.610 179.940  1.00  0.00    -0.000 C 
BRANCH   7   8
ATOM      8  C   UNL     1     161.923 162.030 179.618  1.00  0.00    -0.000 C 
BRANCH   8   9
ATOM      9  C   UNL     1     160.761 163.033 179.455  1.00  0.00    -0.000 C 
BRANCH   9  10
ATOM     10  C   UNL     1     161.048 164.419 180.064  1.00  0.00    -0.000 C 
BRANCH  10  11
ATOM     11  C   UNL     1     160.198 164.766 181.298  1.00  0.00    -0.003 C 
ATOM     12  C   UNL     1     160.766 165.937 182.100  1.00  0.00     0.004 C 
ENDBRANCH  10  11
ENDBRANCH   9  10
ENDBRANCH   8   9
ENDBRANCH   7   8
ENDBRANCH   6   7
ENDBRANCH   5   6
ENDBRANCH   4   5
ENDBRANCH   3   4
ENDBRANCH   2   3
ENDBRANCH   1   2
BRANCH   1  13
ATOM     13  C   UNL     1     163.960 160.563 182.840  1.00  0.00     0.000 C 
BRANCH  13  14
ATOM     14  C   UNL     1     165.328 160.007 183.289  1.00  0.00     0.000 C 
BRANCH  14  15
ATOM     15  C   UNL     1     166.257 161.115 183.819  1.00  0.00     0.000 C 
BRANCH  15  16
ATOM     16  C   UNL     1     167.745 160.733 183.732  1.00  0.00     0.000 C 
BRANCH  16  17
ATOM     17  C   UNL     1     168.179 160.391 182.296  1.00  0.00     0.000 C 
BRANCH  17  18
ATOM     18  C   UNL     1     168.179 161.615 181.364  1.00  0.00     0.000 C 
BRANCH  18  19
ATOM     19  C   UNL     1     166.959 161.731 180.428  1.00  0.00     0.000 C 
BRANCH  19  20
ATOM     20  C   UNL     1     166.469 160.401 179.819  1.00  0.00     0.006 C 
BRANCH  20  21
ATOM     21  C   UNL     1     165.178 160.519 178.995  1.00  0.00     0.053 C 
BRANCH  21  22
ATOM     22  C   UNL     1     165.444 161.016 177.607  1.00  0.00     0.041 C 
ATOM     23  O   UNL     1     164.864 162.049 177.183  1.00  0.00    -0.550 OA
ATOM     24  O   UNL     1     166.314 160.323 176.774  1.00  0.00    -0.550 OA
ENDBRANCH  21  22
ENDBRANCH  20  21
ENDBRANCH  19  20
ENDBRANCH  18  19
ENDBRANCH  17  18
ENDBRANCH  16  17
ENDBRANCH  15  16
ENDBRANCH  14  15
ENDBRANCH  13  14
ENDBRANCH   1  13
TORSDOF 20
ENDMDL
MODEL 2
REMARK VINA RESULT:    -3.813      2.896      4.579
REMARK INTER + INTRA:         -11.966
REMARK INTER:                  -8.303
REMARK INTRA:                  -3.662
REMARK UNBOUND:                -3.695
REMARK SMILES CCCCCCCCCCCCCCCCCCCCCC(=O)[O-]
REMARK SMILES IDX 12 1 11 2 10 3 9 4 8 5 7 6 6 7 5 8 4 9 3 10 2 11 1 12 13 13
REMARK SMILES IDX 14 14 15 15 16 16 17 17 18 18 19 19 20 20 21 21 22 22 23 23
REMARK SMILES IDX 24 24
REMARK H PARENT
REMARK Flexibility Score: inf
ROOT
ATOM      1  C   UNL     1     163.207 164.851 180.551  1.00  0.00     0.000 C 
ENDROOT
BRANCH   1   2
ATOM      2  C   UNL     1     161.679 164.915 180.684  1.00  0.00     0.000 C 
BRANCH   2   3
ATOM      3  C   UNL     1     161.257 165.069 182.151  1.00  0.00     0.000 C 
BRANCH   3   4
ATOM      4  C   UNL     1     160.243 163.985 182.547  1.00  0.00    -0.000 C 
BRANCH   4   5
ATOM      5  C   UNL     1     159.902 163.034 181.389  1.00  0.00    -0.000 C 
BRANCH   5   6
ATOM      6  C   UNL     1     160.281 161.574 181.691  1.00  0.00    -0.000 C 
BRANCH   6   7
ATOM      7  C   UNL     1     160.258 160.686 180.435  1.00  0.00    -0.000 C 
BRANCH   7   8
ATOM      8  C   UNL     1     161.669 160.332 179.931  1.00  0.00    -0.000 C 
BRANCH   8   9
ATOM      9  C   UNL     1     162.308 161.484 179.127  1.00  0.00    -0.000 C 
BRANCH   9  10
ATOM     10  C   UNL     1     161.352 162.134 178.108  1.00  0.00    -0.000 C 
BRANCH  10  11
ATOM     11  C   UNL     1     161.933 162.290 176.693  1.00  0.00    -0.003 C 
ATOM     12  C   UNL     1     162.916 163.456 176.580  1.00  0.00     0.004 C 
ENDBRANCH  10  11
ENDBRANCH   9  10
ENDBRANCH   8   9
ENDBRANCH   7   8
ENDBRANCH   6   7
ENDBRANCH   5   6
ENDBRANCH   4   5
ENDBRANCH   3   4
ENDBRANCH   2   3
ENDBRANCH   1   2
BRANCH   1  13
ATOM     13  C   UNL     1     163.903 164.401 181.848  1.00  0.00     0.000 C 
BRANCH  13  14
ATOM     14  C   UNL     1     164.236 162.894 181.885  1.00  0.00     0.000 C 
BRANCH  14  15
ATOM     15  C   UNL     1     163.611 162.192 183.105  1.00  0.00     0.000 C 
BRANCH  15  16
ATOM     16  C   UNL     1     163.570 160.662 182.953  1.00  0.00     0.000 C 
BRANCH  16  17
ATOM     17  C   UNL     1     164.925 160.080 182.515  1.00  0.00     0.000 C 
BRANCH  17  18
ATOM     18  C   UNL     1     165.959 160.049 183.655  1.00  0.00     0.000 C 
BRANCH  18  19
ATOM     19  C   UNL     1     167.126 161.047 183.515  1.00  0.00     0.000 C 
BRANCH  19  20
ATOM     20  C   UNL     1     167.421 161.892 184.772  1.00  0.00     0.006 C 
BRANCH  20  21
ATOM     21  C   UNL     1     166.691 163.243 184.812  1.00  0.00     0.053 C 
BRANCH  21  22
ATOM     22  C   UNL     1     167.477 164.325 184.138  1.00  0.00     0.041 C 
ATOM     23  O   UNL     1     168.726 164.223 184.025  1.00  0.00    -0.550 OA
ATOM     24  O   UNL     1     166.833 165.458 183.657  1.00  0.00    -0.550 OA
ENDBRANCH  21  22
ENDBRANCH  20  21
ENDBRANCH  19  20
ENDBRANCH  18  19
ENDBRANCH  17  18
ENDBRANCH  16  17
ENDBRANCH  15  16
ENDBRANCH  14  15
ENDBRANCH  13  14
ENDBRANCH   1  13
TORSDOF 20
ENDMDL
MODEL 3
REMARK VINA RESULT:    -3.808      1.298      5.632
REMARK INTER + INTRA:         -11.956
REMARK INTER:                  -7.886
REMARK INTRA:                  -4.071
REMARK UNBOUND:                -3.695
REMARK SMILES CCCCCCCCCCCCCCCCCCCCCC(=O)[O-]
REMARK SMILES IDX 12 1 11 2 10 3 9 4 8 5 7 6 6 7 5 8 4 9 3 10 2 11 1 12 13 13
REMARK SMILES IDX 14 14 15 15 16 16 17 17 18 18 19 19 20 20 21 21 22 22 23 23
REMARK SMILES IDX 24 24
REMARK H PARENT
REMARK Flexibility Score: inf
ROOT
ATOM      1  C   UNL     1     162.473 164.779 182.061  1.00  0.00     0.000 C 
ENDROOT
BRANCH   1   2
ATOM      2  C   UNL     1     163.229 164.303 180.813  1.00  0.00     0.000 C 
BRANCH   2   3
ATOM      3  C   UNL     1     164.434 163.434 181.192  1.00  0.00     0.000 C 
BRANCH   3   4
ATOM      4  C   UNL     1     164.978 163.823 182.575  1.00  0.00    -0.000 C 
BRANCH   4   5
ATOM      5  C   UNL     1     165.117 162.620 183.522  1.00  0.00    -0.000 C 
BRANCH   5   6
ATOM      6  C   UNL     1     164.787 161.284 182.833  1.00  0.00    -0.000 C 
BRANCH   6   7
ATOM      7  C   UNL     1     165.614 160.112 183.391  1.00  0.00    -0.000 C 
BRANCH   7   8
ATOM      8  C   UNL     1     166.972 160.560 183.959  1.00  0.00    -0.000 C 
BRANCH   8   9
ATOM      9  C   UNL     1     168.138 160.249 182.996  1.00  0.00    -0.000 C 
BRANCH   9  10
ATOM     10  C   UNL     1     168.621 161.472 182.192  1.00  0.00    -0.000 C 
BRANCH  10  11
ATOM     11  C   UNL     1     167.905 161.677 180.846  1.00  0.00    -0.003 C 
ATOM     12  C   UNL     1     167.922 163.133 180.381  1.00  0.00     0.004 C 
ENDBRANCH  10  11
ENDBRANCH   9  10
ENDBRANCH   8   9
ENDBRANCH   7   8
ENDBRANCH   6   7
ENDBRANCH   5   6
ENDBRANCH   4   5
ENDBRANCH   3   4
ENDBRANCH   2   3
ENDBRANCH   1   2
BRANCH   1  13
ATOM     13  C   UNL     1     161.241 163.916 182.382  1.00  0.00     0.000 C 
BRANCH  13  14
ATOM     14  C   UNL     1     161.475 162.892 183.512  1.00  0.00     0.000 C 
BRANCH  14  15
ATOM     15  C   UNL     1     160.451 161.743 183.475  1.00  0.00     0.000 C 
BRANCH  15  16
ATOM     16  C   UNL     1     160.858 160.616 182.510  1.00  0.00     0.000 C 
BRANCH  16  17
ATOM     17  C   UNL     1     160.062 160.656 181.193  1.00  0.00     0.000 C 
BRANCH  17  18
ATOM     18  C   UNL     1     160.942 160.984 179.974  1.00  0.00     0.000 C 
BRANCH  18  19
ATOM     19  C   UNL     1     162.440 160.653 180.133  1.00  0.00     0.000 C 
BRANCH  19  20
ATOM     20  C   UNL     1     163.266 160.703 178.830  1.00  0.00     0.006 C 
BRANCH  20  21
ATOM     21  C   UNL     1     164.783 160.574 179.038  1.00  0.00     0.053 C 
BRANCH  21  22
ATOM     22  C   UNL     1     165.556 161.307 177.986  1.00  0.00     0.041 C 
ATOM     23  O   UNL     1     165.437 162.554 177.867  1.00  0.00    -0.550 OA
ATOM     24  O   UNL     1     166.389 160.610 177.120  1.00  0.00    -0.550 OA
ENDBRANCH  21  22
ENDBRANCH  20  21
ENDBRANCH  19  20
ENDBRANCH  18  19
ENDBRANCH  17  18
ENDBRANCH  16  17
ENDBRANCH  15  16
ENDBRANCH  14  15
ENDBRANCH  13  14
ENDBRANCH   1  13
TORSDOF 20
ENDMDL
MODEL 4
REMARK VINA RESULT:    -3.806      2.108      6.571
REMARK INTER + INTRA:         -11.951
REMARK INTER:                  -8.115
REMARK INTRA:                  -3.835
REMARK UNBOUND:                -3.695
REMARK SMILES CCCCCCCCCCCCCCCCCCCCCC(=O)[O-]
REMARK SMILES IDX 12 1 11 2 10 3 9 4 8 5 7 6 6 7 5 8 4 9 3 10 2 11 1 12 13 13
REMARK SMILES IDX 14 14 15 15 16 16 17 17 18 18 19 19 20 20 21 21 22 22 23 23
REMARK SMILES IDX 24 24
REMARK H PARENT
REMARK Flexibility Score: inf
ROOT
ATOM      1  C   UNL     1     162.336 160.629 179.757  1.00  0.00     0.000 C 
ENDROOT
BRANCH   1   2
ATOM      2  C   UNL     1     163.518 161.590 179.574  1.00  0.00     0.000 C 
BRANCH   2   3
ATOM      3  C   UNL     1     164.336 161.715 180.866  1.00  0.00     0.000 C 
BRANCH   3   4
ATOM      4  C   UNL     1     164.222 160.439 181.714  1.00  0.00    -0.000 C 
BRANCH   4   5
ATOM      5  C   UNL     1     164.900 160.572 183.087  1.00  0.00    -0.000 C 
BRANCH   5   6
ATOM      6  C   UNL     1     165.576 161.940 183.283  1.00  0.00    -0.000 C 
BRANCH   6   7
ATOM      7  C   UNL     1     166.944 161.829 183.979  1.00  0.00    -0.000 C 
BRANCH   7   8
ATOM      8  C   UNL     1     167.655 160.496 183.683  1.00  0.00    -0.000 C 
BRANCH   8   9
ATOM      9  C   UNL     1     168.664 160.618 182.522  1.00  0.00    -0.000 C 
BRANCH   9  10
ATOM     10  C   UNL     1     168.062 160.291 181.141  1.00  0.00    -0.000 C 
BRANCH  10  11
ATOM     11  C   UNL     1     168.490 161.244 180.013  1.00  0.00    -0.003 C 
ATOM     12  C   UNL     1     167.387 161.475 178.981  1.00  0.00     0.004 C 
ENDBRANCH  10  11
ENDBRANCH   9  10
ENDBRANCH   8   9
ENDBRANCH   7   8
ENDBRANCH   6   7
ENDBRANCH   5   6
ENDBRANCH   4   5
ENDBRANCH   3   4
ENDBRANCH   2   3
ENDBRANCH   1   2
BRANCH   1  13
ATOM     13  C   UNL     1     161.024 161.352 180.109  1.00  0.00     0.000 C 
BRANCH  13  14
ATOM     14  C   UNL     1     160.147 160.590 181.125  1.00  0.00     0.000 C 
BRANCH  14  15
ATOM     15  C   UNL     1     160.694 160.700 182.560  1.00  0.00     0.000 C 
BRANCH  15  16
ATOM     16  C   UNL     1     160.524 162.108 183.154  1.00  0.00     0.000 C 
BRANCH  16  17
ATOM     17  C   UNL     1     161.872 162.802 183.415  1.00  0.00     0.000 C 
BRANCH  17  18
ATOM     18  C   UNL     1     162.102 164.022 182.505  1.00  0.00     0.000 C 
BRANCH  18  19
ATOM     19  C   UNL     1     160.827 164.789 182.098  1.00  0.00     0.000 C 
BRANCH  19  20
ATOM     20  C   UNL     1     160.631 164.978 180.579  1.00  0.00     0.006 C 
BRANCH  20  21
ATOM     21  C   UNL     1     161.936 164.976 179.768  1.00  0.00     0.053 C 
BRANCH  21  22
ATOM     22  C   UNL     1     162.123 166.252 179.007  1.00  0.00     0.041 C 
ATOM     23  O   UNL     1     162.870 166.280 177.994  1.00  0.00    -0.550 OA
ATOM     24  O   UNL     1     161.494 167.416 179.431  1.00  0.00    -0.550 OA
ENDBRANCH  21  22
ENDBRANCH  20  21
ENDBRANCH  19  20
ENDBRANCH  18  19
ENDBRANCH  17  18
ENDBRANCH  16  17
ENDBRANCH  15  16
ENDBRANCH  14  15
ENDBRANCH  13  14
ENDBRANCH   1  13
TORSDOF 20
ENDMDL
MODEL 5
REMARK VINA RESULT:    -3.779      2.797      3.730
REMARK INTER + INTRA:         -11.892
REMARK INTER:                  -8.445
REMARK INTRA:                  -3.447
REMARK UNBOUND:                -3.695
REMARK SMILES CCCCCCCCCCCCCCCCCCCCCC(=O)[O-]
REMARK SMILES IDX 12 1 11 2 10 3 9 4 8 5 7 6 6 7 5 8 4 9 3 10 2 11 1 12 13 13
REMARK SMILES IDX 14 14 15 15 16 16 17 17 18 18 19 19 20 20 21 21 22 22 23 23
REMARK SMILES IDX 24 24
REMARK H PARENT
REMARK Flexibility Score: inf
ROOT
ATOM      1  C   UNL     1     162.635 162.979 183.068  1.00  0.00     0.000 C 
ENDROOT
BRANCH   1   2
ATOM      2  C   UNL     1     161.495 162.452 183.950  1.00  0.00     0.000 C 
BRANCH   2   3
ATOM      3  C   UNL     1     160.236 162.171 183.119  1.00  0.00     0.000 C 
BRANCH   3   4
ATOM      4  C   UNL     1     160.099 160.670 182.820  1.00  0.00    -0.000 C 
BRANCH   4   5
ATOM      5  C   UNL     1     160.273 160.341 181.329  1.00  0.00    -0.000 C 
BRANCH   5   6
ATOM      6  C   UNL     1     160.404 161.601 180.455  1.00  0.00    -0.000 C 
BRANCH   6   7
ATOM      7  C   UNL     1     161.494 161.463 179.379  1.00  0.00    -0.000 C 
BRANCH   7   8
ATOM      8  C   UNL     1     162.104 162.817 178.974  1.00  0.00    -0.000 C 
BRANCH   8   9
ATOM      9  C   UNL     1     161.331 164.010 179.576  1.00  0.00    -0.000 C 
BRANCH   9  10
ATOM     10  C   UNL     1     162.241 165.104 180.167  1.00  0.00    -0.000 C 
BRANCH  10  11
ATOM     11  C   UNL     1     161.586 165.958 181.265  1.00  0.00    -0.003 C 
ATOM     12  C   UNL     1     160.205 165.445 181.672  1.00  0.00     0.004 C 
ENDBRANCH  10  11
ENDBRANCH   9  10
ENDBRANCH   8   9
ENDBRANCH   7   8
ENDBRANCH   6   7
ENDBRANCH   5   6
ENDBRANCH   4   5
ENDBRANCH   3   4
ENDBRANCH   2   3
ENDBRANCH   1   2
BRANCH   1  13
ATOM     13  C   UNL     1     163.920 162.140 183.183  1.00  0.00     0.000 C 
BRANCH  13  14
ATOM     14  C   UNL     1     163.851 160.791 182.437  1.00  0.00     0.000 C 
BRANCH  14  15
ATOM     15  C   UNL     1     165.039 159.875 182.785  1.00  0.00     0.000 C 
BRANCH  15  16
ATOM     16  C   UNL     1     166.308 160.220 181.987  1.00  0.00     0.000 C 
BRANCH  16  17
ATOM     17  C   UNL     1     167.548 160.359 182.888  1.00  0.00     0.000 C 
BRANCH  17  18
ATOM     18  C   UNL     1     167.189 160.620 184.362  1.00  0.00     0.000 C 
BRANCH  18  19
ATOM     19  C   UNL     1     167.301 162.090 184.816  1.00  0.00     0.000 C 
BRANCH  19  20
ATOM     20  C   UNL     1     168.017 163.031 183.825  1.00  0.00     0.006 C 
BRANCH  20  21
ATOM     21  C   UNL     1     167.098 164.069 183.162  1.00  0.00     0.053 C 
BRANCH  21  22
ATOM     22  C   UNL     1     167.473 165.469 183.538  1.00  0.00     0.041 C 
ATOM     23  O   UNL     1     167.444 165.830 184.743  1.00  0.00    -0.550 OA
ATOM     24  O   UNL     1     167.831 166.383 182.554  1.00  0.00    -0.550 OA
ENDBRANCH  21  22
ENDBRANCH  20  21
ENDBRANCH  19  20
ENDBRANCH  18  19
ENDBRANCH  17  18
ENDBRANCH  16  17
ENDBRANCH  15  16
ENDBRANCH  14  15
ENDBRANCH  13  14
ENDBRANCH   1  13
TORSDOF 20
ENDMDL
MODEL 6
REMARK VINA RESULT:    -3.759      1.747      5.868
REMARK INTER + INTRA:         -11.849
REMARK INTER:                  -8.492
REMARK INTRA:                  -3.357
REMARK UNBOUND:                -3.695
REMARK SMILES CCCCCCCCCCCCCCCCCCCCCC(=O)[O-]
REMARK SMILES IDX 12 1 11 2 10 3 9 4 8 5 7 6 6 7 5 8 4 9 3 10 2 11 1 12 13 13
REMARK SMILES IDX 14 14 15 15 16 16 17 17 18 18 19 19 20 20 21 21 22 22 23 23
REMARK SMILES IDX 24 24
REMARK H PARENT
REMARK Flexibility Score: inf
ROOT
ATOM      1  C   UNL     1     163.373 162.053 182.653  1.00  0.00     0.000 C 
ENDROOT
BRANCH   1   2
ATOM      2  C   UNL     1     163.613 160.670 183.275  1.00  0.00     0.000 C 
BRANCH   2   3
ATOM      3  C   UNL     1     164.753 159.932 182.560  1.00  0.00     0.000 C 
BRANCH   3   4
ATOM      4  C   UNL     1     165.280 160.753 181.374  1.00  0.00    -0.000 C 
BRANCH   4   5
ATOM      5  C   UNL     1     166.390 160.029 180.594  1.00  0.00    -0.000 C 
BRANCH   5   6
ATOM      6  C   UNL     1     167.674 160.868 180.477  1.00  0.00    -0.000 C 
BRANCH   6   7
ATOM      7  C   UNL     1     168.903 160.153 181.063  1.00  0.00    -0.000 C 
BRANCH   7   8
ATOM      8  C   UNL     1     169.069 160.397 182.574  1.00  0.00    -0.000 C 
BRANCH   8   9
ATOM      9  C   UNL     1     168.482 161.756 183.013  1.00  0.00    -0.000 C 
BRANCH   9  10
ATOM     10  C   UNL     1     167.477 161.649 184.176  1.00  0.00    -0.000 C 
BRANCH  10  11
ATOM     11  C   UNL     1     166.595 162.893 184.377  1.00  0.00    -0.003 C 
ATOM     12  C   UNL     1     166.548 163.793 183.142  1.00  0.00     0.004 C 
ENDBRANCH  10  11
ENDBRANCH   9  10
ENDBRANCH   8   9
ENDBRANCH   7   8
ENDBRANCH   6   7
ENDBRANCH   5   6
ENDBRANCH   4   5
ENDBRANCH   3   4
ENDBRANCH   2   3
ENDBRANCH   1   2
BRANCH   1  13
ATOM     13  C   UNL     1     162.168 162.786 183.269  1.00  0.00     0.000 C 
BRANCH  13  14
ATOM     14  C   UNL     1     161.004 161.851 183.659  1.00  0.00     0.000 C 
BRANCH  14  15
ATOM     15  C   UNL     1     160.250 161.318 182.425  1.00  0.00     0.000 C 
BRANCH  15  16
ATOM     16  C   UNL     1     160.226 162.326 181.263  1.00  0.00     0.000 C 
BRANCH  16  17
ATOM     17  C   UNL     1     160.498 161.659 179.904  1.00  0.00     0.000 C 
BRANCH  17  18
ATOM     18  C   UNL     1     161.355 160.386 180.024  1.00  0.00     0.000 C 
BRANCH  18  19
ATOM     19  C   UNL     1     162.736 160.454 179.341  1.00  0.00     0.000 C 
BRANCH  19  20
ATOM     20  C   UNL     1     162.994 161.727 178.507  1.00  0.00     0.006 C 
BRANCH  20  21
ATOM     21  C   UNL     1     163.828 161.493 177.238  1.00  0.00     0.053 C 
BRANCH  21  22
ATOM     22  C   UNL     1     163.065 161.834 175.996  1.00  0.00     0.041 C 
ATOM     23  O   UNL     1     162.508 162.957 175.884  1.00  0.00    -0.550 OA
ATOM     24  O   UNL     1     162.948 160.903 174.972  1.00  0.00    -0.550 OA
ENDBRANCH  21  22
ENDBRANCH  20  21
ENDBRANCH  19  20
ENDBRANCH  18  19
ENDBRANCH  17  18
ENDBRANCH  16  17
ENDBRANCH  15  16
ENDBRANCH  14  15
ENDBRANCH  13  14
ENDBRANCH   1  13
TORSDOF 20
ENDMDL
MODEL 7
REMARK VINA RESULT:    -3.753      2.303      6.849
REMARK INTER + INTRA:         -11.837
REMARK INTER:                  -8.357
REMARK INTRA:                  -3.480
REMARK UNBOUND:                -3.695
REMARK SMILES CCCCCCCCCCCCCCCCCCCCCC(=O)[O-]
REMARK SMILES IDX 12 1 11 2 10 3 9 4 8 5 7 6 6 7 5 8 4 9 3 10 2 11 1 12 13 13
REMARK SMILES IDX 14 14 15 15 16 16 17 17 18 18 19 19 20 20 21 21 22 22 23 23
REMARK SMILES IDX 24 24
REMARK H PARENT
REMARK Flexibility Score: inf
ROOT
ATOM      1  C   UNL     1     163.950 161.522 180.718  1.00  0.00     0.000 C 
ENDROOT
BRANCH   1   2
ATOM      2  C   UNL     1     164.271 160.662 181.948  1.00  0.00     0.000 C 
BRANCH   2   3
ATOM      3  C   UNL     1     164.695 161.533 183.138  1.00  0.00     0.000 C 
BRANCH   3   4
ATOM      4  C   UNL     1     165.625 162.668 182.684  1.00  0.00    -0.000 C 
BRANCH   4   5
ATOM      5  C   UNL     1     166.923 162.741 183.505  1.00  0.00    -0.000 C 
BRANCH   5   6
ATOM      6  C   UNL     1     167.142 161.493 184.377  1.00  0.00    -0.000 C 
BRANCH   6   7
ATOM      7  C   UNL     1     167.771 160.328 183.594  1.00  0.00    -0.000 C 
BRANCH   7   8
ATOM      8  C   UNL     1     168.657 160.804 182.429  1.00  0.00    -0.000 C 
BRANCH   8   9
ATOM      9  C   UNL     1     168.125 160.331 181.059  1.00  0.00    -0.000 C 
BRANCH   9  10
ATOM     10  C   UNL     1     168.397 161.322 179.912  1.00  0.00    -0.000 C 
BRANCH  10  11
ATOM     11  C   UNL     1     167.135 161.925 179.273  1.00  0.00    -0.003 C 
ATOM     12  C   UNL     1     166.763 161.258 177.949  1.00  0.00     0.004 C 
ENDBRANCH  10  11
ENDBRANCH   9  10
ENDBRANCH   8   9
ENDBRANCH   7   8
ENDBRANCH   6   7
ENDBRANCH   5   6
ENDBRANCH   4   5
ENDBRANCH   3   4
ENDBRANCH   2   3
ENDBRANCH   1   2
BRANCH   1  13
ATOM     13  C   UNL     1     162.981 160.834 179.741  1.00  0.00     0.000 C 
BRANCH  13  14
ATOM     14  C   UNL     1     161.898 161.774 179.172  1.00  0.00     0.000 C 
BRANCH  14  15
ATOM     15  C   UNL     1     160.506 161.479 179.763  1.00  0.00     0.000 C 
BRANCH  15  16
ATOM     16  C   UNL     1     160.495 160.230 180.660  1.00  0.00     0.000 C 
BRANCH  16  17
ATOM     17  C   UNL     1     159.877 160.505 182.042  1.00  0.00     0.000 C 
BRANCH  17  18
ATOM     18  C   UNL     1     160.921 160.934 183.088  1.00  0.00     0.000 C 
BRANCH  18  19
ATOM     19  C   UNL     1     160.777 162.378 183.610  1.00  0.00     0.000 C 
BRANCH  19  20
ATOM     20  C   UNL     1     161.437 163.462 182.734  1.00  0.00     0.006 C 
BRANCH  20  21
ATOM     21  C   UNL     1     160.444 164.412 182.047  1.00  0.00     0.053 C 
BRANCH  21  22
ATOM     22  C   UNL     1     161.134 165.384 181.140  1.00  0.00     0.041 C 
ATOM     23  O   UNL     1     161.877 166.279 181.620  1.00  0.00    -0.550 OA
ATOM     24  O   UNL     1     160.936 165.316 179.766  1.00  0.00    -0.550 OA
ENDBRANCH  21  22
ENDBRANCH  20  21
ENDBRANCH  19  20
ENDBRANCH  18  19
ENDBRANCH  17  18
ENDBRANCH  16  17
ENDBRANCH  15  16
ENDBRANCH  14  15
ENDBRANCH  13  14
ENDBRANCH   1  13
TORSDOF 20
ENDMDL
MODEL 8
REMARK VINA RESULT:    -3.729      2.901      6.492
REMARK INTER + INTRA:         -11.784
REMARK INTER:                  -8.336
REMARK INTRA:                  -3.449
REMARK UNBOUND:                -3.695
REMARK SMILES CCCCCCCCCCCCCCCCCCCCCC(=O)[O-]
REMARK SMILES IDX 12 1 11 2 10 3 9 4 8 5 7 6 6 7 5 8 4 9 3 10 2 11 1 12 13 13
REMARK SMILES IDX 14 14 15 15 16 16 17 17 18 18 19 19 20 20 21 21 22 22 23 23
REMARK SMILES IDX 24 24
REMARK H PARENT
REMARK Flexibility Score: inf
ROOT
ATOM      1  C   UNL     1     160.309 161.656 180.355  1.00  0.00     0.000 C 
ENDROOT
BRANCH   1   2
ATOM      2  C   UNL     1     161.232 161.501 179.139  1.00  0.00     0.000 C 
BRANCH   2   3
ATOM      3  C   UNL     1     162.219 162.672 179.039  1.00  0.00     0.000 C 
BRANCH   3   4
ATOM      4  C   UNL     1     163.616 162.180 178.635  1.00  0.00    -0.000 C 
BRANCH   4   5
ATOM      5  C   UNL     1     163.926 160.767 179.157  1.00  0.00    -0.000 C 
BRANCH   5   6
ATOM      6  C   UNL     1     165.413 160.578 179.504  1.00  0.00    -0.000 C 
BRANCH   6   7
ATOM      7  C   UNL     1     166.128 161.910 179.786  1.00  0.00    -0.000 C 
BRANCH   7   8
ATOM      8  C   UNL     1     166.764 161.959 181.186  1.00  0.00    -0.000 C 
BRANCH   8   9
ATOM      9  C   UNL     1     167.032 160.549 181.756  1.00  0.00    -0.000 C 
BRANCH   9  10
ATOM     10  C   UNL     1     166.322 160.277 183.096  1.00  0.00    -0.000 C 
BRANCH  10  11
ATOM     11  C   UNL     1     167.211 160.449 184.339  1.00  0.00    -0.003 C 
ATOM     12  C   UNL     1     167.311 161.903 184.800  1.00  0.00     0.004 C 
ENDBRANCH  10  11
ENDBRANCH   9  10
ENDBRANCH   8   9
ENDBRANCH   7   8
ENDBRANCH   6   7
ENDBRANCH   5   6
ENDBRANCH   4   5
ENDBRANCH   3   4
ENDBRANCH   2   3
ENDBRANCH   1   2
BRANCH   1  13
ATOM     13  C   UNL     1     160.341 160.436 181.292  1.00  0.00     0.000 C 
BRANCH  13  14
ATOM     14  C   UNL     1     160.005 160.770 182.761  1.00  0.00     0.000 C 
BRANCH  14  15
ATOM     15  C   UNL     1     161.207 161.379 183.507  1.00  0.00     0.000 C 
BRANCH  15  16
ATOM     16  C   UNL     1     162.556 160.971 182.891  1.00  0.00     0.000 C 
BRANCH  16  17
ATOM     17  C   UNL     1     163.445 162.186 182.570  1.00  0.00     0.000 C 
BRANCH  17  18
ATOM     18  C   UNL     1     162.890 163.501 183.147  1.00  0.00     0.000 C 
BRANCH  18  19
ATOM     19  C   UNL     1     162.429 164.537 182.101  1.00  0.00     0.000 C 
BRANCH  19  20
ATOM     20  C   UNL     1     160.905 164.775 182.042  1.00  0.00     0.006 C 
BRANCH  20  21
ATOM     21  C   UNL     1     160.474 165.863 181.046  1.00  0.00     0.053 C 
BRANCH  21  22
ATOM     22  C   UNL     1     160.577 167.235 181.637  1.00  0.00     0.041 C 
ATOM     23  O   UNL     1     160.125 167.463 182.790  1.00  0.00    -0.550 OA
ATOM     24  O   UNL     1     161.150 168.268 180.906  1.00  0.00    -0.550 OA
ENDBRANCH  21  22
ENDBRANCH  20  21
ENDBRANCH  19  20
ENDBRANCH  18  19
ENDBRANCH  17  18
ENDBRANCH  16  17
ENDBRANCH  15  16
ENDBRANCH  14  15
ENDBRANCH  13  14
ENDBRANCH   1  13
TORSDOF 20
ENDMDL
MODEL 9
REMARK VINA RESULT:    -3.713      2.304      3.974
REMARK INTER + INTRA:         -11.749
REMARK INTER:                  -8.330
REMARK INTRA:                  -3.419
REMARK UNBOUND:                -3.695
REMARK SMILES CCCCCCCCCCCCCCCCCCCCCC(=O)[O-]
REMARK SMILES IDX 12 1 11 2 10 3 9 4 8 5 7 6 6 7 5 8 4 9 3 10 2 11 1 12 13 13
REMARK SMILES IDX 14 14 15 15 16 16 17 17 18 18 19 19 20 20 21 21 22 22 23 23
REMARK SMILES IDX 24 24
REMARK H PARENT
REMARK Flexibility Score: inf
ROOT
ATOM      1  C   UNL     1     162.778 163.619 182.190  1.00  0.00     0.000 C 
ENDROOT
BRANCH   1   2
ATOM      2  C   UNL     1     161.276 163.476 182.473  1.00  0.00     0.000 C 
BRANCH   2   3
ATOM      3  C   UNL     1     161.019 162.489 183.619  1.00  0.00     0.000 C 
BRANCH   3   4
ATOM      4  C   UNL     1     160.077 161.361 183.172  1.00  0.00    -0.000 C 
BRANCH   4   5
ATOM      5  C   UNL     1     160.682 160.481 182.067  1.00  0.00    -0.000 C 
BRANCH   5   6
ATOM      6  C   UNL     1     160.037 160.731 180.692  1.00  0.00    -0.000 C 
BRANCH   6   7
ATOM      7  C   UNL     1     161.077 161.025 179.597  1.00  0.00    -0.000 C 
BRANCH   7   8
ATOM      8  C   UNL     1     162.503 160.613 180.005  1.00  0.00    -0.000 C 
BRANCH   8   9
ATOM      9  C   UNL     1     163.531 160.881 178.885  1.00  0.00    -0.000 C 
BRANCH   9  10
ATOM     10  C   UNL     1     164.448 162.089 179.161  1.00  0.00    -0.000 C 
BRANCH  10  11
ATOM     11  C   UNL     1     165.781 161.739 179.843  1.00  0.00    -0.003 C 
ATOM     12  C   UNL     1     166.200 160.286 179.616  1.00  0.00     0.004 C 
ENDBRANCH  10  11
ENDBRANCH   9  10
ENDBRANCH   8   9
ENDBRANCH   7   8
ENDBRANCH   6   7
ENDBRANCH   5   6
ENDBRANCH   4   5
ENDBRANCH   3   4
ENDBRANCH   2   3
ENDBRANCH   1   2
BRANCH   1  13
ATOM     13  C   UNL     1     163.648 163.383 183.437  1.00  0.00     0.000 C 
BRANCH  13  14
ATOM     14  C   UNL     1     164.794 162.374 183.214  1.00  0.00     0.000 C 
BRANCH  14  15
ATOM     15  C   UNL     1     164.277 160.927 183.099  1.00  0.00     0.000 C 
BRANCH  15  16
ATOM     16  C   UNL     1     165.392 159.883 183.281  1.00  0.00     0.000 C 
BRANCH  16  17
ATOM     17  C   UNL     1     166.646 160.474 183.950  1.00  0.00     0.000 C 
BRANCH  17  18
ATOM     18  C   UNL     1     167.925 160.253 183.122  1.00  0.00     0.000 C 
BRANCH  18  19
ATOM     19  C   UNL     1     168.485 161.509 182.425  1.00  0.00     0.000 C 
BRANCH  19  20
ATOM     20  C   UNL     1     169.923 161.373 181.883  1.00  0.00     0.006 C 
BRANCH  20  21
ATOM     21  C   UNL     1     170.010 161.188 180.360  1.00  0.00     0.053 C 
BRANCH  21  22
ATOM     22  C   UNL     1     171.370 160.736 179.928  1.00  0.00     0.041 C 
ATOM     23  O   UNL     1     171.784 160.995 178.768  1.00  0.00    -0.550 OA
ATOM     24  O   UNL     1     172.172 160.007 180.798  1.00  0.00    -0.550 OA
ENDBRANCH  21  22
ENDBRANCH  20  21
ENDBRANCH  19  20
ENDBRANCH  18  19
ENDBRANCH  17  18
ENDBRANCH  16  17
ENDBRANCH  15  16
ENDBRANCH  14  15
ENDBRANCH  13  14
ENDBRANCH   1  13
TORSDOF 20
ENDMDL
