MODEL 1
REMARK VINA RESULT:    -4.350      0.000      0.000
REMARK INTER + INTRA:          -9.501
REMARK INTER:                  -7.911
REMARK INTRA:                  -1.590
REMARK UNBOUND:                -1.590
REMARK SMILES CCCCCC=CCC=CCCCCCCCC(=O)[O-]
REMARK SMILES IDX 11 1 12 2 13 3 14 4 15 5 16 6 17 7 18 8 19 9 20 10 10 11
REMARK SMILES IDX 9 12 8 13 7 14 6 15 5 16 4 17 3 18 2 19 1 20
REMARK H PARENT
REMARK Flexibility Score: inf
ROOT
ATOM      1  C   UNL     1      -6.433  -1.508  -7.887  1.00  0.00     0.027 C 
ENDROOT
BRANCH   1   2
ATOM      2  C   UNL     1      -6.782  -2.076  -9.274  1.00  0.00     0.004 C 
BRANCH   2   3
ATOM      3  C   UNL     1      -7.330  -3.514  -9.253  1.00  0.00     0.000 C 
BRANCH   3   4
ATOM      4  C   UNL     1      -6.240  -4.569  -9.510  1.00  0.00     0.000 C 
BRANCH   4   5
ATOM      5  C   UNL     1      -5.673  -5.161  -8.208  1.00  0.00     0.000 C 
BRANCH   5   6
ATOM      6  C   UNL     1      -4.140  -5.296  -8.237  1.00  0.00     0.006 C 
BRANCH   6   7
ATOM      7  C   UNL     1      -3.468  -4.105  -8.934  1.00  0.00     0.053 C 
BRANCH   7   8
ATOM      8  C   UNL     1      -2.639  -3.298  -7.981  1.00  0.00     0.041 C 
ATOM      9  O   UNL     1      -3.195  -2.552  -7.133  1.00  0.00    -0.550 OA
ATOM     10  O   UNL     1      -1.254  -3.350  -8.050  1.00  0.00    -0.550 OA
ENDBRANCH   7   8
ENDBRANCH   6   7
ENDBRANCH   5   6
ENDBRANCH   4   5
ENDBRANCH   3   4
ENDBRANCH   2   3
ENDBRANCH   1   2
BRANCH   1  11
ATOM     11  C   UNL     1      -7.352  -2.013  -6.806  1.00  0.00    -0.031 C 
ATOM     12  C   UNL     1      -8.572  -1.490  -6.620  1.00  0.00    -0.027 C 
BRANCH  12  13
ATOM     13  C   UNL     1      -9.468  -2.004  -5.528  1.00  0.00     0.054 C 
BRANCH  13  14
ATOM     14  C   UNL     1      -8.675  -2.412  -4.314  1.00  0.00    -0.027 C 
ATOM     15  C   UNL     1      -8.291  -1.573  -3.334  1.00  0.00    -0.031 C 
BRANCH  15  16
ATOM     16  C   UNL     1      -8.571  -0.089  -3.310  1.00  0.00     0.027 C 
BRANCH  16  17
ATOM     17  C   UNL     1      -7.291   0.728  -3.532  1.00  0.00     0.004 C 
BRANCH  17  18
ATOM     18  C   UNL     1      -7.594   2.166  -3.986  1.00  0.00     0.000 C 
BRANCH  18  19
ATOM     19  C   UNL     1      -8.517   2.911  -3.009  1.00  0.00    -0.003 C 
ATOM     20  C   UNL     1      -9.050   4.223  -3.582  1.00  0.00     0.004 C 
ENDBRANCH  18  19
ENDBRANCH  17  18
ENDBRANCH  16  17
ENDBRANCH  15  16
ENDBRANCH  13  14
ENDBRANCH  12  13
ENDBRANCH   1  11
TORSDOF 14
ENDMDL
MODEL 2
REMARK VINA RESULT:    -4.262      1.416      2.438
REMARK INTER + INTRA:          -9.340
REMARK INTER:                  -7.549
REMARK INTRA:                  -1.791
REMARK UNBOUND:                -1.590
REMARK SMILES CCCCCC=CCC=CCCCCCCCC(=O)[O-]
REMARK SMILES IDX 11 1 12 2 13 3 14 4 15 5 16 6 17 7 18 8 19 9 20 10 10 11
REMARK SMILES IDX 9 12 8 13 7 14 6 15 5 16 4 17 3 18 2 19 1 20
REMARK H PARENT
REMARK Flexibility Score: inf
ROOT
ATOM      1  C   UNL     1      -7.238  -1.280  -7.008  1.00  0.00     0.027 C 
ENDROOT
BRANCH   1   2
ATOM      2  C   UNL     1      -7.334  -2.812  -7.115  1.00  0.00     0.004 C 
BRANCH   2   3
ATOM      3  C   UNL     1      -8.203  -3.315  -8.282  1.00  0.00     0.000 C 
BRANCH   3   4
ATOM      4  C   UNL     1      -7.371  -3.719  -9.511  1.00  0.00     0.000 C 
BRANCH   4   5
ATOM      5  C   UNL     1      -5.956  -4.191  -9.137  1.00  0.00     0.000 C 
BRANCH   5   6
ATOM      6  C   UNL     1      -4.855  -3.395  -9.861  1.00  0.00     0.006 C 
BRANCH   6   7
ATOM      7  C   UNL     1      -3.450  -3.915  -9.524  1.00  0.00     0.053 C 
BRANCH   7   8
ATOM      8  C   UNL     1      -2.879  -3.231  -8.318  1.00  0.00     0.041 C 
ATOM      9  O   UNL     1      -1.660  -2.919  -8.284  1.00  0.00    -0.550 OA
ATOM     10  O   UNL     1      -3.689  -2.967  -7.222  1.00  0.00    -0.550 OA
ENDBRANCH   7   8
ENDBRANCH   6   7
ENDBRANCH   5   6
ENDBRANCH   4   5
ENDBRANCH   3   4
ENDBRANCH   2   3
ENDBRANCH   1   2
BRANCH   1  11
ATOM     11  C   UNL     1      -7.326  -0.791  -5.586  1.00  0.00    -0.031 C 
ATOM     12  C   UNL     1      -8.352  -1.124  -4.791  1.00  0.00    -0.027 C 
BRANCH  12  13
ATOM     13  C   UNL     1      -8.422  -0.617  -3.377  1.00  0.00     0.054 C 
BRANCH  13  14
ATOM     14  C   UNL     1      -7.314   0.362  -3.090  1.00  0.00    -0.027 C 
ATOM     15  C   UNL     1      -7.499   1.662  -2.793  1.00  0.00    -0.031 C 
BRANCH  15  16
ATOM     16  C   UNL     1      -8.843   2.349  -2.728  1.00  0.00     0.027 C 
BRANCH  16  17
ATOM     17  C   UNL     1      -8.999   3.386  -3.847  1.00  0.00     0.004 C 
BRANCH  17  18
ATOM     18  C   UNL     1      -8.832   2.762  -5.243  1.00  0.00     0.000 C 
BRANCH  18  19
ATOM     19  C   UNL     1     -10.125   2.110  -5.756  1.00  0.00    -0.003 C 
ATOM     20  C   UNL     1      -9.942   1.410  -7.101  1.00  0.00     0.004 C 
ENDBRANCH  18  19
ENDBRANCH  17  18
ENDBRANCH  16  17
ENDBRANCH  15  16
ENDBRANCH  13  14
ENDBRANCH  12  13
ENDBRANCH   1  11
TORSDOF 14
ENDMDL
MODEL 3
REMARK VINA RESULT:    -4.225      2.890      6.741
REMARK INTER + INTRA:          -9.273
REMARK INTER:                  -7.203
REMARK INTRA:                  -2.070
REMARK UNBOUND:                -1.590
REMARK SMILES CCCCCC=CCC=CCCCCCCCC(=O)[O-]
REMARK SMILES IDX 11 1 12 2 13 3 14 4 15 5 16 6 17 7 18 8 19 9 20 10 10 11
REMARK SMILES IDX 9 12 8 13 7 14 6 15 5 16 4 17 3 18 2 19 1 20
REMARK H PARENT
REMARK Flexibility Score: inf
ROOT
ATOM      1  C   UNL     1      -7.250  -0.805  -6.920  1.00  0.00     0.027 C 
ENDROOT
BRANCH   1   2
ATOM      2  C   UNL     1      -8.647  -0.538  -6.333  1.00  0.00     0.004 C 
BRANCH   2   3
ATOM      3  C   UNL     1      -9.247   0.828  -6.715  1.00  0.00     0.000 C 
BRANCH   3   4
ATOM      4  C   UNL     1      -9.918   1.536  -5.525  1.00  0.00     0.000 C 
BRANCH   4   5
ATOM      5  C   UNL     1      -9.252   2.880  -5.187  1.00  0.00     0.000 C 
BRANCH   5   6
ATOM      6  C   UNL     1      -8.691   2.919  -3.754  1.00  0.00     0.006 C 
BRANCH   6   7
ATOM      7  C   UNL     1      -8.799   1.557  -3.054  1.00  0.00     0.053 C 
BRANCH   7   8
ATOM      8  C   UNL     1      -7.451   0.951  -2.808  1.00  0.00     0.041 C 
ATOM      9  O   UNL     1      -6.713   0.629  -3.776  1.00  0.00    -0.550 OA
ATOM     10  O   UNL     1      -7.022   0.715  -1.508  1.00  0.00    -0.550 OA
ENDBRANCH   7   8
ENDBRANCH   6   7
ENDBRANCH   5   6
ENDBRANCH   4   5
ENDBRANCH   3   4
ENDBRANCH   2   3
ENDBRANCH   1   2
BRANCH   1  11
ATOM     11  C   UNL     1      -7.139  -2.163  -7.560  1.00  0.00    -0.031 C 
ATOM     12  C   UNL     1      -8.105  -2.648  -8.352  1.00  0.00    -0.027 C 
BRANCH  12  13
ATOM     13  C   UNL     1      -7.976  -4.012  -8.972  1.00  0.00     0.054 C 
BRANCH  13  14
ATOM     14  C   UNL     1      -7.111  -4.916  -8.133  1.00  0.00    -0.027 C 
ATOM     15  C   UNL     1      -7.578  -5.809  -7.241  1.00  0.00    -0.031 C 
BRANCH  15  16
ATOM     16  C   UNL     1      -9.038  -6.026  -6.921  1.00  0.00     0.027 C 
BRANCH  16  17
ATOM     17  C   UNL     1      -9.361  -5.632  -5.475  1.00  0.00     0.004 C 
BRANCH  17  18
ATOM     18  C   UNL     1      -9.294  -4.110  -5.261  1.00  0.00     0.000 C 
BRANCH  18  19
ATOM     19  C   UNL     1      -9.486  -3.712  -3.789  1.00  0.00    -0.003 C 
ATOM     20  C   UNL     1      -8.624  -2.518  -3.382  1.00  0.00     0.004 C 
ENDBRANCH  18  19
ENDBRANCH  17  18
ENDBRANCH  16  17
ENDBRANCH  15  16
ENDBRANCH  13  14
ENDBRANCH  12  13
ENDBRANCH   1  11
TORSDOF 14
ENDMDL
MODEL 4
REMARK VINA RESULT:    -4.218     13.878     15.940
REMARK INTER + INTRA:          -9.261
REMARK INTER:                  -6.639
REMARK INTRA:                  -2.622
REMARK UNBOUND:                -1.590
REMARK SMILES CCCCCC=CCC=CCCCCCCCC(=O)[O-]
REMARK SMILES IDX 11 1 12 2 13 3 14 4 15 5 16 6 17 7 18 8 19 9 20 10 10 11
REMARK SMILES IDX 9 12 8 13 7 14 6 15 5 16 4 17 3 18 2 19 1 20
REMARK H PARENT
REMARK Flexibility Score: inf
ROOT
ATOM      1  C   UNL     1      -2.390   8.944   3.209  1.00  0.00     0.027 C 
ENDROOT
BRANCH   1   2
ATOM      2  C   UNL     1      -1.954   9.723   4.463  1.00  0.00     0.004 C 
BRANCH   2   3
ATOM      3  C   UNL     1      -0.454  10.071   4.505  1.00  0.00     0.000 C 
BRANCH   3   4
ATOM      4  C   UNL     1       0.391   8.976   5.179  1.00  0.00     0.000 C 
BRANCH   4   5
ATOM      5  C   UNL     1       0.048   8.800   6.668  1.00  0.00     0.000 C 
BRANCH   5   6
ATOM      6  C   UNL     1       0.129   7.332   7.124  1.00  0.00     0.006 C 
BRANCH   6   7
ATOM      7  C   UNL     1       0.549   6.395   5.983  1.00  0.00     0.053 C 
BRANCH   7   8
ATOM      8  C   UNL     1       0.082   4.990   6.218  1.00  0.00     0.041 C 
ATOM      9  O   UNL     1       0.047   4.166   5.266  1.00  0.00    -0.550 OA
ATOM     10  O   UNL     1      -0.342   4.601   7.482  1.00  0.00    -0.550 OA
ENDBRANCH   7   8
ENDBRANCH   6   7
ENDBRANCH   5   6
ENDBRANCH   4   5
ENDBRANCH   3   4
ENDBRANCH   2   3
ENDBRANCH   1   2
BRANCH   1  11
ATOM     11  C   UNL     1      -3.024   7.620   3.541  1.00  0.00    -0.031 C 
ATOM     12  C   UNL     1      -2.763   6.983   4.691  1.00  0.00    -0.027 C 
BRANCH  12  13
ATOM     13  C   UNL     1      -3.401   5.657   4.996  1.00  0.00     0.054 C 
BRANCH  13  14
ATOM     14  C   UNL     1      -4.818   5.600   4.486  1.00  0.00    -0.027 C 
ATOM     15  C   UNL     1      -5.914   5.645   5.267  1.00  0.00    -0.031 C 
BRANCH  15  16
ATOM     16  C   UNL     1      -5.896   5.729   6.774  1.00  0.00     0.027 C 
BRANCH  16  17
ATOM     17  C   UNL     1      -6.391   7.095   7.267  1.00  0.00     0.004 C 
BRANCH  17  18
ATOM     18  C   UNL     1      -6.791   8.019   6.104  1.00  0.00     0.000 C 
BRANCH  18  19
ATOM     19  C   UNL     1      -5.751   9.119   5.841  1.00  0.00    -0.003 C 
ATOM     20  C   UNL     1      -5.896   9.751   4.458  1.00  0.00     0.004 C 
ENDBRANCH  18  19
ENDBRANCH  17  18
ENDBRANCH  16  17
ENDBRANCH  15  16
ENDBRANCH  13  14
ENDBRANCH  12  13
ENDBRANCH   1  11
TORSDOF 14
ENDMDL
MODEL 5
REMARK VINA RESULT:    -4.218      1.377      2.376
REMARK INTER + INTRA:          -9.260
REMARK INTER:                  -7.341
REMARK INTRA:                  -1.919
REMARK UNBOUND:                -1.590
REMARK SMILES CCCCCC=CCC=CCCCCCCCC(=O)[O-]
REMARK SMILES IDX 11 1 12 2 13 3 14 4 15 5 16 6 17 7 18 8 19 9 20 10 10 11
REMARK SMILES IDX 9 12 8 13 7 14 6 15 5 16 4 17 3 18 2 19 1 20
REMARK H PARENT
REMARK Flexibility Score: inf
ROOT
ATOM      1  C   UNL     1      -6.672  -2.103  -7.141  1.00  0.00     0.027 C 
ENDROOT
BRANCH   1   2
ATOM      2  C   UNL     1      -6.739  -1.768  -8.642  1.00  0.00     0.004 C 
BRANCH   2   3
ATOM      3  C   UNL     1      -6.911  -2.991  -9.560  1.00  0.00     0.000 C 
BRANCH   3   4
ATOM      4  C   UNL     1      -6.839  -4.323  -8.794  1.00  0.00     0.000 C 
BRANCH   4   5
ATOM      5  C   UNL     1      -5.912  -5.345  -9.475  1.00  0.00     0.000 C 
BRANCH   5   6
ATOM      6  C   UNL     1      -4.454  -4.859  -9.557  1.00  0.00     0.006 C 
BRANCH   6   7
ATOM      7  C   UNL     1      -3.836  -4.649  -8.167  1.00  0.00     0.053 C 
BRANCH   7   8
ATOM      8  C   UNL     1      -3.036  -3.383  -8.100  1.00  0.00     0.041 C 
ATOM      9  O   UNL     1      -3.171  -2.598  -7.126  1.00  0.00    -0.550 OA
ATOM     10  O   UNL     1      -2.162  -3.059  -9.130  1.00  0.00    -0.550 OA
ENDBRANCH   7   8
ENDBRANCH   6   7
ENDBRANCH   5   6
ENDBRANCH   4   5
ENDBRANCH   3   4
ENDBRANCH   2   3
ENDBRANCH   1   2
BRANCH   1  11
ATOM     11  C   UNL     1      -7.685  -1.338  -6.331  1.00  0.00    -0.031 C 
ATOM     12  C   UNL     1      -8.597  -0.547  -6.911  1.00  0.00    -0.027 C 
BRANCH  12  13
ATOM     13  C   UNL     1      -9.593   0.214  -6.079  1.00  0.00     0.054 C 
BRANCH  13  14
ATOM     14  C   UNL     1      -9.692   1.650  -6.521  1.00  0.00    -0.027 C 
ATOM     15  C   UNL     1      -9.668   2.710  -5.690  1.00  0.00    -0.031 C 
BRANCH  15  16
ATOM     16  C   UNL     1      -9.567   2.623  -4.186  1.00  0.00     0.027 C 
BRANCH  16  17
ATOM     17  C   UNL     1      -8.180   3.051  -3.690  1.00  0.00     0.004 C 
BRANCH  17  18
ATOM     18  C   UNL     1      -7.591   2.048  -2.682  1.00  0.00     0.000 C 
BRANCH  18  19
ATOM     19  C   UNL     1      -7.106   0.754  -3.353  1.00  0.00    -0.003 C 
ATOM     20  C   UNL     1      -7.882  -0.478  -2.894  1.00  0.00     0.004 C 
ENDBRANCH  18  19
ENDBRANCH  17  18
ENDBRANCH  16  17
ENDBRANCH  15  16
ENDBRANCH  13  14
ENDBRANCH  12  13
ENDBRANCH   1  11
TORSDOF 14
ENDMDL
MODEL 6
REMARK VINA RESULT:    -4.204      2.901      7.648
REMARK INTER + INTRA:          -9.235
REMARK INTER:                  -7.596
REMARK INTRA:                  -1.639
REMARK UNBOUND:                -1.590
REMARK SMILES CCCCCC=CCC=CCCCCCCCC(=O)[O-]
REMARK SMILES IDX 11 1 12 2 13 3 14 4 15 5 16 6 17 7 18 8 19 9 20 10 10 11
REMARK SMILES IDX 9 12 8 13 7 14 6 15 5 16 4 17 3 18 2 19 1 20
REMARK H PARENT
REMARK Flexibility Score: inf
ROOT
ATOM      1  C   UNL     1      -7.498  -0.616  -5.557  1.00  0.00     0.027 C 
ENDROOT
BRANCH   1   2
ATOM      2  C   UNL     1      -8.124  -1.148  -4.255  1.00  0.00     0.004 C 
BRANCH   2   3
ATOM      3  C   UNL     1      -9.576  -0.696  -4.017  1.00  0.00     0.000 C 
BRANCH   3   4
ATOM      4  C   UNL     1     -10.107   0.215  -5.137  1.00  0.00     0.000 C 
BRANCH   4   5
ATOM      5  C   UNL     1     -10.124   1.699  -4.733  1.00  0.00     0.000 C 
BRANCH   5   6
ATOM      6  C   UNL     1      -9.980   1.900  -3.214  1.00  0.00     0.006 C 
BRANCH   6   7
ATOM      7  C   UNL     1      -8.867   2.898  -2.866  1.00  0.00     0.053 C 
BRANCH   7   8
ATOM      8  C   UNL     1      -7.506   2.286  -3.013  1.00  0.00     0.041 C 
ATOM      9  O   UNL     1      -6.790   2.566  -4.010  1.00  0.00    -0.550 OA
ATOM     10  O   UNL     1      -7.043   1.385  -2.064  1.00  0.00    -0.550 OA
ENDBRANCH   7   8
ENDBRANCH   6   7
ENDBRANCH   5   6
ENDBRANCH   4   5
ENDBRANCH   3   4
ENDBRANCH   2   3
ENDBRANCH   1   2
BRANCH   1  11
ATOM     11  C   UNL     1      -7.334  -1.688  -6.602  1.00  0.00    -0.031 C 
ATOM     12  C   UNL     1      -8.080  -2.800  -6.591  1.00  0.00    -0.027 C 
BRANCH  12  13
ATOM     13  C   UNL     1      -7.891  -3.861  -7.640  1.00  0.00     0.054 C 
BRANCH  13  14
ATOM     14  C   UNL     1      -8.210  -5.230  -7.099  1.00  0.00    -0.027 C 
ATOM     15  C   UNL     1      -7.562  -6.359  -7.444  1.00  0.00    -0.031 C 
BRANCH  15  16
ATOM     16  C   UNL     1      -6.435  -6.434  -8.447  1.00  0.00     0.027 C 
BRANCH  16  17
ATOM     17  C   UNL     1      -5.065  -6.389  -7.758  1.00  0.00     0.004 C 
BRANCH  17  18
ATOM     18  C   UNL     1      -4.091  -5.434  -8.469  1.00  0.00     0.000 C 
BRANCH  18  19
ATOM     19  C   UNL     1      -4.015  -4.057  -7.793  1.00  0.00    -0.003 C 
ATOM     20  C   UNL     1      -2.785  -3.257  -8.215  1.00  0.00     0.004 C 
ENDBRANCH  18  19
ENDBRANCH  17  18
ENDBRANCH  16  17
ENDBRANCH  15  16
ENDBRANCH  13  14
ENDBRANCH  12  13
ENDBRANCH   1  11
TORSDOF 14
ENDMDL
MODEL 7
REMARK VINA RESULT:    -4.117      3.021      6.941
REMARK INTER + INTRA:          -9.076
REMARK INTER:                  -7.002
REMARK INTRA:                  -2.073
REMARK UNBOUND:                -1.590
REMARK SMILES CCCCCC=CCC=CCCCCCCCC(=O)[O-]
REMARK SMILES IDX 11 1 12 2 13 3 14 4 15 5 16 6 17 7 18 8 19 9 20 10 10 11
REMARK SMILES IDX 9 12 8 13 7 14 6 15 5 16 4 17 3 18 2 19 1 20
REMARK H PARENT
REMARK Flexibility Score: inf
ROOT
ATOM      1  C   UNL     1      -9.376  -4.732  -5.777  1.00  0.00     0.027 C 
ENDROOT
BRANCH   1   2
ATOM      2  C   UNL     1      -9.678  -3.265  -5.424  1.00  0.00     0.004 C 
BRANCH   2   3
ATOM      3  C   UNL     1      -8.898  -2.730  -4.210  1.00  0.00     0.000 C 
BRANCH   3   4
ATOM      4  C   UNL     1      -8.051  -1.491  -4.547  1.00  0.00     0.000 C 
BRANCH   4   5
ATOM      5  C   UNL     1      -8.899  -0.215  -4.683  1.00  0.00     0.000 C 
BRANCH   5   6
ATOM      6  C   UNL     1      -9.543   0.212  -3.351  1.00  0.00     0.006 C 
BRANCH   6   7
ATOM      7  C   UNL     1      -9.162   1.647  -2.960  1.00  0.00     0.053 C 
BRANCH   7   8
ATOM      8  C   UNL     1      -7.691   1.781  -2.704  1.00  0.00     0.041 C 
ATOM      9  O   UNL     1      -7.024   2.670  -3.296  1.00  0.00    -0.550 OA
ATOM     10  O   UNL     1      -7.055   0.906  -1.835  1.00  0.00    -0.550 OA
ENDBRANCH   7   8
ENDBRANCH   6   7
ENDBRANCH   5   6
ENDBRANCH   4   5
ENDBRANCH   3   4
ENDBRANCH   2   3
ENDBRANCH   1   2
BRANCH   1  11
ATOM     11  C   UNL     1      -8.240  -4.872  -6.755  1.00  0.00    -0.031 C 
ATOM     12  C   UNL     1      -8.181  -5.890  -7.624  1.00  0.00    -0.027 C 
BRANCH  12  13
ATOM     13  C   UNL     1      -7.032  -6.013  -8.586  1.00  0.00     0.054 C 
BRANCH  13  14
ATOM     14  C   UNL     1      -5.743  -6.308  -7.864  1.00  0.00    -0.027 C 
ATOM     15  C   UNL     1      -4.641  -5.535  -7.919  1.00  0.00    -0.031 C 
BRANCH  15  16
ATOM     16  C   UNL     1      -4.516  -4.269  -8.733  1.00  0.00     0.027 C 
BRANCH  16  17
ATOM     17  C   UNL     1      -5.110  -3.064  -7.994  1.00  0.00     0.004 C 
BRANCH  17  18
ATOM     18  C   UNL     1      -6.278  -2.428  -8.768  1.00  0.00     0.000 C 
BRANCH  18  19
ATOM     19  C   UNL     1      -6.917  -1.253  -8.013  1.00  0.00    -0.003 C 
ATOM     20  C   UNL     1      -8.418  -1.134  -8.265  1.00  0.00     0.004 C 
ENDBRANCH  18  19
ENDBRANCH  17  18
ENDBRANCH  16  17
ENDBRANCH  15  16
ENDBRANCH  13  14
ENDBRANCH  12  13
ENDBRANCH   1  11
TORSDOF 14
ENDMDL
MODEL 8
REMARK VINA RESULT:    -4.103     14.043     16.971
REMARK INTER + INTRA:          -9.052
REMARK INTER:                  -6.391
REMARK INTRA:                  -2.661
REMARK UNBOUND:                -1.590
REMARK SMILES CCCCCC=CCC=CCCCCCCCC(=O)[O-]
REMARK SMILES IDX 11 1 12 2 13 3 14 4 15 5 16 6 17 7 18 8 19 9 20 10 10 11
REMARK SMILES IDX 9 12 8 13 7 14 6 15 5 16 4 17 3 18 2 19 1 20
REMARK H PARENT
REMARK Flexibility Score: inf
ROOT
ATOM      1  C   UNL     1       0.099   8.938   4.953  1.00  0.00     0.027 C 
ENDROOT
BRANCH   1   2
ATOM      2  C   UNL     1      -1.041   9.892   4.555  1.00  0.00     0.004 C 
BRANCH   2   3
ATOM      3  C   UNL     1      -1.826   9.457   3.304  1.00  0.00     0.000 C 
BRANCH   3   4
ATOM      4  C   UNL     1      -2.734   8.243   3.564  1.00  0.00     0.000 C 
BRANCH   4   5
ATOM      5  C   UNL     1      -3.775   8.510   4.665  1.00  0.00     0.000 C 
BRANCH   5   6
ATOM      6  C   UNL     1      -4.220   7.223   5.383  1.00  0.00     0.006 C 
BRANCH   6   7
ATOM      7  C   UNL     1      -5.272   6.447   4.580  1.00  0.00     0.053 C 
BRANCH   7   8
ATOM      8  C   UNL     1      -5.591   5.126   5.212  1.00  0.00     0.041 C 
ATOM      9  O   UNL     1      -5.770   4.106   4.496  1.00  0.00    -0.550 OA
ATOM     10  O   UNL     1      -5.720   5.030   6.591  1.00  0.00    -0.550 OA
ENDBRANCH   7   8
ENDBRANCH   6   7
ENDBRANCH   5   6
ENDBRANCH   4   5
ENDBRANCH   3   4
ENDBRANCH   2   3
ENDBRANCH   1   2
BRANCH   1  11
ATOM     11  C   UNL     1       0.008   8.492   6.388  1.00  0.00    -0.031 C 
ATOM     12  C   UNL     1      -0.994   8.887   7.185  1.00  0.00    -0.027 C 
BRANCH  12  13
ATOM     13  C   UNL     1      -1.060   8.435   8.617  1.00  0.00     0.054 C 
BRANCH  13  14
ATOM     14  C   UNL     1      -1.658   7.058   8.730  1.00  0.00    -0.027 C 
ATOM     15  C   UNL     1      -0.957   5.939   8.994  1.00  0.00    -0.031 C 
BRANCH  15  16
ATOM     16  C   UNL     1       0.540   5.884   9.188  1.00  0.00     0.027 C 
BRANCH  16  17
ATOM     17  C   UNL     1       1.246   5.304   7.957  1.00  0.00     0.004 C 
BRANCH  17  18
ATOM     18  C   UNL     1       0.315   4.404   7.126  1.00  0.00     0.000 C 
BRANCH  18  19
ATOM     19  C   UNL     1       0.104   4.932   5.699  1.00  0.00    -0.003 C 
ATOM     20  C   UNL     1      -1.353   5.289   5.409  1.00  0.00     0.004 C 
ENDBRANCH  18  19
ENDBRANCH  17  18
ENDBRANCH  16  17
ENDBRANCH  15  16
ENDBRANCH  13  14
ENDBRANCH  12  13
ENDBRANCH   1  11
TORSDOF 14
ENDMDL
MODEL 9
REMARK VINA RESULT:    -3.994      2.860      7.059
REMARK INTER + INTRA:          -8.853
REMARK INTER:                  -6.611
REMARK INTRA:                  -2.242
REMARK UNBOUND:                -1.590
REMARK SMILES CCCCCC=CCC=CCCCCCCCC(=O)[O-]
REMARK SMILES IDX 11 1 12 2 13 3 14 4 15 5 16 6 17 7 18 8 19 9 20 10 10 11
REMARK SMILES IDX 9 12 8 13 7 14 6 15 5 16 4 17 3 18 2 19 1 20
REMARK H PARENT
REMARK Flexibility Score: inf
ROOT
ATOM      1  C   UNL     1      -8.715  -1.185  -4.588  1.00  0.00     0.027 C 
ENDROOT
BRANCH   1   2
ATOM      2  C   UNL     1     -10.062  -0.650  -5.107  1.00  0.00     0.004 C 
BRANCH   2   3
ATOM      3  C   UNL     1      -9.983   0.056  -6.472  1.00  0.00     0.000 C 
BRANCH   3   4
ATOM      4  C   UNL     1      -9.542   1.525  -6.357  1.00  0.00     0.000 C 
BRANCH   4   5
ATOM      5  C   UNL     1     -10.125   2.220  -5.115  1.00  0.00     0.000 C 
BRANCH   5   6
ATOM      6  C   UNL     1      -9.105   3.139  -4.418  1.00  0.00     0.006 C 
BRANCH   6   7
ATOM      7  C   UNL     1      -8.741   2.636  -3.014  1.00  0.00     0.053 C 
BRANCH   7   8
ATOM      8  C   UNL     1      -7.485   1.819  -3.025  1.00  0.00     0.041 C 
ATOM      9  O   UNL     1      -6.789   1.739  -4.071  1.00  0.00    -0.550 OA
ATOM     10  O   UNL     1      -7.099   1.122  -1.887  1.00  0.00    -0.550 OA
ENDBRANCH   7   8
ENDBRANCH   6   7
ENDBRANCH   5   6
ENDBRANCH   4   5
ENDBRANCH   3   4
ENDBRANCH   2   3
ENDBRANCH   1   2
BRANCH   1  11
ATOM     11  C   UNL     1      -8.617  -2.685  -4.669  1.00  0.00    -0.031 C 
ATOM     12  C   UNL     1      -9.183  -3.374  -5.669  1.00  0.00    -0.027 C 
BRANCH  12  13
ATOM     13  C   UNL     1      -9.079  -4.873  -5.723  1.00  0.00     0.054 C 
BRANCH  13  14
ATOM     14  C   UNL     1      -9.372  -5.394  -7.105  1.00  0.00    -0.027 C 
ATOM     15  C   UNL     1      -8.442  -5.864  -7.958  1.00  0.00    -0.031 C 
BRANCH  15  16
ATOM     16  C   UNL     1      -6.960  -5.919  -7.674  1.00  0.00     0.027 C 
BRANCH  16  17
ATOM     17  C   UNL     1      -6.185  -4.915  -8.537  1.00  0.00     0.004 C 
BRANCH  17  18
ATOM     18  C   UNL     1      -6.107  -3.526  -7.881  1.00  0.00     0.000 C 
BRANCH  18  19
ATOM     19  C   UNL     1      -6.955  -2.478  -8.618  1.00  0.00    -0.003 C 
ATOM     20  C   UNL     1      -6.931  -1.111  -7.936  1.00  0.00     0.004 C 
ENDBRANCH  18  19
ENDBRANCH  17  18
ENDBRANCH  16  17
ENDBRANCH  15  16
ENDBRANCH  13  14
ENDBRANCH  12  13
ENDBRANCH   1  11
TORSDOF 14
ENDMDL
