MODEL 1
REMARK VINA RESULT:    -5.635      0.000      0.000
REMARK INTER + INTRA:          -5.635
REMARK INTER:                  -5.635
REMARK INTRA:                   0.000
REMARK UNBOUND:                 0.000
REMARK SMILES C=C1CCC[C@]2(C)CC(=O)C(=C(C)C)C[C@H]12
REMARK SMILES IDX 13 1 12 2 11 3 15 4 16 5 2 6 1 7 3 8 4 9 5 10 6 11 8 12 9 13
REMARK SMILES IDX 10 14 7 15 14 16
REMARK H PARENT
REMARK Flexibility Score: inf
ROOT
ATOM      1  C   UNL     1      13.330  -1.710  62.194  1.00  0.00     0.039 C 
ATOM      2  C   UNL     1      14.398  -1.927  61.147  1.00  0.00    -0.070 C 
ATOM      3  C   UNL     1      14.991  -0.878  60.489  1.00  0.00    -0.006 C 
ATOM      4  C   UNL     1      16.051  -1.089  59.418  1.00  0.00     0.047 C 
ATOM      5  C   UNL     1      15.983  -0.047  58.265  1.00  0.00     0.025 C 
ATOM      6  C   UNL     1      17.200  -0.231  57.366  1.00  0.00    -0.073 C 
ATOM      7  C   UNL     1      17.122  -1.043  56.307  1.00  0.00     0.008 C 
ATOM      8  C   UNL     1      18.533   0.399  57.734  1.00  0.00     0.031 C 
ATOM      9  C   UNL     1      18.390   1.794  58.384  1.00  0.00     0.005 C 
ATOM     10  C   UNL     1      17.231   1.865  59.389  1.00  0.00     0.008 C 
ATOM     11  C   UNL     1      15.881   1.427  58.755  1.00  0.00    -0.018 C 
ATOM     12  C   UNL     1      14.732   1.585  59.781  1.00  0.00     0.088 C 
ATOM     13  C   UNL     1      14.719   0.535  60.847  1.00  0.00     0.159 C 
ATOM     14  O   UNL     1      14.435   0.868  62.028  1.00  0.00    -0.295 OA
ATOM     15  C   UNL     1      15.530   2.355  57.569  1.00  0.00     0.012 C 
ATOM     16  C   UNL     1      14.810  -3.358  60.872  1.00  0.00     0.039 C 
ENDROOT
TORSDOF 0
ENDMDL
MODEL 2
REMARK VINA RESULT:    -5.613      1.810      4.683
REMARK INTER + INTRA:          -5.613
REMARK INTER:                  -5.613
REMARK INTRA:                   0.000
REMARK UNBOUND:                 0.000
REMARK SMILES C=C1CCC[C@]2(C)CC(=O)C(=C(C)C)C[C@H]12
REMARK SMILES IDX 13 1 12 2 11 3 15 4 16 5 2 6 1 7 3 8 4 9 5 10 6 11 8 12 9 13
REMARK SMILES IDX 10 14 7 15 14 16
REMARK H PARENT
REMARK Flexibility Score: inf
ROOT
ATOM      1  C   UNL     1      17.509   1.824  55.627  1.00  0.00     0.039 C 
ATOM      2  C   UNL     1      16.942   0.606  56.318  1.00  0.00    -0.070 C 
ATOM      3  C   UNL     1      16.559   0.632  57.636  1.00  0.00    -0.006 C 
ATOM      4  C   UNL     1      16.008  -0.595  58.345  1.00  0.00     0.047 C 
ATOM      5  C   UNL     1      16.423  -0.686  59.842  1.00  0.00     0.025 C 
ATOM      6  C   UNL     1      15.660  -1.832  60.493  1.00  0.00    -0.073 C 
ATOM      7  C   UNL     1      16.202  -3.055  60.524  1.00  0.00     0.008 C 
ATOM      8  C   UNL     1      14.240  -1.628  60.994  1.00  0.00     0.031 C 
ATOM      9  C   UNL     1      14.008  -0.233  61.619  1.00  0.00     0.005 C 
ATOM     10  C   UNL     1      14.687   0.893  60.826  1.00  0.00     0.008 C 
ATOM     11  C   UNL     1      16.208   0.637  60.635  1.00  0.00    -0.018 C 
ATOM     12  C   UNL     1      16.862   1.830  59.896  1.00  0.00     0.088 C 
ATOM     13  C   UNL     1      16.556   1.883  58.432  1.00  0.00     0.159 C 
ATOM     14  O   UNL     1      16.340   3.001  57.895  1.00  0.00    -0.295 OA
ATOM     15  C   UNL     1      16.906   0.547  62.012  1.00  0.00     0.012 C 
ATOM     16  C   UNL     1      16.786  -0.648  55.483  1.00  0.00     0.039 C 
ENDROOT
TORSDOF 0
ENDMDL
MODEL 3
REMARK VINA RESULT:    -5.512     10.678     12.921
REMARK INTER + INTRA:          -5.512
REMARK INTER:                  -5.512
REMARK INTRA:                   0.000
REMARK UNBOUND:                 0.000
REMARK SMILES C=C1CCC[C@]2(C)CC(=O)C(=C(C)C)C[C@H]12
REMARK SMILES IDX 13 1 12 2 11 3 15 4 16 5 2 6 1 7 3 8 4 9 5 10 6 11 8 12 9 13
REMARK SMILES IDX 10 14 7 15 14 16
REMARK H PARENT
REMARK Flexibility Score: inf
ROOT
ATOM      1  C   UNL     1      24.727  -4.750  57.454  1.00  0.00     0.039 C 
ATOM      2  C   UNL     1      25.995  -4.877  56.641  1.00  0.00    -0.070 C 
ATOM      3  C   UNL     1      26.074  -4.426  55.346  1.00  0.00    -0.006 C 
ATOM      4  C   UNL     1      27.338  -4.569  54.514  1.00  0.00     0.047 C 
ATOM      5  C   UNL     1      27.062  -4.832  53.005  1.00  0.00     0.025 C 
ATOM      6  C   UNL     1      28.381  -4.759  52.245  1.00  0.00    -0.073 C 
ATOM      7  C   UNL     1      29.097  -5.873  52.056  1.00  0.00     0.008 C 
ATOM      8  C   UNL     1      28.949  -3.419  51.813  1.00  0.00     0.031 C 
ATOM      9  C   UNL     1      27.864  -2.413  51.364  1.00  0.00     0.005 C 
ATOM     10  C   UNL     1      26.621  -2.439  52.264  1.00  0.00     0.008 C 
ATOM     11  C   UNL     1      26.014  -3.865  52.380  1.00  0.00    -0.018 C 
ATOM     12  C   UNL     1      24.724  -3.829  53.235  1.00  0.00     0.088 C 
ATOM     13  C   UNL     1      24.969  -3.674  54.703  1.00  0.00     0.159 C 
ATOM     14  O   UNL     1      24.202  -2.935  55.375  1.00  0.00    -0.295 OA
ATOM     15  C   UNL     1      25.592  -4.375  50.983  1.00  0.00     0.012 C 
ATOM     16  C   UNL     1      27.192  -5.501  57.326  1.00  0.00     0.039 C 
ENDROOT
TORSDOF 0
ENDMDL
MODEL 4
REMARK VINA RESULT:    -5.358      2.485      3.940
REMARK INTER + INTRA:          -5.358
REMARK INTER:                  -5.358
REMARK INTRA:                   0.000
REMARK UNBOUND:                 0.000
REMARK SMILES C=C1CCC[C@]2(C)CC(=O)C(=C(C)C)C[C@H]12
REMARK SMILES IDX 13 1 12 2 11 3 15 4 16 5 2 6 1 7 3 8 4 9 5 10 6 11 8 12 9 13
REMARK SMILES IDX 10 14 7 15 14 16
REMARK H PARENT
REMARK Flexibility Score: inf
ROOT
ATOM      1  C   UNL     1      16.777  -4.776  60.918  1.00  0.00     0.039 C 
ATOM      2  C   UNL     1      17.373  -3.479  61.413  1.00  0.00    -0.070 C 
ATOM      3  C   UNL     1      16.688  -2.291  61.335  1.00  0.00    -0.006 C 
ATOM      4  C   UNL     1      17.289  -0.977  61.810  1.00  0.00     0.047 C 
ATOM      5  C   UNL     1      16.863   0.248  60.949  1.00  0.00     0.025 C 
ATOM      6  C   UNL     1      17.356   1.519  61.628  1.00  0.00    -0.073 C 
ATOM      7  C   UNL     1      18.553   2.020  61.305  1.00  0.00     0.008 C 
ATOM      8  C   UNL     1      16.557   2.151  62.755  1.00  0.00     0.031 C 
ATOM      9  C   UNL     1      15.028   2.056  62.547  1.00  0.00     0.005 C 
ATOM     10  C   UNL     1      14.587   0.692  61.996  1.00  0.00     0.008 C 
ATOM     11  C   UNL     1      15.331   0.326  60.682  1.00  0.00    -0.018 C 
ATOM     12  C   UNL     1      14.803  -1.019  60.125  1.00  0.00     0.088 C 
ATOM     13  C   UNL     1      15.278  -2.220  60.880  1.00  0.00     0.159 C 
ATOM     14  O   UNL     1      14.478  -3.171  61.081  1.00  0.00    -0.295 OA
ATOM     15  C   UNL     1      15.038   1.387  59.596  1.00  0.00     0.012 C 
ATOM     16  C   UNL     1      18.755  -3.546  62.028  1.00  0.00     0.039 C 
ENDROOT
TORSDOF 0
ENDMDL
MODEL 5
REMARK VINA RESULT:    -5.355      2.387      3.214
REMARK INTER + INTRA:          -5.355
REMARK INTER:                  -5.355
REMARK INTRA:                   0.000
REMARK UNBOUND:                 0.000
REMARK SMILES C=C1CCC[C@]2(C)CC(=O)C(=C(C)C)C[C@H]12
REMARK SMILES IDX 13 1 12 2 11 3 15 4 16 5 2 6 1 7 3 8 4 9 5 10 6 11 8 12 9 13
REMARK SMILES IDX 10 14 7 15 14 16
REMARK H PARENT
REMARK Flexibility Score: inf
ROOT
ATOM      1  C   UNL     1      17.892  -2.173  63.400  1.00  0.00     0.039 C 
ATOM      2  C   UNL     1      17.033  -2.050  62.163  1.00  0.00    -0.070 C 
ATOM      3  C   UNL     1      17.456  -1.361  61.053  1.00  0.00    -0.006 C 
ATOM      4  C   UNL     1      16.590  -1.214  59.812  1.00  0.00     0.047 C 
ATOM      5  C   UNL     1      16.760   0.156  59.095  1.00  0.00     0.025 C 
ATOM      6  C   UNL     1      16.005   0.114  57.772  1.00  0.00    -0.073 C 
ATOM      7  C   UNL     1      14.733   0.524  57.722  1.00  0.00     0.008 C 
ATOM      8  C   UNL     1      16.642  -0.506  56.540  1.00  0.00     0.031 C 
ATOM      9  C   UNL     1      18.160  -0.230  56.433  1.00  0.00     0.005 C 
ATOM     10  C   UNL     1      18.881  -0.348  57.783  1.00  0.00     0.008 C 
ATOM     11  C   UNL     1      18.244   0.566  58.867  1.00  0.00    -0.018 C 
ATOM     12  C   UNL     1      19.048   0.470  60.187  1.00  0.00     0.088 C 
ATOM     13  C   UNL     1      18.825  -0.801  60.945  1.00  0.00     0.159 C 
ATOM     14  O   UNL     1      19.804  -1.352  61.513  1.00  0.00    -0.295 OA
ATOM     15  C   UNL     1      18.322   2.045  58.422  1.00  0.00     0.012 C 
ATOM     16  C   UNL     1      15.689  -2.747  62.187  1.00  0.00     0.039 C 
ENDROOT
TORSDOF 0
ENDMDL
MODEL 6
REMARK VINA RESULT:    -5.281      3.222      4.407
REMARK INTER + INTRA:          -5.281
REMARK INTER:                  -5.281
REMARK INTRA:                   0.000
REMARK UNBOUND:                 0.000
REMARK SMILES C=C1CCC[C@]2(C)CC(=O)C(=C(C)C)C[C@H]12
REMARK SMILES IDX 13 1 12 2 11 3 15 4 16 5 2 6 1 7 3 8 4 9 5 10 6 11 8 12 9 13
REMARK SMILES IDX 10 14 7 15 14 16
REMARK H PARENT
REMARK Flexibility Score: inf
ROOT
ATOM      1  C   UNL     1      21.138  -2.407  62.214  1.00  0.00     0.039 C 
ATOM      2  C   UNL     1      19.687  -2.530  61.812  1.00  0.00    -0.070 C 
ATOM      3  C   UNL     1      19.015  -1.501  61.199  1.00  0.00    -0.006 C 
ATOM      4  C   UNL     1      17.549  -1.608  60.810  1.00  0.00     0.047 C 
ATOM      5  C   UNL     1      16.769  -0.270  60.955  1.00  0.00     0.025 C 
ATOM      6  C   UNL     1      15.379  -0.445  60.355  1.00  0.00    -0.073 C 
ATOM      7  C   UNL     1      14.367  -0.835  61.137  1.00  0.00     0.008 C 
ATOM      8  C   UNL     1      15.161  -0.304  58.859  1.00  0.00     0.031 C 
ATOM      9  C   UNL     1      16.029   0.804  58.217  1.00  0.00     0.005 C 
ATOM     10  C   UNL     1      17.463   0.827  58.766  1.00  0.00     0.008 C 
ATOM     11  C   UNL     1      17.493   0.951  60.315  1.00  0.00    -0.018 C 
ATOM     12  C   UNL     1      18.955   1.045  60.815  1.00  0.00     0.088 C 
ATOM     13  C   UNL     1      19.697  -0.253  60.777  1.00  0.00     0.159 C 
ATOM     14  O   UNL     1      20.906  -0.255  60.424  1.00  0.00    -0.295 OA
ATOM     15  C   UNL     1      16.802   2.264  60.752  1.00  0.00     0.012 C 
ATOM     16  C   UNL     1      19.006  -3.854  62.089  1.00  0.00     0.039 C 
ENDROOT
TORSDOF 0
ENDMDL
MODEL 7
REMARK VINA RESULT:    -5.259      2.548      5.372
REMARK INTER + INTRA:          -5.259
REMARK INTER:                  -5.259
REMARK INTRA:                   0.000
REMARK UNBOUND:                 0.000
REMARK SMILES C=C1CCC[C@]2(C)CC(=O)C(=C(C)C)C[C@H]12
REMARK SMILES IDX 13 1 12 2 11 3 15 4 16 5 2 6 1 7 3 8 4 9 5 10 6 11 8 12 9 13
REMARK SMILES IDX 10 14 7 15 14 16
REMARK H PARENT
REMARK Flexibility Score: inf
ROOT
ATOM      1  C   UNL     1      17.867   2.017  54.491  1.00  0.00     0.039 C 
ATOM      2  C   UNL     1      18.342   1.925  55.922  1.00  0.00    -0.070 C 
ATOM      3  C   UNL     1      17.733   1.102  56.836  1.00  0.00    -0.006 C 
ATOM      4  C   UNL     1      18.190   1.019  58.284  1.00  0.00     0.047 C 
ATOM      5  C   UNL     1      17.026   0.800  59.292  1.00  0.00     0.025 C 
ATOM      6  C   UNL     1      17.615   0.536  60.672  1.00  0.00    -0.073 C 
ATOM      7  C   UNL     1      17.821   1.557  61.510  1.00  0.00     0.008 C 
ATOM      8  C   UNL     1      18.086  -0.857  61.056  1.00  0.00     0.031 C 
ATOM      9  C   UNL     1      17.192  -1.982  60.486  1.00  0.00     0.005 C 
ATOM     10  C   UNL     1      16.754  -1.717  59.038  1.00  0.00     0.008 C 
ATOM     11  C   UNL     1      16.048  -0.340  58.885  1.00  0.00    -0.018 C 
ATOM     12  C   UNL     1      15.560  -0.149  57.428  1.00  0.00     0.088 C 
ATOM     13  C   UNL     1      16.653   0.159  56.454  1.00  0.00     0.159 C 
ATOM     14  O   UNL     1      16.614  -0.361  55.308  1.00  0.00    -0.295 OA
ATOM     15  C   UNL     1      14.783  -0.295  59.773  1.00  0.00     0.012 C 
ATOM     16  C   UNL     1      19.545   2.762  56.302  1.00  0.00     0.039 C 
ENDROOT
TORSDOF 0
ENDMDL
MODEL 8
REMARK VINA RESULT:    -5.247      2.284      4.172
REMARK INTER + INTRA:          -5.247
REMARK INTER:                  -5.247
REMARK INTRA:                   0.000
REMARK UNBOUND:                 0.000
REMARK SMILES C=C1CCC[C@]2(C)CC(=O)C(=C(C)C)C[C@H]12
REMARK SMILES IDX 13 1 12 2 11 3 15 4 16 5 2 6 1 7 3 8 4 9 5 10 6 11 8 12 9 13
REMARK SMILES IDX 10 14 7 15 14 16
REMARK H PARENT
REMARK Flexibility Score: inf
ROOT
ATOM      1  C   UNL     1      15.443   5.088  62.122  1.00  0.00     0.039 C 
ATOM      2  C   UNL     1      15.387   3.595  62.350  1.00  0.00    -0.070 C 
ATOM      3  C   UNL     1      15.628   2.698  61.338  1.00  0.00    -0.006 C 
ATOM      4  C   UNL     1      15.553   1.195  61.553  1.00  0.00     0.047 C 
ATOM      5  C   UNL     1      15.008   0.418  60.320  1.00  0.00     0.025 C 
ATOM      6  C   UNL     1      15.164  -1.076  60.574  1.00  0.00    -0.073 C 
ATOM      7  C   UNL     1      14.162  -1.759  61.138  1.00  0.00     0.008 C 
ATOM      8  C   UNL     1      16.489  -1.770  60.309  1.00  0.00     0.031 C 
ATOM      9  C   UNL     1      17.224  -1.225  59.062  1.00  0.00     0.005 C 
ATOM     10  C   UNL     1      17.149   0.304  58.949  1.00  0.00     0.008 C 
ATOM     11  C   UNL     1      15.682   0.820  58.975  1.00  0.00    -0.018 C 
ATOM     12  C   UNL     1      15.653   2.356  58.785  1.00  0.00     0.088 C 
ATOM     13  C   UNL     1      16.081   3.128  59.993  1.00  0.00     0.159 C 
ATOM     14  O   UNL     1      16.789   4.158  59.839  1.00  0.00    -0.295 OA
ATOM     15  C   UNL     1      14.892   0.222  57.788  1.00  0.00     0.012 C 
ATOM     16  C   UNL     1      15.080   3.124  63.756  1.00  0.00     0.039 C 
ENDROOT
TORSDOF 0
ENDMDL
MODEL 9
REMARK VINA RESULT:    -5.199     11.880     14.723
REMARK INTER + INTRA:          -5.199
REMARK INTER:                  -5.199
REMARK INTRA:                   0.000
REMARK UNBOUND:                 0.000
REMARK SMILES C=C1CCC[C@]2(C)CC(=O)C(=C(C)C)C[C@H]12
REMARK SMILES IDX 13 1 12 2 11 3 15 4 16 5 2 6 1 7 3 8 4 9 5 10 6 11 8 12 9 13
REMARK SMILES IDX 10 14 7 15 14 16
REMARK H PARENT
REMARK Flexibility Score: inf
ROOT
ATOM      1  C   UNL     1      31.776  -5.033  53.851  1.00  0.00     0.039 C 
ATOM      2  C   UNL     1      30.789  -3.895  53.963  1.00  0.00    -0.070 C 
ATOM      3  C   UNL     1      29.453  -4.066  53.697  1.00  0.00    -0.006 C 
ATOM      4  C   UNL     1      28.456  -2.921  53.786  1.00  0.00     0.047 C 
ATOM      5  C   UNL     1      27.321  -3.002  52.724  1.00  0.00     0.025 C 
ATOM      6  C   UNL     1      26.284  -1.929  53.033  1.00  0.00    -0.073 C 
ATOM      7  C   UNL     1      26.392  -0.722  52.467  1.00  0.00     0.008 C 
ATOM      8  C   UNL     1      25.204  -2.177  54.071  1.00  0.00     0.031 C 
ATOM      9  C   UNL     1      24.679  -3.631  54.071  1.00  0.00     0.005 C 
ATOM     10  C   UNL     1      25.799  -4.667  53.901  1.00  0.00     0.008 C 
ATOM     11  C   UNL     1      26.650  -4.403  52.627  1.00  0.00    -0.018 C 
ATOM     12  C   UNL     1      27.717  -5.511  52.458  1.00  0.00     0.088 C 
ATOM     13  C   UNL     1      28.869  -5.398  53.407  1.00  0.00     0.159 C 
ATOM     14  O   UNL     1      29.349  -6.447  53.911  1.00  0.00    -0.295 OA
ATOM     15  C   UNL     1      25.752  -4.473  51.370  1.00  0.00     0.012 C 
ATOM     16  C   UNL     1      31.332  -2.555  54.412  1.00  0.00     0.039 C 
ENDROOT
TORSDOF 0
ENDMDL
