MODEL 1
REMARK VINA RESULT:    -4.147      0.000      0.000
REMARK INTER + INTRA:          -4.268
REMARK INTER:                  -4.268
REMARK INTRA:                   0.000
REMARK UNBOUND:                 0.000
REMARK SMILES Cc1ccccc1O
REMARK SMILES IDX 1 1 2 2 3 3 4 4 5 5 6 6 7 7 8 8
REMARK H PARENT 8 9
REMARK Flexibility Score: inf
ROOT
ATOM      1  C   UNL     1      23.858  30.717  10.236  1.00  0.00     0.048 C 
ATOM      2  C   UNL     1      23.533  30.490  11.686  1.00  0.00    -0.009 A 
ATOM      3  C   UNL     1      22.494  31.209  12.300  1.00  0.00     0.007 A 
ATOM      4  C   UNL     1      22.192  30.998  13.649  1.00  0.00     0.001 A 
ATOM      5  C   UNL     1      22.923  30.071  14.393  1.00  0.00     0.004 A 
ATOM      6  C   UNL     1      23.959  29.351  13.792  1.00  0.00     0.046 A 
ATOM      7  C   UNL     1      24.269  29.556  12.439  1.00  0.00     0.118 A 
ENDROOT
BRANCH   7   8
ATOM      8  O   UNL     1      25.304  28.835  11.843  1.00  0.00    -0.508 OA
ATOM      9  H   UNL     1      25.932  28.258  12.389  1.00  0.00     0.293 HD
ENDBRANCH   7   8
TORSDOF 1
ENDMDL
MODEL 2
REMARK VINA RESULT:    -4.076      6.957      8.077
REMARK INTER + INTRA:          -4.196
REMARK INTER:                  -4.196
REMARK INTRA:                   0.000
REMARK UNBOUND:                 0.000
REMARK SMILES Cc1ccccc1O
REMARK SMILES IDX 1 1 2 2 3 3 4 4 5 5 6 6 7 7 8 8
REMARK H PARENT 8 9
REMARK Flexibility Score: inf
ROOT
ATOM      1  C   UNL     1      30.011  26.360  10.772  1.00  0.00     0.048 C 
ATOM      2  C   UNL     1      29.578  25.292  11.738  1.00  0.00    -0.009 A 
ATOM      3  C   UNL     1      30.517  24.391  12.266  1.00  0.00     0.007 A 
ATOM      4  C   UNL     1      30.115  23.398  13.164  1.00  0.00     0.001 A 
ATOM      5  C   UNL     1      28.774  23.296  13.541  1.00  0.00     0.004 A 
ATOM      6  C   UNL     1      27.832  24.187  13.020  1.00  0.00     0.046 A 
ATOM      7  C   UNL     1      28.227  25.187  12.119  1.00  0.00     0.118 A 
ENDROOT
BRANCH   7   8
ATOM      8  O   UNL     1      27.283  26.075  11.602  1.00  0.00    -0.508 OA
ATOM      9  H   UNL     1      26.471  25.748  11.091  1.00  0.00     0.293 HD
ENDBRANCH   7   8
TORSDOF 1
ENDMDL
MODEL 3
REMARK VINA RESULT:    -3.932      5.981      7.306
REMARK INTER + INTRA:          -4.046
REMARK INTER:                  -4.046
REMARK INTRA:                   0.000
REMARK UNBOUND:                 0.000
REMARK SMILES Cc1ccccc1O
REMARK SMILES IDX 1 1 2 2 3 3 4 4 5 5 6 6 7 7 8 8
REMARK H PARENT 8 9
REMARK Flexibility Score: inf
ROOT
ATOM      1  C   UNL     1      29.711  24.658  11.710  1.00  0.00     0.048 C 
ATOM      2  C   UNL     1      29.763  26.144  11.929  1.00  0.00    -0.009 A 
ATOM      3  C   UNL     1      30.989  26.779  12.191  1.00  0.00     0.007 A 
ATOM      4  C   UNL     1      31.038  28.162  12.395  1.00  0.00     0.001 A 
ATOM      5  C   UNL     1      29.867  28.919  12.339  1.00  0.00     0.004 A 
ATOM      6  C   UNL     1      28.643  28.297  12.080  1.00  0.00     0.046 A 
ATOM      7  C   UNL     1      28.584  26.911  11.874  1.00  0.00     0.118 A 
ENDROOT
BRANCH   7   8
ATOM      8  O   UNL     1      27.359  26.294  11.615  1.00  0.00    -0.508 OA
ATOM      9  H   UNL     1      26.566  26.409  12.234  1.00  0.00     0.293 HD
ENDBRANCH   7   8
TORSDOF 1
ENDMDL
MODEL 4
REMARK VINA RESULT:    -3.892      7.443      8.704
REMARK INTER + INTRA:          -4.005
REMARK INTER:                  -4.005
REMARK INTRA:                   0.000
REMARK UNBOUND:                 0.000
REMARK SMILES Cc1ccccc1O
REMARK SMILES IDX 1 1 2 2 3 3 4 4 5 5 6 6 7 7 8 8
REMARK H PARENT 8 9
REMARK Flexibility Score: inf
ROOT
ATOM      1  C   UNL     1      27.125  23.933  11.886  1.00  0.00     0.048 C 
ATOM      2  C   UNL     1      28.559  24.030  12.327  1.00  0.00    -0.009 A 
ATOM      3  C   UNL     1      29.049  23.185  13.337  1.00  0.00     0.007 A 
ATOM      4  C   UNL     1      30.382  23.275  13.747  1.00  0.00     0.001 A 
ATOM      5  C   UNL     1      31.235  24.208  13.155  1.00  0.00     0.004 A 
ATOM      6  C   UNL     1      30.758  25.054  12.150  1.00  0.00     0.046 A 
ATOM      7  C   UNL     1      29.421  24.970  11.732  1.00  0.00     0.118 A 
ENDROOT
BRANCH   7   8
ATOM      8  O   UNL     1      28.949  25.817  10.728  1.00  0.00    -0.508 OA
ATOM      9  H   UNL     1      28.554  25.452   9.870  1.00  0.00     0.293 HD
ENDBRANCH   7   8
TORSDOF 1
ENDMDL
MODEL 5
REMARK VINA RESULT:    -3.857      6.702      7.916
REMARK INTER + INTRA:          -3.970
REMARK INTER:                  -3.970
REMARK INTRA:                   0.000
REMARK UNBOUND:                 0.000
REMARK SMILES Cc1ccccc1O
REMARK SMILES IDX 1 1 2 2 3 3 4 4 5 5 6 6 7 7 8 8
REMARK H PARENT 8 9
REMARK Flexibility Score: inf
ROOT
ATOM      1  C   UNL     1      30.288  27.312  11.417  1.00  0.00     0.048 C 
ATOM      2  C   UNL     1      29.778  25.977  11.882  1.00  0.00    -0.009 A 
ATOM      3  C   UNL     1      30.678  24.950  12.212  1.00  0.00     0.007 A 
ATOM      4  C   UNL     1      30.204  23.707  12.644  1.00  0.00     0.001 A 
ATOM      5  C   UNL     1      28.830  23.480  12.749  1.00  0.00     0.004 A 
ATOM      6  C   UNL     1      27.927  24.495  12.423  1.00  0.00     0.046 A 
ATOM      7  C   UNL     1      28.393  25.744  11.988  1.00  0.00     0.118 A 
ENDROOT
BRANCH   7   8
ATOM      8  O   UNL     1      27.487  26.755  11.664  1.00  0.00    -0.508 OA
ATOM      9  H   UNL     1      27.783  27.718  11.556  1.00  0.00     0.293 HD
ENDBRANCH   7   8
TORSDOF 1
ENDMDL
MODEL 6
REMARK VINA RESULT:    -3.760      7.617      9.034
REMARK INTER + INTRA:          -3.870
REMARK INTER:                  -3.870
REMARK INTRA:                   0.000
REMARK UNBOUND:                 0.000
REMARK SMILES Cc1ccccc1O
REMARK SMILES IDX 1 1 2 2 3 3 4 4 5 5 6 6 7 7 8 8
REMARK H PARENT 8 9
REMARK Flexibility Score: inf
ROOT
ATOM      1  C   UNL     1      29.922  22.040  13.720  1.00  0.00     0.048 C 
ATOM      2  C   UNL     1      29.676  23.214  12.814  1.00  0.00    -0.009 A 
ATOM      3  C   UNL     1      30.582  23.515  11.782  1.00  0.00     0.007 A 
ATOM      4  C   UNL     1      30.354  24.607  10.939  1.00  0.00     0.001 A 
ATOM      5  C   UNL     1      29.223  25.405  11.119  1.00  0.00     0.004 A 
ATOM      6  C   UNL     1      28.317  25.115  12.142  1.00  0.00     0.046 A 
ATOM      7  C   UNL     1      28.537  24.022  12.993  1.00  0.00     0.118 A 
ENDROOT
BRANCH   7   8
ATOM      8  O   UNL     1      27.629  23.736  14.013  1.00  0.00    -0.508 OA
ATOM      9  H   UNL     1      27.083  22.882  14.013  1.00  0.00     0.293 HD
ENDBRANCH   7   8
TORSDOF 1
ENDMDL
MODEL 7
REMARK VINA RESULT:    -3.748      7.771      8.984
REMARK INTER + INTRA:          -3.858
REMARK INTER:                  -3.858
REMARK INTRA:                   0.000
REMARK UNBOUND:                 0.000
REMARK SMILES Cc1ccccc1O
REMARK SMILES IDX 1 1 2 2 3 3 4 4 5 5 6 6 7 7 8 8
REMARK H PARENT 8 9
REMARK Flexibility Score: inf
ROOT
ATOM      1  C   UNL     1      27.749  25.491  11.925  1.00  0.00     0.048 C 
ATOM      2  C   UNL     1      28.790  24.433  12.159  1.00  0.00    -0.009 A 
ATOM      3  C   UNL     1      29.872  24.294  11.272  1.00  0.00     0.007 A 
ATOM      4  C   UNL     1      30.840  23.310  11.489  1.00  0.00     0.001 A 
ATOM      5  C   UNL     1      30.737  22.456  12.589  1.00  0.00     0.004 A 
ATOM      6  C   UNL     1      29.665  22.585  13.476  1.00  0.00     0.046 A 
ATOM      7  C   UNL     1      28.688  23.570  13.267  1.00  0.00     0.118 A 
ENDROOT
BRANCH   7   8
ATOM      8  O   UNL     1      27.620  23.695  14.155  1.00  0.00    -0.508 OA
ATOM      9  H   UNL     1      26.720  24.052  13.855  1.00  0.00     0.293 HD
ENDBRANCH   7   8
TORSDOF 1
ENDMDL
MODEL 8
REMARK VINA RESULT:    -3.706      7.120      7.998
REMARK INTER + INTRA:          -3.814
REMARK INTER:                  -3.814
REMARK INTRA:                   0.000
REMARK UNBOUND:                 0.000
REMARK SMILES Cc1ccccc1O
REMARK SMILES IDX 1 1 2 2 3 3 4 4 5 5 6 6 7 7 8 8
REMARK H PARENT 8 9
REMARK Flexibility Score: inf
ROOT
ATOM      1  C   UNL     1      29.500  26.751  10.783  1.00  0.00     0.048 C 
ATOM      2  C   UNL     1      29.257  25.577  11.690  1.00  0.00    -0.009 A 
ATOM      3  C   UNL     1      27.948  25.232  12.066  1.00  0.00     0.007 A 
ATOM      4  C   UNL     1      27.720  24.141  12.910  1.00  0.00     0.001 A 
ATOM      5  C   UNL     1      28.796  23.387  13.384  1.00  0.00     0.004 A 
ATOM      6  C   UNL     1      30.101  23.722  13.015  1.00  0.00     0.046 A 
ATOM      7  C   UNL     1      30.339  24.816  12.169  1.00  0.00     0.118 A 
ENDROOT
BRANCH   7   8
ATOM      8  O   UNL     1      31.644  25.146  11.804  1.00  0.00    -0.508 OA
ATOM      9  H   UNL     1      32.228  24.503  11.282  1.00  0.00     0.293 HD
ENDBRANCH   7   8
TORSDOF 1
ENDMDL
MODEL 9
REMARK VINA RESULT:    -3.661      7.437      8.674
REMARK INTER + INTRA:          -3.768
REMARK INTER:                  -3.768
REMARK INTRA:                   0.000
REMARK UNBOUND:                 0.000
REMARK SMILES Cc1ccccc1O
REMARK SMILES IDX 1 1 2 2 3 3 4 4 5 5 6 6 7 7 8 8
REMARK H PARENT 8 9
REMARK Flexibility Score: inf
ROOT
ATOM      1  C   UNL     1      29.876  22.210  13.620  1.00  0.00     0.048 C 
ATOM      2  C   UNL     1      29.476  23.515  12.991  1.00  0.00    -0.009 A 
ATOM      3  C   UNL     1      28.118  23.824  12.801  1.00  0.00     0.007 A 
ATOM      4  C   UNL     1      27.746  25.037  12.215  1.00  0.00     0.001 A 
ATOM      5  C   UNL     1      28.723  25.950  11.815  1.00  0.00     0.004 A 
ATOM      6  C   UNL     1      30.076  25.652  11.998  1.00  0.00     0.046 A 
ATOM      7  C   UNL     1      30.459  24.437  12.585  1.00  0.00     0.118 A 
ENDROOT
BRANCH   7   8
ATOM      8  O   UNL     1      31.811  24.144  12.767  1.00  0.00    -0.508 OA
ATOM      9  H   UNL     1      32.535  24.658  12.279  1.00  0.00     0.293 HD
ENDBRANCH   7   8
TORSDOF 1
ENDMDL
