MODEL 1
REMARK VINA RESULT:    -5.664      0.000      0.000
REMARK INTER + INTRA:          -6.215
REMARK INTER:                  -5.995
REMARK INTRA:                  -0.220
REMARK UNBOUND:                -0.220
REMARK SMILES CC1=CC[C@@H](C(C)C)C=C1
REMARK SMILES IDX 1 1 2 2 3 3 4 4 5 5 9 6 10 7 6 8 7 9 8 10
REMARK H PARENT
REMARK Flexibility Score: inf
ROOT
ATOM      1  C   UNL     1      18.375  29.515  29.179  1.00  0.00     0.044 C 
ATOM      2  C   UNL     1      18.429  29.553  27.680  1.00  0.00    -0.055 C 
ATOM      3  C   UNL     1      17.974  28.516  26.964  1.00  0.00    -0.023 C 
ATOM      4  C   UNL     1      18.139  28.470  25.467  1.00  0.00     0.035 C 
ATOM      5  C   UNL     1      18.152  29.881  24.819  1.00  0.00     0.018 C 
ATOM      6  C   UNL     1      18.924  30.866  25.671  1.00  0.00    -0.023 C 
ATOM      7  C   UNL     1      19.022  30.721  26.995  1.00  0.00    -0.001 C 
ENDROOT
BRANCH   5   8
ATOM      8  C   UNL     1      16.746  30.447  24.454  1.00  0.00    -0.010 C 
ATOM      9  C   UNL     1      15.773  29.385  23.916  1.00  0.00     0.008 C 
ATOM     10  C   UNL     1      16.838  31.627  23.474  1.00  0.00     0.008 C 
ENDBRANCH   5   8
TORSDOF 1
ENDMDL
MODEL 2
REMARK VINA RESULT:    -5.165      8.028     10.426
REMARK INTER + INTRA:          -5.687
REMARK INTER:                  -5.608
REMARK INTRA:                  -0.079
REMARK UNBOUND:                -0.220
REMARK SMILES CC1=CC[C@@H](C(C)C)C=C1
REMARK SMILES IDX 1 1 2 2 3 3 4 4 5 5 9 6 10 7 6 8 7 9 8 10
REMARK H PARENT
REMARK Flexibility Score: inf
ROOT
ATOM      1  C   UNL     1       7.006  31.944  21.515  1.00  0.00     0.044 C 
ATOM      2  C   UNL     1       7.693  32.810  22.528  1.00  0.00    -0.055 C 
ATOM      3  C   UNL     1       7.499  32.598  23.837  1.00  0.00    -0.023 C 
ATOM      4  C   UNL     1       8.067  33.535  24.871  1.00  0.00     0.035 C 
ATOM      5  C   UNL     1       9.385  34.215  24.408  1.00  0.00     0.018 C 
ATOM      6  C   UNL     1       9.318  34.597  22.945  1.00  0.00    -0.023 C 
ATOM      7  C   UNL     1       8.555  33.924  22.079  1.00  0.00    -0.001 C 
ENDROOT
BRANCH   5   8
ATOM      8  C   UNL     1      10.682  33.403  24.710  1.00  0.00    -0.010 C 
ATOM      9  C   UNL     1      11.158  32.539  23.531  1.00  0.00     0.008 C 
ATOM     10  C   UNL     1      10.539  32.542  25.975  1.00  0.00     0.008 C 
ENDBRANCH   5   8
TORSDOF 1
ENDMDL
MODEL 3
REMARK VINA RESULT:    -5.081      7.993     10.281
REMARK INTER + INTRA:          -5.598
REMARK INTER:                  -5.378
REMARK INTRA:                  -0.220
REMARK UNBOUND:                -0.220
REMARK SMILES CC1=CC[C@@H](C(C)C)C=C1
REMARK SMILES IDX 1 1 2 2 3 3 4 4 5 5 9 6 10 7 6 8 7 9 8 10
REMARK H PARENT
REMARK Flexibility Score: inf
ROOT
ATOM      1  C   UNL     1       6.473  29.050  24.232  1.00  0.00     0.044 C 
ATOM      2  C   UNL     1       7.085  30.419  24.204  1.00  0.00    -0.055 C 
ATOM      3  C   UNL     1       7.202  31.127  25.336  1.00  0.00    -0.023 C 
ATOM      4  C   UNL     1       7.687  32.553  25.317  1.00  0.00     0.035 C 
ATOM      5  C   UNL     1       8.670  32.839  24.148  1.00  0.00     0.018 C 
ATOM      6  C   UNL     1       8.232  32.135  22.882  1.00  0.00    -0.023 C 
ATOM      7  C   UNL     1       7.524  31.002  22.918  1.00  0.00    -0.001 C 
ENDROOT
BRANCH   5   8
ATOM      8  C   UNL     1      10.167  32.536  24.462  1.00  0.00    -0.010 C 
ATOM      9  C   UNL     1      10.566  32.835  25.916  1.00  0.00     0.008 C 
ATOM     10  C   UNL     1      11.115  33.257  23.492  1.00  0.00     0.008 C 
ENDBRANCH   5   8
TORSDOF 1
ENDMDL
MODEL 4
REMARK VINA RESULT:    -5.043      7.688      9.595
REMARK INTER + INTRA:          -5.558
REMARK INTER:                  -5.338
REMARK INTRA:                  -0.220
REMARK UNBOUND:                -0.220
REMARK SMILES CC1=CC[C@@H](C(C)C)C=C1
REMARK SMILES IDX 1 1 2 2 3 3 4 4 5 5 9 6 10 7 6 8 7 9 8 10
REMARK H PARENT
REMARK Flexibility Score: inf
ROOT
ATOM      1  C   UNL     1       7.393  31.165  25.359  1.00  0.00     0.044 C 
ATOM      2  C   UNL     1       8.254  32.219  24.729  1.00  0.00    -0.055 C 
ATOM      3  C   UNL     1       9.496  32.437  25.185  1.00  0.00    -0.023 C 
ATOM      4  C   UNL     1      10.330  33.576  24.661  1.00  0.00     0.035 C 
ATOM      5  C   UNL     1       9.999  33.937  23.187  1.00  0.00     0.018 C 
ATOM      6  C   UNL     1       8.509  33.863  22.928  1.00  0.00    -0.023 C 
ATOM      7  C   UNL     1       7.716  33.045  23.627  1.00  0.00    -0.001 C 
ENDROOT
BRANCH   5   8
ATOM      8  C   UNL     1      10.789  33.121  22.119  1.00  0.00    -0.010 C 
ATOM      9  C   UNL     1      12.315  33.203  22.283  1.00  0.00     0.008 C 
ATOM     10  C   UNL     1      10.387  33.507  20.688  1.00  0.00     0.008 C 
ENDBRANCH   5   8
TORSDOF 1
ENDMDL
MODEL 5
REMARK VINA RESULT:    -5.039      6.879      8.842
REMARK INTER + INTRA:          -5.554
REMARK INTER:                  -5.333
REMARK INTRA:                  -0.221
REMARK UNBOUND:                -0.220
REMARK SMILES CC1=CC[C@@H](C(C)C)C=C1
REMARK SMILES IDX 1 1 2 2 3 3 4 4 5 5 9 6 10 7 6 8 7 9 8 10
REMARK H PARENT
REMARK Flexibility Score: inf
ROOT
ATOM      1  C   UNL     1       9.258  34.702  24.921  1.00  0.00     0.044 C 
ATOM      2  C   UNL     1       9.830  33.934  23.767  1.00  0.00    -0.055 C 
ATOM      3  C   UNL     1       9.476  34.243  22.511  1.00  0.00    -0.023 C 
ATOM      4  C   UNL     1       9.929  33.404  21.345  1.00  0.00     0.035 C 
ATOM      5  C   UNL     1      11.303  32.722  21.591  1.00  0.00     0.018 C 
ATOM      6  C   UNL     1      11.419  32.225  23.016  1.00  0.00    -0.023 C 
ATOM      7  C   UNL     1      10.756  32.810  24.019  1.00  0.00    -0.001 C 
ENDROOT
BRANCH   5   8
ATOM      8  C   UNL     1      12.541  33.587  21.203  1.00  0.00    -0.010 C 
ATOM      9  C   UNL     1      12.658  33.856  19.694  1.00  0.00     0.008 C 
ATOM     10  C   UNL     1      13.851  32.987  21.738  1.00  0.00     0.008 C 
ENDBRANCH   5   8
TORSDOF 1
ENDMDL
MODEL 6
REMARK VINA RESULT:    -5.037      7.477      9.578
REMARK INTER + INTRA:          -5.551
REMARK INTER:                  -5.547
REMARK INTRA:                  -0.004
REMARK UNBOUND:                -0.220
REMARK SMILES CC1=CC[C@@H](C(C)C)C=C1
REMARK SMILES IDX 1 1 2 2 3 3 4 4 5 5 9 6 10 7 6 8 7 9 8 10
REMARK H PARENT
REMARK Flexibility Score: inf
ROOT
ATOM      1  C   UNL     1      12.201  32.079  22.406  1.00  0.00     0.044 C 
ATOM      2  C   UNL     1      11.161  32.872  23.140  1.00  0.00    -0.055 C 
ATOM      3  C   UNL     1      10.389  33.747  22.479  1.00  0.00    -0.023 C 
ATOM      4  C   UNL     1       9.433  34.651  23.211  1.00  0.00     0.035 C 
ATOM      5  C   UNL     1       8.896  34.023  24.526  1.00  0.00     0.018 C 
ATOM      6  C   UNL     1       9.987  33.268  25.255  1.00  0.00    -0.023 C 
ATOM      7  C   UNL     1      11.015  32.716  24.603  1.00  0.00    -0.001 C 
ENDROOT
BRANCH   5   8
ATOM      8  C   UNL     1       7.626  33.135  24.357  1.00  0.00    -0.010 C 
ATOM      9  C   UNL     1       7.665  31.837  25.179  1.00  0.00     0.008 C 
ATOM     10  C   UNL     1       7.338  32.820  22.881  1.00  0.00     0.008 C 
ENDBRANCH   5   8
TORSDOF 1
ENDMDL
MODEL 7
REMARK VINA RESULT:    -4.977      7.936      9.513
REMARK INTER + INTRA:          -5.488
REMARK INTER:                  -5.467
REMARK INTRA:                  -0.021
REMARK UNBOUND:                -0.220
REMARK SMILES CC1=CC[C@@H](C(C)C)C=C1
REMARK SMILES IDX 1 1 2 2 3 3 4 4 5 5 9 6 10 7 6 8 7 9 8 10
REMARK H PARENT
REMARK Flexibility Score: inf
ROOT
ATOM      1  C   UNL     1      10.019  32.377  26.443  1.00  0.00     0.044 C 
ATOM      2  C   UNL     1      10.111  33.046  25.104  1.00  0.00    -0.055 C 
ATOM      3  C   UNL     1      10.837  32.491  24.123  1.00  0.00    -0.023 C 
ATOM      4  C   UNL     1      11.057  33.207  22.816  1.00  0.00     0.035 C 
ATOM      5  C   UNL     1       9.879  34.146  22.438  1.00  0.00     0.018 C 
ATOM      6  C   UNL     1       9.344  34.869  23.656  1.00  0.00    -0.023 C 
ATOM      7  C   UNL     1       9.431  34.339  24.880  1.00  0.00    -0.001 C 
ENDROOT
BRANCH   5   8
ATOM      8  C   UNL     1       8.722  33.461  21.648  1.00  0.00    -0.010 C 
ATOM      9  C   UNL     1       8.414  34.131  20.299  1.00  0.00     0.008 C 
ATOM     10  C   UNL     1       7.442  33.347  22.488  1.00  0.00     0.008 C 
ENDBRANCH   5   8
TORSDOF 1
ENDMDL
MODEL 8
REMARK VINA RESULT:    -4.970      7.984      9.972
REMARK INTER + INTRA:          -5.480
REMARK INTER:                  -5.326
REMARK INTRA:                  -0.155
REMARK UNBOUND:                -0.220
REMARK SMILES CC1=CC[C@@H](C(C)C)C=C1
REMARK SMILES IDX 1 1 2 2 3 3 4 4 5 5 9 6 10 7 6 8 7 9 8 10
REMARK H PARENT
REMARK Flexibility Score: inf
ROOT
ATOM      1  C   UNL     1       9.646  33.130  19.965  1.00  0.00     0.044 C 
ATOM      2  C   UNL     1       9.878  33.483  21.404  1.00  0.00    -0.055 C 
ATOM      3  C   UNL     1       8.997  34.253  22.059  1.00  0.00    -0.023 C 
ATOM      4  C   UNL     1       9.273  34.733  23.460  1.00  0.00     0.035 C 
ATOM      5  C   UNL     1      10.157  33.747  24.272  1.00  0.00     0.018 C 
ATOM      6  C   UNL     1      11.251  33.157  23.408  1.00  0.00    -0.023 C 
ATOM      7  C   UNL     1      11.102  33.014  22.087  1.00  0.00    -0.001 C 
ENDROOT
BRANCH   5   8
ATOM      8  C   UNL     1       9.373  32.624  25.016  1.00  0.00    -0.010 C 
ATOM      9  C   UNL     1       7.858  32.874  25.090  1.00  0.00     0.008 C 
ATOM     10  C   UNL     1       9.936  32.365  26.421  1.00  0.00     0.008 C 
ENDBRANCH   5   8
TORSDOF 1
ENDMDL
MODEL 9
REMARK VINA RESULT:    -4.651      8.144      9.980
REMARK INTER + INTRA:          -5.143
REMARK INTER:                  -5.052
REMARK INTRA:                  -0.091
REMARK UNBOUND:                -0.220
REMARK SMILES CC1=CC[C@@H](C(C)C)C=C1
REMARK SMILES IDX 1 1 2 2 3 3 4 4 5 5 9 6 10 7 6 8 7 9 8 10
REMARK H PARENT
REMARK Flexibility Score: inf
ROOT
ATOM      1  C   UNL     1      11.369  31.614  21.588  1.00  0.00     0.044 C 
ATOM      2  C   UNL     1      10.208  32.254  22.288  1.00  0.00    -0.055 C 
ATOM      3  C   UNL     1       8.992  31.693  22.227  1.00  0.00    -0.023 C 
ATOM      4  C   UNL     1       7.785  32.384  22.805  1.00  0.00     0.035 C 
ATOM      5  C   UNL     1       8.132  33.289  24.019  1.00  0.00     0.018 C 
ATOM      6  C   UNL     1       9.435  34.028  23.793  1.00  0.00    -0.023 C 
ATOM      7  C   UNL     1      10.398  33.528  23.014  1.00  0.00    -0.001 C 
ENDROOT
BRANCH   5   8
ATOM      8  C   UNL     1       8.139  32.562  25.398  1.00  0.00    -0.010 C 
ATOM      9  C   UNL     1       9.542  32.401  26.004  1.00  0.00     0.008 C 
ATOM     10  C   UNL     1       7.430  31.201  25.333  1.00  0.00     0.008 C 
ENDBRANCH   5   8
TORSDOF 1
ENDMDL
