MODEL 1
REMARK VINA RESULT:    -5.612      0.000      0.000
REMARK INTER + INTRA:          -6.854
REMARK INTER:                  -6.760
REMARK INTRA:                  -0.094
REMARK UNBOUND:                -0.094
REMARK SMILES COC(=O)c1cc(O)c(O)c(O)c1
REMARK SMILES IDX 5 1 13 2 11 3 9 4 7 5 6 6 3 7 4 8 2 9 1 10 12 11 8 13 10 15
REMARK H PARENT 12 12 8 14 10 16
REMARK Flexibility Score: inf
ROOT
ATOM      1  C   UNL     1      -1.380  -1.884   0.757  1.00  0.00     0.067 A 
ATOM      2  C   UNL     1      -0.393  -1.072   1.341  1.00  0.00     0.066 A 
ATOM      3  C   UNL     1      -0.681  -0.280   2.459  1.00  0.00     0.162 A 
ATOM      4  C   UNL     1      -1.984  -0.297   3.010  1.00  0.00     0.200 A 
ATOM      5  C   UNL     1      -2.969  -1.106   2.428  1.00  0.00     0.162 A 
ATOM      6  C   UNL     1      -2.669  -1.894   1.310  1.00  0.00     0.066 A 
ENDROOT
BRANCH   1   7
ATOM      7  C   UNL     1      -1.069  -2.719  -0.427  1.00  0.00     0.338 C 
ATOM      8  O   UNL     1      -1.792  -3.715  -0.707  1.00  0.00    -0.246 OA
BRANCH   7   9
ATOM      9  O   UNL     1       0.028  -2.401  -1.235  1.00  0.00    -0.465 OA
ATOM     10  C   UNL     1       0.096  -2.757  -2.611  1.00  0.00     0.282 C 
ENDBRANCH   7   9
ENDBRANCH   1   7
BRANCH   3  11
ATOM     11  O   UNL     1       0.352   0.501   2.984  1.00  0.00    -0.504 OA
ATOM     12  H   UNL     1       0.287   1.497   3.134  1.00  0.00     0.293 HD
ENDBRANCH   3  11
BRANCH   5  13
ATOM     13  O   UNL     1      -4.253  -1.123   2.973  1.00  0.00    -0.504 OA
ATOM     14  H   UNL     1      -4.940  -0.418   2.732  1.00  0.00     0.293 HD
ENDBRANCH   5  13
BRANCH   4  15
ATOM     15  O   UNL     1      -2.336   0.468   4.125  1.00  0.00    -0.502 OA
ATOM     16  H   UNL     1      -3.235   0.913   4.246  1.00  0.00     0.293 HD
ENDBRANCH   4  15
TORSDOF 5
ENDMDL
MODEL 2
REMARK VINA RESULT:    -5.565      0.330      2.363
REMARK INTER + INTRA:          -6.798
REMARK INTER:                  -6.696
REMARK INTRA:                  -0.102
REMARK UNBOUND:                -0.094
REMARK SMILES COC(=O)c1cc(O)c(O)c(O)c1
REMARK SMILES IDX 5 1 13 2 11 3 9 4 7 5 6 6 3 7 4 8 2 9 1 10 12 11 8 13 10 15
REMARK H PARENT 12 12 8 14 10 16
REMARK Flexibility Score: inf
ROOT
ATOM      1  C   UNL     1      -1.445  -2.028   0.837  1.00  0.00     0.067 A 
ATOM      2  C   UNL     1      -2.754  -1.987   1.345  1.00  0.00     0.066 A 
ATOM      3  C   UNL     1      -3.078  -1.171   2.435  1.00  0.00     0.162 A 
ATOM      4  C   UNL     1      -2.075  -0.374   3.035  1.00  0.00     0.200 A 
ATOM      5  C   UNL     1      -0.769  -0.414   2.529  1.00  0.00     0.162 A 
ATOM      6  C   UNL     1      -0.456  -1.234   1.439  1.00  0.00     0.066 A 
ENDROOT
BRANCH   1   7
ATOM      7  C   UNL     1      -1.108  -2.894  -0.316  1.00  0.00     0.338 C 
ATOM      8  O   UNL     1      -1.621  -4.044  -0.416  1.00  0.00    -0.246 OA
BRANCH   7   9
ATOM      9  O   UNL     1      -0.219  -2.437  -1.295  1.00  0.00    -0.465 OA
ATOM     10  C   UNL     1      -0.621  -2.177  -2.635  1.00  0.00     0.282 C 
ENDBRANCH   7   9
ENDBRANCH   1   7
BRANCH   3  11
ATOM     11  O   UNL     1      -4.402  -1.183   2.884  1.00  0.00    -0.504 OA
ATOM     12  H   UNL     1      -4.725  -1.720   3.676  1.00  0.00     0.293 HD
ENDBRANCH   3  11
BRANCH   5  13
ATOM     13  O   UNL     1       0.220   0.372   3.120  1.00  0.00    -0.504 OA
ATOM     14  H   UNL     1       0.690   0.084   3.971  1.00  0.00     0.293 HD
ENDBRANCH   5  13
BRANCH   4  15
ATOM     15  O   UNL     1      -2.333   0.462   4.124  1.00  0.00    -0.502 OA
ATOM     16  H   UNL     1      -2.010   0.285   5.064  1.00  0.00     0.293 HD
ENDBRANCH   4  15
TORSDOF 5
ENDMDL
MODEL 3
REMARK VINA RESULT:    -5.095      1.815      2.299
REMARK INTER + INTRA:          -6.232
REMARK INTER:                  -6.119
REMARK INTRA:                  -0.113
REMARK UNBOUND:                -0.094
REMARK SMILES COC(=O)c1cc(O)c(O)c(O)c1
REMARK SMILES IDX 5 1 13 2 11 3 9 4 7 5 6 6 3 7 4 8 2 9 1 10 12 11 8 13 10 15
REMARK H PARENT 12 12 8 14 10 16
REMARK Flexibility Score: inf
ROOT
ATOM      1  C   UNL     1      -0.336  -0.223  -0.580  1.00  0.00     0.067 A 
ATOM      2  C   UNL     1       0.598   0.491   0.189  1.00  0.00     0.066 A 
ATOM      3  C   UNL     1       0.385   0.717   1.554  1.00  0.00     0.162 A 
ATOM      4  C   UNL     1      -0.789   0.221   2.169  1.00  0.00     0.200 A 
ATOM      5  C   UNL     1      -1.721  -0.490   1.403  1.00  0.00     0.162 A 
ATOM      6  C   UNL     1      -1.497  -0.711   0.039  1.00  0.00     0.066 A 
ENDROOT
BRANCH   1   7
ATOM      7  C   UNL     1      -0.104  -0.458  -2.024  1.00  0.00     0.338 C 
ATOM      8  O   UNL     1       0.728   0.251  -2.656  1.00  0.00    -0.246 OA
BRANCH   7   9
ATOM      9  O   UNL     1      -0.809  -1.469  -2.687  1.00  0.00    -0.465 OA
ATOM     10  C   UNL     1      -0.311  -2.796  -2.813  1.00  0.00     0.282 C 
ENDBRANCH   7   9
ENDBRANCH   1   7
BRANCH   3  11
ATOM     11  O   UNL     1       1.359   1.435   2.253  1.00  0.00    -0.504 OA
ATOM     12  H   UNL     1       1.320   2.430   2.416  1.00  0.00     0.293 HD
ENDBRANCH   3  11
BRANCH   5  13
ATOM     13  O   UNL     1      -2.878  -0.980   2.010  1.00  0.00    -0.504 OA
ATOM     14  H   UNL     1      -3.556  -1.529   1.495  1.00  0.00     0.293 HD
ENDBRANCH   5  13
BRANCH   4  15
ATOM     15  O   UNL     1      -1.062   0.412   3.526  1.00  0.00    -0.502 OA
ATOM     16  H   UNL     1      -1.984   0.584   3.901  1.00  0.00     0.293 HD
ENDBRANCH   4  15
TORSDOF 5
ENDMDL
MODEL 4
REMARK VINA RESULT:    -5.060      0.928      2.600
REMARK INTER + INTRA:          -6.190
REMARK INTER:                  -6.078
REMARK INTRA:                  -0.112
REMARK UNBOUND:                -0.094
REMARK SMILES COC(=O)c1cc(O)c(O)c(O)c1
REMARK SMILES IDX 5 1 13 2 11 3 9 4 7 5 6 6 3 7 4 8 2 9 1 10 12 11 8 13 10 15
REMARK H PARENT 12 12 8 14 10 16
REMARK Flexibility Score: inf
ROOT
ATOM      1  C   UNL     1      -1.109  -1.371   0.515  1.00  0.00     0.067 A 
ATOM      2  C   UNL     1      -2.410  -1.581   1.004  1.00  0.00     0.066 A 
ATOM      3  C   UNL     1      -2.834  -0.988   2.199  1.00  0.00     0.162 A 
ATOM      4  C   UNL     1      -1.943  -0.165   2.926  1.00  0.00     0.200 A 
ATOM      5  C   UNL     1      -0.646   0.045   2.440  1.00  0.00     0.162 A 
ATOM      6  C   UNL     1      -0.232  -0.553   1.243  1.00  0.00     0.066 A 
ENDROOT
BRANCH   1   7
ATOM      7  C   UNL     1      -0.666  -2.002  -0.749  1.00  0.00     0.338 C 
ATOM      8  O   UNL     1      -0.854  -1.414  -1.851  1.00  0.00    -0.246 OA
BRANCH   7   9
ATOM      9  O   UNL     1      -0.037  -3.251  -0.722  1.00  0.00    -0.465 OA
ATOM     10  C   UNL     1      -0.749  -4.472  -0.886  1.00  0.00     0.282 C 
ENDBRANCH   7   9
ENDBRANCH   1   7
BRANCH   3  11
ATOM     11  O   UNL     1      -4.142  -1.244   2.621  1.00  0.00    -0.504 OA
ATOM     12  H   UNL     1      -4.954  -0.761   2.268  1.00  0.00     0.293 HD
ENDBRANCH   3  11
BRANCH   5  13
ATOM     13  O   UNL     1       0.233   0.857   3.157  1.00  0.00    -0.504 OA
ATOM     14  H   UNL     1       1.174   0.555   3.378  1.00  0.00     0.293 HD
ENDBRANCH   5  13
BRANCH   4  15
ATOM     15  O   UNL     1      -2.304   0.456   4.124  1.00  0.00    -0.502 OA
ATOM     16  H   UNL     1      -2.186   0.040   5.037  1.00  0.00     0.293 HD
ENDBRANCH   4  15
TORSDOF 5
ENDMDL
MODEL 5
REMARK VINA RESULT:    -5.045      9.432     10.573
REMARK INTER + INTRA:          -6.171
REMARK INTER:                  -6.087
REMARK INTRA:                  -0.084
REMARK UNBOUND:                -0.094
REMARK SMILES COC(=O)c1cc(O)c(O)c(O)c1
REMARK SMILES IDX 5 1 13 2 11 3 9 4 7 5 6 6 3 7 4 8 2 9 1 10 12 11 8 13 10 15
REMARK H PARENT 12 12 8 14 10 16
REMARK Flexibility Score: inf
ROOT
ATOM      1  C   UNL     1      -7.579   1.977  -5.706  1.00  0.00     0.067 A 
ATOM      2  C   UNL     1      -7.029   1.235  -6.766  1.00  0.00     0.066 A 
ATOM      3  C   UNL     1      -5.755   1.527  -7.265  1.00  0.00     0.162 A 
ATOM      4  C   UNL     1      -5.006   2.584  -6.695  1.00  0.00     0.200 A 
ATOM      5  C   UNL     1      -5.553   3.324  -5.638  1.00  0.00     0.162 A 
ATOM      6  C   UNL     1      -6.829   3.023  -5.148  1.00  0.00     0.066 A 
ENDROOT
BRANCH   1   7
ATOM      7  C   UNL     1      -8.928   1.663  -5.184  1.00  0.00     0.338 C 
ATOM      8  O   UNL     1      -9.898   2.434  -5.431  1.00  0.00    -0.246 OA
BRANCH   7   9
ATOM      9  O   UNL     1      -9.129   0.511  -4.416  1.00  0.00    -0.465 OA
ATOM     10  C   UNL     1      -9.945   0.498  -3.251  1.00  0.00     0.282 C 
ENDBRANCH   7   9
ENDBRANCH   1   7
BRANCH   3  11
ATOM     11  O   UNL     1      -5.276   0.746  -8.320  1.00  0.00    -0.504 OA
ATOM     12  H   UNL     1      -5.849   0.405  -9.077  1.00  0.00     0.293 HD
ENDBRANCH   3  11
BRANCH   5  13
ATOM     13  O   UNL     1      -4.814   4.366  -5.076  1.00  0.00    -0.504 OA
ATOM     14  H   UNL     1      -5.221   4.998  -4.396  1.00  0.00     0.293 HD
ENDBRANCH   5  13
BRANCH   4  15
ATOM     15  O   UNL     1      -3.729   2.926  -7.145  1.00  0.00    -0.502 OA
ATOM     16  H   UNL     1      -3.290   3.821  -6.982  1.00  0.00     0.293 HD
ENDBRANCH   4  15
TORSDOF 5
ENDMDL
MODEL 6
REMARK VINA RESULT:    -5.039      9.452     10.455
REMARK INTER + INTRA:          -6.164
REMARK INTER:                  -6.080
REMARK INTRA:                  -0.084
REMARK UNBOUND:                -0.094
REMARK SMILES COC(=O)c1cc(O)c(O)c(O)c1
REMARK SMILES IDX 5 1 13 2 11 3 9 4 7 5 6 6 3 7 4 8 2 9 1 10 12 11 8 13 10 15
REMARK H PARENT 12 12 8 14 10 16
REMARK Flexibility Score: inf
ROOT
ATOM      1  C   UNL     1      -7.593   2.072  -5.556  1.00  0.00     0.067 A 
ATOM      2  C   UNL     1      -6.814   3.124  -5.045  1.00  0.00     0.066 A 
ATOM      3  C   UNL     1      -5.548   3.404  -5.570  1.00  0.00     0.162 A 
ATOM      4  C   UNL     1      -5.042   2.619  -6.633  1.00  0.00     0.200 A 
ATOM      5  C   UNL     1      -5.817   1.569  -7.144  1.00  0.00     0.162 A 
ATOM      6  C   UNL     1      -7.083   1.298  -6.610  1.00  0.00     0.066 A 
ENDROOT
BRANCH   1   7
ATOM      7  C   UNL     1      -8.932   1.780  -4.995  1.00  0.00     0.338 C 
ATOM      8  O   UNL     1      -9.819   2.678  -4.973  1.00  0.00    -0.246 OA
BRANCH   7   9
ATOM      9  O   UNL     1      -9.213   0.507  -4.489  1.00  0.00    -0.465 OA
ATOM     10  C   UNL     1     -10.034   0.299  -3.345  1.00  0.00     0.282 C 
ENDBRANCH   7   9
ENDBRANCH   1   7
BRANCH   3  11
ATOM     11  O   UNL     1      -4.833   4.466  -5.009  1.00  0.00    -0.504 OA
ATOM     12  H   UNL     1      -5.221   5.382  -4.840  1.00  0.00     0.293 HD
ENDBRANCH   3  11
BRANCH   5  13
ATOM     13  O   UNL     1      -5.319   0.795  -8.191  1.00  0.00    -0.504 OA
ATOM     14  H   UNL     1      -5.173   1.184  -9.116  1.00  0.00     0.293 HD
ENDBRANCH   5  13
BRANCH   4  15
ATOM     15  O   UNL     1      -3.787   2.846  -7.202  1.00  0.00    -0.502 OA
ATOM     16  H   UNL     1      -3.643   3.158  -8.152  1.00  0.00     0.293 HD
ENDBRANCH   4  15
TORSDOF 5
ENDMDL
MODEL 7
REMARK VINA RESULT:    -4.787      2.030      3.294
REMARK INTER + INTRA:          -5.860
REMARK INTER:                  -5.745
REMARK INTRA:                  -0.115
REMARK UNBOUND:                -0.094
REMARK SMILES COC(=O)c1cc(O)c(O)c(O)c1
REMARK SMILES IDX 5 1 13 2 11 3 9 4 7 5 6 6 3 7 4 8 2 9 1 10 12 11 8 13 10 15
REMARK H PARENT 12 12 8 14 10 16
REMARK Flexibility Score: inf
ROOT
ATOM      1  C   UNL     1      -0.878  -2.096   0.584  1.00  0.00     0.067 A 
ATOM      2  C   UNL     1      -0.387  -1.363  -0.510  1.00  0.00     0.066 A 
ATOM      3  C   UNL     1       0.258  -0.135  -0.323  1.00  0.00     0.162 A 
ATOM      4  C   UNL     1       0.420   0.377   0.985  1.00  0.00     0.200 A 
ATOM      5  C   UNL     1      -0.069  -0.351   2.077  1.00  0.00     0.162 A 
ATOM      6  C   UNL     1      -0.713  -1.579   1.878  1.00  0.00     0.066 A 
ENDROOT
BRANCH   1   7
ATOM      7  C   UNL     1      -1.561  -3.394   0.380  1.00  0.00     0.338 C 
ATOM      8  O   UNL     1      -1.884  -3.764  -0.783  1.00  0.00    -0.246 OA
BRANCH   7   9
ATOM      9  O   UNL     1      -1.848  -4.211   1.479  1.00  0.00    -0.465 OA
ATOM     10  C   UNL     1      -1.027  -5.311   1.853  1.00  0.00     0.282 C 
ENDBRANCH   7   9
ENDBRANCH   1   7
BRANCH   3  11
ATOM     11  O   UNL     1       0.720   0.534  -1.460  1.00  0.00    -0.504 OA
ATOM     12  H   UNL     1       0.154   0.723  -2.274  1.00  0.00     0.293 HD
ENDBRANCH   3  11
BRANCH   5  13
ATOM     13  O   UNL     1       0.091   0.154   3.367  1.00  0.00    -0.504 OA
ATOM     14  H   UNL     1       0.971   0.551   3.676  1.00  0.00     0.293 HD
ENDBRANCH   5  13
BRANCH   4  15
ATOM     15  O   UNL     1       1.056   1.596   1.240  1.00  0.00    -0.502 OA
ATOM     16  H   UNL     1       1.150   2.005   2.158  1.00  0.00     0.293 HD
ENDBRANCH   4  15
TORSDOF 5
ENDMDL
MODEL 8
REMARK VINA RESULT:    -4.730      2.157      3.335
REMARK INTER + INTRA:          -5.792
REMARK INTER:                  -5.696
REMARK INTRA:                  -0.096
REMARK UNBOUND:                -0.094
REMARK SMILES COC(=O)c1cc(O)c(O)c(O)c1
REMARK SMILES IDX 5 1 13 2 11 3 9 4 7 5 6 6 3 7 4 8 2 9 1 10 12 11 8 13 10 15
REMARK H PARENT 12 12 8 14 10 16
REMARK Flexibility Score: inf
ROOT
ATOM      1  C   UNL     1      -0.860  -2.155   0.482  1.00  0.00     0.067 A 
ATOM      2  C   UNL     1      -0.537  -1.745   1.787  1.00  0.00     0.066 A 
ATOM      3  C   UNL     1       0.059  -0.502   2.026  1.00  0.00     0.162 A 
ATOM      4  C   UNL     1       0.341   0.358   0.938  1.00  0.00     0.200 A 
ATOM      5  C   UNL     1       0.020  -0.049  -0.364  1.00  0.00     0.162 A 
ATOM      6  C   UNL     1      -0.576  -1.296  -0.590  1.00  0.00     0.066 A 
ENDROOT
BRANCH   1   7
ATOM      7  C   UNL     1      -1.490  -3.472   0.237  1.00  0.00     0.338 C 
ATOM      8  O   UNL     1      -1.892  -3.777  -0.921  1.00  0.00    -0.246 OA
BRANCH   7   9
ATOM      9  O   UNL     1      -1.638  -4.381   1.291  1.00  0.00    -0.465 OA
ATOM     10  C   UNL     1      -1.863  -5.770   1.080  1.00  0.00     0.282 C 
ENDBRANCH   7   9
ENDBRANCH   1   7
BRANCH   3  11
ATOM     11  O   UNL     1       0.350  -0.164   3.350  1.00  0.00    -0.504 OA
ATOM     12  H   UNL     1       0.584  -0.836   4.066  1.00  0.00     0.293 HD
ENDBRANCH   3  11
BRANCH   5  13
ATOM     13  O   UNL     1       0.297   0.799  -1.436  1.00  0.00    -0.504 OA
ATOM     14  H   UNL     1      -0.407   1.028  -2.128  1.00  0.00     0.293 HD
ENDBRANCH   5  13
BRANCH   4  15
ATOM     15  O   UNL     1       0.933   1.612   1.107  1.00  0.00    -0.502 OA
ATOM     16  H   UNL     1       0.418   2.466   1.267  1.00  0.00     0.293 HD
ENDBRANCH   4  15
TORSDOF 5
ENDMDL
MODEL 9
REMARK VINA RESULT:    -4.720     10.982     12.000
REMARK INTER + INTRA:          -5.780
REMARK INTER:                  -5.700
REMARK INTRA:                  -0.080
REMARK UNBOUND:                -0.094
REMARK SMILES COC(=O)c1cc(O)c(O)c(O)c1
REMARK SMILES IDX 5 1 13 2 11 3 9 4 7 5 6 6 3 7 4 8 2 9 1 10 12 11 8 13 10 15
REMARK H PARENT 12 12 8 14 10 16
REMARK Flexibility Score: inf
ROOT
ATOM      1  C   UNL     1       6.625   0.501  -7.012  1.00  0.00     0.067 A 
ATOM      2  C   UNL     1       5.905  -0.638  -7.413  1.00  0.00     0.066 A 
ATOM      3  C   UNL     1       4.569  -0.539  -7.817  1.00  0.00     0.162 A 
ATOM      4  C   UNL     1       3.932   0.724  -7.824  1.00  0.00     0.200 A 
ATOM      5  C   UNL     1       4.648   1.860  -7.425  1.00  0.00     0.162 A 
ATOM      6  C   UNL     1       5.985   1.749  -7.022  1.00  0.00     0.066 A 
ENDROOT
BRANCH   1   7
ATOM      7  C   UNL     1       8.038   0.390  -6.584  1.00  0.00     0.338 C 
ATOM      8  O   UNL     1       8.949   0.220  -7.443  1.00  0.00    -0.246 OA
BRANCH   7   9
ATOM      9  O   UNL     1       8.364   0.473  -5.227  1.00  0.00    -0.465 OA
ATOM     10  C   UNL     1       9.612   0.027  -4.708  1.00  0.00     0.282 C 
ENDBRANCH   7   9
ENDBRANCH   1   7
BRANCH   3  11
ATOM     11  O   UNL     1       3.919  -1.715  -8.202  1.00  0.00    -0.504 OA
ATOM     12  H   UNL     1       4.019  -2.145  -9.109  1.00  0.00     0.293 HD
ENDBRANCH   3  11
BRANCH   5  13
ATOM     13  O   UNL     1       4.020   3.105  -7.432  1.00  0.00    -0.504 OA
ATOM     14  H   UNL     1       4.518   3.952  -7.182  1.00  0.00     0.293 HD
ENDBRANCH   5  13
BRANCH   4  15
ATOM     15  O   UNL     1       2.602   0.891  -8.217  1.00  0.00    -0.502 OA
ATOM     16  H   UNL     1       1.868   1.226  -7.609  1.00  0.00     0.293 HD
ENDBRANCH   4  15
TORSDOF 5
ENDMDL
