MODEL 1
REMARK VINA RESULT:    22.818      0.000      0.000
REMARK INTER + INTRA:          27.326
REMARK INTER:                  27.487
REMARK INTRA:                  -0.161
REMARK UNBOUND:                -0.161
REMARK SMILES O=c1c(O)c(-c2ccc(O)c(O)c2)oc2cc(O)cc(O)c12
REMARK SMILES IDX 5 1 3 2 2 3 1 4 22 5 20 6 19 7 17 8 16 9 15 10 14 11 6 12
REMARK SMILES IDX 7 13 8 14 9 15 13 16 11 17 10 18 12 20 4 22 21 24 18 26
REMARK H PARENT 10 19 12 21 4 23 21 25 18 27
REMARK Flexibility Score: inf
ROOT
ATOM      1  C   UNL     1       7.037   3.413  18.634  1.00  0.00     0.180 A 
ATOM      2  C   UNL     1       8.428   3.206  18.560  1.00  0.00     0.208 A 
ATOM      3  C   UNL     1       9.268   4.309  18.339  1.00  0.00     0.238 A 
ATOM      4  O   UNL     1      10.514   4.134  18.260  1.00  0.00    -0.285 OA
ATOM      5  C   UNL     1       8.709   5.598  18.216  1.00  0.00     0.111 A 
ATOM      6  C   UNL     1       9.484   6.761  17.996  1.00  0.00     0.134 A 
ATOM      7  C   UNL     1       8.853   8.010  17.894  1.00  0.00     0.093 A 
ATOM      8  C   UNL     1       7.464   8.118  18.008  1.00  0.00     0.123 A 
ATOM      9  C   UNL     1       6.693   6.972  18.225  1.00  0.00     0.094 A 
ATOM     10  C   UNL     1       7.303   5.718  18.328  1.00  0.00     0.146 A 
ATOM     11  O   UNL     1       6.546   4.646  18.529  1.00  0.00    -0.452 OA
ENDROOT
BRANCH   1  12
ATOM     12  C   UNL     1       6.086   2.300  18.847  1.00  0.00     0.025 A 
ATOM     13  C   UNL     1       5.130   1.959  17.877  1.00  0.00     0.016 A 
ATOM     14  C   UNL     1       4.228   0.920  18.110  1.00  0.00     0.051 A 
ATOM     15  C   UNL     1       4.250   0.211  19.315  1.00  0.00     0.157 A 
ATOM     16  C   UNL     1       6.096   1.605  20.066  1.00  0.00     0.062 A 
ATOM     17  C   UNL     1       5.195   0.560  20.309  1.00  0.00     0.158 A 
BRANCH  15  18
ATOM     18  O   UNL     1       3.323  -0.820  19.484  1.00  0.00    -0.504 OA
ATOM     19  H   UNL     1       2.329  -0.674  19.587  1.00  0.00     0.293 HD
ENDBRANCH  15  18
BRANCH  17  20
ATOM     20  O   UNL     1       5.271  -0.094  21.540  1.00  0.00    -0.504 OA
ATOM     21  H   UNL     1       4.554  -0.707  21.899  1.00  0.00     0.293 HD
ENDBRANCH  17  20
ENDBRANCH   1  12
BRANCH   2  22
ATOM     22  O   UNL     1       8.962   1.926  18.735  1.00  0.00    -0.502 OA
ATOM     23  H   UNL     1       8.766   1.166  18.095  1.00  0.00     0.293 HD
ENDBRANCH   2  22
BRANCH   6  24
ATOM     24  O   UNL     1      10.873   6.687  17.878  1.00  0.00    -0.507 OA
ATOM     25  H   UNL     1      11.410   7.426  17.440  1.00  0.00     0.293 HD
ENDBRANCH   6  24
BRANCH   8  26
ATOM     26  O   UNL     1       6.862   9.369  17.905  1.00  0.00    -0.508 OA
ATOM     27  H   UNL     1       6.850   9.881  17.030  1.00  0.00     0.293 HD
ENDBRANCH   8  26
TORSDOF 6
ENDMDL
