MODEL 1
REMARK VINA RESULT:    -3.861      0.000      0.000
REMARK INTER + INTRA:          -6.202
REMARK INTER:                  -5.892
REMARK INTRA:                  -0.310
REMARK UNBOUND:                -0.310
REMARK SMILES CC1=CCC[C@@H](C)C(=O)C[C@@H](C(C)C)C(=O)C1
REMARK SMILES IDX 8 1 9 2 6 3 7 4 5 5 4 6 3 7 2 8 1 9 10 11 11 12 15 13 16 14
REMARK SMILES IDX 17 15 12 17 13 18 14 19
REMARK H PARENT
REMARK Flexibility Score: 70.00
ROOT
ATOM      1  C   UNL     1       7.477   1.726  -6.486  1.00  0.00     0.136 C 
ATOM      2  O   UNL     1       6.777   0.890  -5.932  1.00  0.00    -0.299 OA
ENDROOT
BRANCH   1   3
ATOM      3  C   UNL     1       8.371   2.613  -5.634  1.00  0.00     0.053 C 
ATOM      4  C   UNL     1       9.312   1.730  -4.803  1.00  0.00     0.016 C 
BRANCH   3   5
ATOM      5  C   UNL     1       7.581   3.582  -4.717  1.00  0.00     0.015 C 
BRANCH   5   6
ATOM      6  C   UNL     1       6.379   4.304  -5.366  1.00  0.00     0.028 C 
BRANCH   6   7
ATOM      7  C   UNL     1       6.653   5.651  -5.991  1.00  0.00    -0.028 C 
ATOM      8  C   UNL     1       6.636   5.933  -7.313  1.00  0.00    -0.070 CG0
ATOM      9  C   UNL     1       6.686   7.390  -7.709  1.00  0.00     0.039 C 
ATOM     10  G   UNL     1       6.509   4.871  -8.395  1.00  0.00     0.000 G0
ENDBRANCH   6   7
ENDBRANCH   5   6
ENDBRANCH   3   5
ENDBRANCH   1   3
BRANCH   1  11
ATOM     11  C   UNL     1       7.323   1.948  -7.976  1.00  0.00     0.087 C 
BRANCH  11  12
ATOM     12  C   UNL     1       8.354   2.933  -8.590  1.00  0.00     0.066 C 
BRANCH  12  13
ATOM     13  C   UNL     1       7.842   4.348  -8.856  1.00  0.00     0.140 C 
ATOM     14  O   UNL     1       8.568   5.107  -9.482  1.00  0.00    -0.299 OA
BRANCH  13  15
ATOM     15  C   UNL     1       6.491   4.868  -8.407  1.00  0.00     0.106 CG0
ATOM     16  G   UNL     1       6.642   5.918  -7.316  1.00  0.00     0.000 G0
ENDBRANCH  13  15
ENDBRANCH  12  13
BRANCH  12  17
ATOM     17  C   UNL     1       9.026   2.307  -9.853  1.00  0.00    -0.006 C 
ATOM     18  C   UNL     1      10.009   1.170  -9.517  1.00  0.00     0.008 C 
ATOM     19  C   UNL     1       7.989   1.818 -10.877  1.00  0.00     0.008 C 
ENDBRANCH  12  17
ENDBRANCH  11  12
ENDBRANCH   1  11
TORSDOF 1
ENDMDL
MODEL 2
REMARK VINA RESULT:    -3.713      2.425      4.556
REMARK INTER + INTRA:          -5.976
REMARK INTER:                  -5.711
REMARK INTRA:                  -0.266
REMARK UNBOUND:                -0.310
REMARK SMILES CC1=CCC[C@@H](C)C(=O)C[C@@H](C(C)C)C(=O)C1
REMARK SMILES IDX 8 1 9 2 6 3 7 4 5 5 4 6 3 7 2 8 1 9 10 11 11 12 15 13 16 14
REMARK SMILES IDX 17 15 12 17 13 18 14 19
REMARK H PARENT
REMARK Flexibility Score: 70.00
ROOT
ATOM      1  C   UNL     1       5.852   3.071  -9.473  1.00  0.00     0.136 C 
ATOM      2  O   UNL     1       5.972   2.137 -10.253  1.00  0.00    -0.299 OA
ENDROOT
BRANCH   1   3
ATOM      3  C   UNL     1       4.596   3.925  -9.542  1.00  0.00     0.053 C 
ATOM      4  C   UNL     1       3.373   3.012  -9.691  1.00  0.00     0.016 C 
BRANCH   3   5
ATOM      5  C   UNL     1       4.631   4.980 -10.678  1.00  0.00     0.015 C 
BRANCH   5   6
ATOM      6  C   UNL     1       4.891   6.439 -10.244  1.00  0.00     0.028 C 
BRANCH   6   7
ATOM      7  C   UNL     1       6.137   7.097 -10.787  1.00  0.00    -0.028 C 
ATOM      8  C   UNL     1       7.253   7.391 -10.082  1.00  0.00    -0.070 CG0
ATOM      9  C   UNL     1       8.474   7.812 -10.865  1.00  0.00     0.039 C 
ATOM     10  G   UNL     1       7.348   7.260  -8.569  1.00  0.00     0.000 G0
ENDBRANCH   6   7
ENDBRANCH   5   6
ENDBRANCH   3   5
ENDBRANCH   1   3
BRANCH   1  11
ATOM     11  C   UNL     1       7.013   3.434  -8.571  1.00  0.00     0.087 C 
BRANCH  11  12
ATOM     12  C   UNL     1       6.818   4.748  -7.768  1.00  0.00     0.066 C 
BRANCH  12  13
ATOM     13  C   UNL     1       7.778   5.885  -8.113  1.00  0.00     0.140 C 
ATOM     14  O   UNL     1       8.977   5.657  -8.043  1.00  0.00    -0.299 OA
BRANCH  13  15
ATOM     15  C   UNL     1       7.344   7.270  -8.548  1.00  0.00     0.106 CG0
ATOM     16  G   UNL     1       7.266   7.371 -10.064  1.00  0.00     0.000 G0
ENDBRANCH  13  15
ENDBRANCH  12  13
BRANCH  12  17
ATOM     17  C   UNL     1       6.786   4.454  -6.235  1.00  0.00    -0.006 C 
ATOM     18  C   UNL     1       6.671   5.725  -5.374  1.00  0.00     0.008 C 
ATOM     19  C   UNL     1       5.673   3.463  -5.858  1.00  0.00     0.008 C 
ENDBRANCH  12  17
ENDBRANCH  11  12
ENDBRANCH   1  11
TORSDOF 1
ENDMDL
MODEL 3
REMARK VINA RESULT:    -3.674      1.560      1.915
REMARK INTER + INTRA:          -5.917
REMARK INTER:                  -5.982
REMARK INTRA:                   0.065
REMARK UNBOUND:                -0.310
REMARK SMILES CC1=CCC[C@@H](C)C(=O)C[C@@H](C(C)C)C(=O)C1
REMARK SMILES IDX 8 1 9 2 6 3 7 4 5 5 4 6 3 7 2 8 1 9 10 11 11 12 15 13 16 14
REMARK SMILES IDX 17 15 12 17 13 18 14 19
REMARK H PARENT
REMARK Flexibility Score: 70.00
ROOT
ATOM      1  C   UNL     1       8.027   1.516  -6.239  1.00  0.00     0.136 C 
ATOM      2  O   UNL     1       7.146   0.810  -5.771  1.00  0.00    -0.299 OA
ENDROOT
BRANCH   1   3
ATOM      3  C   UNL     1       8.397   2.801  -5.516  1.00  0.00     0.053 C 
ATOM      4  C   UNL     1       9.468   2.494  -4.460  1.00  0.00     0.016 C 
BRANCH   3   5
ATOM      5  C   UNL     1       7.182   3.514  -4.868  1.00  0.00     0.015 C 
BRANCH   5   6
ATOM      6  C   UNL     1       6.220   4.235  -5.839  1.00  0.00     0.028 C 
BRANCH   6   7
ATOM      7  C   UNL     1       6.839   4.859  -7.068  1.00  0.00    -0.028 C 
ATOM      8  C   UNL     1       6.568   4.527  -8.350  1.00  0.00    -0.070 CG0
ATOM      9  C   UNL     1       7.102   5.441  -9.427  1.00  0.00     0.039 C 
ATOM     10  G   UNL     1       5.715   3.331  -8.744  1.00  0.00     0.000 G0
ENDBRANCH   6   7
ENDBRANCH   5   6
ENDBRANCH   3   5
ENDBRANCH   1   3
BRANCH   1  11
ATOM     11  C   UNL     1       8.614   1.167  -7.591  1.00  0.00     0.087 C 
BRANCH  11  12
ATOM     12  C   UNL     1       8.025   1.976  -8.777  1.00  0.00     0.066 C 
BRANCH  12  13
ATOM     13  C   UNL     1       6.500   2.052  -8.836  1.00  0.00     0.140 C 
ATOM     14  O   UNL     1       5.882   1.002  -8.949  1.00  0.00    -0.299 OA
BRANCH  13  15
ATOM     15  C   UNL     1       5.702   3.337  -8.750  1.00  0.00     0.106 CG0
ATOM     16  G   UNL     1       6.590   4.509  -8.357  1.00  0.00     0.000 G0
ENDBRANCH  13  15
ENDBRANCH  12  13
BRANCH  12  17
ATOM     17  C   UNL     1       8.639   1.492 -10.130  1.00  0.00    -0.006 C 
ATOM     18  C   UNL     1       9.162   2.645 -11.006  1.00  0.00     0.008 C 
ATOM     19  C   UNL     1       9.746   0.447  -9.921  1.00  0.00     0.008 C 
ENDBRANCH  12  17
ENDBRANCH  11  12
ENDBRANCH   1  11
TORSDOF 1
ENDMDL
MODEL 4
REMARK VINA RESULT:    -3.550      1.886      5.200
REMARK INTER + INTRA:          -5.728
REMARK INTER:                  -5.522
REMARK INTRA:                  -0.206
REMARK UNBOUND:                -0.310
REMARK SMILES CC1=CCC[C@@H](C)C(=O)C[C@@H](C(C)C)C(=O)C1
REMARK SMILES IDX 8 1 9 2 6 3 7 4 5 5 4 6 3 7 2 8 1 9 10 11 11 12 15 13 16 14
REMARK SMILES IDX 17 15 12 17 13 18 14 19
REMARK H PARENT
REMARK Flexibility Score: 70.00
ROOT
ATOM      1  C   UNL     1       7.002   5.491  -8.013  1.00  0.00     0.136 C 
ATOM      2  O   UNL     1       7.620   6.282  -7.315  1.00  0.00    -0.299 OA
ENDROOT
BRANCH   1   3
ATOM      3  C   UNL     1       6.850   5.788  -9.496  1.00  0.00     0.053 C 
ATOM      4  C   UNL     1       5.424   5.433  -9.938  1.00  0.00     0.016 C 
BRANCH   3   5
ATOM      5  C   UNL     1       7.892   5.054 -10.380  1.00  0.00     0.015 C 
BRANCH   5   6
ATOM      6  C   UNL     1       7.404   3.766 -11.079  1.00  0.00     0.028 C 
BRANCH   6   7
ATOM      7  C   UNL     1       8.158   2.496 -10.763  1.00  0.00    -0.028 C 
ATOM      8  C   UNL     1       7.735   1.501  -9.950  1.00  0.00    -0.070 CG0
ATOM      9  C   UNL     1       8.520   0.211  -9.971  1.00  0.00     0.039 C 
ATOM     10  G   UNL     1       6.491   1.602  -9.080  1.00  0.00     0.000 G0
ENDBRANCH   6   7
ENDBRANCH   5   6
ENDBRANCH   3   5
ENDBRANCH   1   3
BRANCH   1  11
ATOM     11  C   UNL     1       6.287   4.328  -7.357  1.00  0.00     0.087 C 
BRANCH  11  12
ATOM     12  C   UNL     1       7.211   3.143  -6.966  1.00  0.00     0.066 C 
BRANCH  12  13
ATOM     13  C   UNL     1       6.870   1.798  -7.604  1.00  0.00     0.140 C 
ATOM     14  O   UNL     1       6.897   0.806  -6.889  1.00  0.00    -0.299 OA
BRANCH  13  15
ATOM     15  C   UNL     1       6.488   1.612  -9.058  1.00  0.00     0.106 CG0
ATOM     16  G   UNL     1       7.723   1.510  -9.941  1.00  0.00     0.000 G0
ENDBRANCH  13  15
ENDBRANCH  12  13
BRANCH  12  17
ATOM     17  C   UNL     1       7.340   3.039  -5.413  1.00  0.00    -0.006 C 
ATOM     18  C   UNL     1       8.786   2.800  -4.939  1.00  0.00     0.008 C 
ATOM     19  C   UNL     1       6.751   4.266  -4.699  1.00  0.00     0.008 C 
ENDBRANCH  12  17
ENDBRANCH  11  12
ENDBRANCH   1  11
TORSDOF 1
ENDMDL
MODEL 5
REMARK VINA RESULT:    -3.547      1.616      3.967
REMARK INTER + INTRA:          -5.722
REMARK INTER:                  -5.370
REMARK INTRA:                  -0.352
REMARK UNBOUND:                -0.310
REMARK SMILES CC1=CCC[C@@H](C)C(=O)C[C@@H](C(C)C)C(=O)C1
REMARK SMILES IDX 8 1 9 2 6 3 7 4 5 5 4 6 3 7 2 8 1 9 10 11 11 12 15 13 16 14
REMARK SMILES IDX 17 15 12 17 13 18 14 19
REMARK H PARENT
REMARK Flexibility Score: 70.00
ROOT
ATOM      1  C   UNL     1       7.734   1.681  -7.607  1.00  0.00     0.136 C 
ATOM      2  O   UNL     1       7.267   0.848  -6.844  1.00  0.00    -0.299 OA
ENDROOT
BRANCH   1   3
ATOM      3  C   UNL     1       8.008   1.283  -9.048  1.00  0.00     0.053 C 
ATOM      4  C   UNL     1       9.386   1.813  -9.465  1.00  0.00     0.016 C 
BRANCH   3   5
ATOM      5  C   UNL     1       6.916   1.766 -10.038  1.00  0.00     0.015 C 
BRANCH   5   6
ATOM      6  C   UNL     1       7.286   2.981 -10.918  1.00  0.00     0.028 C 
BRANCH   6   7
ATOM      7  C   UNL     1       6.373   4.181 -10.836  1.00  0.00    -0.028 C 
ATOM      8  C   UNL     1       6.642   5.343 -10.198  1.00  0.00    -0.070 CG0
ATOM      9  C   UNL     1       5.708   6.502 -10.451  1.00  0.00     0.039 C 
ATOM     10  G   UNL     1       7.855   5.545  -9.302  1.00  0.00     0.000 G0
ENDBRANCH   6   7
ENDBRANCH   5   6
ENDBRANCH   3   5
ENDBRANCH   1   3
BRANCH   1  11
ATOM     11  C   UNL     1       8.159   3.028  -7.059  1.00  0.00     0.087 C 
BRANCH  11  12
ATOM     12  C   UNL     1       7.067   4.129  -7.139  1.00  0.00     0.066 C 
BRANCH  12  13
ATOM     13  C   UNL     1       7.482   5.426  -7.831  1.00  0.00     0.140 C 
ATOM     14  O   UNL     1       7.524   6.443  -7.154  1.00  0.00    -0.299 OA
BRANCH  13  15
ATOM     15  C   UNL     1       7.858   5.533  -9.295  1.00  0.00     0.106 CG0
ATOM     16  G   UNL     1       6.642   5.343 -10.189  1.00  0.00     0.000 G0
ENDBRANCH  13  15
ENDBRANCH  12  13
BRANCH  12  17
ATOM     17  C   UNL     1       6.449   4.390  -5.729  1.00  0.00    -0.006 C 
ATOM     18  C   UNL     1       5.136   3.621  -5.489  1.00  0.00     0.008 C 
ATOM     19  C   UNL     1       7.444   4.092  -4.596  1.00  0.00     0.008 C 
ENDBRANCH  12  17
ENDBRANCH  11  12
ENDBRANCH   1  11
TORSDOF 1
ENDMDL
MODEL 6
REMARK VINA RESULT:    -3.408      2.190      4.165
REMARK INTER + INTRA:          -5.510
REMARK INTER:                  -5.058
REMARK INTRA:                  -0.452
REMARK UNBOUND:                -0.310
REMARK SMILES CC1=CCC[C@@H](C)C(=O)C[C@@H](C(C)C)C(=O)C1
REMARK SMILES IDX 8 1 9 2 6 3 7 4 5 5 4 6 3 7 2 8 1 9 10 11 11 12 15 13 16 14
REMARK SMILES IDX 17 15 12 17 13 18 14 19
REMARK H PARENT
REMARK Flexibility Score: 70.00
ROOT
ATOM      1  C   UNL     1       7.010   4.915  -6.758  1.00  0.00     0.136 C 
ATOM      2  O   UNL     1       7.042   5.807  -5.923  1.00  0.00    -0.299 OA
ENDROOT
BRANCH   1   3
ATOM      3  C   UNL     1       6.825   3.480  -6.291  1.00  0.00     0.053 C 
ATOM      4  C   UNL     1       5.458   3.345  -5.607  1.00  0.00     0.016 C 
BRANCH   3   5
ATOM      5  C   UNL     1       7.956   2.989  -5.350  1.00  0.00     0.015 C 
BRANCH   5   6
ATOM      6  C   UNL     1       9.213   2.413  -6.041  1.00  0.00     0.028 C 
BRANCH   6   7
ATOM      7  C   UNL     1       8.981   1.376  -7.114  1.00  0.00    -0.028 C 
ATOM      8  C   UNL     1       9.126   1.563  -8.446  1.00  0.00    -0.070 CG0
ATOM      9  C   UNL     1       9.094   0.334  -9.323  1.00  0.00     0.039 C 
ATOM     10  G   UNL     1       9.377   2.924  -9.078  1.00  0.00     0.000 G0
ENDBRANCH   6   7
ENDBRANCH   5   6
ENDBRANCH   3   5
ENDBRANCH   1   3
BRANCH   1  11
ATOM     11  C   UNL     1       7.300   5.248  -8.207  1.00  0.00     0.087 C 
BRANCH  11  12
ATOM     12  C   UNL     1       6.976   4.107  -9.208  1.00  0.00     0.066 C 
BRANCH  12  13
ATOM     13  C   UNL     1       8.184   3.425  -9.850  1.00  0.00     0.140 C 
ATOM     14  O   UNL     1       8.176   3.282 -11.064  1.00  0.00    -0.299 OA
BRANCH  13  15
ATOM     15  C   UNL     1       9.393   2.928  -9.085  1.00  0.00     0.106 CG0
ATOM     16  G   UNL     1       9.120   1.576  -8.444  1.00  0.00     0.000 G0
ENDBRANCH  13  15
ENDBRANCH  12  13
BRANCH  12  17
ATOM     17  C   UNL     1       5.942   4.589 -10.273  1.00  0.00    -0.006 C 
ATOM     18  C   UNL     1       4.528   4.022 -10.048  1.00  0.00     0.008 C 
ATOM     19  C   UNL     1       5.882   6.122 -10.369  1.00  0.00     0.008 C 
ENDBRANCH  12  17
ENDBRANCH  11  12
ENDBRANCH   1  11
TORSDOF 1
ENDMDL
MODEL 7
REMARK VINA RESULT:    -3.358      2.012      3.764
REMARK INTER + INTRA:          -5.435
REMARK INTER:                  -5.380
REMARK INTRA:                  -0.055
REMARK UNBOUND:                -0.310
REMARK SMILES CC1=CCC[C@@H](C)C(=O)C[C@@H](C(C)C)C(=O)C1
REMARK SMILES IDX 8 1 9 2 6 3 7 4 5 5 4 6 3 7 2 8 1 9 10 11 11 12 15 13 16 14
REMARK SMILES IDX 17 15 12 17 13 18 14 19
REMARK H PARENT
REMARK Flexibility Score: 70.00
ROOT
ATOM      1  C   UNL     1       5.520   2.020  -9.954  1.00  0.00     0.136 C 
ATOM      2  O   UNL     1       4.709   1.112 -10.069  1.00  0.00    -0.299 OA
ENDROOT
BRANCH   1   3
ATOM      3  C   UNL     1       5.023   3.400  -9.555  1.00  0.00     0.053 C 
ATOM      4  C   UNL     1       3.622   3.620 -10.141  1.00  0.00     0.016 C 
BRANCH   3   5
ATOM      5  C   UNL     1       5.978   4.545  -9.981  1.00  0.00     0.015 C 
BRANCH   5   6
ATOM      6  C   UNL     1       6.865   5.141  -8.865  1.00  0.00     0.028 C 
BRANCH   6   7
ATOM      7  C   UNL     1       6.490   4.794  -7.443  1.00  0.00    -0.028 C 
ATOM      8  C   UNL     1       7.102   3.876  -6.661  1.00  0.00    -0.070 CG0
ATOM      9  C   UNL     1       6.738   3.865  -5.195  1.00  0.00     0.039 C 
ATOM     10  G   UNL     1       8.166   2.915  -7.171  1.00  0.00     0.000 G0
ENDBRANCH   6   7
ENDBRANCH   5   6
ENDBRANCH   3   5
ENDBRANCH   1   3
BRANCH   1  11
ATOM     11  C   UNL     1       6.962   1.777 -10.352  1.00  0.00     0.087 C 
BRANCH  11  12
ATOM     12  C   UNL     1       7.851   1.190  -9.223  1.00  0.00     0.066 C 
BRANCH  12  13
ATOM     13  C   UNL     1       7.541   1.684  -7.810  1.00  0.00     0.140 C 
ATOM     14  O   UNL     1       6.742   1.040  -7.145  1.00  0.00    -0.299 OA
BRANCH  13  15
ATOM     15  C   UNL     1       8.166   2.909  -7.175  1.00  0.00     0.106 CG0
ATOM     16  G   UNL     1       7.100   3.859  -6.649  1.00  0.00     0.000 G0
ENDBRANCH  13  15
ENDBRANCH  12  13
BRANCH  12  17
ATOM     17  C   UNL     1       9.363   1.349  -9.578  1.00  0.00    -0.006 C 
ATOM     18  C   UNL     1      10.118   0.008  -9.630  1.00  0.00     0.008 C 
ATOM     19  C   UNL     1       9.571   2.118 -10.892  1.00  0.00     0.008 C 
ENDBRANCH  12  17
ENDBRANCH  11  12
ENDBRANCH   1  11
TORSDOF 1
ENDMDL
MODEL 8
REMARK VINA RESULT:    -3.278      1.891      2.474
REMARK INTER + INTRA:          -5.313
REMARK INTER:                  -5.189
REMARK INTRA:                  -0.124
REMARK UNBOUND:                -0.310
REMARK SMILES CC1=CCC[C@@H](C)C(=O)C[C@@H](C(C)C)C(=O)C1
REMARK SMILES IDX 8 1 9 2 6 3 7 4 5 5 4 6 3 7 2 8 1 9 10 11 11 12 15 13 16 14
REMARK SMILES IDX 17 15 12 17 13 18 14 19
REMARK H PARENT
REMARK Flexibility Score: 70.00
ROOT
ATOM      1  C   UNL     1       6.157   3.203  -6.323  1.00  0.00     0.136 C 
ATOM      2  O   UNL     1       5.646   2.513  -5.453  1.00  0.00    -0.299 OA
ENDROOT
BRANCH   1   3
ATOM      3  C   UNL     1       6.966   4.422  -5.909  1.00  0.00     0.053 C 
ATOM      4  C   UNL     1       7.150   4.411  -4.386  1.00  0.00     0.016 C 
BRANCH   3   5
ATOM      5  C   UNL     1       6.339   5.763  -6.373  1.00  0.00     0.015 C 
BRANCH   5   6
ATOM      6  C   UNL     1       7.165   6.585  -7.386  1.00  0.00     0.028 C 
BRANCH   6   7
ATOM      7  C   UNL     1       6.421   7.138  -8.578  1.00  0.00    -0.028 C 
ATOM      8  C   UNL     1       6.407   6.609  -9.823  1.00  0.00    -0.070 CG0
ATOM      9  C   UNL     1       5.401   7.169 -10.800  1.00  0.00     0.039 C 
ATOM     10  G   UNL     1       7.299   5.454 -10.253  1.00  0.00     0.000 G0
ENDBRANCH   6   7
ENDBRANCH   5   6
ENDBRANCH   3   5
ENDBRANCH   1   3
BRANCH   1  11
ATOM     11  C   UNL     1       5.848   2.909  -7.776  1.00  0.00     0.087 C 
BRANCH  11  12
ATOM     12  C   UNL     1       7.008   3.227  -8.757  1.00  0.00     0.066 C 
BRANCH  12  13
ATOM     13  C   UNL     1       6.644   4.108  -9.952  1.00  0.00     0.140 C 
ATOM     14  O   UNL     1       5.763   3.713 -10.701  1.00  0.00    -0.299 OA
BRANCH  13  15
ATOM     15  C   UNL     1       7.293   5.441 -10.261  1.00  0.00     0.106 CG0
ATOM     16  G   UNL     1       6.413   6.598  -9.810  1.00  0.00     0.000 G0
ENDBRANCH  13  15
ENDBRANCH  12  13
BRANCH  12  17
ATOM     17  C   UNL     1       7.729   1.913  -9.198  1.00  0.00    -0.006 C 
ATOM     18  C   UNL     1       8.873   1.502  -8.252  1.00  0.00     0.008 C 
ATOM     19  C   UNL     1       6.747   0.744  -9.371  1.00  0.00     0.008 C 
ENDBRANCH  12  17
ENDBRANCH  11  12
ENDBRANCH   1  11
TORSDOF 1
ENDMDL
MODEL 9
REMARK VINA RESULT:    -3.260      1.917      4.050
REMARK INTER + INTRA:          -5.285
REMARK INTER:                  -5.049
REMARK INTRA:                  -0.236
REMARK UNBOUND:                -0.310
REMARK SMILES CC1=CCC[C@@H](C)C(=O)C[C@@H](C(C)C)C(=O)C1
REMARK SMILES IDX 8 1 9 2 6 3 7 4 5 5 4 6 3 7 2 8 1 9 10 11 11 12 15 13 16 14
REMARK SMILES IDX 17 15 12 17 13 18 14 19
REMARK H PARENT
REMARK Flexibility Score: 70.00
ROOT
ATOM      1  C   UNL     1       6.485   2.683  -9.269  1.00  0.00     0.136 C 
ATOM      2  O   UNL     1       5.829   1.670  -9.468  1.00  0.00    -0.299 OA
ENDROOT
BRANCH   1   3
ATOM      3  C   UNL     1       8.001   2.598  -9.338  1.00  0.00     0.053 C 
ATOM      4  C   UNL     1       8.412   2.014 -10.696  1.00  0.00     0.016 C 
BRANCH   3   5
ATOM      5  C   UNL     1       8.625   1.777  -8.179  1.00  0.00     0.015 C 
BRANCH   5   6
ATOM      6  C   UNL     1       7.741   1.589  -6.926  1.00  0.00     0.028 C 
BRANCH   6   7
ATOM      7  C   UNL     1       8.162   2.334  -5.682  1.00  0.00    -0.028 C 
ATOM      8  C   UNL     1       7.504   3.369  -5.113  1.00  0.00    -0.070 CG0
ATOM      9  C   UNL     1       7.955   3.802  -3.738  1.00  0.00     0.039 C 
ATOM     10  G   UNL     1       6.314   4.062  -5.759  1.00  0.00     0.000 G0
ENDBRANCH   6   7
ENDBRANCH   5   6
ENDBRANCH   3   5
ENDBRANCH   1   3
BRANCH   1  11
ATOM     11  C   UNL     1       5.778   3.944  -8.819  1.00  0.00     0.087 C 
BRANCH  11  12
ATOM     12  C   UNL     1       6.717   5.037  -8.241  1.00  0.00     0.066 C 
BRANCH  12  13
ATOM     13  C   UNL     1       6.731   5.163  -6.719  1.00  0.00     0.140 C 
ATOM     14  O   UNL     1       7.100   6.225  -6.239  1.00  0.00    -0.299 OA
BRANCH  13  15
ATOM     15  C   UNL     1       6.306   4.064  -5.765  1.00  0.00     0.106 CG0
ATOM     16  G   UNL     1       7.513   3.388  -5.133  1.00  0.00     0.000 G0
ENDBRANCH  13  15
ENDBRANCH  12  13
BRANCH  12  17
ATOM     17  C   UNL     1       6.454   6.409  -8.939  1.00  0.00    -0.006 C 
ATOM     18  C   UNL     1       7.631   6.883  -9.811  1.00  0.00     0.008 C 
ATOM     19  C   UNL     1       5.159   6.399  -9.767  1.00  0.00     0.008 C 
ENDBRANCH  12  17
ENDBRANCH  11  12
ENDBRANCH   1  11
TORSDOF 1
ENDMDL
