MODEL 1
REMARK VINA RESULT:    -4.184      0.000      0.000
REMARK INTER + INTRA:          -5.913
REMARK INTER:                  -5.651
REMARK INTRA:                  -0.262
REMARK UNBOUND:                -0.262
REMARK SMILES CCCCCCC=CC(=O)[O-]
REMARK SMILES IDX 5 1 6 2 7 3 8 4 9 5 10 6 11 7 4 8 3 9 2 10 1 11
REMARK H PARENT
REMARK Flexibility Score: inf
ROOT
ATOM      1  C   UNL     1      10.510   8.740  -2.667  1.00  0.00     0.004 C 
ENDROOT
BRANCH   1   2
ATOM      2  C   UNL     1      10.635  10.051  -3.457  1.00  0.00     0.027 C 
BRANCH   2   3
ATOM      3  C   UNL     1       9.473  10.979  -3.214  1.00  0.00    -0.025 C 
ATOM      4  C   UNL     1       9.530  12.173  -2.600  1.00  0.00     0.020 C 
BRANCH   4   5
ATOM      5  C   UNL     1      10.727  12.800  -2.000  1.00  0.00     0.064 C 
ATOM      6  O   UNL     1      10.914  12.831  -0.756  1.00  0.00    -0.545 OA
ATOM      7  O   UNL     1      11.662  13.397  -2.836  1.00  0.00    -0.545 OA
ENDBRANCH   4   5
ENDBRANCH   2   3
ENDBRANCH   1   2
BRANCH   1   8
ATOM      8  C   UNL     1       9.841   7.629  -3.491  1.00  0.00     0.000 C 
BRANCH   8   9
ATOM      9  C   UNL     1       8.933   6.762  -2.611  1.00  0.00    -0.000 C 
BRANCH   9  10
ATOM     10  C   UNL     1       8.365   5.580  -3.404  1.00  0.00    -0.003 C 
ATOM     11  C   UNL     1       9.178   4.313  -3.162  1.00  0.00     0.004 C 
ENDBRANCH   9  10
ENDBRANCH   8   9
ENDBRANCH   1   8
TORSDOF 6
ENDMDL
MODEL 2
REMARK VINA RESULT:    -4.088      1.637      2.072
REMARK INTER + INTRA:          -5.783
REMARK INTER:                  -5.454
REMARK INTRA:                  -0.330
REMARK UNBOUND:                -0.262
REMARK SMILES CCCCCCC=CC(=O)[O-]
REMARK SMILES IDX 5 1 6 2 7 3 8 4 9 5 10 6 11 7 4 8 3 9 2 10 1 11
REMARK H PARENT
REMARK Flexibility Score: inf
ROOT
ATOM      1  C   UNL     1      10.834   8.598  -3.111  1.00  0.00     0.004 C 
ENDROOT
BRANCH   1   2
ATOM      2  C   UNL     1      10.481  10.063  -2.816  1.00  0.00     0.027 C 
BRANCH   2   3
ATOM      3  C   UNL     1       9.557  10.649  -3.852  1.00  0.00    -0.025 C 
ATOM      4  C   UNL     1       9.886  11.568  -4.775  1.00  0.00     0.020 C 
BRANCH   4   5
ATOM      5  C   UNL     1      11.200  12.225  -4.937  1.00  0.00     0.064 C 
ATOM      6  O   UNL     1      12.080  11.779  -5.718  1.00  0.00    -0.545 OA
ATOM      7  O   UNL     1      11.482  13.357  -4.183  1.00  0.00    -0.545 OA
ENDBRANCH   4   5
ENDBRANCH   2   3
ENDBRANCH   1   2
BRANCH   1   8
ATOM      8  C   UNL     1       9.672   7.647  -2.785  1.00  0.00     0.000 C 
BRANCH   8   9
ATOM      9  C   UNL     1       9.395   6.695  -3.955  1.00  0.00    -0.000 C 
BRANCH   9  10
ATOM     10  C   UNL     1       8.447   5.567  -3.533  1.00  0.00    -0.003 C 
ATOM     11  C   UNL     1       9.222   4.315  -3.137  1.00  0.00     0.004 C 
ENDBRANCH   9  10
ENDBRANCH   8   9
ENDBRANCH   1   8
TORSDOF 6
ENDMDL
MODEL 3
REMARK VINA RESULT:    -4.086      1.083      1.458
REMARK INTER + INTRA:          -5.782
REMARK INTER:                  -5.518
REMARK INTRA:                  -0.264
REMARK UNBOUND:                -0.262
REMARK SMILES CCCCCCC=CC(=O)[O-]
REMARK SMILES IDX 5 1 6 2 7 3 8 4 9 5 10 6 11 7 4 8 3 9 2 10 1 11
REMARK H PARENT
REMARK Flexibility Score: inf
ROOT
ATOM      1  C   UNL     1      10.415   8.675  -2.718  1.00  0.00     0.004 C 
ENDROOT
BRANCH   1   2
ATOM      2  C   UNL     1      10.154  10.022  -3.410  1.00  0.00     0.027 C 
BRANCH   2   3
ATOM      3  C   UNL     1      11.410  10.837  -3.569  1.00  0.00    -0.025 C 
ATOM      4  C   UNL     1      11.928  11.679  -2.658  1.00  0.00     0.020 C 
BRANCH   4   5
ATOM      5  C   UNL     1      11.352  12.013  -1.339  1.00  0.00     0.064 C 
ATOM      6  O   UNL     1      10.501  12.929  -1.192  1.00  0.00    -0.545 OA
ATOM      7  O   UNL     1      11.782  11.310  -0.221  1.00  0.00    -0.545 OA
ENDBRANCH   4   5
ENDBRANCH   2   3
ENDBRANCH   1   2
BRANCH   1   8
ATOM      8  C   UNL     1       9.813   7.498  -3.500  1.00  0.00     0.000 C 
BRANCH   8   9
ATOM      9  C   UNL     1       8.987   6.591  -2.580  1.00  0.00    -0.000 C 
BRANCH   9  10
ATOM     10  C   UNL     1       8.501   5.345  -3.328  1.00  0.00    -0.003 C 
ATOM     11  C   UNL     1       9.398   4.145  -3.042  1.00  0.00     0.004 C 
ENDBRANCH   9  10
ENDBRANCH   8   9
ENDBRANCH   1   8
TORSDOF 6
ENDMDL
MODEL 4
REMARK VINA RESULT:    -4.017      8.974     10.992
REMARK INTER + INTRA:          -5.689
REMARK INTER:                  -4.817
REMARK INTRA:                  -0.871
REMARK UNBOUND:                -0.262
REMARK SMILES CCCCCCC=CC(=O)[O-]
REMARK SMILES IDX 5 1 6 2 7 3 8 4 9 5 10 6 11 7 4 8 3 9 2 10 1 11
REMARK H PARENT
REMARK Flexibility Score: inf
ROOT
ATOM      1  C   UNL     1       4.850  15.460   4.020  1.00  0.00     0.004 C 
ENDROOT
BRANCH   1   2
ATOM      2  C   UNL     1       5.325  14.475   2.942  1.00  0.00     0.027 C 
BRANCH   2   3
ATOM      3  C   UNL     1       5.991  15.170   1.784  1.00  0.00    -0.025 C 
ATOM      4  C   UNL     1       5.405  15.509   0.622  1.00  0.00     0.020 C 
BRANCH   4   5
ATOM      5  C   UNL     1       4.009  15.231   0.225  1.00  0.00     0.064 C 
ATOM      6  O   UNL     1       3.100  16.096   0.324  1.00  0.00    -0.545 OA
ATOM      7  O   UNL     1       3.686  13.967  -0.250  1.00  0.00    -0.545 OA
ENDBRANCH   4   5
ENDBRANCH   2   3
ENDBRANCH   1   2
BRANCH   1   8
ATOM      8  C   UNL     1       5.846  16.612   4.229  1.00  0.00     0.000 C 
BRANCH   8   9
ATOM      9  C   UNL     1       5.128  17.967   4.229  1.00  0.00    -0.000 C 
BRANCH   9  10
ATOM     10  C   UNL     1       3.975  17.977   3.220  1.00  0.00    -0.003 C 
ATOM     11  C   UNL     1       4.251  18.948   2.077  1.00  0.00     0.004 C 
ENDBRANCH   9  10
ENDBRANCH   8   9
ENDBRANCH   1   8
TORSDOF 6
ENDMDL
MODEL 5
REMARK VINA RESULT:    -3.965      9.063     10.697
REMARK INTER + INTRA:          -5.619
REMARK INTER:                  -5.129
REMARK INTRA:                  -0.490
REMARK UNBOUND:                -0.262
REMARK SMILES CCCCCCC=CC(=O)[O-]
REMARK SMILES IDX 5 1 6 2 7 3 8 4 9 5 10 6 11 7 4 8 3 9 2 10 1 11
REMARK H PARENT
REMARK Flexibility Score: inf
ROOT
ATOM      1  C   UNL     1       4.967  15.195   4.041  1.00  0.00     0.004 C 
ENDROOT
BRANCH   1   2
ATOM      2  C   UNL     1       5.076  14.251   2.833  1.00  0.00     0.027 C 
BRANCH   2   3
ATOM      3  C   UNL     1       3.770  14.111   2.097  1.00  0.00    -0.025 C 
ATOM      4  C   UNL     1       3.463  14.677   0.917  1.00  0.00     0.020 C 
BRANCH   4   5
ATOM      5  C   UNL     1       4.318  15.586   0.126  1.00  0.00     0.064 C 
ATOM      6  O   UNL     1       5.149  15.158  -0.718  1.00  0.00    -0.545 OA
ATOM      7  O   UNL     1       4.221  16.955   0.338  1.00  0.00    -0.545 OA
ENDBRANCH   4   5
ENDBRANCH   2   3
ENDBRANCH   1   2
BRANCH   1   8
ATOM      8  C   UNL     1       5.374  16.634   3.687  1.00  0.00     0.000 C 
BRANCH   8   9
ATOM      9  C   UNL     1       6.080  17.312   4.868  1.00  0.00    -0.000 C 
BRANCH   9  10
ATOM     10  C   UNL     1       6.803  16.280   5.741  1.00  0.00    -0.003 C 
ATOM     11  C   UNL     1       8.311  16.509   5.729  1.00  0.00     0.004 C 
ENDBRANCH   9  10
ENDBRANCH   8   9
ENDBRANCH   1   8
TORSDOF 6
ENDMDL
MODEL 6
REMARK VINA RESULT:    -3.944      8.915     10.468
REMARK INTER + INTRA:          -5.589
REMARK INTER:                  -4.979
REMARK INTRA:                  -0.611
REMARK UNBOUND:                -0.262
REMARK SMILES CCCCCCC=CC(=O)[O-]
REMARK SMILES IDX 5 1 6 2 7 3 8 4 9 5 10 6 11 7 4 8 3 9 2 10 1 11
REMARK H PARENT
REMARK Flexibility Score: inf
ROOT
ATOM      1  C   UNL     1       4.783  15.688   3.926  1.00  0.00     0.004 C 
ENDROOT
BRANCH   1   2
ATOM      2  C   UNL     1       5.382  14.585   3.039  1.00  0.00     0.027 C 
BRANCH   2   3
ATOM      3  C   UNL     1       6.125  15.144   1.854  1.00  0.00    -0.025 C 
ATOM      4  C   UNL     1       5.587  15.477   0.669  1.00  0.00     0.020 C 
BRANCH   4   5
ATOM      5  C   UNL     1       4.174  15.323   0.267  1.00  0.00     0.064 C 
ATOM      6  O   UNL     1       3.360  16.283   0.297  1.00  0.00    -0.545 OA
ATOM      7  O   UNL     1       3.722  14.072  -0.132  1.00  0.00    -0.545 OA
ENDBRANCH   4   5
ENDBRANCH   2   3
ENDBRANCH   1   2
BRANCH   1   8
ATOM      8  C   UNL     1       5.846  16.694   4.393  1.00  0.00     0.000 C 
BRANCH   8   9
ATOM      9  C   UNL     1       6.565  16.191   5.650  1.00  0.00    -0.000 C 
BRANCH   9  10
ATOM     10  C   UNL     1       8.083  16.366   5.523  1.00  0.00    -0.003 C 
ATOM     11  C   UNL     1       8.760  15.051   5.152  1.00  0.00     0.004 C 
ENDBRANCH   9  10
ENDBRANCH   8   9
ENDBRANCH   1   8
TORSDOF 6
ENDMDL
MODEL 7
REMARK VINA RESULT:    -3.935      8.885     10.891
REMARK INTER + INTRA:          -5.577
REMARK INTER:                  -4.758
REMARK INTRA:                  -0.820
REMARK UNBOUND:                -0.262
REMARK SMILES CCCCCCC=CC(=O)[O-]
REMARK SMILES IDX 5 1 6 2 7 3 8 4 9 5 10 6 11 7 4 8 3 9 2 10 1 11
REMARK H PARENT
REMARK Flexibility Score: inf
ROOT
ATOM      1  C   UNL     1       1.982  15.119   0.394  1.00  0.00     0.004 C 
ENDROOT
BRANCH   1   2
ATOM      2  C   UNL     1       3.331  14.407   0.582  1.00  0.00     0.027 C 
BRANCH   2   3
ATOM      3  C   UNL     1       4.492  15.252   0.128  1.00  0.00    -0.025 C 
ATOM      4  C   UNL     1       5.503  15.687   0.900  1.00  0.00     0.020 C 
BRANCH   4   5
ATOM      5  C   UNL     1       5.661  15.467   2.353  1.00  0.00     0.064 C 
ATOM      6  O   UNL     1       6.358  14.527   2.816  1.00  0.00    -0.545 OA
ATOM      7  O   UNL     1       4.998  16.310   3.235  1.00  0.00    -0.545 OA
ENDBRANCH   4   5
ENDBRANCH   2   3
ENDBRANCH   1   2
BRANCH   1   8
ATOM      8  C   UNL     1       1.895  16.417   1.211  1.00  0.00     0.000 C 
BRANCH   8   9
ATOM      9  C   UNL     1       1.472  17.596   0.327  1.00  0.00    -0.000 C 
BRANCH   9  10
ATOM     10  C   UNL     1       2.644  18.554   0.090  1.00  0.00    -0.003 C 
ATOM     11  C   UNL     1       3.437  18.782   1.373  1.00  0.00     0.004 C 
ENDBRANCH   9  10
ENDBRANCH   8   9
ENDBRANCH   1   8
TORSDOF 6
ENDMDL
MODEL 8
REMARK VINA RESULT:    -3.896      1.857      2.589
REMARK INTER + INTRA:          -5.524
REMARK INTER:                  -5.074
REMARK INTRA:                  -0.450
REMARK UNBOUND:                -0.262
REMARK SMILES CCCCCCC=CC(=O)[O-]
REMARK SMILES IDX 5 1 6 2 7 3 8 4 9 5 10 6 11 7 4 8 3 9 2 10 1 11
REMARK H PARENT
REMARK Flexibility Score: inf
ROOT
ATOM      1  C   UNL     1       9.373   7.394  -3.619  1.00  0.00     0.004 C 
ENDROOT
BRANCH   1   2
ATOM      2  C   UNL     1      10.738   8.005  -3.268  1.00  0.00     0.027 C 
BRANCH   2   3
ATOM      3  C   UNL     1      10.613   9.196  -2.353  1.00  0.00    -0.025 C 
ATOM      4  C   UNL     1      10.475  10.476  -2.736  1.00  0.00     0.020 C 
BRANCH   4   5
ATOM      5  C   UNL     1      10.462  10.985  -4.124  1.00  0.00     0.064 C 
ATOM      6  O   UNL     1      11.476  11.509  -4.655  1.00  0.00    -0.545 OA
ATOM      7  O   UNL     1       9.284  10.907  -4.856  1.00  0.00    -0.545 OA
ENDBRANCH   4   5
ENDBRANCH   2   3
ENDBRANCH   1   2
BRANCH   1   8
ATOM      8  C   UNL     1       8.952   6.308  -2.616  1.00  0.00     0.000 C 
BRANCH   8   9
ATOM      9  C   UNL     1       8.673   4.979  -3.329  1.00  0.00    -0.000 C 
BRANCH   9  10
ATOM     10  C   UNL     1       9.691   3.910  -2.916  1.00  0.00    -0.003 C 
ATOM     11  C   UNL     1      10.874   3.875  -3.878  1.00  0.00     0.004 C 
ENDBRANCH   9  10
ENDBRANCH   8   9
ENDBRANCH   1   8
TORSDOF 6
ENDMDL
MODEL 9
REMARK VINA RESULT:    -3.800      2.968      4.182
REMARK INTER + INTRA:          -5.395
REMARK INTER:                  -4.560
REMARK INTRA:                  -0.835
REMARK UNBOUND:                -0.262
REMARK SMILES CCCCCCC=CC(=O)[O-]
REMARK SMILES IDX 5 1 6 2 7 3 8 4 9 5 10 6 11 7 4 8 3 9 2 10 1 11
REMARK H PARENT
REMARK Flexibility Score: inf
ROOT
ATOM      1  C   UNL     1      10.281  13.357  -4.197  1.00  0.00     0.004 C 
ENDROOT
BRANCH   1   2
ATOM      2  C   UNL     1      11.657  14.027  -4.327  1.00  0.00     0.027 C 
BRANCH   2   3
ATOM      3  C   UNL     1      12.778  13.122  -3.886  1.00  0.00    -0.025 C 
ATOM      4  C   UNL     1      13.219  12.966  -2.627  1.00  0.00     0.020 C 
BRANCH   4   5
ATOM      5  C   UNL     1      12.732  13.677  -1.426  1.00  0.00     0.064 C 
ATOM      6  O   UNL     1      11.675  13.339  -0.831  1.00  0.00    -0.545 OA
ATOM      7  O   UNL     1      13.449  14.768  -0.955  1.00  0.00    -0.545 OA
ENDBRANCH   4   5
ENDBRANCH   2   3
ENDBRANCH   1   2
BRANCH   1   8
ATOM      8  C   UNL     1      10.178  12.080  -5.044  1.00  0.00     0.000 C 
BRANCH   8   9
ATOM      9  C   UNL     1       9.450  10.968  -4.278  1.00  0.00    -0.000 C 
BRANCH   9  10
ATOM     10  C   UNL     1      10.140  10.681  -2.941  1.00  0.00    -0.003 C 
ATOM     11  C   UNL     1      11.312   9.721  -3.120  1.00  0.00     0.004 C 
ENDBRANCH   9  10
ENDBRANCH   8   9
ENDBRANCH   1   8
TORSDOF 6
ENDMDL
