MODEL 1
REMARK VINA RESULT:    -3.781      0.000      0.000
REMARK INTER + INTRA:          -4.489
REMARK INTER:                  -4.444
REMARK INTRA:                  -0.045
REMARK UNBOUND:                -0.045
REMARK SMILES CCCCC(=O)[O-]
REMARK SMILES IDX 4 1 5 2 6 3 7 4 3 5 2 6 1 7
REMARK H PARENT
REMARK Flexibility Score: inf
ROOT
ATOM      1  C   UNL     1      59.246 144.795 -32.625  1.00  0.00     0.053 C 
ENDROOT
BRANCH   1   2
ATOM      2  C   UNL     1      58.979 143.881 -31.472  1.00  0.00     0.041 C 
ATOM      3  O   UNL     1      57.979 144.071 -30.731  1.00  0.00    -0.550 OA
ATOM      4  O   UNL     1      59.862 142.847 -31.185  1.00  0.00    -0.550 OA
ENDBRANCH   1   2
BRANCH   1   5
ATOM      5  C   UNL     1      60.175 144.121 -33.640  1.00  0.00     0.006 C 
BRANCH   5   6
ATOM      6  C   UNL     1      60.915 145.164 -34.485  1.00  0.00    -0.003 C 
ATOM      7  C   UNL     1      61.643 146.173 -33.602  1.00  0.00     0.004 C 
ENDBRANCH   5   6
ENDBRANCH   1   5
TORSDOF 3
ENDMDL
MODEL 2
REMARK VINA RESULT:    -3.591      3.335      4.170
REMARK INTER + INTRA:          -4.266
REMARK INTER:                  -4.173
REMARK INTRA:                  -0.093
REMARK UNBOUND:                -0.045
REMARK SMILES CCCCC(=O)[O-]
REMARK SMILES IDX 4 1 5 2 6 3 7 4 3 5 2 6 1 7
REMARK H PARENT
REMARK Flexibility Score: inf
ROOT
ATOM      1  C   UNL     1      61.408 146.638 -34.198  1.00  0.00     0.053 C 
ENDROOT
BRANCH   1   2
ATOM      2  C   UNL     1      60.512 147.828 -34.064  1.00  0.00     0.041 C 
ATOM      3  O   UNL     1      59.523 147.792 -33.286  1.00  0.00    -0.550 OA
ATOM      4  O   UNL     1      60.741 148.961 -34.835  1.00  0.00    -0.550 OA
ENDBRANCH   1   2
BRANCH   1   5
ATOM      5  C   UNL     1      60.777 145.591 -35.122  1.00  0.00     0.006 C 
BRANCH   5   6
ATOM      6  C   UNL     1      60.750 144.213 -34.453  1.00  0.00    -0.003 C 
ATOM      7  C   UNL     1      59.993 144.257 -33.129  1.00  0.00     0.004 C 
ENDBRANCH   5   6
ENDBRANCH   1   5
TORSDOF 3
ENDMDL
MODEL 3
REMARK VINA RESULT:    -3.590      2.923      4.074
REMARK INTER + INTRA:          -4.265
REMARK INTER:                  -4.239
REMARK INTRA:                  -0.026
REMARK UNBOUND:                -0.045
REMARK SMILES CCCCC(=O)[O-]
REMARK SMILES IDX 4 1 5 2 6 3 7 4 3 5 2 6 1 7
REMARK H PARENT
REMARK Flexibility Score: inf
ROOT
ATOM      1  C   UNL     1      60.759 145.155 -34.895  1.00  0.00     0.053 C 
ENDROOT
BRANCH   1   2
ATOM      2  C   UNL     1      61.472 146.327 -34.299  1.00  0.00     0.041 C 
ATOM      3  O   UNL     1      62.306 146.156 -33.372  1.00  0.00    -0.550 OA
ATOM      4  O   UNL     1      61.180 147.614 -34.734  1.00  0.00    -0.550 OA
ENDBRANCH   1   2
BRANCH   1   5
ATOM      5  C   UNL     1      60.220 144.238 -33.793  1.00  0.00     0.006 C 
BRANCH   5   6
ATOM      6  C   UNL     1      59.214 144.978 -32.905  1.00  0.00    -0.003 C 
ATOM      7  C   UNL     1      58.807 144.128 -31.706  1.00  0.00     0.004 C 
ENDBRANCH   5   6
ENDBRANCH   1   5
TORSDOF 3
ENDMDL
MODEL 4
REMARK VINA RESULT:    -3.555     20.728     21.473
REMARK INTER + INTRA:          -4.223
REMARK INTER:                  -4.188
REMARK INTRA:                  -0.035
REMARK UNBOUND:                -0.045
REMARK SMILES CCCCC(=O)[O-]
REMARK SMILES IDX 4 1 5 2 6 3 7 4 3 5 2 6 1 7
REMARK H PARENT
REMARK Flexibility Score: inf
ROOT
ATOM      1  C   UNL     1      49.601 153.141 -16.756  1.00  0.00     0.053 C 
ENDROOT
BRANCH   1   2
ATOM      2  C   UNL     1      49.178 154.572 -16.869  1.00  0.00     0.041 C 
ATOM      3  O   UNL     1      48.449 155.088 -15.983  1.00  0.00    -0.550 OA
ATOM      4  O   UNL     1      49.550 155.320 -17.979  1.00  0.00    -0.550 OA
ENDBRANCH   1   2
BRANCH   1   5
ATOM      5  C   UNL     1      49.251 152.586 -15.372  1.00  0.00     0.006 C 
BRANCH   5   6
ATOM      6  C   UNL     1      49.959 151.250 -15.121  1.00  0.00    -0.003 C 
ATOM      7  C   UNL     1      51.471 151.391 -15.267  1.00  0.00     0.004 C 
ENDBRANCH   5   6
ENDBRANCH   1   5
TORSDOF 3
ENDMDL
MODEL 5
REMARK VINA RESULT:    -3.459      1.420      2.235
REMARK INTER + INTRA:          -4.111
REMARK INTER:                  -4.008
REMARK INTRA:                  -0.103
REMARK UNBOUND:                -0.045
REMARK SMILES CCCCC(=O)[O-]
REMARK SMILES IDX 4 1 5 2 6 3 7 4 3 5 2 6 1 7
REMARK H PARENT
REMARK Flexibility Score: inf
ROOT
ATOM      1  C   UNL     1      60.569 144.531 -34.223  1.00  0.00     0.053 C 
ENDROOT
BRANCH   1   2
ATOM      2  C   UNL     1      59.845 144.009 -33.023  1.00  0.00     0.041 C 
ATOM      3  O   UNL     1      59.944 142.795 -32.702  1.00  0.00    -0.550 OA
ATOM      4  O   UNL     1      59.022 144.851 -32.286  1.00  0.00    -0.550 OA
ENDBRANCH   1   2
BRANCH   1   5
ATOM      5  C   UNL     1      61.540 145.647 -33.821  1.00  0.00     0.006 C 
BRANCH   5   6
ATOM      6  C   UNL     1      61.187 146.962 -34.525  1.00  0.00    -0.003 C 
ATOM      7  C   UNL     1      60.302 147.838 -33.644  1.00  0.00     0.004 C 
ENDBRANCH   5   6
ENDBRANCH   1   5
TORSDOF 3
ENDMDL
MODEL 6
REMARK VINA RESULT:    -3.289      6.264      7.702
REMARK INTER + INTRA:          -3.910
REMARK INTER:                  -3.878
REMARK INTRA:                  -0.032
REMARK UNBOUND:                -0.045
REMARK SMILES CCCCC(=O)[O-]
REMARK SMILES IDX 4 1 5 2 6 3 7 4 3 5 2 6 1 7
REMARK H PARENT
REMARK Flexibility Score: inf
ROOT
ATOM      1  C   UNL     1      55.651 143.404 -26.070  1.00  0.00     0.053 C 
ENDROOT
BRANCH   1   2
ATOM      2  C   UNL     1      55.234 144.197 -24.871  1.00  0.00     0.041 C 
ATOM      3  O   UNL     1      55.707 143.925 -23.737  1.00  0.00    -0.550 OA
ATOM      4  O   UNL     1      54.287 145.205 -25.000  1.00  0.00    -0.550 OA
ENDBRANCH   1   2
BRANCH   1   5
ATOM      5  C   UNL     1      55.322 144.166 -27.358  1.00  0.00     0.006 C 
BRANCH   5   6
ATOM      6  C   UNL     1      56.587 144.417 -28.185  1.00  0.00    -0.003 C 
ATOM      7  C   UNL     1      56.488 143.757 -29.557  1.00  0.00     0.004 C 
ENDBRANCH   5   6
ENDBRANCH   1   5
TORSDOF 3
ENDMDL
MODEL 7
REMARK VINA RESULT:    -3.270     14.081     15.341
REMARK INTER + INTRA:          -3.889
REMARK INTER:                  -3.838
REMARK INTRA:                  -0.051
REMARK UNBOUND:                -0.045
REMARK SMILES CCCCC(=O)[O-]
REMARK SMILES IDX 4 1 5 2 6 3 7 4 3 5 2 6 1 7
REMARK H PARENT
REMARK Flexibility Score: inf
ROOT
ATOM      1  C   UNL     1      51.892 153.868 -24.222  1.00  0.00     0.053 C 
ENDROOT
BRANCH   1   2
ATOM      2  C   UNL     1      51.844 153.089 -25.498  1.00  0.00     0.041 C 
ATOM      3  O   UNL     1      51.523 153.657 -26.575  1.00  0.00    -0.550 OA
ATOM      4  O   UNL     1      52.107 151.725 -25.490  1.00  0.00    -0.550 OA
ENDBRANCH   1   2
BRANCH   1   5
ATOM      5  C   UNL     1      50.528 153.836 -23.523  1.00  0.00     0.006 C 
BRANCH   5   6
ATOM      6  C   UNL     1      50.497 152.763 -22.429  1.00  0.00    -0.003 C 
ATOM      7  C   UNL     1      49.357 153.011 -21.446  1.00  0.00     0.004 C 
ENDBRANCH   5   6
ENDBRANCH   1   5
TORSDOF 3
ENDMDL
MODEL 8
REMARK VINA RESULT:    -3.141      6.989      8.585
REMARK INTER + INTRA:          -3.737
REMARK INTER:                  -3.647
REMARK INTRA:                  -0.090
REMARK UNBOUND:                -0.045
REMARK SMILES CCCCC(=O)[O-]
REMARK SMILES IDX 4 1 5 2 6 3 7 4 3 5 2 6 1 7
REMARK H PARENT
REMARK Flexibility Score: inf
ROOT
ATOM      1  C   UNL     1      55.891 143.006 -26.405  1.00  0.00     0.053 C 
ENDROOT
BRANCH   1   2
ATOM      2  C   UNL     1      55.269 143.887 -27.442  1.00  0.00     0.041 C 
ATOM      3  O   UNL     1      54.052 143.756 -27.736  1.00  0.00    -0.550 OA
ATOM      4  O   UNL     1      56.045 144.818 -28.119  1.00  0.00    -0.550 OA
ENDBRANCH   1   2
BRANCH   1   5
ATOM      5  C   UNL     1      56.274 143.824 -25.167  1.00  0.00     0.006 C 
BRANCH   5   6
ATOM      6  C   UNL     1      55.269 143.603 -24.031  1.00  0.00    -0.003 C 
ATOM      7  C   UNL     1      54.315 144.786 -23.901  1.00  0.00     0.004 C 
ENDBRANCH   5   6
ENDBRANCH   1   5
TORSDOF 3
ENDMDL
MODEL 9
REMARK VINA RESULT:    -1.657      2.475      3.331
REMARK INTER + INTRA:          -1.993
REMARK INTER:                  -1.921
REMARK INTRA:                  -0.072
REMARK UNBOUND:                -0.045
REMARK SMILES CCCCC(=O)[O-]
REMARK SMILES IDX 4 1 5 2 6 3 7 4 3 5 2 6 1 7
REMARK H PARENT
REMARK Flexibility Score: inf
ROOT
ATOM      1  C   UNL     1      61.520 145.971 -34.000  1.00  0.00     0.053 C 
ENDROOT
BRANCH   1   2
ATOM      2  C   UNL     1      60.931 144.611 -34.207  1.00  0.00     0.041 C 
ATOM      3  O   UNL     1      59.945 144.236 -33.520  1.00  0.00    -0.550 OA
ATOM      4  O   UNL     1      61.503 143.739 -35.125  1.00  0.00    -0.550 OA
ENDBRANCH   1   2
BRANCH   1   5
ATOM      5  C   UNL     1      60.943 146.965 -35.014  1.00  0.00     0.006 C 
BRANCH   5   6
ATOM      6  C   UNL     1      60.382 148.205 -34.309  1.00  0.00    -0.003 C 
ATOM      7  C   UNL     1      59.828 147.853 -32.932  1.00  0.00     0.004 C 
ENDBRANCH   5   6
ENDBRANCH   1   5
TORSDOF 3
ENDMDL
