MODEL 1
REMARK VINA RESULT:    -6.156      0.000      0.000
REMARK INTER + INTRA:         -12.367
REMARK INTER:                 -11.194
REMARK INTRA:                  -1.174
REMARK UNBOUND:                -1.174
REMARK SMILES CCCCCCCCCCCCCCCC(=O)[O-]
REMARK SMILES IDX 9 1 10 2 11 3 12 4 13 5 14 6 15 7 16 8 17 9 18 10 8 11 7 12
REMARK SMILES IDX 6 13 5 14 4 15 3 16 2 17 1 18
REMARK H PARENT
REMARK Flexibility Score: inf
ROOT
ATOM      1  C   UNL     1       3.402   2.565  16.352  1.00  0.00     0.000 C 
ENDROOT
BRANCH   1   2
ATOM      2  C   UNL     1       3.063   3.795  17.210  1.00  0.00     0.000 C 
BRANCH   2   3
ATOM      3  C   UNL     1       2.888   3.453  18.697  1.00  0.00     0.000 C 
BRANCH   3   4
ATOM      4  C   UNL     1       2.619   4.719  19.524  1.00  0.00     0.000 C 
BRANCH   4   5
ATOM      5  C   UNL     1       1.701   5.718  18.800  1.00  0.00     0.000 C 
BRANCH   5   6
ATOM      6  C   UNL     1       2.405   7.044  18.479  1.00  0.00     0.006 C 
BRANCH   6   7
ATOM      7  C   UNL     1       2.110   8.095  19.553  1.00  0.00     0.053 C 
BRANCH   7   8
ATOM      8  C   UNL     1       2.402   9.469  19.036  1.00  0.00     0.041 C 
ATOM      9  O   UNL     1       1.574  10.056  18.292  1.00  0.00    -0.550 OA
ATOM     10  O   UNL     1       3.615  10.080  19.333  1.00  0.00    -0.550 OA
ENDBRANCH   7   8
ENDBRANCH   6   7
ENDBRANCH   5   6
ENDBRANCH   4   5
ENDBRANCH   3   4
ENDBRANCH   2   3
ENDBRANCH   1   2
BRANCH   1  11
ATOM     11  C   UNL     1       3.401   2.877  14.845  1.00  0.00     0.000 C 
BRANCH  11  12
ATOM     12  C   UNL     1       3.553   4.379  14.554  1.00  0.00    -0.000 C 
BRANCH  12  13
ATOM     13  C   UNL     1       4.416   4.655  13.312  1.00  0.00    -0.000 C 
BRANCH  13  14
ATOM     14  C   UNL     1       4.590   6.157  13.028  1.00  0.00    -0.000 C 
BRANCH  14  15
ATOM     15  C   UNL     1       5.999   6.717  13.310  1.00  0.00    -0.000 C 
BRANCH  15  16
ATOM     16  C   UNL     1       6.087   7.713  14.484  1.00  0.00    -0.000 C 
BRANCH  16  17
ATOM     17  C   UNL     1       5.082   7.460  15.621  1.00  0.00    -0.003 C 
ATOM     18  C   UNL     1       4.283   8.707  15.998  1.00  0.00     0.004 C 
ENDBRANCH  16  17
ENDBRANCH  15  16
ENDBRANCH  14  15
ENDBRANCH  13  14
ENDBRANCH  12  13
ENDBRANCH  11  12
ENDBRANCH   1  11
TORSDOF 14
ENDMDL
MODEL 2
REMARK VINA RESULT:    -6.087      0.946      4.484
REMARK INTER + INTRA:         -12.242
REMARK INTER:                 -10.959
REMARK INTRA:                  -1.283
REMARK UNBOUND:                -1.174
REMARK SMILES CCCCCCCCCCCCCCCC(=O)[O-]
REMARK SMILES IDX 9 1 10 2 11 3 12 4 13 5 14 6 15 7 16 8 17 9 18 10 8 11 7 12
REMARK SMILES IDX 6 13 5 14 4 15 3 16 2 17 1 18
REMARK H PARENT
REMARK Flexibility Score: inf
ROOT
ATOM      1  C   UNL     1       5.125   5.296  13.183  1.00  0.00     0.000 C 
ENDROOT
BRANCH   1   2
ATOM      2  C   UNL     1       5.105   6.826  13.024  1.00  0.00     0.000 C 
BRANCH   2   3
ATOM      3  C   UNL     1       6.226   7.519  13.812  1.00  0.00     0.000 C 
BRANCH   3   4
ATOM      4  C   UNL     1       5.916   7.527  15.316  1.00  0.00     0.000 C 
BRANCH   4   5
ATOM      5  C   UNL     1       4.517   8.080  15.632  1.00  0.00     0.000 C 
BRANCH   5   6
ATOM      6  C   UNL     1       4.429   8.707  17.031  1.00  0.00     0.006 C 
BRANCH   6   7
ATOM      7  C   UNL     1       2.972   8.967  17.425  1.00  0.00     0.053 C 
BRANCH   7   8
ATOM      8  C   UNL     1       2.883   9.385  18.858  1.00  0.00     0.041 C 
ATOM      9  O   UNL     1       1.953   8.952  19.588  1.00  0.00    -0.550 OA
ATOM     10  O   UNL     1       3.796  10.296  19.376  1.00  0.00    -0.550 OA
ENDBRANCH   7   8
ENDBRANCH   6   7
ENDBRANCH   5   6
ENDBRANCH   4   5
ENDBRANCH   3   4
ENDBRANCH   2   3
ENDBRANCH   1   2
BRANCH   1  11
ATOM     11  C   UNL     1       3.713   4.685  13.199  1.00  0.00     0.000 C 
BRANCH  11  12
ATOM     12  C   UNL     1       3.603   3.481  14.150  1.00  0.00    -0.000 C 
BRANCH  12  13
ATOM     13  C   UNL     1       4.078   3.810  15.575  1.00  0.00    -0.000 C 
BRANCH  13  14
ATOM     14  C   UNL     1       3.798   2.674  16.574  1.00  0.00    -0.000 C 
BRANCH  14  15
ATOM     15  C   UNL     1       2.698   2.973  17.613  1.00  0.00    -0.000 C 
BRANCH  15  16
ATOM     16  C   UNL     1       3.204   3.268  19.039  1.00  0.00    -0.000 C 
BRANCH  16  17
ATOM     17  C   UNL     1       2.703   4.593  19.640  1.00  0.00    -0.003 C 
ATOM     18  C   UNL     1       2.315   5.620  18.576  1.00  0.00     0.004 C 
ENDBRANCH  16  17
ENDBRANCH  15  16
ENDBRANCH  14  15
ENDBRANCH  13  14
ENDBRANCH  12  13
ENDBRANCH  11  12
ENDBRANCH   1  11
TORSDOF 14
ENDMDL
MODEL 3
REMARK VINA RESULT:    -6.084      2.177      4.184
REMARK INTER + INTRA:         -12.237
REMARK INTER:                 -11.085
REMARK INTRA:                  -1.152
REMARK UNBOUND:                -1.174
REMARK SMILES CCCCCCCCCCCCCCCC(=O)[O-]
REMARK SMILES IDX 9 1 10 2 11 3 12 4 13 5 14 6 15 7 16 8 17 9 18 10 8 11 7 12
REMARK SMILES IDX 6 13 5 14 4 15 3 16 2 17 1 18
REMARK H PARENT
REMARK Flexibility Score: inf
ROOT
ATOM      1  C   UNL     1       4.686   4.370  13.068  1.00  0.00     0.000 C 
ENDROOT
BRANCH   1   2
ATOM      2  C   UNL     1       4.262   3.124  13.865  1.00  0.00     0.000 C 
BRANCH   2   3
ATOM      3  C   UNL     1       3.023   3.371  14.738  1.00  0.00     0.000 C 
BRANCH   3   4
ATOM      4  C   UNL     1       3.027   2.453  15.969  1.00  0.00     0.000 C 
BRANCH   4   5
ATOM      5  C   UNL     1       3.052   3.235  17.293  1.00  0.00     0.000 C 
BRANCH   5   6
ATOM      6  C   UNL     1       2.929   4.752  17.088  1.00  0.00     0.006 C 
BRANCH   6   7
ATOM      7  C   UNL     1       2.001   5.373  18.136  1.00  0.00     0.053 C 
BRANCH   7   8
ATOM      8  C   UNL     1       2.011   4.561  19.392  1.00  0.00     0.041 C 
ATOM      9  O   UNL     1       2.983   4.637  20.189  1.00  0.00    -0.550 OA
ATOM     10  O   UNL     1       0.971   3.678  19.658  1.00  0.00    -0.550 OA
ENDBRANCH   7   8
ENDBRANCH   6   7
ENDBRANCH   5   6
ENDBRANCH   4   5
ENDBRANCH   3   4
ENDBRANCH   2   3
ENDBRANCH   1   2
BRANCH   1  11
ATOM     11  C   UNL     1       4.497   5.673  13.863  1.00  0.00     0.000 C 
BRANCH  11  12
ATOM     12  C   UNL     1       5.575   6.722  13.541  1.00  0.00    -0.000 C 
BRANCH  12  13
ATOM     13  C   UNL     1       5.611   7.865  14.569  1.00  0.00    -0.000 C 
BRANCH  13  14
ATOM     14  C   UNL     1       4.683   7.616  15.771  1.00  0.00    -0.000 C 
BRANCH  14  15
ATOM     15  C   UNL     1       4.178   8.887  16.483  1.00  0.00    -0.000 C 
BRANCH  15  16
ATOM     16  C   UNL     1       2.961   8.683  17.406  1.00  0.00    -0.000 C 
BRANCH  16  17
ATOM     17  C   UNL     1       3.026   9.448  18.739  1.00  0.00    -0.003 C 
ATOM     18  C   UNL     1       2.116   8.853  19.813  1.00  0.00     0.004 C 
ENDBRANCH  16  17
ENDBRANCH  15  16
ENDBRANCH  14  15
ENDBRANCH  13  14
ENDBRANCH  12  13
ENDBRANCH  11  12
ENDBRANCH   1  11
TORSDOF 14
ENDMDL
MODEL 4
REMARK VINA RESULT:    -6.080      3.168      6.886
REMARK INTER + INTRA:         -12.229
REMARK INTER:                 -10.757
REMARK INTRA:                  -1.472
REMARK UNBOUND:                -1.174
REMARK SMILES CCCCCCCCCCCCCCCC(=O)[O-]
REMARK SMILES IDX 9 1 10 2 11 3 12 4 13 5 14 6 15 7 16 8 17 9 18 10 8 11 7 12
REMARK SMILES IDX 6 13 5 14 4 15 3 16 2 17 1 18
REMARK H PARENT
REMARK Flexibility Score: inf
ROOT
ATOM      1  C   UNL     1       4.666   7.633  15.739  1.00  0.00     0.000 C 
ENDROOT
BRANCH   1   2
ATOM      2  C   UNL     1       6.107   7.544  15.206  1.00  0.00     0.000 C 
BRANCH   2   3
ATOM      3  C   UNL     1       6.180   7.630  13.674  1.00  0.00     0.000 C 
BRANCH   3   4
ATOM      4  C   UNL     1       4.983   6.917  13.027  1.00  0.00     0.000 C 
BRANCH   4   5
ATOM      5  C   UNL     1       5.185   5.397  12.915  1.00  0.00     0.000 C 
BRANCH   5   6
ATOM      6  C   UNL     1       3.894   4.606  13.172  1.00  0.00     0.006 C 
BRANCH   6   7
ATOM      7  C   UNL     1       3.826   4.126  14.624  1.00  0.00     0.053 C 
BRANCH   7   8
ATOM      8  C   UNL     1       3.856   2.632  14.685  1.00  0.00     0.041 C 
ATOM      9  O   UNL     1       4.858   2.000  14.259  1.00  0.00    -0.550 OA
ATOM     10  O   UNL     1       2.753   1.933  15.161  1.00  0.00    -0.550 OA
ENDBRANCH   7   8
ENDBRANCH   6   7
ENDBRANCH   5   6
ENDBRANCH   4   5
ENDBRANCH   3   4
ENDBRANCH   2   3
ENDBRANCH   1   2
BRANCH   1  11
ATOM     11  C   UNL     1       4.510   8.689  16.847  1.00  0.00     0.000 C 
BRANCH  11  12
ATOM     12  C   UNL     1       3.041   8.919  17.239  1.00  0.00    -0.000 C 
BRANCH  12  13
ATOM     13  C   UNL     1       2.889   9.428  18.682  1.00  0.00    -0.000 C 
BRANCH  13  14
ATOM     14  C   UNL     1       2.297   8.369  19.629  1.00  0.00    -0.000 C 
BRANCH  14  15
ATOM     15  C   UNL     1       1.722   7.119  18.934  1.00  0.00    -0.000 C 
BRANCH  15  16
ATOM     16  C   UNL     1       2.373   5.783  19.342  1.00  0.00    -0.000 C 
BRANCH  16  17
ATOM     17  C   UNL     1       2.705   4.842  18.170  1.00  0.00    -0.003 C 
ATOM     18  C   UNL     1       2.903   3.392  18.609  1.00  0.00     0.004 C 
ENDBRANCH  16  17
ENDBRANCH  15  16
ENDBRANCH  14  15
ENDBRANCH  13  14
ENDBRANCH  12  13
ENDBRANCH  11  12
ENDBRANCH   1  11
TORSDOF 14
ENDMDL
MODEL 5
REMARK VINA RESULT:    -5.986      2.544      5.240
REMARK INTER + INTRA:         -12.059
REMARK INTER:                 -11.087
REMARK INTRA:                  -0.972
REMARK UNBOUND:                -1.174
REMARK SMILES CCCCCCCCCCCCCCCC(=O)[O-]
REMARK SMILES IDX 9 1 10 2 11 3 12 4 13 5 14 6 15 7 16 8 17 9 18 10 8 11 7 12
REMARK SMILES IDX 6 13 5 14 4 15 3 16 2 17 1 18
REMARK H PARENT
REMARK Flexibility Score: inf
ROOT
ATOM      1  C   UNL     1       4.919   5.586  13.753  1.00  0.00     0.000 C 
ENDROOT
BRANCH   1   2
ATOM      2  C   UNL     1       3.963   4.579  13.092  1.00  0.00     0.000 C 
BRANCH   2   3
ATOM      3  C   UNL     1       4.574   3.176  12.962  1.00  0.00     0.000 C 
BRANCH   3   4
ATOM      4  C   UNL     1       4.047   2.244  14.064  1.00  0.00     0.000 C 
BRANCH   4   5
ATOM      5  C   UNL     1       3.149   2.971  15.078  1.00  0.00     0.000 C 
BRANCH   5   6
ATOM      6  C   UNL     1       3.630   2.799  16.526  1.00  0.00     0.006 C 
BRANCH   6   7
ATOM      7  C   UNL     1       2.902   3.765  17.465  1.00  0.00     0.053 C 
BRANCH   7   8
ATOM      8  C   UNL     1       2.786   3.177  18.835  1.00  0.00     0.041 C 
ATOM      9  O   UNL     1       3.623   2.324  19.233  1.00  0.00    -0.550 OA
ATOM     10  O   UNL     1       1.722   3.530  19.657  1.00  0.00    -0.550 OA
ENDBRANCH   7   8
ENDBRANCH   6   7
ENDBRANCH   5   6
ENDBRANCH   4   5
ENDBRANCH   3   4
ENDBRANCH   2   3
ENDBRANCH   1   2
BRANCH   1  11
ATOM     11  C   UNL     1       5.060   6.887  12.943  1.00  0.00     0.000 C 
BRANCH  11  12
ATOM     12  C   UNL     1       5.297   8.115  13.837  1.00  0.00    -0.000 C 
BRANCH  12  13
ATOM     13  C   UNL     1       5.270   7.768  15.335  1.00  0.00    -0.000 C 
BRANCH  13  14
ATOM     14  C   UNL     1       4.478   8.790  16.170  1.00  0.00    -0.000 C 
BRANCH  14  15
ATOM     15  C   UNL     1       3.366   8.190  17.055  1.00  0.00    -0.000 C 
BRANCH  15  16
ATOM     16  C   UNL     1       2.743   9.163  18.075  1.00  0.00    -0.000 C 
BRANCH  16  17
ATOM     17  C   UNL     1       2.093   8.489  19.296  1.00  0.00    -0.003 C 
ATOM     18  C   UNL     1       2.127   6.962  19.221  1.00  0.00     0.004 C 
ENDBRANCH  16  17
ENDBRANCH  15  16
ENDBRANCH  14  15
ENDBRANCH  13  14
ENDBRANCH  12  13
ENDBRANCH  11  12
ENDBRANCH   1  11
TORSDOF 14
ENDMDL
MODEL 6
REMARK VINA RESULT:    -5.982      3.542      5.720
REMARK INTER + INTRA:         -12.052
REMARK INTER:                 -10.945
REMARK INTRA:                  -1.107
REMARK UNBOUND:                -1.174
REMARK SMILES CCCCCCCCCCCCCCCC(=O)[O-]
REMARK SMILES IDX 9 1 10 2 11 3 12 4 13 5 14 6 15 7 16 8 17 9 18 10 8 11 7 12
REMARK SMILES IDX 6 13 5 14 4 15 3 16 2 17 1 18
REMARK H PARENT
REMARK Flexibility Score: inf
ROOT
ATOM      1  C   UNL     1       2.262   5.526  19.518  1.00  0.00     0.000 C 
ENDROOT
BRANCH   1   2
ATOM      2  C   UNL     1       1.906   4.168  18.890  1.00  0.00     0.000 C 
BRANCH   2   3
ATOM      3  C   UNL     1       3.118   3.232  18.770  1.00  0.00     0.000 C 
BRANCH   3   4
ATOM      4  C   UNL     1       3.412   2.900  17.300  1.00  0.00     0.000 C 
BRANCH   4   5
ATOM      5  C   UNL     1       3.195   4.101  16.364  1.00  0.00     0.000 C 
BRANCH   5   6
ATOM      6  C   UNL     1       2.864   3.680  14.925  1.00  0.00     0.006 C 
BRANCH   6   7
ATOM      7  C   UNL     1       4.125   3.663  14.056  1.00  0.00     0.053 C 
BRANCH   7   8
ATOM      8  C   UNL     1       4.468   2.263  13.657  1.00  0.00     0.041 C 
ATOM      9  O   UNL     1       3.697   1.312  13.952  1.00  0.00    -0.550 OA
ATOM     10  O   UNL     1       5.667   1.999  13.005  1.00  0.00    -0.550 OA
ENDBRANCH   7   8
ENDBRANCH   6   7
ENDBRANCH   5   6
ENDBRANCH   4   5
ENDBRANCH   3   4
ENDBRANCH   2   3
ENDBRANCH   1   2
BRANCH   1  11
ATOM     11  C   UNL     1       2.216   6.678  18.499  1.00  0.00     0.000 C 
BRANCH  11  12
ATOM     12  C   UNL     1       2.182   8.060  19.174  1.00  0.00    -0.000 C 
BRANCH  12  13
ATOM     13  C   UNL     1       2.541   9.198  18.205  1.00  0.00    -0.000 C 
BRANCH  13  14
ATOM     14  C   UNL     1       3.958   9.060  17.620  1.00  0.00    -0.000 C 
BRANCH  14  15
ATOM     15  C   UNL     1       4.017   8.840  16.095  1.00  0.00    -0.000 C 
BRANCH  15  16
ATOM     16  C   UNL     1       4.867   7.639  15.637  1.00  0.00    -0.000 C 
BRANCH  16  17
ATOM     17  C   UNL     1       5.772   7.914  14.423  1.00  0.00    -0.003 C 
ATOM     18  C   UNL     1       5.211   8.989  13.494  1.00  0.00     0.004 C 
ENDBRANCH  16  17
ENDBRANCH  15  16
ENDBRANCH  14  15
ENDBRANCH  13  14
ENDBRANCH  12  13
ENDBRANCH  11  12
ENDBRANCH   1  11
TORSDOF 14
ENDMDL
MODEL 7
REMARK VINA RESULT:    -5.938      2.495      4.701
REMARK INTER + INTRA:         -11.972
REMARK INTER:                 -10.531
REMARK INTRA:                  -1.441
REMARK UNBOUND:                -1.174
REMARK SMILES CCCCCCCCCCCCCCCC(=O)[O-]
REMARK SMILES IDX 9 1 10 2 11 3 12 4 13 5 14 6 15 7 16 8 17 9 18 10 8 11 7 12
REMARK SMILES IDX 6 13 5 14 4 15 3 16 2 17 1 18
REMARK H PARENT
REMARK Flexibility Score: inf
ROOT
ATOM      1  C   UNL     1       4.582   8.745  16.642  1.00  0.00     0.000 C 
ENDROOT
BRANCH   1   2
ATOM      2  C   UNL     1       3.129   8.993  17.081  1.00  0.00     0.000 C 
BRANCH   2   3
ATOM      3  C   UNL     1       3.003   9.278  18.585  1.00  0.00     0.000 C 
BRANCH   3   4
ATOM      4  C   UNL     1       1.878   8.440  19.210  1.00  0.00     0.000 C 
BRANCH   4   5
ATOM      5  C   UNL     1       2.302   6.989  19.491  1.00  0.00     0.000 C 
BRANCH   5   6
ATOM      6  C   UNL     1       1.667   5.986  18.516  1.00  0.00     0.006 C 
BRANCH   6   7
ATOM      7  C   UNL     1       2.715   5.008  17.977  1.00  0.00     0.053 C 
BRANCH   7   8
ATOM      8  C   UNL     1       2.653   3.711  18.720  1.00  0.00     0.041 C 
ATOM      9  O   UNL     1       1.899   3.589  19.721  1.00  0.00    -0.550 OA
ATOM     10  O   UNL     1       3.469   2.652  18.341  1.00  0.00    -0.550 OA
ENDBRANCH   7   8
ENDBRANCH   6   7
ENDBRANCH   5   6
ENDBRANCH   4   5
ENDBRANCH   3   4
ENDBRANCH   2   3
ENDBRANCH   1   2
BRANCH   1  11
ATOM     11  C   UNL     1       4.705   7.595  15.627  1.00  0.00     0.000 C 
BRANCH  11  12
ATOM     12  C   UNL     1       6.143   7.414  15.113  1.00  0.00    -0.000 C 
BRANCH  12  13
ATOM     13  C   UNL     1       6.220   7.380  13.577  1.00  0.00    -0.000 C 
BRANCH  13  14
ATOM     14  C   UNL     1       4.979   6.737  12.932  1.00  0.00    -0.000 C 
BRANCH  14  15
ATOM     15  C   UNL     1       4.977   5.195  12.913  1.00  0.00    -0.000 C 
BRANCH  15  16
ATOM     16  C   UNL     1       3.836   4.530  13.709  1.00  0.00    -0.000 C 
BRANCH  16  17
ATOM     17  C   UNL     1       4.284   3.412  14.666  1.00  0.00    -0.003 C 
ATOM     18  C   UNL     1       3.240   2.307  14.821  1.00  0.00     0.004 C 
ENDBRANCH  16  17
ENDBRANCH  15  16
ENDBRANCH  14  15
ENDBRANCH  13  14
ENDBRANCH  12  13
ENDBRANCH  11  12
ENDBRANCH   1  11
TORSDOF 14
ENDMDL
MODEL 8
REMARK VINA RESULT:    -5.804      3.494      6.365
REMARK INTER + INTRA:         -11.727
REMARK INTER:                 -10.172
REMARK INTRA:                  -1.556
REMARK UNBOUND:                -1.174
REMARK SMILES CCCCCCCCCCCCCCCC(=O)[O-]
REMARK SMILES IDX 9 1 10 2 11 3 12 4 13 5 14 6 15 7 16 8 17 9 18 10 8 11 7 12
REMARK SMILES IDX 6 13 5 14 4 15 3 16 2 17 1 18
REMARK H PARENT
REMARK Flexibility Score: inf
ROOT
ATOM      1  C   UNL     1       5.281   6.612  14.647  1.00  0.00     0.000 C 
ENDROOT
BRANCH   1   2
ATOM      2  C   UNL     1       4.884   5.946  13.318  1.00  0.00     0.000 C 
BRANCH   2   3
ATOM      3  C   UNL     1       3.982   4.719  13.514  1.00  0.00     0.000 C 
BRANCH   3   4
ATOM      4  C   UNL     1       4.185   4.106  14.908  1.00  0.00     0.000 C 
BRANCH   4   5
ATOM      5  C   UNL     1       2.862   3.698  15.576  1.00  0.00     0.000 C 
BRANCH   5   6
ATOM      6  C   UNL     1       2.855   2.230  16.030  1.00  0.00     0.006 C 
BRANCH   6   7
ATOM      7  C   UNL     1       3.720   2.038  17.278  1.00  0.00     0.053 C 
BRANCH   7   8
ATOM      8  C   UNL     1       4.758   0.987  17.039  1.00  0.00     0.041 C 
ATOM      9  O   UNL     1       4.737  -0.086  17.697  1.00  0.00    -0.550 OA
ATOM     10  O   UNL     1       5.783   1.216  16.129  1.00  0.00    -0.550 OA
ENDBRANCH   7   8
ENDBRANCH   6   7
ENDBRANCH   5   6
ENDBRANCH   4   5
ENDBRANCH   3   4
ENDBRANCH   2   3
ENDBRANCH   1   2
BRANCH   1  11
ATOM     11  C   UNL     1       5.211   8.148  14.583  1.00  0.00     0.000 C 
BRANCH  11  12
ATOM     12  C   UNL     1       4.588   8.762  15.847  1.00  0.00    -0.000 C 
BRANCH  12  13
ATOM     13  C   UNL     1       3.779   7.740  16.663  1.00  0.00    -0.000 C 
BRANCH  13  14
ATOM     14  C   UNL     1       2.957   8.391  17.789  1.00  0.00    -0.000 C 
BRANCH  14  15
ATOM     15  C   UNL     1       2.300   7.404  18.774  1.00  0.00    -0.000 C 
BRANCH  15  16
ATOM     16  C   UNL     1       2.282   5.932  18.316  1.00  0.00    -0.000 C 
BRANCH  16  17
ATOM     17  C   UNL     1       2.653   4.912  19.406  1.00  0.00    -0.003 C 
ATOM     18  C   UNL     1       1.587   3.835  19.601  1.00  0.00     0.004 C 
ENDBRANCH  16  17
ENDBRANCH  15  16
ENDBRANCH  14  15
ENDBRANCH  13  14
ENDBRANCH  12  13
ENDBRANCH  11  12
ENDBRANCH   1  11
TORSDOF 14
ENDMDL
MODEL 9
REMARK VINA RESULT:    -5.788      2.478      5.800
REMARK INTER + INTRA:         -11.698
REMARK INTER:                 -10.489
REMARK INTRA:                  -1.209
REMARK UNBOUND:                -1.174
REMARK SMILES CCCCCCCCCCCCCCCC(=O)[O-]
REMARK SMILES IDX 9 1 10 2 11 3 12 4 13 5 14 6 15 7 16 8 17 9 18 10 8 11 7 12
REMARK SMILES IDX 6 13 5 14 4 15 3 16 2 17 1 18
REMARK H PARENT
REMARK Flexibility Score: inf
ROOT
ATOM      1  C   UNL     1       2.148   7.706  19.426  1.00  0.00     0.000 C 
ENDROOT
BRANCH   1   2
ATOM      2  C   UNL     1       2.209   9.043  18.668  1.00  0.00     0.000 C 
BRANCH   2   3
ATOM      3  C   UNL     1       3.605   9.343  18.102  1.00  0.00     0.000 C 
BRANCH   3   4
ATOM      4  C   UNL     1       3.669   9.024  16.601  1.00  0.00     0.000 C 
BRANCH   4   5
ATOM      5  C   UNL     1       4.952   8.275  16.206  1.00  0.00     0.000 C 
BRANCH   5   6
ATOM      6  C   UNL     1       4.688   7.126  15.221  1.00  0.00     0.006 C 
BRANCH   6   7
ATOM      7  C   UNL     1       5.901   6.890  14.317  1.00  0.00     0.053 C 
BRANCH   7   8
ATOM      8  C   UNL     1       6.251   8.139  13.573  1.00  0.00     0.041 C 
ATOM      9  O   UNL     1       7.424   8.595  13.614  1.00  0.00    -0.550 OA
ATOM     10  O   UNL     1       5.268   8.833  12.876  1.00  0.00    -0.550 OA
ENDBRANCH   7   8
ENDBRANCH   6   7
ENDBRANCH   5   6
ENDBRANCH   4   5
ENDBRANCH   3   4
ENDBRANCH   2   3
ENDBRANCH   1   2
BRANCH   1  11
ATOM     11  C   UNL     1       2.193   6.490  18.485  1.00  0.00     0.000 C 
BRANCH  11  12
ATOM     12  C   UNL     1       2.554   5.189  19.220  1.00  0.00    -0.000 C 
BRANCH  12  13
ATOM     13  C   UNL     1       2.660   3.984  18.270  1.00  0.00    -0.000 C 
BRANCH  13  14
ATOM     14  C   UNL     1       2.959   4.396  16.817  1.00  0.00    -0.000 C 
BRANCH  14  15
ATOM     15  C   UNL     1       3.043   3.230  15.811  1.00  0.00    -0.000 C 
BRANCH  15  16
ATOM     16  C   UNL     1       3.651   3.589  14.440  1.00  0.00    -0.000 C 
BRANCH  16  17
ATOM     17  C   UNL     1       4.525   2.488  13.815  1.00  0.00    -0.003 C 
ATOM     18  C   UNL     1       3.865   1.110  13.854  1.00  0.00     0.004 C 
ENDBRANCH  16  17
ENDBRANCH  15  16
ENDBRANCH  14  15
ENDBRANCH  13  14
ENDBRANCH  12  13
ENDBRANCH  11  12
ENDBRANCH   1  11
TORSDOF 14
ENDMDL
