MODEL 1
REMARK VINA RESULT:    -3.415      0.000      0.000
REMARK INTER + INTRA:          -7.234
REMARK INTER:                  -5.810
REMARK INTRA:                  -1.424
REMARK UNBOUND:                -1.424
REMARK SMILES CCCCCCCCCCCCCC(=O)[O-]
REMARK SMILES IDX 8 1 9 2 10 3 11 4 12 5 13 6 14 7 15 8 16 9 7 10 6 11 5 12
REMARK SMILES IDX 4 13 3 14 2 15 1 16
REMARK H PARENT
REMARK Flexibility Score: inf
ROOT
ATOM      1  C   UNL     1      18.960 -10.573 188.269  1.00  0.00     0.000 C 
ENDROOT
BRANCH   1   2
ATOM      2  C   UNL     1      19.389 -11.662 187.272  1.00  0.00     0.000 C 
BRANCH   2   3
ATOM      3  C   UNL     1      18.227 -12.587 186.873  1.00  0.00     0.000 C 
BRANCH   3   4
ATOM      4  C   UNL     1      18.609 -14.077 186.925  1.00  0.00     0.000 C 
BRANCH   4   5
ATOM      5  C   UNL     1      17.383 -15.002 186.868  1.00  0.00     0.006 C 
BRANCH   5   6
ATOM      6  C   UNL     1      16.067 -14.226 186.717  1.00  0.00     0.053 C 
BRANCH   6   7
ATOM      7  C   UNL     1      15.321 -14.695 185.508  1.00  0.00     0.041 C 
ATOM      8  O   UNL     1      15.743 -15.679 184.845  1.00  0.00    -0.550 OA
ATOM      9  O   UNL     1      14.133 -14.077 185.140  1.00  0.00    -0.550 OA
ENDBRANCH   6   7
ENDBRANCH   5   6
ENDBRANCH   4   5
ENDBRANCH   3   4
ENDBRANCH   2   3
ENDBRANCH   1   2
BRANCH   1  10
ATOM     10  C   UNL     1      19.774  -9.275 188.122  1.00  0.00     0.000 C 
BRANCH  10  11
ATOM     11  C   UNL     1      19.801  -8.676 186.701  1.00  0.00    -0.000 C 
BRANCH  11  12
ATOM     12  C   UNL     1      18.912  -7.433 186.494  1.00  0.00    -0.000 C 
BRANCH  12  13
ATOM     13  C   UNL     1      17.580  -7.698 185.769  1.00  0.00    -0.000 C 
BRANCH  13  14
ATOM     14  C   UNL     1      17.567  -9.039 185.017  1.00  0.00    -0.000 C 
BRANCH  14  15
ATOM     15  C   UNL     1      16.272  -9.832 185.253  1.00  0.00    -0.003 C 
ATOM     16  C   UNL     1      16.106 -11.000 184.282  1.00  0.00     0.004 C 
ENDBRANCH  14  15
ENDBRANCH  13  14
ENDBRANCH  12  13
ENDBRANCH  11  12
ENDBRANCH  10  11
ENDBRANCH   1  10
TORSDOF 12
ENDMDL
MODEL 2
REMARK VINA RESULT:    -3.403      2.698      6.234
REMARK INTER + INTRA:          -7.214
REMARK INTER:                  -6.094
REMARK INTRA:                  -1.120
REMARK UNBOUND:                -1.424
REMARK SMILES CCCCCCCCCCCCCC(=O)[O-]
REMARK SMILES IDX 8 1 9 2 10 3 11 4 12 5 13 6 14 7 15 8 16 9 7 10 6 11 5 12
REMARK SMILES IDX 4 13 3 14 2 15 1 16
REMARK H PARENT
REMARK Flexibility Score: inf
ROOT
ATOM      1  C   UNL     1      18.082 -12.080 186.854  1.00  0.00     0.000 C 
ENDROOT
BRANCH   1   2
ATOM      2  C   UNL     1      19.443 -11.973 187.560  1.00  0.00     0.000 C 
BRANCH   2   3
ATOM      3  C   UNL     1      20.031 -10.554 187.496  1.00  0.00     0.000 C 
BRANCH   3   4
ATOM      4  C   UNL     1      19.321  -9.574 188.448  1.00  0.00     0.000 C 
BRANCH   4   5
ATOM      5  C   UNL     1      18.761  -8.343 187.717  1.00  0.00     0.006 C 
BRANCH   5   6
ATOM      6  C   UNL     1      18.922  -8.440 186.193  1.00  0.00     0.053 C 
BRANCH   6   7
ATOM      7  C   UNL     1      17.587  -8.601 185.538  1.00  0.00     0.041 C 
ATOM      8  O   UNL     1      16.558  -8.795 186.236  1.00  0.00    -0.550 OA
ATOM      9  O   UNL     1      17.471  -8.488 184.158  1.00  0.00    -0.550 OA
ENDBRANCH   6   7
ENDBRANCH   5   6
ENDBRANCH   4   5
ENDBRANCH   3   4
ENDBRANCH   2   3
ENDBRANCH   1   2
BRANCH   1  10
ATOM     10  C   UNL     1      17.667 -13.535 186.574  1.00  0.00     0.000 C 
BRANCH  10  11
ATOM     11  C   UNL     1      18.718 -14.599 186.948  1.00  0.00    -0.000 C 
BRANCH  11  12
ATOM     12  C   UNL     1      18.155 -16.003 187.248  1.00  0.00    -0.000 C 
BRANCH  12  13
ATOM     13  C   UNL     1      16.675 -16.035 187.675  1.00  0.00    -0.000 C 
BRANCH  13  14
ATOM     14  C   UNL     1      16.496 -16.060 189.202  1.00  0.00    -0.000 C 
BRANCH  14  15
ATOM     15  C   UNL     1      15.233 -15.312 189.657  1.00  0.00    -0.003 C 
ATOM     16  C   UNL     1      14.571 -14.524 188.528  1.00  0.00     0.004 C 
ENDBRANCH  14  15
ENDBRANCH  13  14
ENDBRANCH  12  13
ENDBRANCH  11  12
ENDBRANCH  10  11
ENDBRANCH   1  10
TORSDOF 12
ENDMDL
MODEL 3
REMARK VINA RESULT:    -3.403      1.453      2.796
REMARK INTER + INTRA:          -7.214
REMARK INTER:                  -5.627
REMARK INTRA:                  -1.587
REMARK UNBOUND:                -1.424
REMARK SMILES CCCCCCCCCCCCCC(=O)[O-]
REMARK SMILES IDX 8 1 9 2 10 3 11 4 12 5 13 6 14 7 15 8 16 9 7 10 6 11 5 12
REMARK SMILES IDX 4 13 3 14 2 15 1 16
REMARK H PARENT
REMARK Flexibility Score: inf
ROOT
ATOM      1  C   UNL     1      19.488  -8.985 186.212  1.00  0.00     0.000 C 
ENDROOT
BRANCH   1   2
ATOM      2  C   UNL     1      19.954  -9.717 187.481  1.00  0.00     0.000 C 
BRANCH   2   3
ATOM      3  C   UNL     1      19.781 -11.241 187.380  1.00  0.00     0.000 C 
BRANCH   3   4
ATOM      4  C   UNL     1      18.308 -11.663 187.234  1.00  0.00     0.000 C 
BRANCH   4   5
ATOM      5  C   UNL     1      18.145 -12.979 186.455  1.00  0.00     0.006 C 
BRANCH   5   6
ATOM      6  C   UNL     1      17.296 -14.009 187.212  1.00  0.00     0.053 C 
BRANCH   6   7
ATOM      7  C   UNL     1      17.628 -15.394 186.755  1.00  0.00     0.041 C 
ATOM      8  O   UNL     1      16.782 -16.069 186.111  1.00  0.00    -0.550 OA
ATOM      9  O   UNL     1      18.890 -15.923 186.995  1.00  0.00    -0.550 OA
ENDBRANCH   6   7
ENDBRANCH   5   6
ENDBRANCH   4   5
ENDBRANCH   3   4
ENDBRANCH   2   3
ENDBRANCH   1   2
BRANCH   1  10
ATOM     10  C   UNL     1      18.315  -8.024 186.474  1.00  0.00     0.000 C 
BRANCH  10  11
ATOM     11  C   UNL     1      16.971  -8.444 185.843  1.00  0.00    -0.000 C 
BRANCH  11  12
ATOM     12  C   UNL     1      17.064  -8.999 184.408  1.00  0.00    -0.000 C 
BRANCH  12  13
ATOM     13  C   UNL     1      16.463 -10.404 184.212  1.00  0.00    -0.000 C 
BRANCH  13  14
ATOM     14  C   UNL     1      15.058 -10.541 184.821  1.00  0.00    -0.000 C 
BRANCH  14  15
ATOM     15  C   UNL     1      14.799 -11.945 185.389  1.00  0.00    -0.003 C 
ATOM     16  C   UNL     1      15.025 -13.053 184.361  1.00  0.00     0.004 C 
ENDBRANCH  14  15
ENDBRANCH  13  14
ENDBRANCH  12  13
ENDBRANCH  11  12
ENDBRANCH  10  11
ENDBRANCH   1  10
TORSDOF 12
ENDMDL
MODEL 4
REMARK VINA RESULT:    -3.385      3.081      5.563
REMARK INTER + INTRA:          -7.183
REMARK INTER:                  -5.675
REMARK INTRA:                  -1.507
REMARK UNBOUND:                -1.424
REMARK SMILES CCCCCCCCCCCCCC(=O)[O-]
REMARK SMILES IDX 8 1 9 2 10 3 11 4 12 5 13 6 14 7 15 8 16 9 7 10 6 11 5 12
REMARK SMILES IDX 4 13 3 14 2 15 1 16
REMARK H PARENT
REMARK Flexibility Score: inf
ROOT
ATOM      1  C   UNL     1      17.287 -15.161 186.508  1.00  0.00     0.000 C 
ENDROOT
BRANCH   1   2
ATOM      2  C   UNL     1      18.537 -14.358 186.906  1.00  0.00     0.000 C 
BRANCH   2   3
ATOM      3  C   UNL     1      18.299 -12.840 186.866  1.00  0.00     0.000 C 
BRANCH   3   4
ATOM      4  C   UNL     1      19.459 -12.040 187.487  1.00  0.00     0.000 C 
BRANCH   4   5
ATOM      5  C   UNL     1      19.051 -10.608 187.868  1.00  0.00     0.006 C 
BRANCH   5   6
ATOM      6  C   UNL     1      20.125  -9.574 187.503  1.00  0.00     0.053 C 
BRANCH   6   7
ATOM      7  C   UNL     1      19.558  -8.533 186.590  1.00  0.00     0.041 C 
ATOM      8  O   UNL     1      19.929  -7.335 186.687  1.00  0.00    -0.550 OA
ATOM      9  O   UNL     1      18.656  -8.896 185.598  1.00  0.00    -0.550 OA
ENDBRANCH   6   7
ENDBRANCH   5   6
ENDBRANCH   4   5
ENDBRANCH   3   4
ENDBRANCH   2   3
ENDBRANCH   1   2
BRANCH   1  10
ATOM     10  C   UNL     1      15.981 -14.375 186.716  1.00  0.00     0.000 C 
BRANCH  10  11
ATOM     11  C   UNL     1      15.063 -14.291 185.480  1.00  0.00    -0.000 C 
BRANCH  11  12
ATOM     12  C   UNL     1      15.366 -13.130 184.512  1.00  0.00    -0.000 C 
BRANCH  12  13
ATOM     13  C   UNL     1      14.734 -11.779 184.895  1.00  0.00    -0.000 C 
BRANCH  13  14
ATOM     14  C   UNL     1      15.737 -10.817 185.554  1.00  0.00    -0.000 C 
BRANCH  14  15
ATOM     15  C   UNL     1      15.159 -10.128 186.799  1.00  0.00    -0.003 C 
ATOM     16  C   UNL     1      15.408 -10.918 188.083  1.00  0.00     0.004 C 
ENDBRANCH  14  15
ENDBRANCH  13  14
ENDBRANCH  12  13
ENDBRANCH  11  12
ENDBRANCH  10  11
ENDBRANCH   1  10
TORSDOF 12
ENDMDL
MODEL 5
REMARK VINA RESULT:    -3.371      2.848      5.673
REMARK INTER + INTRA:          -7.159
REMARK INTER:                  -5.690
REMARK INTRA:                  -1.469
REMARK UNBOUND:                -1.424
REMARK SMILES CCCCCCCCCCCCCC(=O)[O-]
REMARK SMILES IDX 8 1 9 2 10 3 11 4 12 5 13 6 14 7 15 8 16 9 7 10 6 11 5 12
REMARK SMILES IDX 4 13 3 14 2 15 1 16
REMARK H PARENT
REMARK Flexibility Score: inf
ROOT
ATOM      1  C   UNL     1      16.385 -15.482 186.484  1.00  0.00     0.000 C 
ENDROOT
BRANCH   1   2
ATOM      2  C   UNL     1      17.900 -15.681 186.655  1.00  0.00     0.000 C 
BRANCH   2   3
ATOM      3  C   UNL     1      18.618 -14.394 187.092  1.00  0.00     0.000 C 
BRANCH   3   4
ATOM      4  C   UNL     1      17.696 -13.162 187.069  1.00  0.00     0.000 C 
BRANCH   4   5
ATOM      5  C   UNL     1      18.414 -11.898 186.570  1.00  0.00     0.006 C 
BRANCH   5   6
ATOM      6  C   UNL     1      19.380 -11.319 187.613  1.00  0.00     0.053 C 
BRANCH   6   7
ATOM      7  C   UNL     1      18.746 -10.168 188.328  1.00  0.00     0.041 C 
ATOM      8  O   UNL     1      17.602  -9.765 187.992  1.00  0.00    -0.550 OA
ATOM      9  O   UNL     1      19.397  -9.571 189.400  1.00  0.00    -0.550 OA
ENDBRANCH   6   7
ENDBRANCH   5   6
ENDBRANCH   4   5
ENDBRANCH   3   4
ENDBRANCH   2   3
ENDBRANCH   1   2
BRANCH   1  10
ATOM     10  C   UNL     1      15.840 -16.121 185.194  1.00  0.00     0.000 C 
BRANCH  10  11
ATOM     11  C   UNL     1      15.069 -15.164 184.264  1.00  0.00    -0.000 C 
BRANCH  11  12
ATOM     12  C   UNL     1      14.076 -14.218 184.970  1.00  0.00    -0.000 C 
BRANCH  12  13
ATOM     13  C   UNL     1      14.362 -12.716 184.786  1.00  0.00    -0.000 C 
BRANCH  13  14
ATOM     14  C   UNL     1      15.572 -12.447 183.875  1.00  0.00    -0.000 C 
BRANCH  14  15
ATOM     15  C   UNL     1      15.990 -10.969 183.875  1.00  0.00    -0.003 C 
ATOM     16  C   UNL     1      15.411 -10.188 185.054  1.00  0.00     0.004 C 
ENDBRANCH  14  15
ENDBRANCH  13  14
ENDBRANCH  12  13
ENDBRANCH  11  12
ENDBRANCH  10  11
ENDBRANCH   1  10
TORSDOF 12
ENDMDL
MODEL 6
REMARK VINA RESULT:    -3.355      3.040      5.018
REMARK INTER + INTRA:          -7.133
REMARK INTER:                  -5.310
REMARK INTRA:                  -1.823
REMARK UNBOUND:                -1.424
REMARK SMILES CCCCCCCCCCCCCC(=O)[O-]
REMARK SMILES IDX 8 1 9 2 10 3 11 4 12 5 13 6 14 7 15 8 16 9 7 10 6 11 5 12
REMARK SMILES IDX 4 13 3 14 2 15 1 16
REMARK H PARENT
REMARK Flexibility Score: inf
ROOT
ATOM      1  C   UNL     1      14.923 -13.566 186.016  1.00  0.00     0.000 C 
ENDROOT
BRANCH   1   2
ATOM      2  C   UNL     1      16.155 -14.486 186.019  1.00  0.00     0.000 C 
BRANCH   2   3
ATOM      3  C   UNL     1      17.054 -14.263 187.245  1.00  0.00     0.000 C 
BRANCH   3   4
ATOM      4  C   UNL     1      18.450 -13.733 186.870  1.00  0.00     0.000 C 
BRANCH   4   5
ATOM      5  C   UNL     1      18.500 -12.197 186.810  1.00  0.00     0.006 C 
BRANCH   5   6
ATOM      6  C   UNL     1      19.691 -11.617 187.586  1.00  0.00     0.053 C 
BRANCH   6   7
ATOM      7  C   UNL     1      19.674 -10.122 187.524  1.00  0.00     0.041 C 
ATOM      8  O   UNL     1      19.657  -9.445 188.585  1.00  0.00    -0.550 OA
ATOM      9  O   UNL     1      19.727  -9.476 186.296  1.00  0.00    -0.550 OA
ENDBRANCH   6   7
ENDBRANCH   5   6
ENDBRANCH   4   5
ENDBRANCH   3   4
ENDBRANCH   2   3
ENDBRANCH   1   2
BRANCH   1  10
ATOM     10  C   UNL     1      14.689 -12.884 184.657  1.00  0.00     0.000 C 
BRANCH  10  11
ATOM     11  C   UNL     1      15.910 -12.142 184.077  1.00  0.00    -0.000 C 
BRANCH  11  12
ATOM     12  C   UNL     1      15.972 -10.633 184.389  1.00  0.00    -0.000 C 
BRANCH  12  13
ATOM     13  C   UNL     1      14.620  -9.984 184.741  1.00  0.00    -0.000 C 
BRANCH  13  14
ATOM     14  C   UNL     1      14.564  -9.474 186.191  1.00  0.00    -0.000 C 
BRANCH  14  15
ATOM     15  C   UNL     1      15.866  -9.746 186.961  1.00  0.00    -0.003 C 
ATOM     16  C   UNL     1      15.658 -10.646 188.178  1.00  0.00     0.004 C 
ENDBRANCH  14  15
ENDBRANCH  13  14
ENDBRANCH  12  13
ENDBRANCH  11  12
ENDBRANCH  10  11
ENDBRANCH   1  10
TORSDOF 12
ENDMDL
MODEL 7
REMARK VINA RESULT:    -3.314     18.467     20.425
REMARK INTER + INTRA:          -7.062
REMARK INTER:                  -4.879
REMARK INTRA:                  -2.183
REMARK UNBOUND:                -1.424
REMARK SMILES CCCCCCCCCCCCCC(=O)[O-]
REMARK SMILES IDX 8 1 9 2 10 3 11 4 12 5 13 6 14 7 15 8 16 9 7 10 6 11 5 12
REMARK SMILES IDX 4 13 3 14 2 15 1 16
REMARK H PARENT
REMARK Flexibility Score: inf
ROOT
ATOM      1  C   UNL     1      14.017  -1.151 200.048  1.00  0.00     0.000 C 
ENDROOT
BRANCH   1   2
ATOM      2  C   UNL     1      14.033   0.221 200.742  1.00  0.00     0.000 C 
BRANCH   2   3
ATOM      3  C   UNL     1      15.379   0.522 201.421  1.00  0.00     0.000 C 
BRANCH   3   4
ATOM      4  C   UNL     1      15.217   1.006 202.873  1.00  0.00     0.000 C 
BRANCH   4   5
ATOM      5  C   UNL     1      16.306   0.451 203.805  1.00  0.00     0.006 C 
BRANCH   5   6
ATOM      6  C   UNL     1      17.143  -0.650 203.141  1.00  0.00     0.053 C 
BRANCH   6   7
ATOM      7  C   UNL     1      18.594  -0.287 203.166  1.00  0.00     0.041 C 
ATOM      8  O   UNL     1      19.473  -1.178 203.028  1.00  0.00    -0.550 OA
ATOM      9  O   UNL     1      18.977   1.042 203.291  1.00  0.00    -0.550 OA
ENDBRANCH   6   7
ENDBRANCH   5   6
ENDBRANCH   4   5
ENDBRANCH   3   4
ENDBRANCH   2   3
ENDBRANCH   1   2
BRANCH   1  10
ATOM     10  C   UNL     1      14.652  -2.261 200.905  1.00  0.00     0.000 C 
BRANCH  10  11
ATOM     11  C   UNL     1      13.705  -2.926 201.923  1.00  0.00    -0.000 C 
BRANCH  11  12
ATOM     12  C   UNL     1      13.974  -2.573 203.400  1.00  0.00    -0.000 C 
BRANCH  12  13
ATOM     13  C   UNL     1      12.945  -1.624 204.042  1.00  0.00    -0.000 C 
BRANCH  13  14
ATOM     14  C   UNL     1      11.525  -1.821 203.486  1.00  0.00    -0.000 C 
BRANCH  14  15
ATOM     15  C   UNL     1      11.018  -0.589 202.719  1.00  0.00    -0.003 C 
ATOM     16  C   UNL     1      10.481  -0.935 201.331  1.00  0.00     0.004 C 
ENDBRANCH  14  15
ENDBRANCH  13  14
ENDBRANCH  12  13
ENDBRANCH  11  12
ENDBRANCH  10  11
ENDBRANCH   1  10
TORSDOF 12
ENDMDL
MODEL 8
REMARK VINA RESULT:    -3.310      3.120      6.100
REMARK INTER + INTRA:          -7.056
REMARK INTER:                  -5.375
REMARK INTRA:                  -1.681
REMARK UNBOUND:                -1.424
REMARK SMILES CCCCCCCCCCCCCC(=O)[O-]
REMARK SMILES IDX 8 1 9 2 10 3 11 4 12 5 13 6 14 7 15 8 16 9 7 10 6 11 5 12
REMARK SMILES IDX 4 13 3 14 2 15 1 16
REMARK H PARENT
REMARK Flexibility Score: inf
ROOT
ATOM      1  C   UNL     1      16.051 -11.032 185.964  1.00  0.00     0.000 C 
ENDROOT
BRANCH   1   2
ATOM      2  C   UNL     1      16.855 -11.820 187.012  1.00  0.00     0.000 C 
BRANCH   2   3
ATOM      3  C   UNL     1      18.279 -12.149 186.538  1.00  0.00     0.000 C 
BRANCH   3   4
ATOM      4  C   UNL     1      19.349 -11.818 187.594  1.00  0.00     0.000 C 
BRANCH   4   5
ATOM      5  C   UNL     1      19.938 -10.409 187.414  1.00  0.00     0.006 C 
BRANCH   5   6
ATOM      6  C   UNL     1      19.477  -9.435 188.506  1.00  0.00     0.053 C 
BRANCH   6   7
ATOM      7  C   UNL     1      18.272  -8.674 188.050  1.00  0.00     0.041 C 
ATOM      8  O   UNL     1      18.235  -8.180 186.893  1.00  0.00    -0.550 OA
ATOM      9  O   UNL     1      17.169  -8.553 188.885  1.00  0.00    -0.550 OA
ENDBRANCH   6   7
ENDBRANCH   5   6
ENDBRANCH   4   5
ENDBRANCH   3   4
ENDBRANCH   2   3
ENDBRANCH   1   2
BRANCH   1  10
ATOM     10  C   UNL     1      14.877 -11.838 185.381  1.00  0.00     0.000 C 
BRANCH  10  11
ATOM     11  C   UNL     1      15.280 -13.004 184.456  1.00  0.00    -0.000 C 
BRANCH  11  12
ATOM     12  C   UNL     1      14.889 -14.409 184.960  1.00  0.00    -0.000 C 
BRANCH  12  13
ATOM     13  C   UNL     1      16.021 -15.190 185.654  1.00  0.00    -0.000 C 
BRANCH  13  14
ATOM     14  C   UNL     1      15.774 -15.386 187.159  1.00  0.00    -0.000 C 
BRANCH  14  15
ATOM     15  C   UNL     1      17.081 -15.472 187.962  1.00  0.00    -0.003 C 
ATOM     16  C   UNL     1      18.302 -15.736 187.082  1.00  0.00     0.004 C 
ENDBRANCH  14  15
ENDBRANCH  13  14
ENDBRANCH  12  13
ENDBRANCH  11  12
ENDBRANCH  10  11
ENDBRANCH   1  10
TORSDOF 12
ENDMDL
MODEL 9
REMARK VINA RESULT:    -3.292      2.754      5.711
REMARK INTER + INTRA:          -7.025
REMARK INTER:                  -5.333
REMARK INTRA:                  -1.693
REMARK UNBOUND:                -1.424
REMARK SMILES CCCCCCCCCCCCCC(=O)[O-]
REMARK SMILES IDX 8 1 9 2 10 3 11 4 12 5 13 6 14 7 15 8 16 9 7 10 6 11 5 12
REMARK SMILES IDX 4 13 3 14 2 15 1 16
REMARK H PARENT
REMARK Flexibility Score: inf
ROOT
ATOM      1  C   UNL     1      16.853 -11.578 187.232  1.00  0.00     0.000 C 
ENDROOT
BRANCH   1   2
ATOM      2  C   UNL     1      18.090 -12.319 186.697  1.00  0.00     0.000 C 
BRANCH   2   3
ATOM      3  C   UNL     1      19.405 -11.745 187.248  1.00  0.00     0.000 C 
BRANCH   3   4
ATOM      4  C   UNL     1      19.181 -10.585 188.234  1.00  0.00     0.000 C 
BRANCH   4   5
ATOM      5  C   UNL     1      19.882  -9.290 187.792  1.00  0.00     0.006 C 
BRANCH   5   6
ATOM      6  C   UNL     1      19.803  -9.068 186.275  1.00  0.00     0.053 C 
BRANCH   6   7
ATOM      7  C   UNL     1      18.487  -8.459 185.906  1.00  0.00     0.041 C 
ATOM      8  O   UNL     1      17.900  -8.813 184.850  1.00  0.00    -0.550 OA
ATOM      9  O   UNL     1      17.885  -7.537 186.752  1.00  0.00    -0.550 OA
ENDBRANCH   6   7
ENDBRANCH   5   6
ENDBRANCH   4   5
ENDBRANCH   3   4
ENDBRANCH   2   3
ENDBRANCH   1   2
BRANCH   1  10
ATOM     10  C   UNL     1      15.777 -11.356 186.155  1.00  0.00     0.000 C 
BRANCH  10  11
ATOM     11  C   UNL     1      16.184 -11.773 184.727  1.00  0.00    -0.000 C 
BRANCH  11  12
ATOM     12  C   UNL     1      15.378 -12.943 184.128  1.00  0.00    -0.000 C 
BRANCH  12  13
ATOM     13  C   UNL     1      14.715 -13.874 185.161  1.00  0.00    -0.000 C 
BRANCH  13  14
ATOM     14  C   UNL     1      15.595 -15.080 185.529  1.00  0.00    -0.000 C 
BRANCH  14  15
ATOM     15  C   UNL     1      15.284 -15.629 186.930  1.00  0.00    -0.003 C 
ATOM     16  C   UNL     1      16.347 -15.258 187.963  1.00  0.00     0.004 C 
ENDBRANCH  14  15
ENDBRANCH  13  14
ENDBRANCH  12  13
ENDBRANCH  11  12
ENDBRANCH  10  11
ENDBRANCH   1  10
TORSDOF 12
ENDMDL
