MODEL 1
REMARK VINA RESULT:    -7.146      0.000      0.000
REMARK INTER + INTRA:         -10.721
REMARK INTER:                  -9.862
REMARK INTRA:                  -0.859
REMARK UNBOUND:                -0.859
REMARK SMILES C[C@@H]1OC(=O)[C@H](C)[C@H]1C[C@@H](O)[C@](C)(O)[C@H]1CC[C@]2(O)C3=CC(=O)[C@@H]4C[C@H](O)[C@@H](O)C[C@@]4(C)[C@H]3CC[C@@]12C
REMARK SMILES IDX 12 1 13 2 10 3 9 4 8 5 7 6 6 7 4 8 2 9 3 10 5 11 1 12 11 13
REMARK SMILES IDX 15 15 16 16 36 17 17 18 18 19 35 20 37 21 20 22 34 23 33 24
REMARK SMILES IDX 21 25 31 26 22 27 24 28 30 29 32 30 23 31 25 32 28 33 26 34
REMARK SMILES IDX 19 35 29 37 27 39 14 41
REMARK H PARENT 11 14 19 36 29 38 27 40 14 42
REMARK Flexibility Score: inf
ROOT
ATOM      1  C   UNL     1      60.453 -18.422   0.891  1.00  0.00     0.091 C 
ATOM      2  C   UNL     1      61.173 -19.571   0.145  1.00  0.00     0.045 C 
ENDROOT
BRANCH   1   3
ATOM      3  C   UNL     1      60.654 -18.589   2.459  1.00  0.00     0.146 C 
BRANCH   3   4
ATOM      4  C   UNL     1      61.333 -19.925   2.940  1.00  0.00     0.043 C 
BRANCH   4   5
ATOM      5  C   UNL     1      61.065 -20.457   4.389  1.00  0.00     0.046 C 
ATOM      6  C   UNL     1      58.881 -20.840   5.712  1.00  0.00     0.020 C 
ATOM      7  C   UNL     1      59.790 -19.819   5.007  1.00  0.00     0.103 C 
ATOM      8  C   UNL     1      60.377 -18.868   5.984  1.00  0.00     0.309 C 
ATOM      9  C   UNL     1      62.207 -20.179   5.433  1.00  0.00     0.177 C 
ATOM     10  O   UNL     1      61.727 -19.080   6.203  1.00  0.00    -0.462 OA
ATOM     11  O   UNL     1      59.729 -17.939   6.535  1.00  0.00    -0.252 OA
ATOM     12  C   UNL     1      62.464 -21.380   6.350  1.00  0.00     0.053 C 
ENDBRANCH   4   5
ENDBRANCH   3   4
BRANCH   3  13
ATOM     13  O   UNL     1      61.448 -17.525   2.938  1.00  0.00    -0.390 OA
ATOM     14  H   UNL     1      62.312 -17.544   2.470  1.00  0.00     0.211 HD
ENDBRANCH   3  13
ENDBRANCH   1   3
BRANCH   1  15
ATOM     15  C   UNL     1      58.918 -18.295   0.485  1.00  0.00     0.032 C 
ATOM     16  C   UNL     1      58.076 -17.426   1.466  1.00  0.00     0.010 C 
ATOM     17  C   UNL     1      58.426 -17.824  -0.949  1.00  0.00     0.006 C 
ATOM     18  C   UNL     1      57.314 -16.374   0.637  1.00  0.00     0.041 C 
ATOM     19  C   UNL     1      58.051 -16.335  -0.714  1.00  0.00     0.092 C 
ATOM     20  C   UNL     1      59.404 -17.851  -2.147  1.00  0.00     0.011 C 
ATOM     21  C   UNL     1      57.171 -18.720  -1.320  1.00  0.00     0.015 C 
ATOM     22  C   UNL     1      57.320 -15.736  -1.913  1.00  0.00    -0.031 C 
ATOM     23  C   UNL     1      58.914 -17.049  -3.394  1.00  0.00     0.009 C 
ATOM     24  C   UNL     1      57.491 -16.413  -3.292  1.00  0.00     0.025 C 
ATOM     25  C   UNL     1      56.858 -14.472  -1.800  1.00  0.00     0.050 C 
ATOM     26  C   UNL     1      57.064 -15.511  -4.527  1.00  0.00    -0.013 C 
ATOM     27  C   UNL     1      56.799 -13.583  -2.966  1.00  0.00     0.159 C 
ATOM     28  C   UNL     1      57.467 -14.033  -4.232  1.00  0.00     0.070 C 
ATOM     29  C   UNL     1      57.738 -15.964  -5.864  1.00  0.00     0.042 C 
ATOM     30  C   UNL     1      55.513 -15.648  -4.697  1.00  0.00     0.013 C 
ATOM     31  O   UNL     1      56.268 -12.451  -2.871  1.00  0.00    -0.295 OA
ATOM     32  C   UNL     1      57.221 -13.079  -5.420  1.00  0.00     0.047 C 
ATOM     33  C   UNL     1      57.481 -15.012  -7.039  1.00  0.00     0.143 C 
ATOM     34  C   UNL     1      57.936 -13.582  -6.679  1.00  0.00     0.143 C 
BRANCH  19  35
ATOM     35  O   UNL     1      59.229 -15.576  -0.559  1.00  0.00    -0.385 OA
ATOM     36  H   UNL     1      58.979 -14.616  -0.473  1.00  0.00     0.211 HD
ENDBRANCH  19  35
BRANCH  33  37
ATOM     37  O   UNL     1      58.207 -15.466  -8.152  1.00  0.00    -0.390 OA
ATOM     38  H   UNL     1      58.378 -16.438  -8.021  1.00  0.00     0.211 HD
ENDBRANCH  33  37
BRANCH  34  39
ATOM     39  O   UNL     1      57.679 -12.703  -7.742  1.00  0.00    -0.390 OA
ATOM     40  H   UNL     1      58.080 -11.833  -7.488  1.00  0.00     0.211 HD
ENDBRANCH  34  39
ENDBRANCH   1  15
BRANCH   1  41
ATOM     41  O   UNL     1      61.084 -17.229   0.483  1.00  0.00    -0.387 OA
ATOM     42  H   UNL     1      61.834 -17.471  -0.109  1.00  0.00     0.211 HD
ENDBRANCH   1  41
TORSDOF 9
ENDMDL
MODEL 2
REMARK VINA RESULT:    -6.699      2.252      3.662
REMARK INTER + INTRA:         -10.104
REMARK INTER:                  -8.961
REMARK INTRA:                  -1.143
REMARK UNBOUND:                -0.859
REMARK SMILES C[C@@H]1OC(=O)[C@H](C)[C@H]1C[C@@H](O)[C@](C)(O)[C@H]1CC[C@]2(O)C3=CC(=O)[C@@H]4C[C@H](O)[C@@H](O)C[C@@]4(C)[C@H]3CC[C@@]12C
REMARK SMILES IDX 12 1 13 2 10 3 9 4 8 5 7 6 6 7 4 8 2 9 3 10 5 11 1 12 11 13
REMARK SMILES IDX 15 15 16 16 36 17 17 18 18 19 35 20 37 21 20 22 34 23 33 24
REMARK SMILES IDX 21 25 31 26 22 27 24 28 30 29 32 30 23 31 25 32 28 33 26 34
REMARK SMILES IDX 19 35 29 37 27 39 14 41
REMARK H PARENT 11 14 19 36 29 38 27 40 14 42
REMARK Flexibility Score: inf
ROOT
ATOM      1  C   UNL     1      56.600 -19.111   1.038  1.00  0.00     0.091 C 
ATOM      2  C   UNL     1      55.440 -18.430   1.804  1.00  0.00     0.045 C 
ENDROOT
BRANCH   1   3
ATOM      3  C   UNL     1      57.220 -20.277   1.923  1.00  0.00     0.146 C 
BRANCH   3   4
ATOM      4  C   UNL     1      57.783 -19.862   3.333  1.00  0.00     0.043 C 
BRANCH   4   5
ATOM      5  C   UNL     1      59.243 -19.306   3.454  1.00  0.00     0.046 C 
ATOM      6  C   UNL     1      61.476 -20.439   4.084  1.00  0.00     0.020 C 
ATOM      7  C   UNL     1      60.056 -20.064   4.540  1.00  0.00     0.103 C 
ATOM      8  C   UNL     1      60.098 -19.061   5.634  1.00  0.00     0.309 C 
ATOM      9  C   UNL     1      59.357 -17.788   3.844  1.00  0.00     0.177 C 
ATOM     10  O   UNL     1      59.698 -17.799   5.229  1.00  0.00    -0.462 OA
ATOM     11  O   UNL     1      60.429 -19.329   6.819  1.00  0.00    -0.252 OA
ATOM     12  C   UNL     1      60.448 -17.061   3.050  1.00  0.00     0.053 C 
ENDBRANCH   4   5
ENDBRANCH   3   4
BRANCH   3  13
ATOM     13  O   UNL     1      56.233 -21.261   2.144  1.00  0.00    -0.390 OA
ATOM     14  H   UNL     1      55.557 -21.192   1.433  1.00  0.00     0.211 HD
ENDBRANCH   3  13
ENDBRANCH   1   3
BRANCH   1  15
ATOM     15  C   UNL     1      57.702 -18.070   0.545  1.00  0.00     0.032 C 
ATOM     16  C   UNL     1      58.914 -18.731  -0.178  1.00  0.00     0.010 C 
ATOM     17  C   UNL     1      57.373 -16.804  -0.354  1.00  0.00     0.006 C 
ATOM     18  C   UNL     1      59.119 -18.007  -1.522  1.00  0.00     0.041 C 
ATOM     19  C   UNL     1      57.788 -17.274  -1.775  1.00  0.00     0.092 C 
ATOM     20  C   UNL     1      55.918 -16.293  -0.464  1.00  0.00     0.011 C 
ATOM     21  C   UNL     1      58.272 -15.614   0.184  1.00  0.00     0.015 C 
ATOM     22  C   UNL     1      57.784 -16.123  -2.779  1.00  0.00    -0.031 C 
ATOM     23  C   UNL     1      55.679 -15.284  -1.630  1.00  0.00     0.009 C 
ATOM     24  C   UNL     1      56.938 -14.871  -2.457  1.00  0.00     0.025 C 
ATOM     25  C   UNL     1      58.214 -16.381  -4.032  1.00  0.00     0.050 C 
ATOM     26  C   UNL     1      56.648 -13.932  -3.705  1.00  0.00    -0.013 C 
ATOM     27  C   UNL     1      57.646 -15.674  -5.186  1.00  0.00     0.159 C 
ATOM     28  C   UNL     1      56.428 -14.825  -4.965  1.00  0.00     0.070 C 
ATOM     29  C   UNL     1      55.388 -13.028  -3.498  1.00  0.00     0.042 C 
ATOM     30  C   UNL     1      57.890 -12.996  -3.889  1.00  0.00     0.013 C 
ATOM     31  O   UNL     1      58.129 -15.842  -6.332  1.00  0.00    -0.295 OA
ATOM     32  C   UNL     1      56.007 -14.029  -6.219  1.00  0.00     0.047 C 
ATOM     33  C   UNL     1      54.983 -12.236  -4.748  1.00  0.00     0.143 C 
ATOM     34  C   UNL     1      54.753 -13.193  -5.937  1.00  0.00     0.143 C 
BRANCH  19  35
ATOM     35  O   UNL     1      56.846 -18.209  -2.252  1.00  0.00    -0.385 OA
ATOM     36  H   UNL     1      56.385 -18.620  -1.471  1.00  0.00     0.211 HD
ENDBRANCH  19  35
BRANCH  33  37
ATOM     37  O   UNL     1      53.795 -11.541  -4.474  1.00  0.00    -0.390 OA
ATOM     38  H   UNL     1      54.018 -10.570  -4.443  1.00  0.00     0.211 HD
ENDBRANCH  33  37
BRANCH  34  39
ATOM     39  O   UNL     1      54.409 -12.471  -7.088  1.00  0.00    -0.390 OA
ATOM     40  H   UNL     1      54.697 -11.536  -6.928  1.00  0.00     0.211 HD
ENDBRANCH  34  39
ENDBRANCH   1  15
BRANCH   1  41
ATOM     41  O   UNL     1      56.030 -19.680  -0.119  1.00  0.00    -0.387 OA
ATOM     42  H   UNL     1      56.467 -19.274  -0.902  1.00  0.00     0.211 HD
ENDBRANCH   1  41
TORSDOF 9
ENDMDL
MODEL 3
REMARK VINA RESULT:    -6.564      1.443      1.739
REMARK INTER + INTRA:          -9.918
REMARK INTER:                  -9.004
REMARK INTRA:                  -0.913
REMARK UNBOUND:                -0.859
REMARK SMILES C[C@@H]1OC(=O)[C@H](C)[C@H]1C[C@@H](O)[C@](C)(O)[C@H]1CC[C@]2(O)C3=CC(=O)[C@@H]4C[C@H](O)[C@@H](O)C[C@@]4(C)[C@H]3CC[C@@]12C
REMARK SMILES IDX 12 1 13 2 10 3 9 4 8 5 7 6 6 7 4 8 2 9 3 10 5 11 1 12 11 13
REMARK SMILES IDX 15 15 16 16 36 17 17 18 18 19 35 20 37 21 20 22 34 23 33 24
REMARK SMILES IDX 21 25 31 26 22 27 24 28 30 29 32 30 23 31 25 32 28 33 26 34
REMARK SMILES IDX 19 35 29 37 27 39 14 41
REMARK H PARENT 11 14 19 36 29 38 27 40 14 42
REMARK Flexibility Score: inf
ROOT
ATOM      1  C   UNL     1      58.816 -18.824   0.362  1.00  0.00     0.091 C 
ATOM      2  C   UNL     1      58.165 -20.138   0.858  1.00  0.00     0.045 C 
ENDROOT
BRANCH   1   3
ATOM      3  C   UNL     1      60.132 -18.524   1.203  1.00  0.00     0.146 C 
BRANCH   3   4
ATOM      4  C   UNL     1      60.765 -19.743   1.970  1.00  0.00     0.043 C 
BRANCH   4   5
ATOM      5  C   UNL     1      60.552 -19.887   3.516  1.00  0.00     0.046 C 
ATOM      6  C   UNL     1      58.542 -19.336   5.040  1.00  0.00     0.020 C 
ATOM      7  C   UNL     1      59.600 -18.789   4.067  1.00  0.00     0.103 C 
ATOM      8  C   UNL     1      60.554 -17.894   4.769  1.00  0.00     0.309 C 
ATOM      9  C   UNL     1      61.853 -19.776   4.391  1.00  0.00     0.177 C 
ATOM     10  O   UNL     1      61.807 -18.459   4.934  1.00  0.00    -0.462 OA
ATOM     11  O   UNL     1      60.272 -16.727   5.147  1.00  0.00    -0.252 OA
ATOM     12  C   UNL     1      61.880 -20.803   5.528  1.00  0.00     0.053 C 
ENDBRANCH   4   5
ENDBRANCH   3   4
BRANCH   3  13
ATOM     13  O   UNL     1      61.125 -18.016   0.339  1.00  0.00    -0.390 OA
ATOM     14  H   UNL     1      60.907 -18.286  -0.581  1.00  0.00     0.211 HD
ENDBRANCH   3  13
ENDBRANCH   1   3
BRANCH   1  15
ATOM     15  C   UNL     1      57.800 -17.597   0.364  1.00  0.00     0.032 C 
ATOM     16  C   UNL     1      58.245 -16.411   1.271  1.00  0.00     0.010 C 
ATOM     17  C   UNL     1      57.282 -16.885  -0.957  1.00  0.00     0.006 C 
ATOM     18  C   UNL     1      58.187 -15.121   0.431  1.00  0.00     0.041 C 
ATOM     19  C   UNL     1      58.164 -15.609  -1.029  1.00  0.00     0.092 C 
ATOM     20  C   UNL     1      57.420 -17.598  -2.322  1.00  0.00     0.011 C 
ATOM     21  C   UNL     1      55.747 -16.557  -0.728  1.00  0.00     0.015 C 
ATOM     22  C   UNL     1      57.675 -14.638  -2.102  1.00  0.00    -0.031 C 
ATOM     23  C   UNL     1      57.202 -16.668  -3.556  1.00  0.00     0.009 C 
ATOM     24  C   UNL     1      56.796 -15.191  -3.247  1.00  0.00     0.025 C 
ATOM     25  C   UNL     1      58.302 -13.448  -2.206  1.00  0.00     0.050 C 
ATOM     26  C   UNL     1      56.690 -14.240  -4.514  1.00  0.00    -0.013 C 
ATOM     27  C   UNL     1      58.441 -12.778  -3.503  1.00  0.00     0.159 C 
ATOM     28  C   UNL     1      58.069 -13.546  -4.738  1.00  0.00     0.070 C 
ATOM     29  C   UNL     1      56.294 -15.014  -5.816  1.00  0.00     0.042 C 
ATOM     30  C   UNL     1      55.572 -13.185  -4.220  1.00  0.00     0.013 C 
ATOM     31  O   UNL     1      58.928 -11.624  -3.571  1.00  0.00    -0.295 OA
ATOM     32  C   UNL     1      58.130 -12.694  -6.024  1.00  0.00     0.047 C 
ATOM     33  C   UNL     1      56.351 -14.156  -7.086  1.00  0.00     0.143 C 
ATOM     34  C   UNL     1      57.754 -13.533  -7.251  1.00  0.00     0.143 C 
BRANCH  19  35
ATOM     35  O   UNL     1      59.476 -15.969  -1.401  1.00  0.00    -0.385 OA
ATOM     36  H   UNL     1      59.607 -15.740  -2.362  1.00  0.00     0.211 HD
ENDBRANCH  19  35
BRANCH  33  37
ATOM     37  O   UNL     1      56.071 -14.972  -8.193  1.00  0.00    -0.390 OA
ATOM     38  H   UNL     1      56.381 -14.490  -9.006  1.00  0.00     0.211 HD
ENDBRANCH  33  37
BRANCH  34  39
ATOM     39  O   UNL     1      57.801 -12.727  -8.397  1.00  0.00    -0.390 OA
ATOM     40  H   UNL     1      57.026 -12.989  -8.956  1.00  0.00     0.211 HD
ENDBRANCH  34  39
ENDBRANCH   1  15
BRANCH   1  41
ATOM     41  O   UNL     1      59.184 -19.048  -0.981  1.00  0.00    -0.387 OA
ATOM     42  H   UNL     1      58.443 -19.525  -1.421  1.00  0.00     0.211 HD
ENDBRANCH   1  41
TORSDOF 9
ENDMDL
MODEL 4
REMARK VINA RESULT:    -6.367      1.823      9.766
REMARK INTER + INTRA:          -9.645
REMARK INTER:                  -8.394
REMARK INTRA:                  -1.251
REMARK UNBOUND:                -0.859
REMARK SMILES C[C@@H]1OC(=O)[C@H](C)[C@H]1C[C@@H](O)[C@](C)(O)[C@H]1CC[C@]2(O)C3=CC(=O)[C@@H]4C[C@H](O)[C@@H](O)C[C@@]4(C)[C@H]3CC[C@@]12C
REMARK SMILES IDX 12 1 13 2 10 3 9 4 8 5 7 6 6 7 4 8 2 9 3 10 5 11 1 12 11 13
REMARK SMILES IDX 15 15 16 16 36 17 17 18 18 19 35 20 37 21 20 22 34 23 33 24
REMARK SMILES IDX 21 25 31 26 22 27 24 28 30 29 32 30 23 31 25 32 28 33 26 34
REMARK SMILES IDX 19 35 29 37 27 39 14 41
REMARK H PARENT 11 14 19 36 29 38 27 40 14 42
REMARK Flexibility Score: inf
ROOT
ATOM      1  C   UNL     1      58.633 -14.324  -2.506  1.00  0.00     0.091 C 
ATOM      2  C   UNL     1      57.461 -13.404  -2.088  1.00  0.00     0.045 C 
ENDROOT
BRANCH   1   3
ATOM      3  C   UNL     1      59.172 -13.892  -3.938  1.00  0.00     0.146 C 
BRANCH   3   4
ATOM      4  C   UNL     1      58.303 -12.844  -4.727  1.00  0.00     0.043 C 
BRANCH   4   5
ATOM      5  C   UNL     1      57.257 -13.338  -5.783  1.00  0.00     0.046 C 
ATOM      6  C   UNL     1      54.761 -12.781  -6.133  1.00  0.00     0.020 C 
ATOM      7  C   UNL     1      55.821 -13.377  -5.192  1.00  0.00     0.103 C 
ATOM      8  C   UNL     1      55.611 -14.836  -5.015  1.00  0.00     0.309 C 
ATOM      9  C   UNL     1      57.503 -14.782  -6.354  1.00  0.00     0.177 C 
ATOM     10  O   UNL     1      56.563 -15.603  -5.664  1.00  0.00    -0.462 OA
ATOM     11  O   UNL     1      54.687 -15.332  -4.319  1.00  0.00    -0.252 OA
ATOM     12  C   UNL     1      57.250 -14.865  -7.863  1.00  0.00     0.053 C 
ENDBRANCH   4   5
ENDBRANCH   3   4
BRANCH   3  13
ATOM     13  O   UNL     1      60.462 -13.338  -3.796  1.00  0.00    -0.390 OA
ATOM     14  H   UNL     1      60.906 -13.349  -4.673  1.00  0.00     0.211 HD
ENDBRANCH   3  13
ENDBRANCH   1   3
BRANCH   1  15
ATOM     15  C   UNL     1      58.252 -15.870  -2.442  1.00  0.00     0.032 C 
ATOM     16  C   UNL     1      59.260 -16.800  -3.181  1.00  0.00     0.010 C 
ATOM     17  C   UNL     1      57.951 -16.643  -1.088  1.00  0.00     0.006 C 
ATOM     18  C   UNL     1      59.673 -17.922  -2.210  1.00  0.00     0.041 C 
ATOM     19  C   UNL     1      59.284 -17.394  -0.817  1.00  0.00     0.092 C 
ATOM     20  C   UNL     1      57.620 -15.849   0.197  1.00  0.00     0.011 C 
ATOM     21  C   UNL     1      56.743 -17.628  -1.381  1.00  0.00     0.015 C 
ATOM     22  C   UNL     1      59.147 -18.403   0.321  1.00  0.00    -0.031 C 
ATOM     23  C   UNL     1      57.692 -16.692   1.509  1.00  0.00     0.009 C 
ATOM     24  C   UNL     1      57.998 -18.214   1.337  1.00  0.00     0.025 C 
ATOM     25  C   UNL     1      60.211 -19.187   0.597  1.00  0.00     0.050 C 
ATOM     26  C   UNL     1      58.176 -19.024   2.691  1.00  0.00    -0.013 C 
ATOM     27  C   UNL     1      60.484 -19.635   1.967  1.00  0.00     0.159 C 
ATOM     28  C   UNL     1      59.686 -19.024   3.082  1.00  0.00     0.070 C 
ATOM     29  C   UNL     1      57.347 -18.415   3.870  1.00  0.00     0.042 C 
ATOM     30  C   UNL     1      57.661 -20.481   2.441  1.00  0.00     0.013 C 
ATOM     31  O   UNL     1      61.410 -20.450   2.194  1.00  0.00    -0.295 OA
ATOM     32  C   UNL     1      59.968 -19.671   4.455  1.00  0.00     0.047 C 
ATOM     33  C   UNL     1      57.630 -19.070   5.228  1.00  0.00     0.143 C 
ATOM     34  C   UNL     1      59.137 -18.999   5.554  1.00  0.00     0.143 C 
BRANCH  19  35
ATOM     35  O   UNL     1      60.263 -16.469  -0.399  1.00  0.00    -0.385 OA
ATOM     36  H   UNL     1      60.101 -16.245   0.557  1.00  0.00     0.211 HD
ENDBRANCH  19  35
BRANCH  33  37
ATOM     37  O   UNL     1      56.907 -18.384   6.217  1.00  0.00    -0.390 OA
ATOM     38  H   UNL     1      56.016 -18.157   5.833  1.00  0.00     0.211 HD
ENDBRANCH  33  37
BRANCH  34  39
ATOM     39  O   UNL     1      59.403 -19.620   6.782  1.00  0.00    -0.390 OA
ATOM     40  H   UNL     1      60.382 -19.774   6.812  1.00  0.00     0.211 HD
ENDBRANCH  34  39
ENDBRANCH   1  15
BRANCH   1  41
ATOM     41  O   UNL     1      59.657 -14.116  -1.559  1.00  0.00    -0.387 OA
ATOM     42  H   UNL     1      60.091 -13.256  -1.769  1.00  0.00     0.211 HD
ENDBRANCH   1  41
TORSDOF 9
ENDMDL
MODEL 5
REMARK VINA RESULT:    -6.334      2.333      9.300
REMARK INTER + INTRA:          -9.599
REMARK INTER:                  -8.599
REMARK INTRA:                  -1.001
REMARK UNBOUND:                -0.859
REMARK SMILES C[C@@H]1OC(=O)[C@H](C)[C@H]1C[C@@H](O)[C@](C)(O)[C@H]1CC[C@]2(O)C3=CC(=O)[C@@H]4C[C@H](O)[C@@H](O)C[C@@]4(C)[C@H]3CC[C@@]12C
REMARK SMILES IDX 12 1 13 2 10 3 9 4 8 5 7 6 6 7 4 8 2 9 3 10 5 11 1 12 11 13
REMARK SMILES IDX 15 15 16 16 36 17 17 18 18 19 35 20 37 21 20 22 34 23 33 24
REMARK SMILES IDX 21 25 31 26 22 27 24 28 30 29 32 30 23 31 25 32 28 33 26 34
REMARK SMILES IDX 19 35 29 37 27 39 14 41
REMARK H PARENT 11 14 19 36 29 38 27 40 14 42
REMARK Flexibility Score: inf
ROOT
ATOM      1  C   UNL     1      60.640 -15.856  -1.672  1.00  0.00     0.091 C 
ATOM      2  C   UNL     1      60.925 -15.070  -0.370  1.00  0.00     0.045 C 
ENDROOT
BRANCH   1   3
ATOM      3  C   UNL     1      59.607 -15.050  -2.573  1.00  0.00     0.146 C 
BRANCH   3   4
ATOM      4  C   UNL     1      58.547 -15.906  -3.360  1.00  0.00     0.043 C 
BRANCH   4   5
ATOM      5  C   UNL     1      57.022 -15.573  -3.225  1.00  0.00     0.046 C 
ATOM      6  C   UNL     1      55.320 -16.011  -1.334  1.00  0.00     0.020 C 
ATOM      7  C   UNL     1      56.279 -16.631  -2.364  1.00  0.00     0.103 C 
ATOM      8  C   UNL     1      55.529 -17.385  -3.400  1.00  0.00     0.309 C 
ATOM      9  C   UNL     1      56.222 -15.511  -4.576  1.00  0.00     0.177 C 
ATOM     10  O   UNL     1      55.515 -16.748  -4.629  1.00  0.00    -0.462 OA
ATOM     11  O   UNL     1      54.990 -18.504  -3.199  1.00  0.00    -0.252 OA
ATOM     12  C   UNL     1      55.227 -14.346  -4.613  1.00  0.00     0.053 C 
ENDBRANCH   4   5
ENDBRANCH   3   4
BRANCH   3  13
ATOM     13  O   UNL     1      58.889 -14.149  -1.757  1.00  0.00    -0.390 OA
ATOM     14  H   UNL     1      59.527 -13.675  -1.178  1.00  0.00     0.211 HD
ENDBRANCH   3  13
ENDBRANCH   1   3
BRANCH   1  15
ATOM     15  C   UNL     1      60.165 -17.352  -1.394  1.00  0.00     0.032 C 
ATOM     16  C   UNL     1      61.323 -18.394  -1.411  1.00  0.00     0.010 C 
ATOM     17  C   UNL     1      59.297 -17.776  -0.134  1.00  0.00     0.006 C 
ATOM     18  C   UNL     1      61.237 -19.222  -0.115  1.00  0.00     0.041 C 
ATOM     19  C   UNL     1      60.356 -18.381   0.827  1.00  0.00     0.092 C 
ATOM     20  C   UNL     1      58.530 -16.701   0.671  1.00  0.00     0.011 C 
ATOM     21  C   UNL     1      58.247 -18.850  -0.643  1.00  0.00     0.015 C 
ATOM     22  C   UNL     1      59.709 -19.081   2.020  1.00  0.00    -0.031 C 
ATOM     23  C   UNL     1      58.013 -17.189   2.061  1.00  0.00     0.009 C 
ATOM     24  C   UNL     1      58.263 -18.692   2.404  1.00  0.00     0.025 C 
ATOM     25  C   UNL     1      60.519 -19.728   2.884  1.00  0.00     0.050 C 
ATOM     26  C   UNL     1      57.829 -19.132   3.866  1.00  0.00    -0.013 C 
ATOM     27  C   UNL     1      60.189 -19.810   4.311  1.00  0.00     0.159 C 
ATOM     28  C   UNL     1      59.051 -18.974   4.822  1.00  0.00     0.070 C 
ATOM     29  C   UNL     1      56.638 -18.283   4.422  1.00  0.00     0.042 C 
ATOM     30  C   UNL     1      57.364 -20.626   3.791  1.00  0.00     0.013 C 
ATOM     31  O   UNL     1      60.890 -20.505   5.084  1.00  0.00    -0.295 OA
ATOM     32  C   UNL     1      58.715 -19.248   6.304  1.00  0.00     0.047 C 
ATOM     33  C   UNL     1      56.308 -18.569   5.892  1.00  0.00     0.143 C 
ATOM     34  C   UNL     1      57.558 -18.358   6.773  1.00  0.00     0.143 C 
BRANCH  19  35
ATOM     35  O   UNL     1      61.143 -17.343   1.366  1.00  0.00    -0.385 OA
ATOM     36  H   UNL     1      61.916 -17.747   1.848  1.00  0.00     0.211 HD
ENDBRANCH  19  35
BRANCH  33  37
ATOM     37  O   UNL     1      55.295 -17.688   6.304  1.00  0.00    -0.390 OA
ATOM     38  H   UNL     1      55.596 -16.764   6.088  1.00  0.00     0.211 HD
ENDBRANCH  33  37
BRANCH  34  39
ATOM     39  O   UNL     1      57.267 -18.644   8.114  1.00  0.00    -0.390 OA
ATOM     40  H   UNL     1      56.680 -17.913   8.435  1.00  0.00     0.211 HD
ENDBRANCH  34  39
ENDBRANCH   1  15
BRANCH   1  41
ATOM     41  O   UNL     1      61.867 -15.938  -2.362  1.00  0.00    -0.387 OA
ATOM     42  H   UNL     1      61.734 -16.520  -3.146  1.00  0.00     0.211 HD
ENDBRANCH   1  41
TORSDOF 9
ENDMDL
MODEL 6
REMARK VINA RESULT:    -6.324      2.397      9.987
REMARK INTER + INTRA:          -9.586
REMARK INTER:                  -8.406
REMARK INTRA:                  -1.180
REMARK UNBOUND:                -0.859
REMARK SMILES C[C@@H]1OC(=O)[C@H](C)[C@H]1C[C@@H](O)[C@](C)(O)[C@H]1CC[C@]2(O)C3=CC(=O)[C@@H]4C[C@H](O)[C@@H](O)C[C@@]4(C)[C@H]3CC[C@@]12C
REMARK SMILES IDX 12 1 13 2 10 3 9 4 8 5 7 6 6 7 4 8 2 9 3 10 5 11 1 12 11 13
REMARK SMILES IDX 15 15 16 16 36 17 17 18 18 19 35 20 37 21 20 22 34 23 33 24
REMARK SMILES IDX 21 25 31 26 22 27 24 28 30 29 32 30 23 31 25 32 28 33 26 34
REMARK SMILES IDX 19 35 29 37 27 39 14 41
REMARK H PARENT 11 14 19 36 29 38 27 40 14 42
REMARK Flexibility Score: inf
ROOT
ATOM      1  C   UNL     1      59.810 -17.101  -1.307  1.00  0.00     0.091 C 
ATOM      2  C   UNL     1      59.912 -15.564  -1.456  1.00  0.00     0.045 C 
ENDROOT
BRANCH   1   3
ATOM      3  C   UNL     1      59.242 -17.737  -2.649  1.00  0.00     0.146 C 
BRANCH   3   4
ATOM      4  C   UNL     1      58.161 -16.893  -3.420  1.00  0.00     0.043 C 
BRANCH   4   5
ATOM      5  C   UNL     1      56.644 -17.069  -3.075  1.00  0.00     0.046 C 
ATOM      6  C   UNL     1      54.592 -17.628  -4.539  1.00  0.00     0.020 C 
ATOM      7  C   UNL     1      55.733 -16.636  -4.256  1.00  0.00     0.103 C 
ATOM      8  C   UNL     1      55.199 -15.342  -3.761  1.00  0.00     0.309 C 
ATOM      9  C   UNL     1      56.131 -16.243  -1.840  1.00  0.00     0.177 C 
ATOM     10  O   UNL     1      55.437 -15.137  -2.414  1.00  0.00    -0.462 OA
ATOM     11  O   UNL     1      54.620 -14.497  -4.493  1.00  0.00    -0.252 OA
ATOM     12  C   UNL     1      55.175 -17.049  -0.954  1.00  0.00     0.053 C 
ENDBRANCH   4   5
ENDBRANCH   3   4
BRANCH   3  13
ATOM     13  O   UNL     1      60.312 -17.958  -3.542  1.00  0.00    -0.390 OA
ATOM     14  H   UNL     1      60.739 -18.813  -3.314  1.00  0.00     0.211 HD
ENDBRANCH   3  13
ENDBRANCH   1   3
BRANCH   1  15
ATOM     15  C   UNL     1      58.970 -17.538  -0.024  1.00  0.00     0.032 C 
ATOM     16  C   UNL     1      58.459 -19.008  -0.076  1.00  0.00     0.010 C 
ATOM     17  C   UNL     1      59.496 -17.375   1.465  1.00  0.00     0.006 C 
ATOM     18  C   UNL     1      58.870 -19.702   1.237  1.00  0.00     0.041 C 
ATOM     19  C   UNL     1      59.982 -18.808   1.817  1.00  0.00     0.092 C 
ATOM     20  C   UNL     1      60.675 -16.421   1.767  1.00  0.00     0.011 C 
ATOM     21  C   UNL     1      58.256 -16.916   2.340  1.00  0.00     0.015 C 
ATOM     22  C   UNL     1      60.312 -18.948   3.301  1.00  0.00    -0.031 C 
ATOM     23  C   UNL     1      61.311 -16.614   3.179  1.00  0.00     0.009 C 
ATOM     24  C   UNL     1      60.627 -17.667   4.108  1.00  0.00     0.025 C 
ATOM     25  C   UNL     1      60.660 -20.170   3.755  1.00  0.00     0.050 C 
ATOM     26  C   UNL     1      61.360 -17.924   5.493  1.00  0.00    -0.013 C 
ATOM     27  C   UNL     1      61.616 -20.324   4.858  1.00  0.00     0.159 C 
ATOM     28  C   UNL     1      62.363 -19.106   5.318  1.00  0.00     0.070 C 
ATOM     29  C   UNL     1      62.140 -16.667   6.003  1.00  0.00     0.042 C 
ATOM     30  C   UNL     1      60.260 -18.273   6.551  1.00  0.00     0.013 C 
ATOM     31  O   UNL     1      61.847 -21.457   5.342  1.00  0.00    -0.295 OA
ATOM     32  C   UNL     1      63.235 -19.365   6.566  1.00  0.00     0.047 C 
ATOM     33  C   UNL     1      62.997 -16.935   7.247  1.00  0.00     0.143 C 
ATOM     34  C   UNL     1      63.982 -18.092   6.981  1.00  0.00     0.143 C 
BRANCH  19  35
ATOM     35  O   UNL     1      61.180 -19.077   1.125  1.00  0.00    -0.385 OA
ATOM     36  H   UNL     1      61.299 -20.065   1.070  1.00  0.00     0.211 HD
ENDBRANCH  19  35
BRANCH  33  37
ATOM     37  O   UNL     1      63.719 -15.770   7.554  1.00  0.00    -0.390 OA
ATOM     38  H   UNL     1      64.558 -15.789   7.018  1.00  0.00     0.211 HD
ENDBRANCH  33  37
BRANCH  34  39
ATOM     39  O   UNL     1      64.749 -18.357   8.125  1.00  0.00    -0.390 OA
ATOM     40  H   UNL     1      64.324 -19.133   8.572  1.00  0.00     0.211 HD
ENDBRANCH  34  39
ENDBRANCH   1  15
BRANCH   1  41
ATOM     41  O   UNL     1      61.126 -17.567  -1.112  1.00  0.00    -0.387 OA
ATOM     42  H   UNL     1      61.633 -17.395  -1.938  1.00  0.00     0.211 HD
ENDBRANCH   1  41
TORSDOF 9
ENDMDL
MODEL 7
REMARK VINA RESULT:    -6.127      2.733      4.097
REMARK INTER + INTRA:          -9.314
REMARK INTER:                  -8.337
REMARK INTRA:                  -0.976
REMARK UNBOUND:                -0.859
REMARK SMILES C[C@@H]1OC(=O)[C@H](C)[C@H]1C[C@@H](O)[C@](C)(O)[C@H]1CC[C@]2(O)C3=CC(=O)[C@@H]4C[C@H](O)[C@@H](O)C[C@@]4(C)[C@H]3CC[C@@]12C
REMARK SMILES IDX 12 1 13 2 10 3 9 4 8 5 7 6 6 7 4 8 2 9 3 10 5 11 1 12 11 13
REMARK SMILES IDX 15 15 16 16 36 17 17 18 18 19 35 20 37 21 20 22 34 23 33 24
REMARK SMILES IDX 21 25 31 26 22 27 24 28 30 29 32 30 23 31 25 32 28 33 26 34
REMARK SMILES IDX 19 35 29 37 27 39 14 41
REMARK H PARENT 11 14 19 36 29 38 27 40 14 42
REMARK Flexibility Score: inf
ROOT
ATOM      1  C   UNL     1      55.515 -19.023   2.522  1.00  0.00     0.091 C 
ATOM      2  C   UNL     1      56.050 -18.003   3.555  1.00  0.00     0.045 C 
ENDROOT
BRANCH   1   3
ATOM      3  C   UNL     1      56.727 -19.650   1.707  1.00  0.00     0.146 C 
BRANCH   3   4
ATOM      4  C   UNL     1      58.077 -19.838   2.493  1.00  0.00     0.043 C 
BRANCH   4   5
ATOM      5  C   UNL     1      59.387 -19.163   1.964  1.00  0.00     0.046 C 
ATOM      6  C   UNL     1      60.614 -16.997   2.652  1.00  0.00     0.020 C 
ATOM      7  C   UNL     1      59.324 -17.615   2.086  1.00  0.00     0.103 C 
ATOM      8  C   UNL     1      59.120 -17.214   0.672  1.00  0.00     0.309 C 
ATOM      9  C   UNL     1      59.729 -19.439   0.455  1.00  0.00     0.177 C 
ATOM     10  O   UNL     1      59.343 -18.246  -0.223  1.00  0.00    -0.462 OA
ATOM     11  O   UNL     1      58.748 -16.064   0.316  1.00  0.00    -0.252 OA
ATOM     12  C   UNL     1      61.222 -19.700   0.232  1.00  0.00     0.053 C 
ENDBRANCH   4   5
ENDBRANCH   3   4
BRANCH   3  13
ATOM     13  O   UNL     1      56.349 -20.920   1.222  1.00  0.00    -0.390 OA
ATOM     14  H   UNL     1      55.877 -21.401   1.939  1.00  0.00     0.211 HD
ENDBRANCH   3  13
ENDBRANCH   1   3
BRANCH   1  15
ATOM     15  C   UNL     1      54.398 -18.402   1.569  1.00  0.00     0.032 C 
ATOM     16  C   UNL     1      53.568 -17.262   2.229  1.00  0.00     0.010 C 
ATOM     17  C   UNL     1      54.698 -17.852   0.110  1.00  0.00     0.006 C 
ATOM     18  C   UNL     1      53.584 -16.050   1.279  1.00  0.00     0.041 C 
ATOM     19  C   UNL     1      54.766 -16.316   0.328  1.00  0.00     0.092 C 
ATOM     20  C   UNL     1      56.004 -18.256  -0.614  1.00  0.00     0.011 C 
ATOM     21  C   UNL     1      53.476 -18.288  -0.803  1.00  0.00     0.015 C 
ATOM     22  C   UNL     1      54.807 -15.555  -0.995  1.00  0.00    -0.031 C 
ATOM     23  C   UNL     1      56.337 -17.387  -1.867  1.00  0.00     0.009 C 
ATOM     24  C   UNL     1      55.281 -16.305  -2.260  1.00  0.00     0.025 C 
ATOM     25  C   UNL     1      54.776 -14.206  -0.945  1.00  0.00     0.050 C 
ATOM     26  C   UNL     1      55.696 -15.363  -3.469  1.00  0.00    -0.013 C 
ATOM     27  C   UNL     1      55.476 -13.397  -1.949  1.00  0.00     0.159 C 
ATOM     28  C   UNL     1      56.405 -14.097  -2.898  1.00  0.00     0.070 C 
ATOM     29  C   UNL     1      56.659 -16.071  -4.480  1.00  0.00     0.042 C 
ATOM     30  C   UNL     1      54.388 -14.976  -4.237  1.00  0.00     0.013 C 
ATOM     31  O   UNL     1      55.350 -12.149  -1.956  1.00  0.00    -0.295 OA
ATOM     32  C   UNL     1      56.975 -13.164  -3.988  1.00  0.00     0.047 C 
ATOM     33  C   UNL     1      57.213 -15.136  -5.563  1.00  0.00     0.143 C 
ATOM     34  C   UNL     1      57.925 -13.929  -4.916  1.00  0.00     0.143 C 
BRANCH  19  35
ATOM     35  O   UNL     1      55.962 -15.993   1.000  1.00  0.00    -0.385 OA
ATOM     36  H   UNL     1      56.459 -16.836   1.187  1.00  0.00     0.211 HD
ENDBRANCH  19  35
BRANCH  33  37
ATOM     37  O   UNL     1      58.130 -15.853  -6.347  1.00  0.00    -0.390 OA
ATOM     38  H   UNL     1      57.975 -16.822  -6.178  1.00  0.00     0.211 HD
ENDBRANCH  33  37
BRANCH  34  39
ATOM     39  O   UNL     1      58.410 -13.059  -5.903  1.00  0.00    -0.390 OA
ATOM     40  H   UNL     1      59.102 -13.563  -6.404  1.00  0.00     0.211 HD
ENDBRANCH  34  39
ENDBRANCH   1  15
BRANCH   1  41
ATOM     41  O   UNL     1      54.895 -20.049   3.264  1.00  0.00    -0.387 OA
ATOM     42  H   UNL     1      54.697 -20.791   2.646  1.00  0.00     0.211 HD
ENDBRANCH   1  41
TORSDOF 9
ENDMDL
MODEL 8
REMARK VINA RESULT:    -6.126      2.201      3.477
REMARK INTER + INTRA:          -9.313
REMARK INTER:                  -8.157
REMARK INTRA:                  -1.156
REMARK UNBOUND:                -0.859
REMARK SMILES C[C@@H]1OC(=O)[C@H](C)[C@H]1C[C@@H](O)[C@](C)(O)[C@H]1CC[C@]2(O)C3=CC(=O)[C@@H]4C[C@H](O)[C@@H](O)C[C@@]4(C)[C@H]3CC[C@@]12C
REMARK SMILES IDX 12 1 13 2 10 3 9 4 8 5 7 6 6 7 4 8 2 9 3 10 5 11 1 12 11 13
REMARK SMILES IDX 15 15 16 16 36 17 17 18 18 19 35 20 37 21 20 22 34 23 33 24
REMARK SMILES IDX 21 25 31 26 22 27 24 28 30 29 32 30 23 31 25 32 28 33 26 34
REMARK SMILES IDX 19 35 29 37 27 39 14 41
REMARK H PARENT 11 14 19 36 29 38 27 40 14 42
REMARK Flexibility Score: inf
ROOT
ATOM      1  C   UNL     1      56.726 -18.029   3.151  1.00  0.00     0.091 C 
ATOM      2  C   UNL     1      57.344 -16.660   3.522  1.00  0.00     0.045 C 
ENDROOT
BRANCH   1   3
ATOM      3  C   UNL     1      56.793 -19.008   4.402  1.00  0.00     0.146 C 
BRANCH   3   4
ATOM      4  C   UNL     1      58.030 -19.977   4.467  1.00  0.00     0.043 C 
BRANCH   4   5
ATOM      5  C   UNL     1      59.435 -19.421   4.879  1.00  0.00     0.046 C 
ATOM      6  C   UNL     1      60.981 -17.659   3.796  1.00  0.00     0.020 C 
ATOM      7  C   UNL     1      60.279 -19.018   3.638  1.00  0.00     0.103 C 
ATOM      8  C   UNL     1      61.269 -20.122   3.580  1.00  0.00     0.309 C 
ATOM      9  C   UNL     1      60.347 -20.416   5.686  1.00  0.00     0.177 C 
ATOM     10  O   UNL     1      61.287 -20.895   4.728  1.00  0.00    -0.462 OA
ATOM     11  O   UNL     1      61.996 -20.360   2.580  1.00  0.00    -0.252 OA
ATOM     12  C   UNL     1      61.088 -19.726   6.837  1.00  0.00     0.053 C 
ENDBRANCH   4   5
ENDBRANCH   3   4
BRANCH   3  13
ATOM     13  O   UNL     1      56.805 -18.241   5.587  1.00  0.00    -0.390 OA
ATOM     14  H   UNL     1      56.153 -18.625   6.215  1.00  0.00     0.211 HD
ENDBRANCH   3  13
ENDBRANCH   1   3
BRANCH   1  15
ATOM     15  C   UNL     1      57.384 -18.665   1.846  1.00  0.00     0.032 C 
ATOM     16  C   UNL     1      56.642 -19.929   1.317  1.00  0.00     0.010 C 
ATOM     17  C   UNL     1      57.697 -17.835   0.529  1.00  0.00     0.006 C 
ATOM     18  C   UNL     1      56.360 -19.723  -0.183  1.00  0.00     0.041 C 
ATOM     19  C   UNL     1      56.510 -18.206  -0.402  1.00  0.00     0.092 C 
ATOM     20  C   UNL     1      57.752 -16.291   0.585  1.00  0.00     0.011 C 
ATOM     21  C   UNL     1      59.092 -18.356  -0.019  1.00  0.00     0.015 C 
ATOM     22  C   UNL     1      56.729 -17.706  -1.828  1.00  0.00    -0.031 C 
ATOM     23  C   UNL     1      57.718 -15.597  -0.813  1.00  0.00     0.009 C 
ATOM     24  C   UNL     1      57.722 -16.543  -2.056  1.00  0.00     0.025 C 
ATOM     25  C   UNL     1      55.811 -18.042  -2.759  1.00  0.00     0.050 C 
ATOM     26  C   UNL     1      57.575 -15.816  -3.460  1.00  0.00    -0.013 C 
ATOM     27  C   UNL     1      55.501 -17.140  -3.874  1.00  0.00     0.159 C 
ATOM     28  C   UNL     1      56.062 -15.748  -3.834  1.00  0.00     0.070 C 
ATOM     29  C   UNL     1      58.160 -14.365  -3.449  1.00  0.00     0.042 C 
ATOM     30  C   UNL     1      58.376 -16.654  -4.512  1.00  0.00     0.013 C 
ATOM     31  O   UNL     1      54.728 -17.509  -4.791  1.00  0.00    -0.295 OA
ATOM     32  C   UNL     1      55.780 -14.943  -5.120  1.00  0.00     0.047 C 
ATOM     33  C   UNL     1      57.881 -13.577  -4.735  1.00  0.00     0.143 C 
ATOM     34  C   UNL     1      56.363 -13.529  -5.016  1.00  0.00     0.143 C 
BRANCH  19  35
ATOM     35  O   UNL     1      55.340 -17.569   0.058  1.00  0.00    -0.385 OA
ATOM     36  H   UNL     1      54.552 -18.021  -0.350  1.00  0.00     0.211 HD
ENDBRANCH  19  35
BRANCH  33  37
ATOM     37  O   UNL     1      58.366 -12.269  -4.575  1.00  0.00    -0.390 OA
ATOM     38  H   UNL     1      57.788 -11.668  -5.119  1.00  0.00     0.211 HD
ENDBRANCH  33  37
BRANCH  34  39
ATOM     39  O   UNL     1      56.106 -12.832  -6.205  1.00  0.00    -0.390 OA
ATOM     40  H   UNL     1      56.869 -13.020  -6.810  1.00  0.00     0.211 HD
ENDBRANCH  34  39
ENDBRANCH   1  15
BRANCH   1  41
ATOM     41  O   UNL     1      55.371 -17.783   2.847  1.00  0.00    -0.387 OA
ATOM     42  H   UNL     1      54.963 -18.637   2.575  1.00  0.00     0.211 HD
ENDBRANCH   1  41
TORSDOF 9
ENDMDL
MODEL 9
REMARK VINA RESULT:    -6.116      4.185      9.517
REMARK INTER + INTRA:          -9.299
REMARK INTER:                  -8.178
REMARK INTRA:                  -1.120
REMARK UNBOUND:                -0.859
REMARK SMILES C[C@@H]1OC(=O)[C@H](C)[C@H]1C[C@@H](O)[C@](C)(O)[C@H]1CC[C@]2(O)C3=CC(=O)[C@@H]4C[C@H](O)[C@@H](O)C[C@@]4(C)[C@H]3CC[C@@]12C
REMARK SMILES IDX 12 1 13 2 10 3 9 4 8 5 7 6 6 7 4 8 2 9 3 10 5 11 1 12 11 13
REMARK SMILES IDX 15 15 16 16 36 17 17 18 18 19 35 20 37 21 20 22 34 23 33 24
REMARK SMILES IDX 21 25 31 26 22 27 24 28 30 29 32 30 23 31 25 32 28 33 26 34
REMARK SMILES IDX 19 35 29 37 27 39 14 41
REMARK H PARENT 11 14 19 36 29 38 27 40 14 42
REMARK Flexibility Score: inf
ROOT
ATOM      1  C   UNL     1      62.491 -13.848  -2.496  1.00  0.00     0.091 C 
ATOM      2  C   UNL     1      63.404 -13.317  -1.366  1.00  0.00     0.045 C 
ENDROOT
BRANCH   1   3
ATOM      3  C   UNL     1      62.991 -13.293  -3.899  1.00  0.00     0.146 C 
BRANCH   3   4
ATOM      4  C   UNL     1      63.601 -11.843  -3.901  1.00  0.00     0.043 C 
BRANCH   4   5
ATOM      5  C   UNL     1      62.901 -10.704  -4.718  1.00  0.00     0.046 C 
ATOM      6  C   UNL     1      60.608 -10.586  -5.900  1.00  0.00     0.020 C 
ATOM      7  C   UNL     1      61.979 -11.279  -5.829  1.00  0.00     0.103 C 
ATOM      8  C   UNL     1      62.777 -11.003  -7.049  1.00  0.00     0.309 C 
ATOM      9  C   UNL     1      63.867  -9.713  -5.462  1.00  0.00     0.177 C 
ATOM     10  O   UNL     1      63.830 -10.133  -6.824  1.00  0.00    -0.462 OA
ATOM     11  O   UNL     1      62.548 -11.528  -8.170  1.00  0.00    -0.252 OA
ATOM     12  C   UNL     1      63.403  -8.256  -5.358  1.00  0.00     0.053 C 
ENDBRANCH   4   5
ENDBRANCH   3   4
BRANCH   3  13
ATOM     13  O   UNL     1      63.980 -14.160  -4.411  1.00  0.00    -0.390 OA
ATOM     14  H   UNL     1      64.021 -14.046  -5.387  1.00  0.00     0.211 HD
ENDBRANCH   3  13
ENDBRANCH   1   3
BRANCH   1  15
ATOM     15  C   UNL     1      60.949 -13.539  -2.235  1.00  0.00     0.032 C 
ATOM     16  C   UNL     1      60.090 -13.477  -3.533  1.00  0.00     0.010 C 
ATOM     17  C   UNL     1      60.047 -14.369  -1.226  1.00  0.00     0.006 C 
ATOM     18  C   UNL     1      58.872 -14.401  -3.341  1.00  0.00     0.041 C 
ATOM     19  C   UNL     1      59.262 -15.321  -2.169  1.00  0.00     0.092 C 
ATOM     20  C   UNL     1      60.712 -15.260  -0.150  1.00  0.00     0.011 C 
ATOM     21  C   UNL     1      59.108 -13.326  -0.487  1.00  0.00     0.015 C 
ATOM     22  C   UNL     1      58.145 -16.057  -1.433  1.00  0.00    -0.031 C 
ATOM     23  C   UNL     1      59.741 -16.273   0.532  1.00  0.00     0.009 C 
ATOM     24  C   UNL     1      58.241 -16.191   0.104  1.00  0.00     0.025 C 
ATOM     25  C   UNL     1      57.328 -16.848  -2.160  1.00  0.00     0.050 C 
ATOM     26  C   UNL     1      57.298 -17.305   0.729  1.00  0.00    -0.013 C 
ATOM     27  C   UNL     1      56.742 -18.063  -1.583  1.00  0.00     0.159 C 
ATOM     28  C   UNL     1      57.246 -18.523  -0.245  1.00  0.00     0.070 C 
ATOM     29  C   UNL     1      57.794 -17.797   2.129  1.00  0.00     0.042 C 
ATOM     30  C   UNL     1      55.878 -16.672   0.913  1.00  0.00     0.013 C 
ATOM     31  O   UNL     1      55.900 -18.730  -2.231  1.00  0.00    -0.295 OA
ATOM     32  C   UNL     1      56.462 -19.729   0.316  1.00  0.00     0.047 C 
ATOM     33  C   UNL     1      57.003 -18.991   2.680  1.00  0.00     0.143 C 
ATOM     34  C   UNL     1      57.028 -20.161   1.674  1.00  0.00     0.143 C 
BRANCH  19  35
ATOM     35  O   UNL     1      60.131 -16.319  -2.654  1.00  0.00    -0.385 OA
ATOM     36  H   UNL     1      61.031 -16.180  -2.250  1.00  0.00     0.211 HD
ENDBRANCH  19  35
BRANCH  33  37
ATOM     37  O   UNL     1      57.593 -19.401   3.886  1.00  0.00    -0.390 OA
ATOM     38  H   UNL     1      58.126 -20.220   3.694  1.00  0.00     0.211 HD
ENDBRANCH  33  37
BRANCH  34  39
ATOM     39  O   UNL     1      56.284 -21.244   2.163  1.00  0.00    -0.390 OA
ATOM     40  H   UNL     1      55.438 -20.866   2.516  1.00  0.00     0.211 HD
ENDBRANCH  34  39
ENDBRANCH   1  15
BRANCH   1  41
ATOM     41  O   UNL     1      62.632 -15.251  -2.493  1.00  0.00    -0.387 OA
ATOM     42  H   UNL     1      61.836 -15.636  -2.927  1.00  0.00     0.211 HD
ENDBRANCH   1  41
TORSDOF 9
ENDMDL
