MODEL 1
REMARK VINA RESULT:    -6.928      0.000      0.000
REMARK INTER + INTRA:          -8.482
REMARK INTER:                  -8.345
REMARK INTRA:                  -0.136
REMARK UNBOUND:                -0.136
REMARK SMILES O=c1c(O)c(-c2ccc(O)c(O)c2)oc2cc(O)cc(O)c12
REMARK SMILES IDX 5 1 3 2 2 3 1 4 22 5 20 6 19 7 17 8 16 9 15 10 14 11 6 12
REMARK SMILES IDX 7 13 8 14 9 15 13 16 11 17 10 18 12 20 4 22 21 24 18 26
REMARK H PARENT 10 19 12 21 4 23 21 25 18 27
REMARK Flexibility Score: inf
ROOT
ATOM      1  C   UNL     1     -16.038  14.790  -8.413  1.00  0.00     0.180 A 
ATOM      2  C   UNL     1     -14.749  15.297  -8.656  1.00  0.00     0.208 A 
ATOM      3  C   UNL     1     -14.097  16.014  -7.640  1.00  0.00     0.238 A 
ATOM      4  O   UNL     1     -12.965  16.510  -7.882  1.00  0.00    -0.285 OA
ATOM      5  C   UNL     1     -14.732  16.201  -6.389  1.00  0.00     0.111 A 
ATOM      6  C   UNL     1     -14.148  16.875  -5.275  1.00  0.00     0.134 A 
ATOM      7  C   UNL     1     -14.919  17.116  -4.132  1.00  0.00     0.093 A 
ATOM      8  C   UNL     1     -16.229  16.649  -4.035  1.00  0.00     0.123 A 
ATOM      9  C   UNL     1     -16.791  15.936  -5.095  1.00  0.00     0.094 A 
ATOM     10  C   UNL     1     -16.059  15.713  -6.263  1.00  0.00     0.146 A 
ATOM     11  O   UNL     1     -16.634  15.039  -7.253  1.00  0.00    -0.452 OA
ENDROOT
BRANCH   1  12
ATOM     12  C   UNL     1     -16.779  14.004  -9.425  1.00  0.00     0.025 A 
ATOM     13  C   UNL     1     -18.048  14.434  -9.841  1.00  0.00     0.016 A 
ATOM     14  C   UNL     1     -18.775  13.697 -10.779  1.00  0.00     0.051 A 
ATOM     15  C   UNL     1     -18.249  12.510 -11.305  1.00  0.00     0.157 A 
ATOM     16  C   UNL     1     -16.263  12.801  -9.939  1.00  0.00     0.062 A 
ATOM     17  C   UNL     1     -16.989  12.058 -10.879  1.00  0.00     0.158 A 
BRANCH  15  18
ATOM     18  O   UNL     1     -18.974  11.776 -12.242  1.00  0.00    -0.504 OA
ATOM     19  H   UNL     1     -19.903  12.059 -12.533  1.00  0.00     0.293 HD
ENDBRANCH  15  18
BRANCH  17  20
ATOM     20  O   UNL     1     -16.444  10.872 -11.371  1.00  0.00    -0.504 OA
ATOM     21  H   UNL     1     -16.918  10.311 -12.069  1.00  0.00     0.293 HD
ENDBRANCH  17  20
ENDBRANCH   1  12
BRANCH   2  22
ATOM     22  O   UNL     1     -14.148  15.119  -9.905  1.00  0.00    -0.502 OA
ATOM     23  H   UNL     1     -13.151  14.980 -10.014  1.00  0.00     0.293 HD
ENDBRANCH   2  22
BRANCH   6  24
ATOM     24  O   UNL     1     -12.817  17.301  -5.233  1.00  0.00    -0.507 OA
ATOM     25  H   UNL     1     -12.505  18.171  -4.830  1.00  0.00     0.293 HD
ENDBRANCH   6  24
BRANCH   8  26
ATOM     26  O   UNL     1     -16.962  16.893  -2.875  1.00  0.00    -0.508 OA
ATOM     27  H   UNL     1     -17.632  16.221  -2.521  1.00  0.00     0.293 HD
ENDBRANCH   8  26
TORSDOF 6
ENDMDL
MODEL 2
REMARK VINA RESULT:    -6.631      2.064      7.323
REMARK INTER + INTRA:          -8.124
REMARK INTER:                  -7.805
REMARK INTRA:                  -0.320
REMARK UNBOUND:                -0.136
REMARK SMILES O=c1c(O)c(-c2ccc(O)c(O)c2)oc2cc(O)cc(O)c12
REMARK SMILES IDX 5 1 3 2 2 3 1 4 22 5 20 6 19 7 17 8 16 9 15 10 14 11 6 12
REMARK SMILES IDX 7 13 8 14 9 15 13 16 11 17 10 18 12 20 4 22 21 24 18 26
REMARK H PARENT 10 19 12 21 4 23 21 25 18 27
REMARK Flexibility Score: inf
ROOT
ATOM      1  C   UNL     1     -16.534  14.546  -6.932  1.00  0.00     0.180 A 
ATOM      2  C   UNL     1     -17.741  13.855  -6.726  1.00  0.00     0.208 A 
ATOM      3  C   UNL     1     -18.123  12.865  -7.645  1.00  0.00     0.238 A 
ATOM      4  O   UNL     1     -19.231  12.287  -7.484  1.00  0.00    -0.285 OA
ATOM      5  C   UNL     1     -17.289  12.567  -8.749  1.00  0.00     0.111 A 
ATOM      6  C   UNL     1     -17.558  11.556  -9.719  1.00  0.00     0.134 A 
ATOM      7  C   UNL     1     -16.729  11.437 -10.841  1.00  0.00     0.093 A 
ATOM      8  C   UNL     1     -15.605  12.247 -10.995  1.00  0.00     0.123 A 
ATOM      9  C   UNL     1     -15.299  13.199 -10.022  1.00  0.00     0.094 A 
ATOM     10  C   UNL     1     -16.127  13.366  -8.910  1.00  0.00     0.146 A 
ATOM     11  O   UNL     1     -15.806  14.291  -8.012  1.00  0.00    -0.452 OA
ENDROOT
BRANCH   1  12
ATOM     12  C   UNL     1     -16.051  15.585  -5.994  1.00  0.00     0.025 A 
ATOM     13  C   UNL     1     -15.321  15.205  -4.858  1.00  0.00     0.016 A 
ATOM     14  C   UNL     1     -14.873  16.166  -3.948  1.00  0.00     0.051 A 
ATOM     15  C   UNL     1     -15.162  17.522  -4.154  1.00  0.00     0.157 A 
ATOM     16  C   UNL     1     -16.357  16.944  -6.186  1.00  0.00     0.062 A 
ATOM     17  C   UNL     1     -15.911  17.911  -5.276  1.00  0.00     0.158 A 
BRANCH  15  18
ATOM     18  O   UNL     1     -14.713  18.479  -3.246  1.00  0.00    -0.504 OA
ATOM     19  H   UNL     1     -14.268  19.335  -3.555  1.00  0.00     0.293 HD
ENDBRANCH  15  18
BRANCH  17  20
ATOM     20  O   UNL     1     -16.229  19.250  -5.502  1.00  0.00    -0.504 OA
ATOM     21  H   UNL     1     -16.122  19.956  -4.783  1.00  0.00     0.293 HD
ENDBRANCH  17  20
ENDBRANCH   1  12
BRANCH   2  22
ATOM     22  O   UNL     1     -18.561  14.180  -5.641  1.00  0.00    -0.502 OA
ATOM     23  H   UNL     1     -18.770  13.520  -4.902  1.00  0.00     0.293 HD
ENDBRANCH   2  22
BRANCH   6  24
ATOM     24  O   UNL     1     -18.603  10.633  -9.614  1.00  0.00    -0.507 OA
ATOM     25  H   UNL     1     -19.057  10.373  -8.752  1.00  0.00     0.293 HD
ENDBRANCH   6  24
BRANCH   8  26
ATOM     26  O   UNL     1     -14.793  12.090 -12.116  1.00  0.00    -0.508 OA
ATOM     27  H   UNL     1     -13.913  12.584 -12.207  1.00  0.00     0.293 HD
ENDBRANCH   8  26
TORSDOF 6
ENDMDL
MODEL 3
REMARK VINA RESULT:    -6.482      2.439      3.904
REMARK INTER + INTRA:          -7.945
REMARK INTER:                  -7.694
REMARK INTRA:                  -0.251
REMARK UNBOUND:                -0.136
REMARK SMILES O=c1c(O)c(-c2ccc(O)c(O)c2)oc2cc(O)cc(O)c12
REMARK SMILES IDX 5 1 3 2 2 3 1 4 22 5 20 6 19 7 17 8 16 9 15 10 14 11 6 12
REMARK SMILES IDX 7 13 8 14 9 15 13 16 11 17 10 18 12 20 4 22 21 24 18 26
REMARK H PARENT 10 19 12 21 4 23 21 25 18 27
REMARK Flexibility Score: inf
ROOT
ATOM      1  C   UNL     1     -17.353  13.555  -7.789  1.00  0.00     0.180 A 
ATOM      2  C   UNL     1     -17.393  14.074  -6.483  1.00  0.00     0.208 A 
ATOM      3  C   UNL     1     -16.474  15.071  -6.119  1.00  0.00     0.238 A 
ATOM      4  O   UNL     1     -16.481  15.494  -4.932  1.00  0.00    -0.285 OA
ATOM      5  C   UNL     1     -15.539  15.549  -7.067  1.00  0.00     0.111 A 
ATOM      6  C   UNL     1     -14.589  16.585  -6.819  1.00  0.00     0.134 A 
ATOM      7  C   UNL     1     -13.625  16.886  -7.789  1.00  0.00     0.093 A 
ATOM      8  C   UNL     1     -13.618  16.236  -9.022  1.00  0.00     0.123 A 
ATOM      9  C   UNL     1     -14.579  15.263  -9.298  1.00  0.00     0.094 A 
ATOM     10  C   UNL     1     -15.530  14.915  -8.337  1.00  0.00     0.146 A 
ATOM     11  O   UNL     1     -16.421  13.976  -8.636  1.00  0.00    -0.452 OA
ENDROOT
BRANCH   1  12
ATOM     12  C   UNL     1     -18.304  12.521  -8.256  1.00  0.00     0.025 A 
ATOM     13  C   UNL     1     -19.375  12.890  -9.084  1.00  0.00     0.016 A 
ATOM     14  C   UNL     1     -20.297  11.934  -9.519  1.00  0.00     0.051 A 
ATOM     15  C   UNL     1     -20.170  10.597  -9.121  1.00  0.00     0.157 A 
ATOM     16  C   UNL     1     -18.192  11.182  -7.840  1.00  0.00     0.062 A 
ATOM     17  C   UNL     1     -19.114  10.221  -8.273  1.00  0.00     0.158 A 
BRANCH  15  18
ATOM     18  O   UNL     1     -21.089   9.645  -9.557  1.00  0.00    -0.504 OA
ATOM     19  H   UNL     1     -21.330   9.551 -10.536  1.00  0.00     0.293 HD
ENDBRANCH  15  18
BRANCH  17  20
ATOM     20  O   UNL     1     -18.967   8.902  -7.846  1.00  0.00    -0.504 OA
ATOM     21  H   UNL     1     -18.655   8.671  -6.910  1.00  0.00     0.293 HD
ENDBRANCH  17  20
ENDBRANCH   1  12
BRANCH   2  22
ATOM     22  O   UNL     1     -18.311  13.573  -5.556  1.00  0.00    -0.502 OA
ATOM     23  H   UNL     1     -19.235  13.256  -5.822  1.00  0.00     0.293 HD
ENDBRANCH   2  22
BRANCH   6  24
ATOM     24  O   UNL     1     -14.568  17.361  -5.655  1.00  0.00    -0.507 OA
ATOM     25  H   UNL     1     -15.269  17.331  -4.931  1.00  0.00     0.293 HD
ENDBRANCH   6  24
BRANCH   8  26
ATOM     26  O   UNL     1     -12.654  16.572  -9.970  1.00  0.00    -0.508 OA
ATOM     27  H   UNL     1     -12.160  17.456  -9.934  1.00  0.00     0.293 HD
ENDBRANCH   8  26
TORSDOF 6
ENDMDL
MODEL 4
REMARK VINA RESULT:    -6.420      1.105      1.108
REMARK INTER + INTRA:          -7.870
REMARK INTER:                  -7.574
REMARK INTRA:                  -0.296
REMARK UNBOUND:                -0.136
REMARK SMILES O=c1c(O)c(-c2ccc(O)c(O)c2)oc2cc(O)cc(O)c12
REMARK SMILES IDX 5 1 3 2 2 3 1 4 22 5 20 6 19 7 17 8 16 9 15 10 14 11 6 12
REMARK SMILES IDX 7 13 8 14 9 15 13 16 11 17 10 18 12 20 4 22 21 24 18 26
REMARK H PARENT 10 19 12 21 4 23 21 25 18 27
REMARK Flexibility Score: inf
ROOT
ATOM      1  C   UNL     1     -16.556  14.520  -8.163  1.00  0.00     0.180 A 
ATOM      2  C   UNL     1     -15.244  14.844  -8.551  1.00  0.00     0.208 A 
ATOM      3  C   UNL     1     -14.458  15.636  -7.698  1.00  0.00     0.238 A 
ATOM      4  O   UNL     1     -13.303  15.967  -8.076  1.00  0.00    -0.285 OA
ATOM      5  C   UNL     1     -14.987  16.080  -6.463  1.00  0.00     0.111 A 
ATOM      6  C   UNL     1     -14.266  16.853  -5.504  1.00  0.00     0.134 A 
ATOM      7  C   UNL     1     -14.931  17.348  -4.375  1.00  0.00     0.093 A 
ATOM      8  C   UNL     1     -16.269  17.043  -4.137  1.00  0.00     0.123 A 
ATOM      9  C   UNL     1     -16.968  16.238  -5.038  1.00  0.00     0.094 A 
ATOM     10  C   UNL     1     -16.342  15.761  -6.192  1.00  0.00     0.146 A 
ATOM     11  O   UNL     1     -17.045  15.007  -7.029  1.00  0.00    -0.452 OA
ENDROOT
BRANCH   1  12
ATOM     12  C   UNL     1     -17.436  13.669  -8.996  1.00  0.00     0.025 A 
ATOM     13  C   UNL     1     -18.128  14.239 -10.075  1.00  0.00     0.016 A 
ATOM     14  C   UNL     1     -18.981  13.460 -10.862  1.00  0.00     0.051 A 
ATOM     15  C   UNL     1     -19.165  12.102 -10.572  1.00  0.00     0.157 A 
ATOM     16  C   UNL     1     -17.640  12.311  -8.694  1.00  0.00     0.062 A 
ATOM     17  C   UNL     1     -18.494  11.527  -9.479  1.00  0.00     0.158 A 
BRANCH  15  18
ATOM     18  O   UNL     1     -20.015  11.326 -11.358  1.00  0.00    -0.504 OA
ATOM     19  H   UNL     1     -19.654  10.680 -12.049  1.00  0.00     0.293 HD
ENDBRANCH  15  18
BRANCH  17  20
ATOM     20  O   UNL     1     -18.668  10.181  -9.154  1.00  0.00    -0.504 OA
ATOM     21  H   UNL     1     -17.915   9.618  -8.777  1.00  0.00     0.293 HD
ENDBRANCH  17  20
ENDBRANCH   1  12
BRANCH   2  22
ATOM     22  O   UNL     1     -14.749  14.413  -9.785  1.00  0.00    -0.502 OA
ATOM     23  H   UNL     1     -14.136  13.612  -9.875  1.00  0.00     0.293 HD
ENDBRANCH   2  22
BRANCH   6  24
ATOM     24  O   UNL     1     -12.900  17.139  -5.599  1.00  0.00    -0.507 OA
ATOM     25  H   UNL     1     -12.454  17.954  -5.208  1.00  0.00     0.293 HD
ENDBRANCH   6  24
BRANCH   8  26
ATOM     26  O   UNL     1     -16.895  17.539  -2.995  1.00  0.00    -0.508 OA
ATOM     27  H   UNL     1     -17.577  16.991  -2.484  1.00  0.00     0.293 HD
ENDBRANCH   8  26
TORSDOF 6
ENDMDL
MODEL 5
REMARK VINA RESULT:    -6.382      2.151      6.819
REMARK INTER + INTRA:          -7.825
REMARK INTER:                  -7.505
REMARK INTRA:                  -0.319
REMARK UNBOUND:                -0.136
REMARK SMILES O=c1c(O)c(-c2ccc(O)c(O)c2)oc2cc(O)cc(O)c12
REMARK SMILES IDX 5 1 3 2 2 3 1 4 22 5 20 6 19 7 17 8 16 9 15 10 14 11 6 12
REMARK SMILES IDX 7 13 8 14 9 15 13 16 11 17 10 18 12 20 4 22 21 24 18 26
REMARK H PARENT 10 19 12 21 4 23 21 25 18 27
REMARK Flexibility Score: inf
ROOT
ATOM      1  C   UNL     1     -16.269  14.043  -7.811  1.00  0.00     0.180 A 
ATOM      2  C   UNL     1     -15.856  13.878  -9.145  1.00  0.00     0.208 A 
ATOM      3  C   UNL     1     -16.616  13.060  -9.997  1.00  0.00     0.238 A 
ATOM      4  O   UNL     1     -16.211  12.874 -11.174  1.00  0.00    -0.285 OA
ATOM      5  C   UNL     1     -17.787  12.432  -9.511  1.00  0.00     0.111 A 
ATOM      6  C   UNL     1     -18.656  11.616 -10.296  1.00  0.00     0.134 A 
ATOM      7  C   UNL     1     -19.714  10.939  -9.678  1.00  0.00     0.093 A 
ATOM      8  C   UNL     1     -19.976  11.100  -8.319  1.00  0.00     0.123 A 
ATOM      9  C   UNL     1     -19.170  11.943  -7.553  1.00  0.00     0.094 A 
ATOM     10  C   UNL     1     -18.084  12.603  -8.133  1.00  0.00     0.146 A 
ATOM     11  O   UNL     1     -17.335  13.388  -7.367  1.00  0.00    -0.452 OA
ENDROOT
BRANCH   1  12
ATOM     12  C   UNL     1     -15.534  14.908  -6.860  1.00  0.00     0.025 A 
ATOM     13  C   UNL     1     -14.467  14.372  -6.122  1.00  0.00     0.016 A 
ATOM     14  C   UNL     1     -13.773  15.164  -5.203  1.00  0.00     0.051 A 
ATOM     15  C   UNL     1     -14.145  16.500  -4.999  1.00  0.00     0.157 A 
ATOM     16  C   UNL     1     -15.918  16.242  -6.637  1.00  0.00     0.062 A 
ATOM     17  C   UNL     1     -15.226  17.039  -5.717  1.00  0.00     0.158 A 
BRANCH  15  18
ATOM     18  O   UNL     1     -13.451  17.288  -4.084  1.00  0.00    -0.504 OA
ATOM     19  H   UNL     1     -12.987  16.883  -3.279  1.00  0.00     0.293 HD
ENDBRANCH  15  18
BRANCH  17  20
ATOM     20  O   UNL     1     -15.631  18.359  -5.526  1.00  0.00    -0.504 OA
ATOM     21  H   UNL     1     -15.625  18.797  -4.612  1.00  0.00     0.293 HD
ENDBRANCH  17  20
ENDBRANCH   1  12
BRANCH   2  22
ATOM     22  O   UNL     1     -14.684  14.490  -9.599  1.00  0.00    -0.502 OA
ATOM     23  H   UNL     1     -14.416  15.425  -9.320  1.00  0.00     0.293 HD
ENDBRANCH   2  22
BRANCH   6  24
ATOM     24  O   UNL     1     -18.538  11.460 -11.681  1.00  0.00    -0.507 OA
ATOM     25  H   UNL     1     -17.686  11.216 -12.162  1.00  0.00     0.293 HD
ENDBRANCH   6  24
BRANCH   8  26
ATOM     26  O   UNL     1     -21.048  10.424  -7.740  1.00  0.00    -0.508 OA
ATOM     27  H   UNL     1     -21.745  10.909  -7.188  1.00  0.00     0.293 HD
ENDBRANCH   8  26
TORSDOF 6
ENDMDL
MODEL 6
REMARK VINA RESULT:    -6.331      2.137      7.305
REMARK INTER + INTRA:          -7.762
REMARK INTER:                  -7.452
REMARK INTRA:                  -0.311
REMARK UNBOUND:                -0.136
REMARK SMILES O=c1c(O)c(-c2ccc(O)c(O)c2)oc2cc(O)cc(O)c12
REMARK SMILES IDX 5 1 3 2 2 3 1 4 22 5 20 6 19 7 17 8 16 9 15 10 14 11 6 12
REMARK SMILES IDX 7 13 8 14 9 15 13 16 11 17 10 18 12 20 4 22 21 24 18 26
REMARK H PARENT 10 19 12 21 4 23 21 25 18 27
REMARK Flexibility Score: inf
ROOT
ATOM      1  C   UNL     1     -16.683  13.981  -7.360  1.00  0.00     0.180 A 
ATOM      2  C   UNL     1     -17.391  13.005  -6.637  1.00  0.00     0.208 A 
ATOM      3  C   UNL     1     -18.306  12.185  -7.317  1.00  0.00     0.238 A 
ATOM      4  O   UNL     1     -18.975  11.349  -6.655  1.00  0.00    -0.285 OA
ATOM      5  C   UNL     1     -18.488  12.338  -8.712  1.00  0.00     0.111 A 
ATOM      6  C   UNL     1     -19.358  11.534  -9.509  1.00  0.00     0.134 A 
ATOM      7  C   UNL     1     -19.559  11.861 -10.856  1.00  0.00     0.093 A 
ATOM      8  C   UNL     1     -18.873  12.918 -11.451  1.00  0.00     0.123 A 
ATOM      9  C   UNL     1     -17.975  13.673 -10.696  1.00  0.00     0.094 A 
ATOM     10  C   UNL     1     -17.781  13.395  -9.341  1.00  0.00     0.146 A 
ATOM     11  O   UNL     1     -16.925  14.145  -8.655  1.00  0.00    -0.452 OA
ENDROOT
BRANCH   1  12
ATOM     12  C   UNL     1     -15.685  14.867  -6.719  1.00  0.00     0.025 A 
ATOM     13  C   UNL     1     -14.378  14.398  -6.509  1.00  0.00     0.016 A 
ATOM     14  C   UNL     1     -13.425  15.209  -5.887  1.00  0.00     0.051 A 
ATOM     15  C   UNL     1     -13.769  16.496  -5.452  1.00  0.00     0.157 A 
ATOM     16  C   UNL     1     -16.032  16.150  -6.262  1.00  0.00     0.062 A 
ATOM     17  C   UNL     1     -15.080  16.966  -5.637  1.00  0.00     0.158 A 
BRANCH  15  18
ATOM     18  O   UNL     1     -12.817  17.304  -4.833  1.00  0.00    -0.504 OA
ATOM     19  H   UNL     1     -11.896  16.953  -4.599  1.00  0.00     0.293 HD
ENDBRANCH  15  18
BRANCH  17  20
ATOM     20  O   UNL     1     -15.458  18.236  -5.201  1.00  0.00    -0.504 OA
ATOM     21  H   UNL     1     -16.425  18.474  -5.012  1.00  0.00     0.293 HD
ENDBRANCH  17  20
ENDBRANCH   1  12
BRANCH   2  22
ATOM     22  O   UNL     1     -17.212  12.885  -5.256  1.00  0.00    -0.502 OA
ATOM     23  H   UNL     1     -16.383  12.467  -4.850  1.00  0.00     0.293 HD
ENDBRANCH   2  22
BRANCH   6  24
ATOM     24  O   UNL     1     -20.022  10.398  -9.036  1.00  0.00    -0.507 OA
ATOM     25  H   UNL     1     -19.595   9.493  -8.912  1.00  0.00     0.293 HD
ENDBRANCH   6  24
BRANCH   8  26
ATOM     26  O   UNL     1     -19.085  13.204 -12.797  1.00  0.00    -0.508 OA
ATOM     27  H   UNL     1     -19.585  14.035 -13.091  1.00  0.00     0.293 HD
ENDBRANCH   8  26
TORSDOF 6
ENDMDL
MODEL 7
REMARK VINA RESULT:    -6.243      1.808      2.919
REMARK INTER + INTRA:          -7.657
REMARK INTER:                  -7.365
REMARK INTRA:                  -0.292
REMARK UNBOUND:                -0.136
REMARK SMILES O=c1c(O)c(-c2ccc(O)c(O)c2)oc2cc(O)cc(O)c12
REMARK SMILES IDX 5 1 3 2 2 3 1 4 22 5 20 6 19 7 17 8 16 9 15 10 14 11 6 12
REMARK SMILES IDX 7 13 8 14 9 15 13 16 11 17 10 18 12 20 4 22 21 24 18 26
REMARK H PARENT 10 19 12 21 4 23 21 25 18 27
REMARK Flexibility Score: inf
ROOT
ATOM      1  C   UNL     1     -17.195  14.641  -8.001  1.00  0.00     0.180 A 
ATOM      2  C   UNL     1     -17.904  15.701  -7.411  1.00  0.00     0.208 A 
ATOM      3  C   UNL     1     -17.243  16.536  -6.495  1.00  0.00     0.238 A 
ATOM      4  O   UNL     1     -17.899  17.451  -5.930  1.00  0.00    -0.285 OA
ATOM      5  C   UNL     1     -15.879  16.311  -6.194  1.00  0.00     0.111 A 
ATOM      6  C   UNL     1     -15.099  17.119  -5.314  1.00  0.00     0.134 A 
ATOM      7  C   UNL     1     -13.795  16.727  -4.988  1.00  0.00     0.093 A 
ATOM      8  C   UNL     1     -13.220  15.595  -5.562  1.00  0.00     0.123 A 
ATOM      9  C   UNL     1     -13.952  14.830  -6.471  1.00  0.00     0.094 A 
ATOM     10  C   UNL     1     -15.268  15.176  -6.787  1.00  0.00     0.146 A 
ATOM     11  O   UNL     1     -15.935  14.415  -7.648  1.00  0.00    -0.452 OA
ENDROOT
BRANCH   1  12
ATOM     12  C   UNL     1     -17.815  13.733  -8.993  1.00  0.00     0.025 A 
ATOM     13  C   UNL     1     -17.965  14.160 -10.321  1.00  0.00     0.016 A 
ATOM     14  C   UNL     1     -18.567  13.329 -11.270  1.00  0.00     0.051 A 
ATOM     15  C   UNL     1     -19.040  12.063 -10.900  1.00  0.00     0.157 A 
ATOM     16  C   UNL     1     -18.310  12.471  -8.621  1.00  0.00     0.062 A 
ATOM     17  C   UNL     1     -18.915  11.635  -9.568  1.00  0.00     0.158 A 
BRANCH  15  18
ATOM     18  O   UNL     1     -19.638  11.234 -11.848  1.00  0.00    -0.504 OA
ATOM     19  H   UNL     1     -20.519  11.478 -12.285  1.00  0.00     0.293 HD
ENDBRANCH  15  18
BRANCH  17  20
ATOM     20  O   UNL     1     -19.389  10.387  -9.164  1.00  0.00    -0.504 OA
ATOM     21  H   UNL     1     -19.693  10.209  -8.214  1.00  0.00     0.293 HD
ENDBRANCH  17  20
ENDBRANCH   1  12
BRANCH   2  22
ATOM     22  O   UNL     1     -19.257  15.892  -7.705  1.00  0.00    -0.502 OA
ATOM     23  H   UNL     1     -19.695  15.498  -8.529  1.00  0.00     0.293 HD
ENDBRANCH   2  22
BRANCH   6  24
ATOM     24  O   UNL     1     -15.546  18.322  -4.757  1.00  0.00    -0.507 OA
ATOM     25  H   UNL     1     -16.390  18.802  -5.028  1.00  0.00     0.293 HD
ENDBRANCH   6  24
BRANCH   8  26
ATOM     26  O   UNL     1     -11.914  15.242  -5.228  1.00  0.00    -0.508 OA
ATOM     27  H   UNL     1     -11.216  15.942  -5.007  1.00  0.00     0.293 HD
ENDBRANCH   8  26
TORSDOF 6
ENDMDL
MODEL 8
REMARK VINA RESULT:    -6.110      1.139      1.491
REMARK INTER + INTRA:          -7.496
REMARK INTER:                  -7.312
REMARK INTRA:                  -0.184
REMARK UNBOUND:                -0.136
REMARK SMILES O=c1c(O)c(-c2ccc(O)c(O)c2)oc2cc(O)cc(O)c12
REMARK SMILES IDX 5 1 3 2 2 3 1 4 22 5 20 6 19 7 17 8 16 9 15 10 14 11 6 12
REMARK SMILES IDX 7 13 8 14 9 15 13 16 11 17 10 18 12 20 4 22 21 24 18 26
REMARK H PARENT 10 19 12 21 4 23 21 25 18 27
REMARK Flexibility Score: inf
ROOT
ATOM      1  C   UNL     1     -16.538  14.384  -8.101  1.00  0.00     0.180 A 
ATOM      2  C   UNL     1     -15.248  14.736  -8.534  1.00  0.00     0.208 A 
ATOM      3  C   UNL     1     -14.449  15.543  -7.708  1.00  0.00     0.238 A 
ATOM      4  O   UNL     1     -13.315  15.898  -8.125  1.00  0.00    -0.285 OA
ATOM      5  C   UNL     1     -14.942  15.974  -6.454  1.00  0.00     0.111 A 
ATOM      6  C   UNL     1     -14.204  16.760  -5.518  1.00  0.00     0.134 A 
ATOM      7  C   UNL     1     -14.839  17.239  -4.366  1.00  0.00     0.093 A 
ATOM      8  C   UNL     1     -16.162  16.906  -4.082  1.00  0.00     0.123 A 
ATOM      9  C   UNL     1     -16.875  16.089  -4.959  1.00  0.00     0.094 A 
ATOM     10  C   UNL     1     -16.281  15.626  -6.136  1.00  0.00     0.146 A 
ATOM     11  O   UNL     1     -16.998  14.859  -6.949  1.00  0.00    -0.452 OA
ENDROOT
BRANCH   1  12
ATOM     12  C   UNL     1     -17.430  13.517  -8.904  1.00  0.00     0.025 A 
ATOM     13  C   UNL     1     -17.720  12.219  -8.455  1.00  0.00     0.016 A 
ATOM     14  C   UNL     1     -18.542  11.376  -9.207  1.00  0.00     0.051 A 
ATOM     15  C   UNL     1     -19.075  11.813 -10.427  1.00  0.00     0.157 A 
ATOM     16  C   UNL     1     -17.949  13.945 -10.139  1.00  0.00     0.062 A 
ATOM     17  C   UNL     1     -18.773  13.103 -10.896  1.00  0.00     0.158 A 
BRANCH  15  18
ATOM     18  O   UNL     1     -19.896  10.972 -11.175  1.00  0.00    -0.504 OA
ATOM     19  H   UNL     1     -19.828  10.925 -12.185  1.00  0.00     0.293 HD
ENDBRANCH  15  18
BRANCH  17  20
ATOM     20  O   UNL     1     -19.275  13.563 -12.114  1.00  0.00    -0.504 OA
ATOM     21  H   UNL     1     -20.234  13.874 -12.217  1.00  0.00     0.293 HD
ENDBRANCH  17  20
ENDBRANCH   1  12
BRANCH   2  22
ATOM     22  O   UNL     1     -14.788  14.317  -9.786  1.00  0.00    -0.502 OA
ATOM     23  H   UNL     1     -15.414  14.116 -10.556  1.00  0.00     0.293 HD
ENDBRANCH   2  22
BRANCH   6  24
ATOM     24  O   UNL     1     -12.849  17.073  -5.661  1.00  0.00    -0.507 OA
ATOM     25  H   UNL     1     -12.494  17.887  -6.138  1.00  0.00     0.293 HD
ENDBRANCH   6  24
BRANCH   8  26
ATOM     26  O   UNL     1     -16.757  17.387  -2.917  1.00  0.00    -0.508 OA
ATOM     27  H   UNL     1     -16.487  18.275  -2.511  1.00  0.00     0.293 HD
ENDBRANCH   8  26
TORSDOF 6
ENDMDL
MODEL 9
REMARK VINA RESULT:    -5.862      2.011      3.192
REMARK INTER + INTRA:          -7.197
REMARK INTER:                  -7.143
REMARK INTRA:                  -0.054
REMARK UNBOUND:                -0.136
REMARK SMILES O=c1c(O)c(-c2ccc(O)c(O)c2)oc2cc(O)cc(O)c12
REMARK SMILES IDX 5 1 3 2 2 3 1 4 22 5 20 6 19 7 17 8 16 9 15 10 14 11 6 12
REMARK SMILES IDX 7 13 8 14 9 15 13 16 11 17 10 18 12 20 4 22 21 24 18 26
REMARK H PARENT 10 19 12 21 4 23 21 25 18 27
REMARK Flexibility Score: inf
ROOT
ATOM      1  C   UNL     1     -16.811  14.917  -7.463  1.00  0.00     0.180 A 
ATOM      2  C   UNL     1     -18.050  15.569  -7.340  1.00  0.00     0.208 A 
ATOM      3  C   UNL     1     -18.185  16.604  -6.400  1.00  0.00     0.238 A 
ATOM      4  O   UNL     1     -19.312  17.147  -6.257  1.00  0.00    -0.285 OA
ATOM      5  C   UNL     1     -17.076  16.985  -5.608  1.00  0.00     0.111 A 
ATOM      6  C   UNL     1     -17.087  18.047  -4.654  1.00  0.00     0.134 A 
ATOM      7  C   UNL     1     -15.971  18.250  -3.833  1.00  0.00     0.093 A 
ATOM      8  C   UNL     1     -14.821  17.476  -3.976  1.00  0.00     0.123 A 
ATOM      9  C   UNL     1     -14.777  16.474  -4.946  1.00  0.00     0.094 A 
ATOM     10  C   UNL     1     -15.888  16.223  -5.755  1.00  0.00     0.146 A 
ATOM     11  O   UNL     1     -15.808  15.253  -6.659  1.00  0.00    -0.452 OA
ENDROOT
BRANCH   1  12
ATOM     12  C   UNL     1     -16.584  13.835  -8.447  1.00  0.00     0.025 A 
ATOM     13  C   UNL     1     -15.575  13.978  -9.412  1.00  0.00     0.016 A 
ATOM     14  C   UNL     1     -15.357  12.978 -10.364  1.00  0.00     0.051 A 
ATOM     15  C   UNL     1     -16.155  11.827 -10.374  1.00  0.00     0.157 A 
ATOM     16  C   UNL     1     -17.397  12.688  -8.474  1.00  0.00     0.062 A 
ATOM     17  C   UNL     1     -17.183  11.684  -9.426  1.00  0.00     0.158 A 
BRANCH  15  18
ATOM     18  O   UNL     1     -15.936  10.830 -11.323  1.00  0.00    -0.504 OA
ATOM     19  H   UNL     1     -15.815  11.050 -12.305  1.00  0.00     0.293 HD
ENDBRANCH  15  18
BRANCH  17  20
ATOM     20  O   UNL     1     -18.005  10.557  -9.419  1.00  0.00    -0.504 OA
ATOM     21  H   UNL     1     -18.366  10.160  -8.560  1.00  0.00     0.293 HD
ENDBRANCH  17  20
ENDBRANCH   1  12
BRANCH   2  22
ATOM     22  O   UNL     1     -19.139  15.162  -8.116  1.00  0.00    -0.502 OA
ATOM     23  H   UNL     1     -19.511  15.728  -8.869  1.00  0.00     0.293 HD
ENDBRANCH   2  22
BRANCH   6  24
ATOM     24  O   UNL     1     -18.152  18.939  -4.493  1.00  0.00    -0.507 OA
ATOM     25  H   UNL     1     -18.087  19.938  -4.610  1.00  0.00     0.293 HD
ENDBRANCH   6  24
BRANCH   8  26
ATOM     26  O   UNL     1     -13.723  17.716  -3.153  1.00  0.00    -0.508 OA
ATOM     27  H   UNL     1     -13.516  17.123  -2.359  1.00  0.00     0.293 HD
ENDBRANCH   8  26
TORSDOF 6
ENDMDL
