MODEL 1
REMARK VINA RESULT:    -5.070      0.000      0.000
REMARK INTER + INTRA:          -5.070
REMARK INTER:                  -5.070
REMARK INTRA:                   0.000
REMARK UNBOUND:                 0.000
REMARK SMILES CC(C)=C1CC[C@H](C)CC1=O
REMARK SMILES IDX 8 1 7 2 6 3 5 4 4 5 2 6 1 7 3 8 10 9 11 10 9 11
REMARK H PARENT
REMARK Flexibility Score: inf
ROOT
ATOM      1  C   UNL     1      84.336   4.878  25.183  1.00  0.00     0.008 C 
ATOM      2  C   UNL     1      83.291   4.622  26.274  1.00  0.00    -0.006 C 
ATOM      3  C   UNL     1      83.349   3.161  26.747  1.00  0.00     0.008 C 
ATOM      4  C   UNL     1      82.242   2.860  27.766  1.00  0.00     0.039 C 
ATOM      5  C   UNL     1      82.230   3.849  28.924  1.00  0.00    -0.006 C 
ATOM      6  C   UNL     1      81.839   3.471  30.176  1.00  0.00    -0.070 C 
ATOM      7  C   UNL     1      81.385   2.058  30.462  1.00  0.00     0.039 C 
ATOM      8  C   UNL     1      81.876   4.429  31.345  1.00  0.00     0.039 C 
ATOM      9  C   UNL     1      82.556   5.266  28.580  1.00  0.00     0.159 C 
ATOM     10  O   UNL     1      82.036   6.228  29.206  1.00  0.00    -0.295 OA
ATOM     11  C   UNL     1      83.514   5.568  27.464  1.00  0.00     0.084 C 
ENDROOT
TORSDOF 0
ENDMDL
MODEL 2
REMARK VINA RESULT:    -4.953      1.510      2.410
REMARK INTER + INTRA:          -4.953
REMARK INTER:                  -4.953
REMARK INTRA:                   0.000
REMARK UNBOUND:                 0.000
REMARK SMILES CC(C)=C1CC[C@H](C)CC1=O
REMARK SMILES IDX 8 1 7 2 6 3 5 4 4 5 2 6 1 7 3 8 10 9 11 10 9 11
REMARK H PARENT
REMARK Flexibility Score: inf
ROOT
ATOM      1  C   UNL     1      83.678   5.032  25.003  1.00  0.00     0.008 C 
ATOM      2  C   UNL     1      83.656   4.522  26.448  1.00  0.00    -0.006 C 
ATOM      3  C   UNL     1      83.157   5.619  27.402  1.00  0.00     0.008 C 
ATOM      4  C   UNL     1      83.226   5.161  28.864  1.00  0.00     0.039 C 
ATOM      5  C   UNL     1      82.526   3.828  29.091  1.00  0.00    -0.006 C 
ATOM      6  C   UNL     1      81.912   3.541  30.276  1.00  0.00    -0.070 C 
ATOM      7  C   UNL     1      81.916   4.530  31.420  1.00  0.00     0.039 C 
ATOM      8  C   UNL     1      81.166   2.245  30.494  1.00  0.00     0.039 C 
ATOM      9  C   UNL     1      82.655   2.824  27.993  1.00  0.00     0.159 C 
ATOM     10  O   UNL     1      82.684   1.587  28.235  1.00  0.00    -0.295 OA
ATOM     11  C   UNL     1      82.760   3.279  26.566  1.00  0.00     0.084 C 
ENDROOT
TORSDOF 0
ENDMDL
MODEL 3
REMARK VINA RESULT:    -4.721      1.777      4.671
REMARK INTER + INTRA:          -4.721
REMARK INTER:                  -4.721
REMARK INTRA:                   0.000
REMARK UNBOUND:                 0.000
REMARK SMILES CC(C)=C1CC[C@H](C)CC1=O
REMARK SMILES IDX 8 1 7 2 6 3 5 4 4 5 2 6 1 7 3 8 10 9 11 10 9 11
REMARK H PARENT
REMARK Flexibility Score: inf
ROOT
ATOM      1  C   UNL     1      80.645   2.627  31.948  1.00  0.00     0.008 C 
ATOM      2  C   UNL     1      81.118   3.216  30.615  1.00  0.00    -0.006 C 
ATOM      3  C   UNL     1      81.875   4.534  30.843  1.00  0.00     0.008 C 
ATOM      4  C   UNL     1      82.266   5.190  29.513  1.00  0.00     0.039 C 
ATOM      5  C   UNL     1      83.016   4.238  28.592  1.00  0.00    -0.006 C 
ATOM      6  C   UNL     1      83.970   4.692  27.726  1.00  0.00    -0.070 C 
ATOM      7  C   UNL     1      84.309   6.162  27.634  1.00  0.00     0.039 C 
ATOM      8  C   UNL     1      84.761   3.750  26.847  1.00  0.00     0.039 C 
ATOM      9  C   UNL     1      82.565   2.814  28.611  1.00  0.00     0.159 C 
ATOM     10  O   UNL     1      82.625   2.093  27.579  1.00  0.00    -0.295 OA
ATOM     11  C   UNL     1      82.019   2.216  29.875  1.00  0.00     0.084 C 
ENDROOT
TORSDOF 0
ENDMDL
MODEL 4
REMARK VINA RESULT:    -4.588      1.059      4.126
REMARK INTER + INTRA:          -4.588
REMARK INTER:                  -4.588
REMARK INTRA:                   0.000
REMARK UNBOUND:                 0.000
REMARK SMILES CC(C)=C1CC[C@H](C)CC1=O
REMARK SMILES IDX 8 1 7 2 6 3 5 4 4 5 2 6 1 7 3 8 10 9 11 10 9 11
REMARK H PARENT
REMARK Flexibility Score: inf
ROOT
ATOM      1  C   UNL     1      81.480   2.339  30.763  1.00  0.00     0.008 C 
ATOM      2  C   UNL     1      82.189   3.271  29.775  1.00  0.00    -0.006 C 
ATOM      3  C   UNL     1      82.850   2.464  28.647  1.00  0.00     0.008 C 
ATOM      4  C   UNL     1      83.651   3.373  27.706  1.00  0.00     0.039 C 
ATOM      5  C   UNL     1      82.827   4.541  27.182  1.00  0.00    -0.006 C 
ATOM      6  C   UNL     1      83.048   5.066  25.941  1.00  0.00    -0.070 C 
ATOM      7  C   UNL     1      84.133   4.520  25.041  1.00  0.00     0.039 C 
ATOM      8  C   UNL     1      82.200   6.188  25.388  1.00  0.00     0.039 C 
ATOM      9  C   UNL     1      81.856   5.142  28.144  1.00  0.00     0.159 C 
ATOM     10  O   UNL     1      81.576   6.371  28.111  1.00  0.00    -0.295 OA
ATOM     11  C   UNL     1      81.195   4.283  29.183  1.00  0.00     0.084 C 
ENDROOT
TORSDOF 0
ENDMDL
MODEL 5
REMARK VINA RESULT:    -4.380     17.266     18.556
REMARK INTER + INTRA:          -4.380
REMARK INTER:                  -4.380
REMARK INTRA:                   0.000
REMARK UNBOUND:                 0.000
REMARK SMILES CC(C)=C1CC[C@H](C)CC1=O
REMARK SMILES IDX 8 1 7 2 6 3 5 4 4 5 2 6 1 7 3 8 10 9 11 10 9 11
REMARK H PARENT
REMARK Flexibility Score: inf
ROOT
ATOM      1  C   UNL     1      78.800  -6.726  12.210  1.00  0.00     0.008 C 
ATOM      2  C   UNL     1      79.135  -7.660  13.378  1.00  0.00    -0.006 C 
ATOM      3  C   UNL     1      79.963  -6.922  14.441  1.00  0.00     0.008 C 
ATOM      4  C   UNL     1      80.396  -7.868  15.569  1.00  0.00     0.039 C 
ATOM      5  C   UNL     1      79.224  -8.634  16.169  1.00  0.00    -0.006 C 
ATOM      6  C   UNL     1      79.213  -8.997  17.485  1.00  0.00    -0.070 C 
ATOM      7  C   UNL     1      80.372  -8.669  18.398  1.00  0.00     0.039 C 
ATOM      8  C   UNL     1      78.032  -9.708  18.105  1.00  0.00     0.039 C 
ATOM      9  C   UNL     1      78.159  -9.059  15.212  1.00  0.00     0.159 C 
ATOM     10  O   UNL     1      77.508 -10.124  15.386  1.00  0.00    -0.295 OA
ATOM     11  C   UNL     1      77.849  -8.216  14.009  1.00  0.00     0.084 C 
ENDROOT
TORSDOF 0
ENDMDL
MODEL 6
REMARK VINA RESULT:    -4.315     17.804     19.397
REMARK INTER + INTRA:          -4.315
REMARK INTER:                  -4.315
REMARK INTRA:                   0.000
REMARK UNBOUND:                 0.000
REMARK SMILES CC(C)=C1CC[C@H](C)CC1=O
REMARK SMILES IDX 8 1 7 2 6 3 5 4 4 5 2 6 1 7 3 8 10 9 11 10 9 11
REMARK H PARENT
REMARK Flexibility Score: inf
ROOT
ATOM      1  C   UNL     1      79.892  -9.007  18.077  1.00  0.00     0.008 C 
ATOM      2  C   UNL     1      79.807  -9.026  16.547  1.00  0.00    -0.006 C 
ATOM      3  C   UNL     1      78.447  -9.574  16.087  1.00  0.00     0.008 C 
ATOM      4  C   UNL     1      78.383  -9.696  14.559  1.00  0.00     0.039 C 
ATOM      5  C   UNL     1      78.760  -8.401  13.854  1.00  0.00    -0.006 C 
ATOM      6  C   UNL     1      78.201  -8.056  12.656  1.00  0.00    -0.070 C 
ATOM      7  C   UNL     1      77.197  -8.955  11.973  1.00  0.00     0.039 C 
ATOM      8  C   UNL     1      78.524  -6.746  11.974  1.00  0.00     0.039 C 
ATOM      9  C   UNL     1      79.851  -7.601  14.488  1.00  0.00     0.159 C 
ATOM     10  O   UNL     1      80.645  -6.911  13.795  1.00  0.00    -0.295 OA
ATOM     11  C   UNL     1      80.023  -7.615  15.979  1.00  0.00     0.084 C 
ENDROOT
TORSDOF 0
ENDMDL
MODEL 7
REMARK VINA RESULT:    -4.138     17.568     19.153
REMARK INTER + INTRA:          -4.138
REMARK INTER:                  -4.138
REMARK INTRA:                   0.000
REMARK UNBOUND:                 0.000
REMARK SMILES CC(C)=C1CC[C@H](C)CC1=O
REMARK SMILES IDX 8 1 7 2 6 3 5 4 4 5 2 6 1 7 3 8 10 9 11 10 9 11
REMARK H PARENT
REMARK Flexibility Score: inf
ROOT
ATOM      1  C   UNL     1      78.572 -10.122  18.922  1.00  0.00     0.008 C 
ATOM      2  C   UNL     1      78.610  -9.275  17.646  1.00  0.00    -0.006 C 
ATOM      3  C   UNL     1      80.007  -8.666  17.443  1.00  0.00     0.008 C 
ATOM      4  C   UNL     1      80.036  -7.731  16.226  1.00  0.00     0.039 C 
ATOM      5  C   UNL     1      79.501  -8.397  14.966  1.00  0.00    -0.006 C 
ATOM      6  C   UNL     1      79.982  -8.070  13.731  1.00  0.00    -0.070 C 
ATOM      7  C   UNL     1      81.055  -7.020  13.561  1.00  0.00     0.039 C 
ATOM      8  C   UNL     1      79.498  -8.764  12.478  1.00  0.00     0.039 C 
ATOM      9  C   UNL     1      78.350  -9.331  15.156  1.00  0.00     0.159 C 
ATOM     10  O   UNL     1      77.464  -9.468  14.270  1.00  0.00    -0.295 OA
ATOM     11  C   UNL     1      78.226 -10.124  16.425  1.00  0.00     0.084 C 
ENDROOT
TORSDOF 0
ENDMDL
MODEL 8
REMARK VINA RESULT:    -4.091     11.277     12.723
REMARK INTER + INTRA:          -4.091
REMARK INTER:                  -4.091
REMARK INTRA:                   0.000
REMARK UNBOUND:                 0.000
REMARK SMILES CC(C)=C1CC[C@H](C)CC1=O
REMARK SMILES IDX 8 1 7 2 6 3 5 4 4 5 2 6 1 7 3 8 10 9 11 10 9 11
REMARK H PARENT
REMARK Flexibility Score: inf
ROOT
ATOM      1  C   UNL     1      83.773  -8.183  28.921  1.00  0.00     0.008 C 
ATOM      2  C   UNL     1      84.826  -7.876  29.991  1.00  0.00    -0.006 C 
ATOM      3  C   UNL     1      85.977  -8.893  29.926  1.00  0.00     0.008 C 
ATOM      4  C   UNL     1      86.990  -8.663  31.055  1.00  0.00     0.039 C 
ATOM      5  C   UNL     1      87.485  -7.224  31.110  1.00  0.00    -0.006 C 
ATOM      6  C   UNL     1      88.749  -6.924  31.529  1.00  0.00    -0.070 C 
ATOM      7  C   UNL     1      89.706  -8.007  31.972  1.00  0.00     0.039 C 
ATOM      8  C   UNL     1      89.271  -5.505  31.535  1.00  0.00     0.039 C 
ATOM      9  C   UNL     1      86.474  -6.170  30.795  1.00  0.00     0.159 C 
ATOM     10  O   UNL     1      86.517  -5.036  31.343  1.00  0.00    -0.295 OA
ATOM     11  C   UNL     1      85.375  -6.452  29.812  1.00  0.00     0.084 C 
ENDROOT
TORSDOF 0
ENDMDL
MODEL 9
REMARK VINA RESULT:    -3.840     12.194     13.183
REMARK INTER + INTRA:          -3.840
REMARK INTER:                  -3.840
REMARK INTRA:                   0.000
REMARK UNBOUND:                 0.000
REMARK SMILES CC(C)=C1CC[C@H](C)CC1=O
REMARK SMILES IDX 8 1 7 2 6 3 5 4 4 5 2 6 1 7 3 8 10 9 11 10 9 11
REMARK H PARENT
REMARK Flexibility Score: inf
ROOT
ATOM      1  C   UNL     1      82.973  -8.634  23.040  1.00  0.00     0.008 C 
ATOM      2  C   UNL     1      82.932  -9.011  24.524  1.00  0.00    -0.006 C 
ATOM      3  C   UNL     1      84.315  -9.481  25.002  1.00  0.00     0.008 C 
ATOM      4  C   UNL     1      84.269  -9.960  26.459  1.00  0.00     0.039 C 
ATOM      5  C   UNL     1      83.648  -8.930  27.392  1.00  0.00    -0.006 C 
ATOM      6  C   UNL     1      84.048  -8.817  28.693  1.00  0.00    -0.070 C 
ATOM      7  C   UNL     1      85.113  -9.724  29.266  1.00  0.00     0.039 C 
ATOM      8  C   UNL     1      83.480  -7.762  29.613  1.00  0.00     0.039 C 
ATOM      9  C   UNL     1      82.507  -8.142  26.835  1.00  0.00     0.159 C 
ATOM     10  O   UNL     1      81.565  -7.743  27.570  1.00  0.00    -0.295 OA
ATOM     11  C   UNL     1      82.463  -7.817  25.370  1.00  0.00     0.084 C 
ENDROOT
TORSDOF 0
ENDMDL
