MODEL 1
REMARK VINA RESULT:     7.845      0.000      0.000
REMARK INTER + INTRA:          13.831
REMARK INTER:                  14.266
REMARK INTRA:                  -0.435
REMARK UNBOUND:                -0.435
REMARK SMILES CCCCCCCCCCCCCCCC(=O)[O-]
REMARK SMILES IDX 9 1 10 2 11 3 12 4 13 5 14 6 15 7 16 8 17 9 18 10 8 11 7 12
REMARK SMILES IDX 6 13 5 14 4 15 3 16 2 17 1 18
REMARK H PARENT
REMARK Flexibility Score: inf
ROOT
ATOM      1  C   UNL     1      -6.294  21.473 -11.585  1.00  0.00     0.000 C 
ENDROOT
BRANCH   1   2
ATOM      2  C   UNL     1      -4.926  22.173 -11.499  1.00  0.00     0.000 C 
BRANCH   2   3
ATOM      3  C   UNL     1      -5.038  23.704 -11.524  1.00  0.00     0.000 C 
BRANCH   3   4
ATOM      4  C   UNL     1      -3.710  24.345 -11.952  1.00  0.00     0.000 C 
BRANCH   4   5
ATOM      5  C   UNL     1      -3.539  25.782 -11.430  1.00  0.00     0.000 C 
BRANCH   5   6
ATOM      6  C   UNL     1      -4.637  26.256 -10.461  1.00  0.00     0.006 C 
BRANCH   6   7
ATOM      7  C   UNL     1      -4.797  27.781 -10.436  1.00  0.00     0.053 C 
BRANCH   7   8
ATOM      8  C   UNL     1      -5.756  28.224 -11.495  1.00  0.00     0.041 C 
ATOM      9  O   UNL     1      -5.516  29.255 -12.177  1.00  0.00    -0.550 OA
ATOM     10  O   UNL     1      -6.891  27.470 -11.764  1.00  0.00    -0.550 OA
ENDBRANCH   7   8
ENDBRANCH   6   7
ENDBRANCH   5   6
ENDBRANCH   4   5
ENDBRANCH   3   4
ENDBRANCH   2   3
ENDBRANCH   1   2
BRANCH   1  11
ATOM     11  C   UNL     1      -6.238  19.961 -11.883  1.00  0.00     0.000 C 
BRANCH  11  12
ATOM     12  C   UNL     1      -5.629  19.092 -10.769  1.00  0.00    -0.000 C 
BRANCH  12  13
ATOM     13  C   UNL     1      -4.090  19.120 -10.764  1.00  0.00    -0.000 C 
BRANCH  13  14
ATOM     14  C   UNL     1      -3.467  17.810 -11.280  1.00  0.00    -0.000 C 
BRANCH  14  15
ATOM     15  C   UNL     1      -3.557  16.614 -10.312  1.00  0.00    -0.000 C 
BRANCH  15  16
ATOM     16  C   UNL     1      -4.439  15.445 -10.794  1.00  0.00    -0.000 C 
BRANCH  16  17
ATOM     17  C   UNL     1      -3.888  14.044 -10.473  1.00  0.00    -0.003 C 
ATOM     18  C   UNL     1      -2.417  14.066 -10.054  1.00  0.00     0.004 C 
ENDBRANCH  16  17
ENDBRANCH  15  16
ENDBRANCH  14  15
ENDBRANCH  13  14
ENDBRANCH  12  13
ENDBRANCH  11  12
ENDBRANCH   1  11
TORSDOF 14
ENDMDL
MODEL 2
REMARK VINA RESULT:     8.114      1.113      2.013
REMARK INTER + INTRA:          14.319
REMARK INTER:                  14.270
REMARK INTRA:                   0.049
REMARK UNBOUND:                -0.435
REMARK SMILES CCCCCCCCCCCCCCCC(=O)[O-]
REMARK SMILES IDX 9 1 10 2 11 3 12 4 13 5 14 6 15 7 16 8 17 9 18 10 8 11 7 12
REMARK SMILES IDX 6 13 5 14 4 15 3 16 2 17 1 18
REMARK H PARENT
REMARK Flexibility Score: inf
ROOT
ATOM      1  C   UNL     1      -6.544  19.757 -11.116  1.00  0.00     0.000 C 
ENDROOT
BRANCH   1   2
ATOM      2  C   UNL     1      -6.594  20.152 -12.603  1.00  0.00     0.000 C 
BRANCH   2   3
ATOM      3  C   UNL     1      -6.295  21.640 -12.835  1.00  0.00     0.000 C 
BRANCH   3   4
ATOM      4  C   UNL     1      -6.023  22.359 -11.506  1.00  0.00     0.000 C 
BRANCH   4   5
ATOM      5  C   UNL     1      -4.943  23.450 -11.623  1.00  0.00     0.000 C 
BRANCH   5   6
ATOM      6  C   UNL     1      -5.321  24.807 -11.001  1.00  0.00     0.006 C 
BRANCH   6   7
ATOM      7  C   UNL     1      -4.355  25.933 -11.389  1.00  0.00     0.053 C 
BRANCH   7   8
ATOM      8  C   UNL     1      -4.774  27.222 -10.757  1.00  0.00     0.041 C 
ATOM      9  O   UNL     1      -5.411  28.078 -11.426  1.00  0.00    -0.550 OA
ATOM     10  O   UNL     1      -4.505  27.458  -9.415  1.00  0.00    -0.550 OA
ENDBRANCH   7   8
ENDBRANCH   6   7
ENDBRANCH   5   6
ENDBRANCH   4   5
ENDBRANCH   3   4
ENDBRANCH   2   3
ENDBRANCH   1   2
BRANCH   1  11
ATOM     11  C   UNL     1      -5.430  18.759 -10.741  1.00  0.00     0.000 C 
BRANCH  11  12
ATOM     12  C   UNL     1      -3.997  19.222 -11.060  1.00  0.00    -0.000 C 
BRANCH  12  13
ATOM     13  C   UNL     1      -2.982  18.066 -11.056  1.00  0.00    -0.000 C 
BRANCH  13  14
ATOM     14  C   UNL     1      -3.512  16.806 -10.346  1.00  0.00    -0.000 C 
BRANCH  14  15
ATOM     15  C   UNL     1      -4.596  16.026 -11.117  1.00  0.00    -0.000 C 
BRANCH  15  16
ATOM     16  C   UNL     1      -4.468  14.491 -11.055  1.00  0.00    -0.000 C 
BRANCH  16  17
ATOM     17  C   UNL     1      -3.671  13.957  -9.852  1.00  0.00    -0.003 C 
ATOM     18  C   UNL     1      -2.168  13.878 -10.123  1.00  0.00     0.004 C 
ENDBRANCH  16  17
ENDBRANCH  15  16
ENDBRANCH  14  15
ENDBRANCH  13  14
ENDBRANCH  12  13
ENDBRANCH  11  12
ENDBRANCH   1  11
TORSDOF 14
ENDMDL
MODEL 3
REMARK VINA RESULT:     8.198      4.950      9.901
REMARK INTER + INTRA:          14.473
REMARK INTER:                  15.208
REMARK INTRA:                  -0.735
REMARK UNBOUND:                -0.435
REMARK SMILES CCCCCCCCCCCCCCCC(=O)[O-]
REMARK SMILES IDX 9 1 10 2 11 3 12 4 13 5 14 6 15 7 16 8 17 9 18 10 8 11 7 12
REMARK SMILES IDX 6 13 5 14 4 15 3 16 2 17 1 18
REMARK H PARENT
REMARK Flexibility Score: inf
ROOT
ATOM      1  C   UNL     1      -6.350  21.214 -11.419  1.00  0.00     0.000 C 
ENDROOT
BRANCH   1   2
ATOM      2  C   UNL     1      -6.465  19.979 -12.330  1.00  0.00     0.000 C 
BRANCH   2   3
ATOM      3  C   UNL     1      -6.598  18.667 -11.543  1.00  0.00     0.000 C 
BRANCH   3   4
ATOM      4  C   UNL     1      -5.515  18.565 -10.460  1.00  0.00     0.000 C 
BRANCH   4   5
ATOM      5  C   UNL     1      -4.106  18.342 -11.037  1.00  0.00     0.000 C 
BRANCH   5   6
ATOM      6  C   UNL     1      -3.366  17.108 -10.489  1.00  0.00     0.006 C 
BRANCH   6   7
ATOM      7  C   UNL     1      -3.930  15.787 -11.025  1.00  0.00     0.053 C 
BRANCH   7   8
ATOM      8  C   UNL     1      -3.352  14.629 -10.275  1.00  0.00     0.041 C 
ATOM      9  O   UNL     1      -2.128  14.352 -10.381  1.00  0.00    -0.550 OA
ATOM     10  O   UNL     1      -4.154  13.886  -9.418  1.00  0.00    -0.550 OA
ENDBRANCH   7   8
ENDBRANCH   6   7
ENDBRANCH   5   6
ENDBRANCH   4   5
ENDBRANCH   3   4
ENDBRANCH   2   3
ENDBRANCH   1   2
BRANCH   1  11
ATOM     11  C   UNL     1      -5.004  21.962 -11.496  1.00  0.00     0.000 C 
BRANCH  11  12
ATOM     12  C   UNL     1      -5.101  23.498 -11.452  1.00  0.00    -0.000 C 
BRANCH  12  13
ATOM     13  C   UNL     1      -3.724  24.182 -11.412  1.00  0.00    -0.000 C 
BRANCH  13  14
ATOM     14  C   UNL     1      -3.791  25.681 -11.756  1.00  0.00    -0.000 C 
BRANCH  14  15
ATOM     15  C   UNL     1      -4.036  26.620 -10.558  1.00  0.00    -0.000 C 
BRANCH  15  16
ATOM     16  C   UNL     1      -5.510  27.001 -10.314  1.00  0.00    -0.000 C 
BRANCH  16  17
ATOM     17  C   UNL     1      -6.218  27.647 -11.518  1.00  0.00    -0.003 C 
ATOM     18  C   UNL     1      -5.602  28.988 -11.920  1.00  0.00     0.004 C 
ENDBRANCH  16  17
ENDBRANCH  15  16
ENDBRANCH  14  15
ENDBRANCH  13  14
ENDBRANCH  12  13
ENDBRANCH  11  12
ENDBRANCH   1  11
TORSDOF 14
ENDMDL
MODEL 4
REMARK VINA RESULT:     8.379      5.141      6.526
REMARK INTER + INTRA:          14.802
REMARK INTER:                  15.616
REMARK INTRA:                  -0.814
REMARK UNBOUND:                -0.435
REMARK SMILES CCCCCCCCCCCCCCCC(=O)[O-]
REMARK SMILES IDX 9 1 10 2 11 3 12 4 13 5 14 6 15 7 16 8 17 9 18 10 8 11 7 12
REMARK SMILES IDX 6 13 5 14 4 15 3 16 2 17 1 18
REMARK H PARENT
REMARK Flexibility Score: inf
ROOT
ATOM      1  C   UNL     1      -6.371  19.950 -12.063  1.00  0.00     0.000 C 
ENDROOT
BRANCH   1   2
ATOM      2  C   UNL     1      -6.362  21.487 -12.146  1.00  0.00     0.000 C 
BRANCH   2   3
ATOM      3  C   UNL     1      -6.661  22.010 -13.558  1.00  0.00     0.000 C 
BRANCH   3   4
ATOM      4  C   UNL     1      -6.728  20.856 -14.569  1.00  0.00     0.000 C 
BRANCH   4   5
ATOM      5  C   UNL     1      -6.240  21.256 -15.972  1.00  0.00     0.000 C 
BRANCH   5   6
ATOM      6  C   UNL     1      -5.558  20.129 -16.769  1.00  0.00     0.006 C 
BRANCH   6   7
ATOM      7  C   UNL     1      -6.495  19.460 -17.782  1.00  0.00     0.053 C 
BRANCH   7   8
ATOM      8  C   UNL     1      -6.035  18.069 -18.082  1.00  0.00     0.041 C 
ATOM      9  O   UNL     1      -4.805  17.799 -18.098  1.00  0.00    -0.550 OA
ATOM     10  O   UNL     1      -6.964  17.060 -18.293  1.00  0.00    -0.550 OA
ENDBRANCH   7   8
ENDBRANCH   6   7
ENDBRANCH   5   6
ENDBRANCH   4   5
ENDBRANCH   3   4
ENDBRANCH   2   3
ENDBRANCH   1   2
BRANCH   1  11
ATOM     11  C   UNL     1      -5.576  19.353 -10.885  1.00  0.00     0.000 C 
BRANCH  11  12
ATOM     12  C   UNL     1      -4.164  19.931 -10.683  1.00  0.00    -0.000 C 
BRANCH  12  13
ATOM     13  C   UNL     1      -3.055  18.887 -10.898  1.00  0.00    -0.000 C 
BRANCH  13  14
ATOM     14  C   UNL     1      -3.601  17.514 -11.330  1.00  0.00    -0.000 C 
BRANCH  14  15
ATOM     15  C   UNL     1      -3.635  16.442 -10.222  1.00  0.00    -0.000 C 
BRANCH  15  16
ATOM     16  C   UNL     1      -4.455  15.179 -10.555  1.00  0.00    -0.000 C 
BRANCH  16  17
ATOM     17  C   UNL     1      -3.638  13.877 -10.617  1.00  0.00    -0.003 C 
ATOM     18  C   UNL     1      -2.247  14.017  -9.999  1.00  0.00     0.004 C 
ENDBRANCH  16  17
ENDBRANCH  15  16
ENDBRANCH  14  15
ENDBRANCH  13  14
ENDBRANCH  12  13
ENDBRANCH  11  12
ENDBRANCH   1  11
TORSDOF 14
ENDMDL
MODEL 5
REMARK VINA RESULT:     8.395      5.812      8.778
REMARK INTER + INTRA:          14.830
REMARK INTER:                  15.715
REMARK INTRA:                  -0.884
REMARK UNBOUND:                -0.435
REMARK SMILES CCCCCCCCCCCCCCCC(=O)[O-]
REMARK SMILES IDX 9 1 10 2 11 3 12 4 13 5 14 6 15 7 16 8 17 9 18 10 8 11 7 12
REMARK SMILES IDX 6 13 5 14 4 15 3 16 2 17 1 18
REMARK H PARENT
REMARK Flexibility Score: inf
ROOT
ATOM      1  C   UNL     1      -6.113  19.999 -11.437  1.00  0.00     0.000 C 
ENDROOT
BRANCH   1   2
ATOM      2  C   UNL     1      -4.937  20.952 -11.160  1.00  0.00     0.000 C 
BRANCH   2   3
ATOM      3  C   UNL     1      -3.658  20.214 -10.739  1.00  0.00     0.000 C 
BRANCH   3   4
ATOM      4  C   UNL     1      -3.604  18.811 -11.360  1.00  0.00     0.000 C 
BRANCH   4   5
ATOM      5  C   UNL     1      -3.790  17.688 -10.325  1.00  0.00     0.000 C 
BRANCH   5   6
ATOM      6  C   UNL     1      -4.657  16.506 -10.798  1.00  0.00     0.006 C 
BRANCH   6   7
ATOM      7  C   UNL     1      -3.832  15.363 -11.401  1.00  0.00     0.053 C 
BRANCH   7   8
ATOM      8  C   UNL     1      -3.350  14.442 -10.325  1.00  0.00     0.041 C 
ATOM      9  O   UNL     1      -2.230  13.875 -10.431  1.00  0.00    -0.550 OA
ATOM     10  O   UNL     1      -4.113  14.250  -9.181  1.00  0.00    -0.550 OA
ENDBRANCH   7   8
ENDBRANCH   6   7
ENDBRANCH   5   6
ENDBRANCH   4   5
ENDBRANCH   3   4
ENDBRANCH   2   3
ENDBRANCH   1   2
BRANCH   1  11
ATOM     11  C   UNL     1      -6.737  20.120 -12.843  1.00  0.00     0.000 C 
BRANCH  11  12
ATOM     12  C   UNL     1      -6.726  21.535 -13.448  1.00  0.00    -0.000 C 
BRANCH  12  13
ATOM     13  C   UNL     1      -6.765  21.526 -14.986  1.00  0.00    -0.000 C 
BRANCH  13  14
ATOM     14  C   UNL     1      -6.235  20.213 -15.591  1.00  0.00    -0.000 C 
BRANCH  14  15
ATOM     15  C   UNL     1      -5.491  20.361 -16.933  1.00  0.00    -0.000 C 
BRANCH  15  16
ATOM     16  C   UNL     1      -5.427  19.083 -17.793  1.00  0.00    -0.000 C 
BRANCH  16  17
ATOM     17  C   UNL     1      -6.795  18.484 -18.163  1.00  0.00    -0.003 C 
ATOM     18  C   UNL     1      -6.812  16.956 -18.098  1.00  0.00     0.004 C 
ENDBRANCH  16  17
ENDBRANCH  15  16
ENDBRANCH  14  15
ENDBRANCH  13  14
ENDBRANCH  12  13
ENDBRANCH  11  12
ENDBRANCH   1  11
TORSDOF 14
ENDMDL
MODEL 6
REMARK VINA RESULT:     8.547      3.837      5.862
REMARK INTER + INTRA:          15.107
REMARK INTER:                  15.008
REMARK INTRA:                   0.099
REMARK UNBOUND:                -0.435
REMARK SMILES CCCCCCCCCCCCCCCC(=O)[O-]
REMARK SMILES IDX 9 1 10 2 11 3 12 4 13 5 14 6 15 7 16 8 17 9 18 10 8 11 7 12
REMARK SMILES IDX 6 13 5 14 4 15 3 16 2 17 1 18
REMARK H PARENT
REMARK Flexibility Score: inf
ROOT
ATOM      1  C   UNL     1      -2.918  16.649 -10.031  1.00  0.00     0.000 C 
ENDROOT
BRANCH   1   2
ATOM      2  C   UNL     1      -3.302  17.678 -11.110  1.00  0.00     0.000 C 
BRANCH   2   3
ATOM      3  C   UNL     1      -2.792  19.091 -10.795  1.00  0.00     0.000 C 
BRANCH   3   4
ATOM      4  C   UNL     1      -3.941  20.110 -10.829  1.00  0.00     0.000 C 
BRANCH   4   5
ATOM      5  C   UNL     1      -5.330  19.452 -10.747  1.00  0.00     0.000 C 
BRANCH   5   6
ATOM      6  C   UNL     1      -6.515  20.408 -10.979  1.00  0.00     0.006 C 
BRANCH   6   7
ATOM      7  C   UNL     1      -6.208  21.504 -12.006  1.00  0.00     0.053 C 
BRANCH   7   8
ATOM      8  C   UNL     1      -6.705  21.107 -13.360  1.00  0.00     0.041 C 
ATOM      9  O   UNL     1      -7.144  19.943 -13.557  1.00  0.00    -0.550 OA
ATOM     10  O   UNL     1      -6.731  22.036 -14.391  1.00  0.00    -0.550 OA
ENDBRANCH   7   8
ENDBRANCH   6   7
ENDBRANCH   5   6
ENDBRANCH   4   5
ENDBRANCH   3   4
ENDBRANCH   2   3
ENDBRANCH   1   2
BRANCH   1  11
ATOM     11  C   UNL     1      -2.253  15.363 -10.560  1.00  0.00     0.000 C 
BRANCH  11  12
ATOM     12  C   UNL     1      -2.790  14.050  -9.963  1.00  0.00    -0.000 C 
BRANCH  12  13
ATOM     13  C   UNL     1      -4.324  13.947 -10.031  1.00  0.00    -0.000 C 
BRANCH  13  14
ATOM     14  C   UNL     1      -4.937  14.859 -11.108  1.00  0.00    -0.000 C 
BRANCH  14  15
ATOM     15  C   UNL     1      -6.034  15.821 -10.607  1.00  0.00    -0.000 C 
BRANCH  15  16
ATOM     16  C   UNL     1      -6.716  16.666 -11.702  1.00  0.00    -0.000 C 
BRANCH  16  17
ATOM     17  C   UNL     1      -7.809  15.932 -12.498  1.00  0.00    -0.003 C 
ATOM     18  C   UNL     1      -8.348  16.757 -13.667  1.00  0.00     0.004 C 
ENDBRANCH  16  17
ENDBRANCH  15  16
ENDBRANCH  14  15
ENDBRANCH  13  14
ENDBRANCH  12  13
ENDBRANCH  11  12
ENDBRANCH   1  11
TORSDOF 14
ENDMDL
MODEL 7
REMARK VINA RESULT:     8.805      5.027      7.454
REMARK INTER + INTRA:          15.576
REMARK INTER:                  16.326
REMARK INTRA:                  -0.751
REMARK UNBOUND:                -0.435
REMARK SMILES CCCCCCCCCCCCCCCC(=O)[O-]
REMARK SMILES IDX 9 1 10 2 11 3 12 4 13 5 14 6 15 7 16 8 17 9 18 10 8 11 7 12
REMARK SMILES IDX 6 13 5 14 4 15 3 16 2 17 1 18
REMARK H PARENT
REMARK Flexibility Score: inf
ROOT
ATOM      1  C   UNL     1      -5.781  15.775 -11.089  1.00  0.00     0.000 C 
ENDROOT
BRANCH   1   2
ATOM      2  C   UNL     1      -4.473  15.128 -10.597  1.00  0.00     0.000 C 
BRANCH   2   3
ATOM      3  C   UNL     1      -3.415  16.161 -10.186  1.00  0.00     0.000 C 
BRANCH   3   4
ATOM      4  C   UNL     1      -3.418  17.361 -11.143  1.00  0.00     0.000 C 
BRANCH   4   5
ATOM      5  C   UNL     1      -3.336  18.714 -10.412  1.00  0.00     0.000 C 
BRANCH   5   6
ATOM      6  C   UNL     1      -4.046  19.880 -11.122  1.00  0.00     0.006 C 
BRANCH   6   7
ATOM      7  C   UNL     1      -5.573  19.741 -11.121  1.00  0.00     0.053 C 
BRANCH   7   8
ATOM      8  C   UNL     1      -6.201  20.857 -11.894  1.00  0.00     0.041 C 
ATOM      9  O   UNL     1      -6.059  22.049 -11.514  1.00  0.00    -0.550 OA
ATOM     10  O   UNL     1      -6.899  20.586 -13.063  1.00  0.00    -0.550 OA
ENDBRANCH   7   8
ENDBRANCH   6   7
ENDBRANCH   5   6
ENDBRANCH   4   5
ENDBRANCH   3   4
ENDBRANCH   2   3
ENDBRANCH   1   2
BRANCH   1  11
ATOM     11  C   UNL     1      -6.589  16.522 -10.008  1.00  0.00     0.000 C 
BRANCH  11  12
ATOM     12  C   UNL     1      -7.992  15.954  -9.726  1.00  0.00    -0.000 C 
BRANCH  12  13
ATOM     13  C   UNL     1      -8.578  16.448  -8.392  1.00  0.00    -0.000 C 
BRANCH  13  14
ATOM     14  C   UNL     1     -10.065  16.088  -8.223  1.00  0.00    -0.000 C 
BRANCH  14  15
ATOM     15  C   UNL     1     -10.889  17.079  -7.376  1.00  0.00    -0.000 C 
BRANCH  15  16
ATOM     16  C   UNL     1     -11.507  16.490  -6.092  1.00  0.00    -0.000 C 
BRANCH  16  17
ATOM     17  C   UNL     1     -12.825  15.725  -6.302  1.00  0.00    -0.003 C 
ATOM     18  C   UNL     1     -12.998  14.559  -5.328  1.00  0.00     0.004 C 
ENDBRANCH  16  17
ENDBRANCH  15  16
ENDBRANCH  14  15
ENDBRANCH  13  14
ENDBRANCH  12  13
ENDBRANCH  11  12
ENDBRANCH   1  11
TORSDOF 14
ENDMDL
MODEL 8
REMARK VINA RESULT:     9.156      5.000      9.554
REMARK INTER + INTRA:          16.214
REMARK INTER:                  16.261
REMARK INTRA:                  -0.047
REMARK UNBOUND:                -0.435
REMARK SMILES CCCCCCCCCCCCCCCC(=O)[O-]
REMARK SMILES IDX 9 1 10 2 11 3 12 4 13 5 14 6 15 7 16 8 17 9 18 10 8 11 7 12
REMARK SMILES IDX 6 13 5 14 4 15 3 16 2 17 1 18
REMARK H PARENT
REMARK Flexibility Score: inf
ROOT
ATOM      1  C   UNL     1      -6.593  20.075 -11.326  1.00  0.00     0.000 C 
ENDROOT
BRANCH   1   2
ATOM      2  C   UNL     1      -5.518  18.999 -11.095  1.00  0.00     0.000 C 
BRANCH   2   3
ATOM      3  C   UNL     1      -4.187  19.582 -10.600  1.00  0.00     0.000 C 
BRANCH   3   4
ATOM      4  C   UNL     1      -2.999  18.757 -11.115  1.00  0.00     0.000 C 
BRANCH   4   5
ATOM      5  C   UNL     1      -3.017  17.301 -10.616  1.00  0.00     0.000 C 
BRANCH   5   6
ATOM      6  C   UNL     1      -4.376  16.588 -10.741  1.00  0.00     0.006 C 
BRANCH   6   7
ATOM      7  C   UNL     1      -4.245  15.118 -11.156  1.00  0.00     0.053 C 
BRANCH   7   8
ATOM      8  C   UNL     1      -3.506  14.343 -10.110  1.00  0.00     0.041 C 
ATOM      9  O   UNL     1      -4.065  14.063  -9.017  1.00  0.00    -0.550 OA
ATOM     10  O   UNL     1      -2.220  13.887 -10.362  1.00  0.00    -0.550 OA
ENDBRANCH   7   8
ENDBRANCH   6   7
ENDBRANCH   5   6
ENDBRANCH   4   5
ENDBRANCH   3   4
ENDBRANCH   2   3
ENDBRANCH   1   2
BRANCH   1  11
ATOM     11  C   UNL     1      -6.749  20.543 -12.787  1.00  0.00     0.000 C 
BRANCH  11  12
ATOM     12  C   UNL     1      -6.364  22.009 -13.055  1.00  0.00    -0.000 C 
BRANCH  12  13
ATOM     13  C   UNL     1      -5.976  22.767 -11.774  1.00  0.00    -0.000 C 
BRANCH  13  14
ATOM     14  C   UNL     1      -4.473  23.092 -11.703  1.00  0.00    -0.000 C 
BRANCH  14  15
ATOM     15  C   UNL     1      -4.131  24.584 -11.516  1.00  0.00    -0.000 C 
BRANCH  15  16
ATOM     16  C   UNL     1      -5.277  25.454 -10.962  1.00  0.00    -0.000 C 
BRANCH  16  17
ATOM     17  C   UNL     1      -4.919  26.936 -10.753  1.00  0.00    -0.003 C 
ATOM     18  C   UNL     1      -5.816  27.882 -11.552  1.00  0.00     0.004 C 
ENDBRANCH  16  17
ENDBRANCH  15  16
ENDBRANCH  14  15
ENDBRANCH  13  14
ENDBRANCH  12  13
ENDBRANCH  11  12
ENDBRANCH   1  11
TORSDOF 14
ENDMDL
MODEL 9
REMARK VINA RESULT:     9.160     12.799     15.465
REMARK INTER + INTRA:          16.221
REMARK INTER:                  16.885
REMARK INTRA:                  -0.664
REMARK UNBOUND:                -0.435
REMARK SMILES CCCCCCCCCCCCCCCC(=O)[O-]
REMARK SMILES IDX 9 1 10 2 11 3 12 4 13 5 14 6 15 7 16 8 17 9 18 10 8 11 7 12
REMARK SMILES IDX 6 13 5 14 4 15 3 16 2 17 1 18
REMARK H PARENT
REMARK Flexibility Score: inf
ROOT
ATOM      1  C   UNL     1     -14.629  29.174 -16.418  1.00  0.00     0.000 C 
ENDROOT
BRANCH   1   2
ATOM      2  C   UNL     1     -15.541  29.521 -17.609  1.00  0.00     0.000 C 
BRANCH   2   3
ATOM      3  C   UNL     1     -14.989  30.667 -18.469  1.00  0.00     0.000 C 
BRANCH   3   4
ATOM      4  C   UNL     1     -16.079  31.241 -19.384  1.00  0.00     0.000 C 
BRANCH   4   5
ATOM      5  C   UNL     1     -15.805  32.696 -19.806  1.00  0.00     0.000 C 
BRANCH   5   6
ATOM      6  C   UNL     1     -16.883  33.710 -19.381  1.00  0.00     0.006 C 
BRANCH   6   7
ATOM      7  C   UNL     1     -18.268  33.386 -19.953  1.00  0.00     0.053 C 
BRANCH   7   8
ATOM      8  C   UNL     1     -19.341  33.837 -19.013  1.00  0.00     0.041 C 
ATOM      9  O   UNL     1     -19.074  34.044 -17.799  1.00  0.00    -0.550 OA
ATOM     10  O   UNL     1     -20.624  34.078 -19.486  1.00  0.00    -0.550 OA
ENDBRANCH   7   8
ENDBRANCH   6   7
ENDBRANCH   5   6
ENDBRANCH   4   5
ENDBRANCH   3   4
ENDBRANCH   2   3
ENDBRANCH   1   2
BRANCH   1  11
ATOM     11  C   UNL     1     -13.996  27.769 -16.466  1.00  0.00     0.000 C 
BRANCH  11  12
ATOM     12  C   UNL     1     -12.457  27.740 -16.453  1.00  0.00    -0.000 C 
BRANCH  12  13
ATOM     13  C   UNL     1     -11.839  28.253 -17.766  1.00  0.00    -0.000 C 
BRANCH  13  14
ATOM     14  C   UNL     1     -12.749  28.020 -18.986  1.00  0.00    -0.000 C 
BRANCH  14  15
ATOM     15  C   UNL     1     -12.337  26.847 -19.898  1.00  0.00    -0.000 C 
BRANCH  15  16
ATOM     16  C   UNL     1     -12.407  25.452 -19.244  1.00  0.00    -0.000 C 
BRANCH  16  17
ATOM     17  C   UNL     1     -13.029  24.355 -20.125  1.00  0.00    -0.003 C 
ATOM     18  C   UNL     1     -13.973  23.435 -19.350  1.00  0.00     0.004 C 
ENDBRANCH  16  17
ENDBRANCH  15  16
ENDBRANCH  14  15
ENDBRANCH  13  14
ENDBRANCH  12  13
ENDBRANCH  11  12
ENDBRANCH   1  11
TORSDOF 14
ENDMDL
