MODEL 1
REMARK VINA RESULT:    48.878      0.000      0.000
REMARK INTER + INTRA:          58.235
REMARK INTER:                  57.451
REMARK INTRA:                   0.785
REMARK UNBOUND:                 0.785
REMARK SMILES C=C(C)[C@H]1CC[C@]2(CO)CC[C@]3(C)[C@H](CC[C@H]4[C@]5(C)CC[C@@H](O)C(C)(C)[C@H]5CC[C@]43C)[C@@H]12
REMARK SMILES IDX 4 1 5 2 6 3 7 4 32 5 14 6 15 7 16 8 17 9 18 10 20 11 21 12
REMARK SMILES IDX 22 13 24 14 27 15 28 16 29 17 30 18 12 19 11 20 10 21 13 22
REMARK SMILES IDX 31 23 25 24 26 25 19 26 2 27 3 28 1 29 8 30 9 31 23 33
REMARK H PARENT 9 32 23 34
REMARK Flexibility Score: inf
ROOT
ATOM      1  C   UNL     1      14.219  -5.685  11.963  1.00  0.00     0.018 C 
ATOM      2  C   UNL     1      14.460  -4.156  11.880  1.00  0.00     0.009 C 
ATOM      3  C   UNL     1      15.872  -3.875  12.441  1.00  0.00     0.010 C 
ATOM      4  C   UNL     1      16.236  -5.105  13.292  1.00  0.00    -0.003 C 
ATOM      5  C   UNL     1      15.570  -6.230  12.487  1.00  0.00     0.008 C 
ATOM      6  C   UNL     1      15.796  -7.668  13.041  1.00  0.00    -0.000 C 
ATOM      7  C   UNL     1      15.094  -8.709  12.156  1.00  0.00     0.005 C 
ATOM      8  C   UNL     1      15.594 -10.155  12.325  1.00  0.00     0.005 C 
ATOM      9  C   UNL     1      16.388 -10.482  13.635  1.00  0.00     0.002 C 
ATOM     10  C   UNL     1      16.940 -11.992  13.621  1.00  0.00    -0.026 C 
ATOM     11  C   UNL     1      15.719 -12.958  13.775  1.00  0.00     0.010 C 
ATOM     12  C   UNL     1      16.115 -14.416  14.014  1.00  0.00     0.033 C 
ATOM     13  C   UNL     1      16.938 -14.562  15.301  1.00  0.00     0.120 C 
ATOM     14  C   UNL     1      18.250 -13.712  15.267  1.00  0.00    -0.006 C 
ATOM     15  C   UNL     1      17.885 -12.217  14.859  1.00  0.00     0.003 C 
ATOM     16  C   UNL     1      19.082 -11.226  14.912  1.00  0.00     0.005 C 
ATOM     17  C   UNL     1      18.885  -9.928  14.110  1.00  0.00     0.008 C 
ATOM     18  C   UNL     1      17.430  -9.361  14.130  1.00  0.00    -0.024 C 
ATOM     19  C   UNL     1      17.331  -8.002  13.253  1.00  0.00    -0.024 C 
ATOM     20  C   UNL     1      18.039  -6.778  13.971  1.00  0.00     0.008 C 
ATOM     21  C   UNL     1      17.758  -5.398  13.330  1.00  0.00     0.010 C 
ATOM     22  C   UNL     1      18.080  -8.170  11.882  1.00  0.00     0.012 C 
ATOM     23  C   UNL     1      17.123  -9.035  15.642  1.00  0.00     0.012 C 
ATOM     24  C   UNL     1      18.840 -13.693  16.707  1.00  0.00     0.014 C 
ATOM     25  C   UNL     1      19.308 -14.415  14.359  1.00  0.00     0.014 C 
ATOM     26  C   UNL     1      17.656 -12.310  12.271  1.00  0.00     0.012 C 
ENDROOT
BRANCH   1  27
ATOM     27  C   UNL     1      12.882  -6.014  12.645  1.00  0.00    -0.077 C 
ATOM     28  C   UNL     1      11.923  -5.011  13.235  1.00  0.00     0.039 C 
ATOM     29  C   UNL     1      12.534  -7.308  12.746  1.00  0.00     0.008 C 
ENDBRANCH   1  27
BRANCH   4  30
ATOM     30  C   UNL     1      15.713  -4.910  14.757  1.00  0.00     0.163 C 
BRANCH  30  31
ATOM     31  O   UNL     1      14.708  -5.829  15.094  1.00  0.00    -0.396 OA
ATOM     32  H   UNL     1      13.849  -5.422  14.810  1.00  0.00     0.210 HD
ENDBRANCH  30  31
ENDBRANCH   4  30
BRANCH  13  33
ATOM     33  O   UNL     1      17.218 -15.929  15.494  1.00  0.00    -0.393 OA
ATOM     34  H   UNL     1      17.016 -16.140  16.446  1.00  0.00     0.210 HD
ENDBRANCH  13  33
TORSDOF 4
ENDMDL
