MODEL 1
REMARK VINA RESULT:    -2.575      0.000      0.000
REMARK INTER + INTRA:          -5.335
REMARK INTER:                  -4.683
REMARK INTRA:                  -0.652
REMARK UNBOUND:                -0.652
REMARK SMILES CCCCCC=CCC=CCCCCCCCC(=O)[O-]
REMARK SMILES IDX 11 1 12 2 13 3 14 4 15 5 16 6 17 7 18 8 19 9 20 10 10 11
REMARK SMILES IDX 9 12 8 13 7 14 6 15 5 16 4 17 3 18 2 19 1 20
REMARK H PARENT
REMARK Flexibility Score: inf
ROOT
ATOM      1  C   UNL     1      -9.111  15.579 -12.462  1.00  0.00     0.027 C 
ENDROOT
BRANCH   1   2
ATOM      2  C   UNL     1      -9.515  16.661 -13.473  1.00  0.00     0.004 C 
BRANCH   2   3
ATOM      3  C   UNL     1      -8.312  17.451 -14.019  1.00  0.00     0.000 C 
BRANCH   3   4
ATOM      4  C   UNL     1      -8.345  17.724 -15.536  1.00  0.00     0.000 C 
BRANCH   4   5
ATOM      5  C   UNL     1      -8.264  19.210 -15.935  1.00  0.00     0.000 C 
BRANCH   5   6
ATOM      6  C   UNL     1      -6.824  19.742 -15.968  1.00  0.00     0.006 C 
BRANCH   6   7
ATOM      7  C   UNL     1      -6.128  19.527 -14.619  1.00  0.00     0.053 C 
BRANCH   7   8
ATOM      8  C   UNL     1      -6.650  20.491 -13.600  1.00  0.00     0.041 C 
ATOM      9  O   UNL     1      -7.737  21.096 -13.798  1.00  0.00    -0.550 OA
ATOM     10  O   UNL     1      -5.957  20.688 -12.411  1.00  0.00    -0.550 OA
ENDBRANCH   7   8
ENDBRANCH   6   7
ENDBRANCH   5   6
ENDBRANCH   4   5
ENDBRANCH   3   4
ENDBRANCH   2   3
ENDBRANCH   1   2
BRANCH   1  11
ATOM     11  C   UNL     1      -7.699  15.131 -12.721  1.00  0.00    -0.031 C 
ATOM     12  C   UNL     1      -7.377  13.831 -12.807  1.00  0.00    -0.027 C 
BRANCH  12  13
ATOM     13  C   UNL     1      -5.978  13.391 -13.131  1.00  0.00     0.054 C 
BRANCH  13  14
ATOM     14  C   UNL     1      -5.986  12.308 -14.181  1.00  0.00    -0.027 C 
ATOM     15  C   UNL     1      -6.385  12.501 -15.452  1.00  0.00    -0.031 C 
BRANCH  15  16
ATOM     16  C   UNL     1      -6.846  13.825 -16.015  1.00  0.00     0.027 C 
BRANCH  16  17
ATOM     17  C   UNL     1      -8.379  13.925 -16.121  1.00  0.00     0.004 C 
BRANCH  17  18
ATOM     18  C   UNL     1      -9.116  12.577 -16.019  1.00  0.00     0.000 C 
BRANCH  18  19
ATOM     19  C   UNL     1     -10.639  12.738 -15.903  1.00  0.00    -0.003 C 
ATOM     20  C   UNL     1     -11.347  11.400 -16.097  1.00  0.00     0.004 C 
ENDBRANCH  18  19
ENDBRANCH  17  18
ENDBRANCH  16  17
ENDBRANCH  15  16
ENDBRANCH  13  14
ENDBRANCH  12  13
ENDBRANCH   1  11
TORSDOF 14
ENDMDL
MODEL 2
REMARK VINA RESULT:    -2.490      3.077      6.838
REMARK INTER + INTRA:          -5.179
REMARK INTER:                  -5.161
REMARK INTRA:                  -0.018
REMARK UNBOUND:                -0.652
REMARK SMILES CCCCCC=CCC=CCCCCCCCC(=O)[O-]
REMARK SMILES IDX 11 1 12 2 13 3 14 4 15 5 16 6 17 7 18 8 19 9 20 10 10 11
REMARK SMILES IDX 9 12 8 13 7 14 6 15 5 16 4 17 3 18 2 19 1 20
REMARK H PARENT
REMARK Flexibility Score: inf
ROOT
ATOM      1  C   UNL     1      -9.147  16.466 -12.538  1.00  0.00     0.027 C 
ENDROOT
BRANCH   1   2
ATOM      2  C   UNL     1      -8.544  16.188 -13.921  1.00  0.00     0.004 C 
BRANCH   2   3
ATOM      3  C   UNL     1      -7.075  15.734 -13.855  1.00  0.00     0.000 C 
BRANCH   3   4
ATOM      4  C   UNL     1      -6.584  14.931 -15.077  1.00  0.00     0.000 C 
BRANCH   4   5
ATOM      5  C   UNL     1      -6.057  13.519 -14.762  1.00  0.00     0.000 C 
BRANCH   5   6
ATOM      6  C   UNL     1      -7.005  12.408 -15.237  1.00  0.00     0.006 C 
BRANCH   6   7
ATOM      7  C   UNL     1      -8.360  12.502 -14.526  1.00  0.00     0.053 C 
BRANCH   7   8
ATOM      8  C   UNL     1      -9.454  12.754 -15.515  1.00  0.00     0.041 C 
ATOM      9  O   UNL     1      -9.679  13.923 -15.929  1.00  0.00    -0.550 OA
ATOM     10  O   UNL     1     -10.199  11.691 -16.013  1.00  0.00    -0.550 OA
ENDBRANCH   7   8
ENDBRANCH   6   7
ENDBRANCH   5   6
ENDBRANCH   4   5
ENDBRANCH   3   4
ENDBRANCH   2   3
ENDBRANCH   1   2
BRANCH   1  11
ATOM     11  C   UNL     1      -9.077  17.937 -12.230  1.00  0.00    -0.031 C 
ATOM     12  C   UNL     1      -8.379  18.785 -13.000  1.00  0.00    -0.027 C 
BRANCH  12  13
ATOM     13  C   UNL     1      -8.366  20.262 -12.725  1.00  0.00     0.054 C 
BRANCH  13  14
ATOM     14  C   UNL     1      -6.953  20.768 -12.576  1.00  0.00    -0.027 C 
ATOM     15  C   UNL     1      -5.906  20.278 -13.265  1.00  0.00    -0.031 C 
BRANCH  15  16
ATOM     16  C   UNL     1      -5.997  19.183 -14.301  1.00  0.00     0.027 C 
BRANCH  16  17
ATOM     17  C   UNL     1      -6.206  19.728 -15.726  1.00  0.00     0.004 C 
BRANCH  17  18
ATOM     18  C   UNL     1      -6.851  21.125 -15.787  1.00  0.00     0.000 C 
BRANCH  18  19
ATOM     19  C   UNL     1      -8.383  21.069 -15.886  1.00  0.00    -0.003 C 
ATOM     20  C   UNL     1      -8.864  19.639 -16.122  1.00  0.00     0.004 C 
ENDBRANCH  18  19
ENDBRANCH  17  18
ENDBRANCH  16  17
ENDBRANCH  15  16
ENDBRANCH  13  14
ENDBRANCH  12  13
ENDBRANCH   1  11
TORSDOF 14
ENDMDL
MODEL 3
REMARK VINA RESULT:    -2.268      1.640      2.342
REMARK INTER + INTRA:          -4.776
REMARK INTER:                  -4.746
REMARK INTRA:                  -0.031
REMARK UNBOUND:                -0.652
REMARK SMILES CCCCCC=CCC=CCCCCCCCC(=O)[O-]
REMARK SMILES IDX 11 1 12 2 13 3 14 4 15 5 16 6 17 7 18 8 19 9 20 10 10 11
REMARK SMILES IDX 9 12 8 13 7 14 6 15 5 16 4 17 3 18 2 19 1 20
REMARK H PARENT
REMARK Flexibility Score: inf
ROOT
ATOM      1  C   UNL     1      -9.509  16.641 -12.343  1.00  0.00     0.027 C 
ENDROOT
BRANCH   1   2
ATOM      2  C   UNL     1      -9.427  18.158 -12.554  1.00  0.00     0.004 C 
BRANCH   2   3
ATOM      3  C   UNL     1      -8.000  18.643 -12.870  1.00  0.00     0.000 C 
BRANCH   3   4
ATOM      4  C   UNL     1      -7.873  20.154 -13.154  1.00  0.00     0.000 C 
BRANCH   4   5
ATOM      5  C   UNL     1      -6.429  20.672 -13.297  1.00  0.00     0.000 C 
BRANCH   5   6
ATOM      6  C   UNL     1      -5.960  20.738 -14.758  1.00  0.00     0.006 C 
BRANCH   6   7
ATOM      7  C   UNL     1      -7.100  20.374 -15.717  1.00  0.00     0.053 C 
BRANCH   7   8
ATOM      8  C   UNL     1      -7.107  18.902 -15.989  1.00  0.00     0.041 C 
ATOM      9  O   UNL     1      -6.022  18.277 -16.124  1.00  0.00    -0.550 OA
ATOM     10  O   UNL     1      -8.313  18.213 -16.049  1.00  0.00    -0.550 OA
ENDBRANCH   7   8
ENDBRANCH   6   7
ENDBRANCH   5   6
ENDBRANCH   4   5
ENDBRANCH   3   4
ENDBRANCH   2   3
ENDBRANCH   1   2
BRANCH   1  11
ATOM     11  C   UNL     1      -8.201  15.996 -12.711  1.00  0.00    -0.031 C 
ATOM     12  C   UNL     1      -7.947  15.583 -13.963  1.00  0.00    -0.027 C 
BRANCH  12  13
ATOM     13  C   UNL     1      -6.614  15.000 -14.339  1.00  0.00     0.054 C 
BRANCH  13  14
ATOM     14  C   UNL     1      -6.289  13.804 -13.479  1.00  0.00    -0.027 C 
ATOM     15  C   UNL     1      -6.114  12.561 -13.963  1.00  0.00    -0.031 C 
BRANCH  15  16
ATOM     16  C   UNL     1      -6.184  12.191 -15.426  1.00  0.00     0.027 C 
BRANCH  16  17
ATOM     17  C   UNL     1      -7.437  12.752 -16.122  1.00  0.00     0.004 C 
BRANCH  17  18
ATOM     18  C   UNL     1      -8.650  11.803 -16.118  1.00  0.00     0.000 C 
BRANCH  18  19
ATOM     19  C   UNL     1      -9.959  12.511 -15.738  1.00  0.00    -0.003 C 
ATOM     20  C   UNL     1     -11.170  11.667 -16.124  1.00  0.00     0.004 C 
ENDBRANCH  18  19
ENDBRANCH  17  18
ENDBRANCH  16  17
ENDBRANCH  15  16
ENDBRANCH  13  14
ENDBRANCH  12  13
ENDBRANCH   1  11
TORSDOF 14
ENDMDL
MODEL 4
REMARK VINA RESULT:    -1.333      2.019      3.601
REMARK INTER + INTRA:          -3.076
REMARK INTER:                  -3.906
REMARK INTRA:                   0.830
REMARK UNBOUND:                -0.652
REMARK SMILES CCCCCC=CCC=CCCCCCCCC(=O)[O-]
REMARK SMILES IDX 11 1 12 2 13 3 14 4 15 5 16 6 17 7 18 8 19 9 20 10 10 11
REMARK SMILES IDX 9 12 8 13 7 14 6 15 5 16 4 17 3 18 2 19 1 20
REMARK H PARENT
REMARK Flexibility Score: inf
ROOT
ATOM      1  C   UNL     1      -6.076  17.573 -14.681  1.00  0.00     0.027 C 
ENDROOT
BRANCH   1   2
ATOM      2  C   UNL     1      -5.968  18.885 -15.469  1.00  0.00     0.004 C 
BRANCH   2   3
ATOM      3  C   UNL     1      -7.339  19.464 -15.861  1.00  0.00     0.000 C 
BRANCH   3   4
ATOM      4  C   UNL     1      -7.586  20.919 -15.412  1.00  0.00     0.000 C 
BRANCH   4   5
ATOM      5  C   UNL     1      -8.038  21.083 -13.949  1.00  0.00     0.000 C 
BRANCH   5   6
ATOM      6  C   UNL     1      -7.983  19.768 -13.156  1.00  0.00     0.006 C 
BRANCH   6   7
ATOM      7  C   UNL     1      -9.349  19.072 -13.153  1.00  0.00     0.053 C 
BRANCH   7   8
ATOM      8  C   UNL     1      -9.224  17.674 -12.634  1.00  0.00     0.041 C 
ATOM      9  O   UNL     1      -8.222  17.339 -11.947  1.00  0.00    -0.550 OA
ATOM     10  O   UNL     1     -10.237  16.752 -12.871  1.00  0.00    -0.550 OA
ENDBRANCH   7   8
ENDBRANCH   6   7
ENDBRANCH   5   6
ENDBRANCH   4   5
ENDBRANCH   3   4
ENDBRANCH   2   3
ENDBRANCH   1   2
BRANCH   1  11
ATOM     11  C   UNL     1      -6.077  16.401 -15.623  1.00  0.00    -0.031 C 
ATOM     12  C   UNL     1      -5.876  15.148 -15.189  1.00  0.00    -0.027 C 
BRANCH  12  13
ATOM     13  C   UNL     1      -5.943  13.975 -16.125  1.00  0.00     0.054 C 
BRANCH  13  14
ATOM     14  C   UNL     1      -5.978  12.677 -15.357  1.00  0.00    -0.027 C 
ATOM     15  C   UNL     1      -7.092  11.946 -15.173  1.00  0.00    -0.031 C 
BRANCH  15  16
ATOM     16  C   UNL     1      -8.452  12.297 -15.730  1.00  0.00     0.027 C 
BRANCH  16  17
ATOM     17  C   UNL     1      -8.886  13.733 -15.378  1.00  0.00     0.004 C 
BRANCH  17  18
ATOM     18  C   UNL     1      -9.132  13.976 -13.878  1.00  0.00     0.000 C 
BRANCH  18  19
ATOM     19  C   UNL     1      -7.829  14.098 -13.073  1.00  0.00    -0.003 C 
ATOM     20  C   UNL     1      -8.119  14.385 -11.603  1.00  0.00     0.004 C 
ENDBRANCH  18  19
ENDBRANCH  17  18
ENDBRANCH  16  17
ENDBRANCH  15  16
ENDBRANCH  13  14
ENDBRANCH  12  13
ENDBRANCH   1  11
TORSDOF 14
ENDMDL
