MODEL 1
REMARK VINA RESULT:    -3.130      0.000      0.000
REMARK INTER + INTRA:          -3.728
REMARK INTER:                  -3.679
REMARK INTRA:                  -0.049
REMARK UNBOUND:                -0.049
REMARK SMILES CCCCC(=O)[O-]
REMARK SMILES IDX 4 1 5 2 6 3 7 4 3 5 2 6 1 7
REMARK H PARENT
REMARK Flexibility Score: inf
ROOT
ATOM      1  C   UNL     1       4.457   6.402  -1.870  1.00  0.00     0.053 C 
ENDROOT
BRANCH   1   2
ATOM      2  C   UNL     1       5.525   6.405  -2.920  1.00  0.00     0.041 C 
ATOM      3  O   UNL     1       6.573   7.084  -2.756  1.00  0.00    -0.550 OA
ATOM      4  O   UNL     1       5.349   5.684  -4.095  1.00  0.00    -0.550 OA
ENDBRANCH   1   2
BRANCH   1   5
ATOM      5  C   UNL     1       3.067   6.656  -2.470  1.00  0.00     0.006 C 
BRANCH   5   6
ATOM      6  C   UNL     1       2.092   5.503  -2.184  1.00  0.00    -0.003 C 
ATOM      7  C   UNL     1       1.863   5.336  -0.686  1.00  0.00     0.004 C 
ENDBRANCH   5   6
ENDBRANCH   1   5
TORSDOF 3
ENDMDL
MODEL 2
REMARK VINA RESULT:    -3.113     14.007     15.340
REMARK INTER + INTRA:          -3.708
REMARK INTER:                  -3.609
REMARK INTRA:                  -0.099
REMARK UNBOUND:                -0.049
REMARK SMILES CCCCC(=O)[O-]
REMARK SMILES IDX 4 1 5 2 6 3 7 4 3 5 2 6 1 7
REMARK H PARENT
REMARK Flexibility Score: inf
ROOT
ATOM      1  C   UNL     1      -5.295  -5.206  -2.003  1.00  0.00     0.053 C 
ENDROOT
BRANCH   1   2
ATOM      2  C   UNL     1      -5.911  -5.979  -3.129  1.00  0.00     0.041 C 
ATOM      3  O   UNL     1      -6.526  -7.054  -2.897  1.00  0.00    -0.550 OA
ATOM      4  O   UNL     1      -5.778  -5.531  -4.437  1.00  0.00    -0.550 OA
ENDBRANCH   1   2
BRANCH   1   5
ATOM      5  C   UNL     1      -4.121  -5.963  -1.367  1.00  0.00     0.006 C 
BRANCH   5   6
ATOM      6  C   UNL     1      -3.070  -6.383  -2.405  1.00  0.00    -0.003 C 
ATOM      7  C   UNL     1      -1.974  -5.330  -2.535  1.00  0.00     0.004 C 
ENDBRANCH   5   6
ENDBRANCH   1   5
TORSDOF 3
ENDMDL
MODEL 3
REMARK VINA RESULT:    -3.103      0.194      1.239
REMARK INTER + INTRA:          -3.696
REMARK INTER:                  -3.644
REMARK INTRA:                  -0.052
REMARK UNBOUND:                -0.049
REMARK SMILES CCCCC(=O)[O-]
REMARK SMILES IDX 4 1 5 2 6 3 7 4 3 5 2 6 1 7
REMARK H PARENT
REMARK Flexibility Score: inf
ROOT
ATOM      1  C   UNL     1       4.440   6.311  -1.874  1.00  0.00     0.053 C 
ENDROOT
BRANCH   1   2
ATOM      2  C   UNL     1       5.471   6.359  -2.960  1.00  0.00     0.041 C 
ATOM      3  O   UNL     1       5.318   5.678  -4.008  1.00  0.00    -0.550 OA
ATOM      4  O   UNL     1       6.616   7.129  -2.800  1.00  0.00    -0.550 OA
ENDBRANCH   1   2
BRANCH   1   5
ATOM      5  C   UNL     1       3.042   6.671  -2.398  1.00  0.00     0.006 C 
BRANCH   5   6
ATOM      6  C   UNL     1       2.093   5.463  -2.396  1.00  0.00    -0.003 C 
ATOM      7  C   UNL     1       1.633   5.129  -0.980  1.00  0.00     0.004 C 
ENDBRANCH   5   6
ENDBRANCH   1   5
TORSDOF 3
ENDMDL
MODEL 4
REMARK VINA RESULT:    -3.095     13.750     15.092
REMARK INTER + INTRA:          -3.688
REMARK INTER:                  -3.546
REMARK INTRA:                  -0.141
REMARK UNBOUND:                -0.049
REMARK SMILES CCCCC(=O)[O-]
REMARK SMILES IDX 4 1 5 2 6 3 7 4 3 5 2 6 1 7
REMARK H PARENT
REMARK Flexibility Score: inf
ROOT
ATOM      1  C   UNL     1      -5.727  -6.405  -2.691  1.00  0.00     0.053 C 
ENDROOT
BRANCH   1   2
ATOM      2  C   UNL     1      -5.673  -5.259  -3.656  1.00  0.00     0.041 C 
ATOM      3  O   UNL     1      -5.740  -5.472  -4.896  1.00  0.00    -0.550 OA
ATOM      4  O   UNL     1      -5.515  -3.961  -3.188  1.00  0.00    -0.550 OA
ENDBRANCH   1   2
BRANCH   1   5
ATOM      5  C   UNL     1      -4.506  -6.425  -1.762  1.00  0.00     0.006 C 
BRANCH   5   6
ATOM      6  C   UNL     1      -3.189  -6.576  -2.537  1.00  0.00    -0.003 C 
ATOM      7  C   UNL     1      -2.218  -5.450  -2.196  1.00  0.00     0.004 C 
ENDBRANCH   5   6
ENDBRANCH   1   5
TORSDOF 3
ENDMDL
MODEL 5
REMARK VINA RESULT:    -3.090     15.582     16.287
REMARK INTER + INTRA:          -3.682
REMARK INTER:                  -3.661
REMARK INTRA:                  -0.020
REMARK UNBOUND:                -0.049
REMARK SMILES CCCCC(=O)[O-]
REMARK SMILES IDX 4 1 5 2 6 3 7 4 3 5 2 6 1 7
REMARK H PARENT
REMARK Flexibility Score: inf
ROOT
ATOM      1  C   UNL     1      -6.649  -5.246  -2.509  1.00  0.00     0.053 C 
ENDROOT
BRANCH   1   2
ATOM      2  C   UNL     1      -7.776  -5.248  -3.496  1.00  0.00     0.041 C 
ATOM      3  O   UNL     1      -7.690  -5.925  -4.554  1.00  0.00    -0.550 OA
ATOM      4  O   UNL     1      -8.908  -4.478  -3.263  1.00  0.00    -0.550 OA
ENDBRANCH   1   2
BRANCH   1   5
ATOM      5  C   UNL     1      -5.676  -6.408  -2.752  1.00  0.00     0.006 C 
BRANCH   5   6
ATOM      6  C   UNL     1      -4.497  -6.393  -1.768  1.00  0.00    -0.003 C 
ATOM      7  C   UNL     1      -3.166  -6.511  -2.504  1.00  0.00     0.004 C 
ENDBRANCH   5   6
ENDBRANCH   1   5
TORSDOF 3
ENDMDL
MODEL 6
REMARK VINA RESULT:    -3.086      1.900      2.726
REMARK INTER + INTRA:          -3.677
REMARK INTER:                  -3.657
REMARK INTRA:                  -0.020
REMARK UNBOUND:                -0.049
REMARK SMILES CCCCC(=O)[O-]
REMARK SMILES IDX 4 1 5 2 6 3 7 4 3 5 2 6 1 7
REMARK H PARENT
REMARK Flexibility Score: inf
ROOT
ATOM      1  C   UNL     1       6.563   5.328  -2.458  1.00  0.00     0.053 C 
ENDROOT
BRANCH   1   2
ATOM      2  C   UNL     1       7.752   5.385  -3.369  1.00  0.00     0.041 C 
ATOM      3  O   UNL     1       7.691   6.025  -4.451  1.00  0.00    -0.550 OA
ATOM      4  O   UNL     1       8.916   4.703  -3.037  1.00  0.00    -0.550 OA
ENDBRANCH   1   2
BRANCH   1   5
ATOM      5  C   UNL     1       5.633   6.533  -2.660  1.00  0.00     0.006 C 
BRANCH   5   6
ATOM      6  C   UNL     1       4.434   6.508  -1.701  1.00  0.00    -0.003 C 
ATOM      7  C   UNL     1       3.119   6.651  -2.461  1.00  0.00     0.004 C 
ENDBRANCH   5   6
ENDBRANCH   1   5
TORSDOF 3
ENDMDL
MODEL 7
REMARK VINA RESULT:    -2.950     15.546     16.165
REMARK INTER + INTRA:          -3.517
REMARK INTER:                  -3.500
REMARK INTRA:                  -0.017
REMARK UNBOUND:                -0.049
REMARK SMILES CCCCC(=O)[O-]
REMARK SMILES IDX 4 1 5 2 6 3 7 4 3 5 2 6 1 7
REMARK H PARENT
REMARK Flexibility Score: inf
ROOT
ATOM      1  C   UNL     1      -4.337  -3.458   6.039  1.00  0.00     0.053 C 
ENDROOT
BRANCH   1   2
ATOM      2  C   UNL     1      -5.690  -3.418   6.681  1.00  0.00     0.041 C 
ATOM      3  O   UNL     1      -6.500  -2.498   6.395  1.00  0.00    -0.550 OA
ATOM      4  O   UNL     1      -6.044  -4.380   7.619  1.00  0.00    -0.550 OA
ENDBRANCH   1   2
BRANCH   1   5
ATOM      5  C   UNL     1      -4.362  -4.212   4.702  1.00  0.00     0.006 C 
BRANCH   5   6
ATOM      6  C   UNL     1      -3.024  -4.903   4.400  1.00  0.00    -0.003 C 
ATOM      7  C   UNL     1      -3.092  -5.685   3.092  1.00  0.00     0.004 C 
ENDBRANCH   5   6
ENDBRANCH   1   5
TORSDOF 3
ENDMDL
MODEL 8
REMARK VINA RESULT:    -2.859     13.150     14.313
REMARK INTER + INTRA:          -3.410
REMARK INTER:                  -3.317
REMARK INTRA:                  -0.093
REMARK UNBOUND:                -0.049
REMARK SMILES CCCCC(=O)[O-]
REMARK SMILES IDX 4 1 5 2 6 3 7 4 3 5 2 6 1 7
REMARK H PARENT
REMARK Flexibility Score: inf
ROOT
ATOM      1  C   UNL     1      -3.148  -6.401  -2.583  1.00  0.00     0.053 C 
ENDROOT
BRANCH   1   2
ATOM      2  C   UNL     1      -2.303  -5.452  -1.790  1.00  0.00     0.041 C 
ATOM      3  O   UNL     1      -1.240  -4.988  -2.282  1.00  0.00    -0.550 OA
ATOM      4  O   UNL     1      -2.671  -5.106  -0.496  1.00  0.00    -0.550 OA
ENDBRANCH   1   2
BRANCH   1   5
ATOM      5  C   UNL     1      -4.455  -6.745  -1.855  1.00  0.00     0.006 C 
BRANCH   5   6
ATOM      6  C   UNL     1      -5.694  -6.289  -2.640  1.00  0.00    -0.003 C 
ATOM      7  C   UNL     1      -6.153  -4.906  -2.188  1.00  0.00     0.004 C 
ENDBRANCH   5   6
ENDBRANCH   1   5
TORSDOF 3
ENDMDL
MODEL 9
REMARK VINA RESULT:    -2.859      2.261      3.645
REMARK INTER + INTRA:          -3.409
REMARK INTER:                  -3.307
REMARK INTRA:                  -0.103
REMARK UNBOUND:                -0.049
REMARK SMILES CCCCC(=O)[O-]
REMARK SMILES IDX 4 1 5 2 6 3 7 4 3 5 2 6 1 7
REMARK H PARENT
REMARK Flexibility Score: inf
ROOT
ATOM      1  C   UNL     1       3.099   6.641  -2.454  1.00  0.00     0.053 C 
ENDROOT
BRANCH   1   2
ATOM      2  C   UNL     1       2.397   5.324  -2.329  1.00  0.00     0.041 C 
ATOM      3  O   UNL     1       1.510   5.160  -1.450  1.00  0.00    -0.550 OA
ATOM      4  O   UNL     1       2.744   4.267  -3.161  1.00  0.00    -0.550 OA
ENDBRANCH   1   2
BRANCH   1   5
ATOM      5  C   UNL     1       4.425   6.656  -1.679  1.00  0.00     0.006 C 
BRANCH   5   6
ATOM      6  C   UNL     1       5.636   6.428  -2.596  1.00  0.00    -0.003 C 
ATOM      7  C   UNL     1       6.367   5.141  -2.231  1.00  0.00     0.004 C 
ENDBRANCH   5   6
ENDBRANCH   1   5
TORSDOF 3
ENDMDL
