MODEL 1
REMARK VINA RESULT:    -3.081      0.000      0.000
REMARK INTER + INTRA:          -5.975
REMARK INTER:                  -4.703
REMARK INTRA:                  -1.272
REMARK UNBOUND:                -1.272
REMARK SMILES CCCCCCCCCCC(=O)[O-]
REMARK SMILES IDX 7 1 8 2 9 3 10 4 11 5 12 6 13 7 6 8 5 9 4 10 3 11 2 12 1 13
REMARK H PARENT
REMARK Flexibility Score: inf
ROOT
ATOM      1  C   UNL     1      27.117  -4.468 -28.862  1.00  0.00     0.000 C 
ENDROOT
BRANCH   1   2
ATOM      2  C   UNL     1      26.657  -4.744 -30.298  1.00  0.00     0.000 C 
BRANCH   2   3
ATOM      3  C   UNL     1      25.191  -4.342 -30.494  1.00  0.00     0.006 C 
BRANCH   3   4
ATOM      4  C   UNL     1      24.467  -5.333 -31.410  1.00  0.00     0.053 C 
BRANCH   4   5
ATOM      5  C   UNL     1      24.439  -4.822 -32.816  1.00  0.00     0.041 C 
ATOM      6  O   UNL     1      23.419  -4.228 -33.254  1.00  0.00    -0.550 OA
ATOM      7  O   UNL     1      25.521  -5.045 -33.658  1.00  0.00    -0.550 OA
ENDBRANCH   4   5
ENDBRANCH   3   4
ENDBRANCH   2   3
ENDBRANCH   1   2
BRANCH   1   8
ATOM      8  C   UNL     1      27.891  -5.663 -28.291  1.00  0.00     0.000 C 
BRANCH   8   9
ATOM      9  C   UNL     1      27.775  -6.885 -29.213  1.00  0.00    -0.000 C 
BRANCH   9  10
ATOM     10  C   UNL     1      26.948  -8.021 -28.590  1.00  0.00    -0.000 C 
BRANCH  10  11
ATOM     11  C   UNL     1      25.451  -7.912 -28.916  1.00  0.00    -0.000 C 
BRANCH  11  12
ATOM     12  C   UNL     1      24.622  -7.745 -27.637  1.00  0.00    -0.003 C 
ATOM     13  C   UNL     1      24.052  -6.333 -27.530  1.00  0.00     0.004 C 
ENDBRANCH  11  12
ENDBRANCH  10  11
ENDBRANCH   9  10
ENDBRANCH   8   9
ENDBRANCH   1   8
TORSDOF 9
ENDMDL
MODEL 2
REMARK VINA RESULT:    -2.981      1.161      1.602
REMARK INTER + INTRA:          -5.821
REMARK INTER:                  -4.662
REMARK INTRA:                  -1.159
REMARK UNBOUND:                -1.272
REMARK SMILES CCCCCCCCCCC(=O)[O-]
REMARK SMILES IDX 7 1 8 2 9 3 10 4 11 5 12 6 13 7 6 8 5 9 4 10 3 11 2 12 1 13
REMARK H PARENT
REMARK Flexibility Score: inf
ROOT
ATOM      1  C   UNL     1      27.815  -5.299 -28.873  1.00  0.00     0.000 C 
ENDROOT
BRANCH   1   2
ATOM      2  C   UNL     1      27.067  -4.677 -30.058  1.00  0.00     0.000 C 
BRANCH   2   3
ATOM      3  C   UNL     1      25.751  -4.037 -29.606  1.00  0.00     0.006 C 
BRANCH   3   4
ATOM      4  C   UNL     1      24.818  -3.796 -30.796  1.00  0.00     0.053 C 
BRANCH   4   5
ATOM      5  C   UNL     1      24.318  -5.097 -31.341  1.00  0.00     0.041 C 
ATOM      6  O   UNL     1      24.616  -5.448 -32.513  1.00  0.00    -0.550 OA
ATOM      7  O   UNL     1      23.485  -5.898 -30.571  1.00  0.00    -0.550 OA
ENDBRANCH   4   5
ENDBRANCH   3   4
ENDBRANCH   2   3
ENDBRANCH   1   2
BRANCH   1   8
ATOM      8  C   UNL     1      28.174  -6.763 -29.153  1.00  0.00     0.000 C 
BRANCH   8   9
ATOM      9  C   UNL     1      27.267  -7.714 -28.358  1.00  0.00    -0.000 C 
BRANCH   9  10
ATOM     10  C   UNL     1      25.946  -8.018 -29.084  1.00  0.00    -0.000 C 
BRANCH  10  11
ATOM     11  C   UNL     1      24.728  -7.947 -28.150  1.00  0.00    -0.000 C 
BRANCH  11  12
ATOM     12  C   UNL     1      24.968  -6.949 -27.011  1.00  0.00    -0.003 C 
ATOM     13  C   UNL     1      23.857  -5.906 -26.949  1.00  0.00     0.004 C 
ENDBRANCH  11  12
ENDBRANCH  10  11
ENDBRANCH   9  10
ENDBRANCH   8   9
ENDBRANCH   1   8
TORSDOF 9
ENDMDL
MODEL 3
REMARK VINA RESULT:    -2.943      1.112      2.607
REMARK INTER + INTRA:          -5.764
REMARK INTER:                  -4.791
REMARK INTRA:                  -0.973
REMARK UNBOUND:                -1.272
REMARK SMILES CCCCCCCCCCC(=O)[O-]
REMARK SMILES IDX 7 1 8 2 9 3 10 4 11 5 12 6 13 7 6 8 5 9 4 10 3 11 2 12 1 13
REMARK H PARENT
REMARK Flexibility Score: inf
ROOT
ATOM      1  C   UNL     1      24.079  -4.837 -29.596  1.00  0.00     0.000 C 
ENDROOT
BRANCH   1   2
ATOM      2  C   UNL     1      25.497  -4.515 -30.081  1.00  0.00     0.000 C 
BRANCH   2   3
ATOM      3  C   UNL     1      25.640  -4.785 -31.583  1.00  0.00     0.006 C 
BRANCH   3   4
ATOM      4  C   UNL     1      24.277  -5.060 -32.225  1.00  0.00     0.053 C 
BRANCH   4   5
ATOM      5  C   UNL     1      23.960  -4.014 -33.248  1.00  0.00     0.041 C 
ATOM      6  O   UNL     1      24.543  -4.022 -34.363  1.00  0.00    -0.550 OA
ATOM      7  O   UNL     1      23.054  -3.004 -32.950  1.00  0.00    -0.550 OA
ENDBRANCH   4   5
ENDBRANCH   3   4
ENDBRANCH   2   3
ENDBRANCH   1   2
BRANCH   1   8
ATOM      8  C   UNL     1      24.112  -5.717 -28.340  1.00  0.00     0.000 C 
BRANCH   8   9
ATOM      9  C   UNL     1      24.495  -7.162 -28.690  1.00  0.00    -0.000 C 
BRANCH   9  10
ATOM     10  C   UNL     1      25.029  -7.944 -27.478  1.00  0.00    -0.000 C 
BRANCH  10  11
ATOM     11  C   UNL     1      26.553  -8.125 -27.515  1.00  0.00    -0.000 C 
BRANCH  11  12
ATOM     12  C   UNL     1      27.115  -7.761 -28.895  1.00  0.00    -0.003 C 
ATOM     13  C   UNL     1      28.204  -6.698 -28.784  1.00  0.00     0.004 C 
ENDBRANCH  11  12
ENDBRANCH  10  11
ENDBRANCH   9  10
ENDBRANCH   8   9
ENDBRANCH   1   8
TORSDOF 9
ENDMDL
MODEL 4
REMARK VINA RESULT:    -2.937     13.630     15.325
REMARK INTER + INTRA:          -5.755
REMARK INTER:                  -4.559
REMARK INTRA:                  -1.196
REMARK UNBOUND:                -1.272
REMARK SMILES CCCCCCCCCCC(=O)[O-]
REMARK SMILES IDX 7 1 8 2 9 3 10 4 11 5 12 6 13 7 6 8 5 9 4 10 3 11 2 12 1 13
REMARK H PARENT
REMARK Flexibility Score: inf
ROOT
ATOM      1  C   UNL     1      31.849   6.164 -31.478  1.00  0.00     0.000 C 
ENDROOT
BRANCH   1   2
ATOM      2  C   UNL     1      31.851   6.363 -29.958  1.00  0.00     0.000 C 
BRANCH   2   3
ATOM      3  C   UNL     1      32.865   7.434 -29.543  1.00  0.00     0.006 C 
BRANCH   3   4
ATOM      4  C   UNL     1      33.315   8.263 -30.750  1.00  0.00     0.053 C 
BRANCH   4   5
ATOM      5  C   UNL     1      32.926   9.697 -30.574  1.00  0.00     0.041 C 
ATOM      6  O   UNL     1      32.339  10.070 -29.525  1.00  0.00    -0.550 OA
ATOM      7  O   UNL     1      33.169  10.612 -31.590  1.00  0.00    -0.550 OA
ENDBRANCH   4   5
ENDBRANCH   3   4
ENDBRANCH   2   3
ENDBRANCH   1   2
BRANCH   1   8
ATOM      8  C   UNL     1      31.836   4.674 -31.839  1.00  0.00     0.000 C 
BRANCH   8   9
ATOM      9  C   UNL     1      32.611   4.416 -33.140  1.00  0.00    -0.000 C 
BRANCH   9  10
ATOM     10  C   UNL     1      34.099   4.117 -32.894  1.00  0.00    -0.000 C 
BRANCH  10  11
ATOM     11  C   UNL     1      35.014   5.270 -33.332  1.00  0.00    -0.000 C 
BRANCH  11  12
ATOM     12  C   UNL     1      35.683   5.929 -32.119  1.00  0.00    -0.003 C 
ATOM     13  C   UNL     1      35.461   5.107 -30.852  1.00  0.00     0.004 C 
ENDBRANCH  11  12
ENDBRANCH  10  11
ENDBRANCH   9  10
ENDBRANCH   8   9
ENDBRANCH   1   8
TORSDOF 9
ENDMDL
MODEL 5
REMARK VINA RESULT:    -2.937     12.064     13.597
REMARK INTER + INTRA:          -5.755
REMARK INTER:                  -5.273
REMARK INTRA:                  -0.482
REMARK UNBOUND:                -1.272
REMARK SMILES CCCCCCCCCCC(=O)[O-]
REMARK SMILES IDX 7 1 8 2 9 3 10 4 11 5 12 6 13 7 6 8 5 9 4 10 3 11 2 12 1 13
REMARK H PARENT
REMARK Flexibility Score: inf
ROOT
ATOM      1  C   UNL     1      32.429   2.522 -33.659  1.00  0.00     0.000 C 
ENDROOT
BRANCH   1   2
ATOM      2  C   UNL     1      32.895   3.924 -33.248  1.00  0.00     0.000 C 
BRANCH   2   3
ATOM      3  C   UNL     1      34.419   3.978 -33.101  1.00  0.00     0.006 C 
BRANCH   3   4
ATOM      4  C   UNL     1      34.924   5.423 -33.136  1.00  0.00     0.053 C 
BRANCH   4   5
ATOM      5  C   UNL     1      35.534   5.796 -31.821  1.00  0.00     0.041 C 
ATOM      6  O   UNL     1      35.477   5.000 -30.848  1.00  0.00    -0.550 OA
ATOM      7  O   UNL     1      36.123   7.044 -31.658  1.00  0.00    -0.550 OA
ENDBRANCH   4   5
ENDBRANCH   3   4
ENDBRANCH   2   3
ENDBRANCH   1   2
BRANCH   1   8
ATOM      8  C   UNL     1      33.589   1.705 -34.243  1.00  0.00     0.000 C 
BRANCH   8   9
ATOM      9  C   UNL     1      33.066   0.519 -35.067  1.00  0.00    -0.000 C 
BRANCH   9  10
ATOM     10  C   UNL     1      34.078   0.036 -36.119  1.00  0.00    -0.000 C 
BRANCH  10  11
ATOM     11  C   UNL     1      33.469  -0.062 -37.525  1.00  0.00    -0.000 C 
BRANCH  11  12
ATOM     12  C   UNL     1      31.946   0.115 -37.476  1.00  0.00    -0.003 C 
ATOM     13  C   UNL     1      31.456   0.994 -38.623  1.00  0.00     0.004 C 
ENDBRANCH  11  12
ENDBRANCH  10  11
ENDBRANCH   9  10
ENDBRANCH   8   9
ENDBRANCH   1   8
TORSDOF 9
ENDMDL
MODEL 6
REMARK VINA RESULT:    -2.914      1.581      2.970
REMARK INTER + INTRA:          -5.719
REMARK INTER:                  -4.429
REMARK INTRA:                  -1.290
REMARK UNBOUND:                -1.272
REMARK SMILES CCCCCCCCCCC(=O)[O-]
REMARK SMILES IDX 7 1 8 2 9 3 10 4 11 5 12 6 13 7 6 8 5 9 4 10 3 11 2 12 1 13
REMARK H PARENT
REMARK Flexibility Score: inf
ROOT
ATOM      1  C   UNL     1      25.472  -5.178 -26.262  1.00  0.00     0.000 C 
ENDROOT
BRANCH   1   2
ATOM      2  C   UNL     1      24.902  -4.056 -27.139  1.00  0.00     0.000 C 
BRANCH   2   3
ATOM      3  C   UNL     1      25.134  -4.346 -28.625  1.00  0.00     0.006 C 
BRANCH   3   4
ATOM      4  C   UNL     1      23.806  -4.527 -29.365  1.00  0.00     0.053 C 
BRANCH   4   5
ATOM      5  C   UNL     1      24.031  -4.574 -30.843  1.00  0.00     0.041 C 
ATOM      6  O   UNL     1      24.553  -5.590 -31.372  1.00  0.00    -0.550 OA
ATOM      7  O   UNL     1      23.710  -3.475 -31.630  1.00  0.00    -0.550 OA
ENDBRANCH   4   5
ENDBRANCH   3   4
ENDBRANCH   2   3
ENDBRANCH   1   2
BRANCH   1   8
ATOM      8  C   UNL     1      24.484  -6.346 -26.149  1.00  0.00     0.000 C 
BRANCH   8   9
ATOM      9  C   UNL     1      25.097  -7.641 -26.702  1.00  0.00    -0.000 C 
BRANCH   9  10
ATOM     10  C   UNL     1      24.647  -7.943 -28.140  1.00  0.00    -0.000 C 
BRANCH  10  11
ATOM     11  C   UNL     1      25.816  -7.956 -29.136  1.00  0.00    -0.000 C 
BRANCH  11  12
ATOM     12  C   UNL     1      27.159  -7.836 -28.405  1.00  0.00    -0.003 C 
ATOM     13  C   UNL     1      28.033  -6.754 -29.032  1.00  0.00     0.004 C 
ENDBRANCH  11  12
ENDBRANCH  10  11
ENDBRANCH   9  10
ENDBRANCH   8   9
ENDBRANCH   1   8
TORSDOF 9
ENDMDL
MODEL 7
REMARK VINA RESULT:    -2.809     14.198     15.790
REMARK INTER + INTRA:          -5.559
REMARK INTER:                  -4.722
REMARK INTRA:                  -0.837
REMARK UNBOUND:                -1.272
REMARK SMILES CCCCCCCCCCC(=O)[O-]
REMARK SMILES IDX 7 1 8 2 9 3 10 4 11 5 12 6 13 7 6 8 5 9 4 10 3 11 2 12 1 13
REMARK H PARENT
REMARK Flexibility Score: inf
ROOT
ATOM      1  C   UNL     1      33.893   6.987 -30.480  1.00  0.00     0.000 C 
ENDROOT
BRANCH   1   2
ATOM      2  C   UNL     1      32.480   7.448 -30.860  1.00  0.00     0.000 C 
BRANCH   2   3
ATOM      3  C   UNL     1      32.095   8.725 -30.105  1.00  0.00     0.006 C 
BRANCH   3   4
ATOM      4  C   UNL     1      32.955   8.903 -28.851  1.00  0.00     0.053 C 
BRANCH   4   5
ATOM      5  C   UNL     1      32.578  10.160 -28.132  1.00  0.00     0.041 C 
ATOM      6  O   UNL     1      33.411  10.737 -27.386  1.00  0.00    -0.550 OA
ATOM      7  O   UNL     1      31.290  10.668 -28.249  1.00  0.00    -0.550 OA
ENDBRANCH   4   5
ENDBRANCH   3   4
ENDBRANCH   2   3
ENDBRANCH   1   2
BRANCH   1   8
ATOM      8  C   UNL     1      34.885   7.254 -31.618  1.00  0.00     0.000 C 
BRANCH   8   9
ATOM      9  C   UNL     1      35.587   5.958 -32.051  1.00  0.00    -0.000 C 
BRANCH   9  10
ATOM     10  C   UNL     1      35.053   5.413 -33.386  1.00  0.00    -0.000 C 
BRANCH  10  11
ATOM     11  C   UNL     1      34.340   4.062 -33.232  1.00  0.00    -0.000 C 
BRANCH  11  12
ATOM     12  C   UNL     1      32.856   4.261 -32.899  1.00  0.00    -0.003 C 
ATOM     13  C   UNL     1      32.512   3.669 -31.535  1.00  0.00     0.004 C 
ENDBRANCH  11  12
ENDBRANCH  10  11
ENDBRANCH   9  10
ENDBRANCH   8   9
ENDBRANCH   1   8
TORSDOF 9
ENDMDL
MODEL 8
REMARK VINA RESULT:    -2.808     13.782     15.292
REMARK INTER + INTRA:          -5.558
REMARK INTER:                  -4.475
REMARK INTRA:                  -1.083
REMARK UNBOUND:                -1.272
REMARK SMILES CCCCCCCCCCC(=O)[O-]
REMARK SMILES IDX 7 1 8 2 9 3 10 4 11 5 12 6 13 7 6 8 5 9 4 10 3 11 2 12 1 13
REMARK H PARENT
REMARK Flexibility Score: inf
ROOT
ATOM      1  C   UNL     1      34.713   7.064 -31.197  1.00  0.00     0.000 C 
ENDROOT
BRANCH   1   2
ATOM      2  C   UNL     1      33.918   6.551 -29.990  1.00  0.00     0.000 C 
BRANCH   2   3
ATOM      3  C   UNL     1      32.853   7.566 -29.560  1.00  0.00     0.006 C 
BRANCH   3   4
ATOM      4  C   UNL     1      32.117   8.139 -30.774  1.00  0.00     0.053 C 
BRANCH   4   5
ATOM      5  C   UNL     1      32.092   9.634 -30.714  1.00  0.00     0.041 C 
ATOM      6  O   UNL     1      31.075  10.233 -30.276  1.00  0.00    -0.550 OA
ATOM      7  O   UNL     1      33.174  10.366 -31.186  1.00  0.00    -0.550 OA
ENDBRANCH   4   5
ENDBRANCH   3   4
ENDBRANCH   2   3
ENDBRANCH   1   2
BRANCH   1   8
ATOM      8  C   UNL     1      35.881   6.126 -31.527  1.00  0.00     0.000 C 
BRANCH   8   9
ATOM      9  C   UNL     1      35.840   5.694 -33.000  1.00  0.00    -0.000 C 
BRANCH   9  10
ATOM     10  C   UNL     1      34.440   5.242 -33.446  1.00  0.00    -0.000 C 
BRANCH  10  11
ATOM     11  C   UNL     1      34.130   3.792 -33.045  1.00  0.00    -0.000 C 
BRANCH  11  12
ATOM     12  C   UNL     1      32.703   3.668 -32.498  1.00  0.00    -0.003 C 
ATOM     13  C   UNL     1      31.899   4.938 -32.762  1.00  0.00     0.004 C 
ENDBRANCH  11  12
ENDBRANCH  10  11
ENDBRANCH   9  10
ENDBRANCH   8   9
ENDBRANCH   1   8
TORSDOF 9
ENDMDL
MODEL 9
REMARK VINA RESULT:    -2.794     14.979     16.757
REMARK INTER + INTRA:          -5.537
REMARK INTER:                  -5.073
REMARK INTRA:                  -0.464
REMARK UNBOUND:                -1.272
REMARK SMILES CCCCCCCCCCC(=O)[O-]
REMARK SMILES IDX 7 1 8 2 9 3 10 4 11 5 12 6 13 7 6 8 5 9 4 10 3 11 2 12 1 13
REMARK H PARENT
REMARK Flexibility Score: inf
ROOT
ATOM      1  C   UNL     1      32.397   8.219 -30.751  1.00  0.00     0.000 C 
ENDROOT
BRANCH   1   2
ATOM      2  C   UNL     1      33.635   7.355 -30.483  1.00  0.00     0.000 C 
BRANCH   2   3
ATOM      3  C   UNL     1      34.721   7.608 -31.533  1.00  0.00     0.006 C 
BRANCH   3   4
ATOM      4  C   UNL     1      35.690   6.425 -31.619  1.00  0.00     0.053 C 
BRANCH   4   5
ATOM      5  C   UNL     1      35.159   5.379 -32.548  1.00  0.00     0.041 C 
ATOM      6  O   UNL     1      35.310   5.502 -33.792  1.00  0.00    -0.550 OA
ATOM      7  O   UNL     1      34.455   4.294 -32.042  1.00  0.00    -0.550 OA
ENDBRANCH   4   5
ENDBRANCH   3   4
ENDBRANCH   2   3
ENDBRANCH   1   2
BRANCH   1   8
ATOM      8  C   UNL     1      32.638   9.674 -30.331  1.00  0.00     0.000 C 
BRANCH   8   9
ATOM      9  C   UNL     1      32.986   9.766 -28.838  1.00  0.00    -0.000 C 
BRANCH   9  10
ATOM     10  C   UNL     1      31.769  10.113 -27.966  1.00  0.00    -0.000 C 
BRANCH  10  11
ATOM     11  C   UNL     1      32.116  11.075 -26.820  1.00  0.00    -0.000 C 
BRANCH  11  12
ATOM     12  C   UNL     1      33.613  11.017 -26.491  1.00  0.00    -0.003 C 
ATOM     13  C   UNL     1      33.865  10.240 -25.202  1.00  0.00     0.004 C 
ENDBRANCH  11  12
ENDBRANCH  10  11
ENDBRANCH   9  10
ENDBRANCH   8   9
ENDBRANCH   1   8
TORSDOF 9
ENDMDL
