MODEL 1
REMARK VINA RESULT:    -3.476      0.000      0.000
REMARK INTER + INTRA:          -7.059
REMARK INTER:                  -5.914
REMARK INTRA:                  -1.145
REMARK UNBOUND:                -1.145
REMARK SMILES CCCCCCCCCCCCCC(=O)[O-]
REMARK SMILES IDX 8 1 9 2 10 3 11 4 12 5 13 6 14 7 15 8 16 9 7 10 6 11 5 12
REMARK SMILES IDX 4 13 3 14 2 15 1 16
REMARK H PARENT
REMARK Flexibility Score: inf
ROOT
ATOM      1  C   UNL     1      -8.741  16.287 -14.376  1.00  0.00     0.000 C 
ENDROOT
BRANCH   1   2
ATOM      2  C   UNL     1      -7.327  16.716 -14.814  1.00  0.00     0.000 C 
BRANCH   2   3
ATOM      3  C   UNL     1      -7.261  17.527 -16.124  1.00  0.00     0.000 C 
BRANCH   3   4
ATOM      4  C   UNL     1      -6.885  19.010 -15.950  1.00  0.00     0.000 C 
BRANCH   4   5
ATOM      5  C   UNL     1      -8.103  19.908 -15.694  1.00  0.00     0.006 C 
BRANCH   5   6
ATOM      6  C   UNL     1      -7.817  20.914 -14.574  1.00  0.00     0.053 C 
BRANCH   6   7
ATOM      7  C   UNL     1      -7.438  20.202 -13.315  1.00  0.00     0.041 C 
ATOM      8  O   UNL     1      -8.240  19.394 -12.777  1.00  0.00    -0.550 OA
ATOM      9  O   UNL     1      -6.178  20.391 -12.762  1.00  0.00    -0.550 OA
ENDBRANCH   6   7
ENDBRANCH   5   6
ENDBRANCH   4   5
ENDBRANCH   3   4
ENDBRANCH   2   3
ENDBRANCH   1   2
BRANCH   1  10
ATOM     10  C   UNL     1      -8.846  15.748 -12.938  1.00  0.00     0.000 C 
BRANCH  10  11
ATOM     11  C   UNL     1      -7.759  14.711 -12.609  1.00  0.00    -0.000 C 
BRANCH  11  12
ATOM     12  C   UNL     1      -8.014  13.346 -13.275  1.00  0.00    -0.000 C 
BRANCH  12  13
ATOM     13  C   UNL     1      -6.915  12.877 -14.250  1.00  0.00    -0.000 C 
BRANCH  13  14
ATOM     14  C   UNL     1      -7.404  12.520 -15.668  1.00  0.00    -0.000 C 
BRANCH  14  15
ATOM     15  C   UNL     1      -8.717  13.204 -16.089  1.00  0.00    -0.003 C 
ATOM     16  C   UNL     1      -9.958  12.406 -15.693  1.00  0.00     0.004 C 
ENDBRANCH  14  15
ENDBRANCH  13  14
ENDBRANCH  12  13
ENDBRANCH  11  12
ENDBRANCH  10  11
ENDBRANCH   1  10
TORSDOF 12
ENDMDL
MODEL 2
REMARK VINA RESULT:    -3.470      1.136      1.975
REMARK INTER + INTRA:          -7.050
REMARK INTER:                  -5.816
REMARK INTRA:                  -1.234
REMARK UNBOUND:                -1.145
REMARK SMILES CCCCCCCCCCCCCC(=O)[O-]
REMARK SMILES IDX 8 1 9 2 10 3 11 4 12 5 13 6 14 7 15 8 16 9 7 10 6 11 5 12
REMARK SMILES IDX 4 13 3 14 2 15 1 16
REMARK H PARENT
REMARK Flexibility Score: inf
ROOT
ATOM      1  C   UNL     1      -8.078  15.075 -12.012  1.00  0.00     0.000 C 
ENDROOT
BRANCH   1   2
ATOM      2  C   UNL     1      -8.649  16.039 -13.071  1.00  0.00     0.000 C 
BRANCH   2   3
ATOM      3  C   UNL     1      -7.598  16.837 -13.868  1.00  0.00     0.000 C 
BRANCH   3   4
ATOM      4  C   UNL     1      -8.117  17.471 -15.172  1.00  0.00     0.000 C 
BRANCH   4   5
ATOM      5  C   UNL     1      -8.226  19.001 -15.088  1.00  0.00     0.006 C 
BRANCH   5   6
ATOM      6  C   UNL     1      -8.018  19.487 -13.650  1.00  0.00     0.053 C 
BRANCH   6   7
ATOM      7  C   UNL     1      -6.783  20.326 -13.555  1.00  0.00     0.041 C 
ATOM      8  O   UNL     1      -6.179  20.687 -14.599  1.00  0.00    -0.550 OA
ATOM      9  O   UNL     1      -6.327  20.752 -12.314  1.00  0.00    -0.550 OA
ENDBRANCH   6   7
ENDBRANCH   5   6
ENDBRANCH   4   5
ENDBRANCH   3   4
ENDBRANCH   2   3
ENDBRANCH   1   2
BRANCH   1  10
ATOM     10  C   UNL     1      -7.791  13.648 -12.513  1.00  0.00     0.000 C 
BRANCH  10  11
ATOM     11  C   UNL     1      -6.713  13.606 -13.610  1.00  0.00    -0.000 C 
BRANCH  11  12
ATOM     12  C   UNL     1      -7.139  12.777 -14.835  1.00  0.00    -0.000 C 
BRANCH  12  13
ATOM     13  C   UNL     1      -7.646  13.597 -16.038  1.00  0.00    -0.000 C 
BRANCH  13  14
ATOM     14  C   UNL     1      -9.178  13.756 -16.125  1.00  0.00    -0.000 C 
BRANCH  14  15
ATOM     15  C   UNL     1      -9.981  12.731 -15.307  1.00  0.00    -0.003 C 
ATOM     16  C   UNL     1     -10.393  11.508 -16.125  1.00  0.00     0.004 C 
ENDBRANCH  14  15
ENDBRANCH  13  14
ENDBRANCH  12  13
ENDBRANCH  11  12
ENDBRANCH  10  11
ENDBRANCH   1  10
TORSDOF 12
ENDMDL
MODEL 3
REMARK VINA RESULT:    -3.379      2.798      6.422
REMARK INTER + INTRA:          -6.895
REMARK INTER:                  -5.543
REMARK INTRA:                  -1.352
REMARK UNBOUND:                -1.145
REMARK SMILES CCCCCCCCCCCCCC(=O)[O-]
REMARK SMILES IDX 8 1 9 2 10 3 11 4 12 5 13 6 14 7 15 8 16 9 7 10 6 11 5 12
REMARK SMILES IDX 4 13 3 14 2 15 1 16
REMARK H PARENT
REMARK Flexibility Score: inf
ROOT
ATOM      1  C   UNL     1      -9.252  16.216 -12.541  1.00  0.00     0.000 C 
ENDROOT
BRANCH   1   2
ATOM      2  C   UNL     1      -8.171  15.247 -12.023  1.00  0.00     0.000 C 
BRANCH   2   3
ATOM      3  C   UNL     1      -7.985  13.963 -12.856  1.00  0.00     0.000 C 
BRANCH   3   4
ATOM      4  C   UNL     1      -6.780  13.981 -13.815  1.00  0.00     0.000 C 
BRANCH   4   5
ATOM      5  C   UNL     1      -7.150  13.565 -15.246  1.00  0.00     0.006 C 
BRANCH   5   6
ATOM      6  C   UNL     1      -8.220  12.469 -15.238  1.00  0.00     0.053 C 
BRANCH   6   7
ATOM      7  C   UNL     1      -9.510  12.992 -15.784  1.00  0.00     0.041 C 
ATOM      8  O   UNL     1      -9.611  14.199 -16.125  1.00  0.00    -0.550 OA
ATOM      9  O   UNL     1     -10.587  12.133 -15.963  1.00  0.00    -0.550 OA
ENDBRANCH   6   7
ENDBRANCH   5   6
ENDBRANCH   4   5
ENDBRANCH   3   4
ENDBRANCH   2   3
ENDBRANCH   1   2
BRANCH   1  10
ATOM     10  C   UNL     1      -8.721  17.543 -13.113  1.00  0.00     0.000 C 
BRANCH  10  11
ATOM     11  C   UNL     1      -8.487  17.488 -14.632  1.00  0.00    -0.000 C 
BRANCH  11  12
ATOM     12  C   UNL     1      -6.995  17.417 -15.005  1.00  0.00    -0.000 C 
BRANCH  12  13
ATOM     13  C   UNL     1      -6.144  18.614 -14.535  1.00  0.00    -0.000 C 
BRANCH  13  14
ATOM     14  C   UNL     1      -6.343  19.916 -15.336  1.00  0.00    -0.000 C 
BRANCH  14  15
ATOM     15  C   UNL     1      -7.157  21.002 -14.612  1.00  0.00    -0.003 C 
ATOM     16  C   UNL     1      -7.072  20.893 -13.090  1.00  0.00     0.004 C 
ENDBRANCH  14  15
ENDBRANCH  13  14
ENDBRANCH  12  13
ENDBRANCH  11  12
ENDBRANCH  10  11
ENDBRANCH   1  10
TORSDOF 12
ENDMDL
MODEL 4
REMARK VINA RESULT:    -3.361      1.106      2.728
REMARK INTER + INTRA:          -6.863
REMARK INTER:                  -5.529
REMARK INTRA:                  -1.334
REMARK UNBOUND:                -1.145
REMARK SMILES CCCCCCCCCCCCCC(=O)[O-]
REMARK SMILES IDX 8 1 9 2 10 3 11 4 12 5 13 6 14 7 15 8 16 9 7 10 6 11 5 12
REMARK SMILES IDX 4 13 3 14 2 15 1 16
REMARK H PARENT
REMARK Flexibility Score: inf
ROOT
ATOM      1  C   UNL     1      -8.646  15.142 -15.949  1.00  0.00     0.000 C 
ENDROOT
BRANCH   1   2
ATOM      2  C   UNL     1      -7.907  16.483 -16.125  1.00  0.00     0.000 C 
BRANCH   2   3
ATOM      3  C   UNL     1      -6.439  16.492 -15.652  1.00  0.00     0.000 C 
BRANCH   3   4
ATOM      4  C   UNL     1      -5.875  17.884 -15.314  1.00  0.00     0.000 C 
BRANCH   4   5
ATOM      5  C   UNL     1      -6.873  19.016 -15.598  1.00  0.00     0.006 C 
BRANCH   5   6
ATOM      6  C   UNL     1      -6.566  20.246 -14.737  1.00  0.00     0.053 C 
BRANCH   6   7
ATOM      7  C   UNL     1      -7.209  20.119 -13.393  1.00  0.00     0.041 C 
ATOM      8  O   UNL     1      -6.595  20.490 -12.359  1.00  0.00    -0.550 OA
ATOM      9  O   UNL     1      -8.508  19.637 -13.287  1.00  0.00    -0.550 OA
ENDBRANCH   6   7
ENDBRANCH   5   6
ENDBRANCH   4   5
ENDBRANCH   3   4
ENDBRANCH   2   3
ENDBRANCH   1   2
BRANCH   1  10
ATOM     10  C   UNL     1      -7.772  13.886 -16.123  1.00  0.00     0.000 C 
BRANCH  10  11
ATOM     11  C   UNL     1      -8.357  12.649 -15.420  1.00  0.00    -0.000 C 
BRANCH  11  12
ATOM     12  C   UNL     1      -7.896  12.519 -13.957  1.00  0.00    -0.000 C 
BRANCH  12  13
ATOM     13  C   UNL     1      -7.258  13.787 -13.356  1.00  0.00    -0.000 C 
BRANCH  13  14
ATOM     14  C   UNL     1      -8.098  14.496 -12.274  1.00  0.00    -0.000 C 
BRANCH  14  15
ATOM     15  C   UNL     1      -8.237  16.017 -12.458  1.00  0.00    -0.003 C 
ATOM     16  C   UNL     1      -9.691  16.471 -12.578  1.00  0.00     0.004 C 
ENDBRANCH  14  15
ENDBRANCH  13  14
ENDBRANCH  12  13
ENDBRANCH  11  12
ENDBRANCH  10  11
ENDBRANCH   1  10
TORSDOF 12
ENDMDL
MODEL 5
REMARK VINA RESULT:    -2.900      2.493      5.744
REMARK INTER + INTRA:          -6.080
REMARK INTER:                  -5.456
REMARK INTRA:                  -0.623
REMARK UNBOUND:                -1.145
REMARK SMILES CCCCCCCCCCCCCC(=O)[O-]
REMARK SMILES IDX 8 1 9 2 10 3 11 4 12 5 13 6 14 7 15 8 16 9 7 10 6 11 5 12
REMARK SMILES IDX 4 13 3 14 2 15 1 16
REMARK H PARENT
REMARK Flexibility Score: inf
ROOT
ATOM      1  C   UNL     1      -6.395  16.809 -14.750  1.00  0.00     0.000 C 
ENDROOT
BRANCH   1   2
ATOM      2  C   UNL     1      -6.696  15.888 -15.949  1.00  0.00     0.000 C 
BRANCH   2   3
ATOM      3  C   UNL     1      -6.264  14.419 -15.774  1.00  0.00     0.000 C 
BRANCH   3   4
ATOM      4  C   UNL     1      -7.344  13.379 -16.125  1.00  0.00     0.000 C 
BRANCH   4   5
ATOM      5  C   UNL     1      -7.986  12.745 -14.883  1.00  0.00     0.006 C 
BRANCH   5   6
ATOM      6  C   UNL     1      -8.281  13.804 -13.817  1.00  0.00     0.053 C 
BRANCH   6   7
ATOM      7  C   UNL     1      -7.371  13.633 -12.642  1.00  0.00     0.041 C 
ATOM      8  O   UNL     1      -7.662  14.152 -11.533  1.00  0.00    -0.550 OA
ATOM      9  O   UNL     1      -6.225  12.856 -12.759  1.00  0.00    -0.550 OA
ENDBRANCH   6   7
ENDBRANCH   5   6
ENDBRANCH   4   5
ENDBRANCH   3   4
ENDBRANCH   2   3
ENDBRANCH   1   2
BRANCH   1  10
ATOM     10  C   UNL     1      -6.073  18.271 -15.112  1.00  0.00     0.000 C 
BRANCH  10  11
ATOM     11  C   UNL     1      -7.124  18.901 -16.043  1.00  0.00    -0.000 C 
BRANCH  11  12
ATOM     12  C   UNL     1      -8.277  19.572 -15.275  1.00  0.00    -0.000 C 
BRANCH  12  13
ATOM     13  C   UNL     1      -8.027  19.781 -13.768  1.00  0.00    -0.000 C 
BRANCH  13  14
ATOM     14  C   UNL     1      -8.820  18.843 -12.835  1.00  0.00    -0.000 C 
BRANCH  14  15
ATOM     15  C   UNL     1      -9.250  17.511 -13.473  1.00  0.00    -0.003 C 
ATOM     16  C   UNL     1      -9.944  16.575 -12.484  1.00  0.00     0.004 C 
ENDBRANCH  14  15
ENDBRANCH  13  14
ENDBRANCH  12  13
ENDBRANCH  11  12
ENDBRANCH  10  11
ENDBRANCH   1  10
TORSDOF 12
ENDMDL
MODEL 6
REMARK VINA RESULT:    -2.795      1.177      2.154
REMARK INTER + INTRA:          -5.901
REMARK INTER:                  -4.537
REMARK INTRA:                  -1.364
REMARK UNBOUND:                -1.145
REMARK SMILES CCCCCCCCCCCCCC(=O)[O-]
REMARK SMILES IDX 8 1 9 2 10 3 11 4 12 5 13 6 14 7 15 8 16 9 7 10 6 11 5 12
REMARK SMILES IDX 4 13 3 14 2 15 1 16
REMARK H PARENT
REMARK Flexibility Score: inf
ROOT
ATOM      1  C   UNL     1      -7.279  16.036 -14.194  1.00  0.00     0.000 C 
ENDROOT
BRANCH   1   2
ATOM      2  C   UNL     1      -6.431  16.515 -15.389  1.00  0.00     0.000 C 
BRANCH   2   3
ATOM      3  C   UNL     1      -5.878  17.949 -15.270  1.00  0.00     0.000 C 
BRANCH   3   4
ATOM      4  C   UNL     1      -6.677  19.018 -16.038  1.00  0.00     0.000 C 
BRANCH   4   5
ATOM      5  C   UNL     1      -6.777  20.348 -15.277  1.00  0.00     0.006 C 
BRANCH   5   6
ATOM      6  C   UNL     1      -8.150  20.498 -14.616  1.00  0.00     0.053 C 
BRANCH   6   7
ATOM      7  C   UNL     1      -8.167  19.821 -13.283  1.00  0.00     0.041 C 
ATOM      8  O   UNL     1      -7.268  20.067 -12.436  1.00  0.00    -0.550 OA
ATOM      9  O   UNL     1      -9.204  18.957 -12.955  1.00  0.00    -0.550 OA
ENDBRANCH   6   7
ENDBRANCH   5   6
ENDBRANCH   4   5
ENDBRANCH   3   4
ENDBRANCH   2   3
ENDBRANCH   1   2
BRANCH   1  10
ATOM     10  C   UNL     1      -8.712  15.596 -14.544  1.00  0.00     0.000 C 
BRANCH  10  11
ATOM     11  C   UNL     1      -8.773  14.684 -15.781  1.00  0.00    -0.000 C 
BRANCH  11  12
ATOM     12  C   UNL     1      -9.374  13.300 -15.474  1.00  0.00    -0.000 C 
BRANCH  12  13
ATOM     13  C   UNL     1      -8.395  12.116 -15.606  1.00  0.00    -0.000 C 
BRANCH  13  14
ATOM     14  C   UNL     1      -6.988  12.481 -16.119  1.00  0.00    -0.000 C 
BRANCH  14  15
ATOM     15  C   UNL     1      -5.876  12.413 -15.058  1.00  0.00    -0.003 C 
ATOM     16  C   UNL     1      -6.397  12.617 -13.636  1.00  0.00     0.004 C 
ENDBRANCH  14  15
ENDBRANCH  13  14
ENDBRANCH  12  13
ENDBRANCH  11  12
ENDBRANCH  10  11
ENDBRANCH   1  10
TORSDOF 12
ENDMDL
MODEL 7
REMARK VINA RESULT:    -2.706      1.502      5.266
REMARK INTER + INTRA:          -5.750
REMARK INTER:                  -5.001
REMARK INTRA:                  -0.749
REMARK UNBOUND:                -1.145
REMARK SMILES CCCCCCCCCCCCCC(=O)[O-]
REMARK SMILES IDX 8 1 9 2 10 3 11 4 12 5 13 6 14 7 15 8 16 9 7 10 6 11 5 12
REMARK SMILES IDX 4 13 3 14 2 15 1 16
REMARK H PARENT
REMARK Flexibility Score: inf
ROOT
ATOM      1  C   UNL     1      -8.401  14.262 -15.608  1.00  0.00     0.000 C 
ENDROOT
BRANCH   1   2
ATOM      2  C   UNL     1      -8.583  13.044 -14.681  1.00  0.00     0.000 C 
BRANCH   2   3
ATOM      3  C   UNL     1      -7.730  13.061 -13.397  1.00  0.00     0.000 C 
BRANCH   3   4
ATOM      4  C   UNL     1      -7.347  14.465 -12.892  1.00  0.00     0.000 C 
BRANCH   4   5
ATOM      5  C   UNL     1      -8.272  14.969 -11.775  1.00  0.00     0.006 C 
BRANCH   5   6
ATOM      6  C   UNL     1      -9.549  15.583 -12.357  1.00  0.00     0.053 C 
BRANCH   6   7
ATOM      7  C   UNL     1      -9.252  16.899 -13.001  1.00  0.00     0.041 C 
ATOM      8  O   UNL     1      -9.460  17.064 -14.232  1.00  0.00    -0.550 OA
ATOM      9  O   UNL     1      -8.793  17.961 -12.232  1.00  0.00    -0.550 OA
ENDBRANCH   6   7
ENDBRANCH   5   6
ENDBRANCH   4   5
ENDBRANCH   3   4
ENDBRANCH   2   3
ENDBRANCH   1   2
BRANCH   1  10
ATOM     10  C   UNL     1      -6.957  14.516 -16.079  1.00  0.00     0.000 C 
BRANCH  10  11
ATOM     11  C   UNL     1      -6.597  16.010 -16.125  1.00  0.00    -0.000 C 
BRANCH  11  12
ATOM     12  C   UNL     1      -6.093  16.545 -14.772  1.00  0.00    -0.000 C 
BRANCH  12  13
ATOM     13  C   UNL     1      -5.893  18.073 -14.704  1.00  0.00    -0.000 C 
BRANCH  13  14
ATOM     14  C   UNL     1      -6.918  18.905 -15.500  1.00  0.00    -0.000 C 
BRANCH  14  15
ATOM     15  C   UNL     1      -7.058  20.367 -15.042  1.00  0.00    -0.003 C 
ATOM     16  C   UNL     1      -6.714  20.564 -13.567  1.00  0.00     0.004 C 
ENDBRANCH  14  15
ENDBRANCH  13  14
ENDBRANCH  12  13
ENDBRANCH  11  12
ENDBRANCH  10  11
ENDBRANCH   1  10
TORSDOF 12
ENDMDL
MODEL 8
REMARK VINA RESULT:    -2.665      2.075      5.602
REMARK INTER + INTRA:          -5.680
REMARK INTER:                  -4.538
REMARK INTRA:                  -1.142
REMARK UNBOUND:                -1.145
REMARK SMILES CCCCCCCCCCCCCC(=O)[O-]
REMARK SMILES IDX 8 1 9 2 10 3 11 4 12 5 13 6 14 7 15 8 16 9 7 10 6 11 5 12
REMARK SMILES IDX 4 13 3 14 2 15 1 16
REMARK H PARENT
REMARK Flexibility Score: inf
ROOT
ATOM      1  C   UNL     1      -8.199  15.565 -11.893  1.00  0.00     0.000 C 
ENDROOT
BRANCH   1   2
ATOM      2  C   UNL     1      -7.689  14.118 -12.042  1.00  0.00     0.000 C 
BRANCH   2   3
ATOM      3  C   UNL     1      -8.225  13.354 -13.269  1.00  0.00     0.000 C 
BRANCH   3   4
ATOM      4  C   UNL     1      -7.143  12.834 -14.233  1.00  0.00     0.000 C 
BRANCH   4   5
ATOM      5  C   UNL     1      -6.334  13.964 -14.886  1.00  0.00     0.006 C 
BRANCH   5   6
ATOM      6  C   UNL     1      -7.058  14.514 -16.119  1.00  0.00     0.053 C 
BRANCH   6   7
ATOM      7  C   UNL     1      -7.217  15.998 -16.015  1.00  0.00     0.041 C 
ATOM      8  O   UNL     1      -8.356  16.523 -16.124  1.00  0.00    -0.550 OA
ATOM      9  O   UNL     1      -6.113  16.797 -15.745  1.00  0.00    -0.550 OA
ENDBRANCH   6   7
ENDBRANCH   5   6
ENDBRANCH   4   5
ENDBRANCH   3   4
ENDBRANCH   2   3
ENDBRANCH   1   2
BRANCH   1  10
ATOM     10  C   UNL     1      -9.232  16.006 -12.946  1.00  0.00     0.000 C 
BRANCH  10  11
ATOM     11  C   UNL     1      -9.396  17.534 -13.019  1.00  0.00    -0.000 C 
BRANCH  11  12
ATOM     12  C   UNL     1      -8.058  18.269 -13.220  1.00  0.00    -0.000 C 
BRANCH  12  13
ATOM     13  C   UNL     1      -8.127  19.804 -13.087  1.00  0.00    -0.000 C 
BRANCH  13  14
ATOM     14  C   UNL     1      -7.275  20.590 -14.103  1.00  0.00    -0.000 C 
BRANCH  14  15
ATOM     15  C   UNL     1      -7.349  20.068 -15.548  1.00  0.00    -0.003 C 
ATOM     16  C   UNL     1      -8.767  20.084 -16.115  1.00  0.00     0.004 C 
ENDBRANCH  14  15
ENDBRANCH  13  14
ENDBRANCH  12  13
ENDBRANCH  11  12
ENDBRANCH  10  11
ENDBRANCH   1  10
TORSDOF 12
ENDMDL
