MODEL 1
REMARK VINA RESULT:    -3.017      0.000      0.000
REMARK INTER + INTRA:          -4.951
REMARK INTER:                  -4.604
REMARK INTRA:                  -0.347
REMARK UNBOUND:                -0.347
REMARK SMILES CC1=CCC[C@@H](C)C(=O)C[C@H](C(C)C)C(=O)C1
REMARK SMILES IDX 8 1 9 2 6 3 7 4 5 5 4 6 3 7 2 8 1 9 10 11 11 12 15 13 16 14
REMARK SMILES IDX 17 15 12 17 13 18 14 19
REMARK H PARENT
REMARK Flexibility Score: 70.00
ROOT
ATOM      1  C   UNL     1      -4.824  29.897  45.604  1.00  0.00     0.136 C 
ATOM      2  O   UNL     1      -3.920  29.403  46.264  1.00  0.00    -0.299 OA
ENDROOT
BRANCH   1   3
ATOM      3  C   UNL     1      -5.145  31.368  45.755  1.00  0.00     0.053 C 
ATOM      4  C   UNL     1      -3.890  32.212  45.502  1.00  0.00     0.016 C 
BRANCH   3   5
ATOM      5  C   UNL     1      -5.736  31.671  47.145  1.00  0.00     0.015 C 
BRANCH   5   6
ATOM      6  C   UNL     1      -7.278  31.589  47.172  1.00  0.00     0.028 C 
BRANCH   6   7
ATOM      7  C   UNL     1      -7.885  32.096  45.883  1.00  0.00    -0.028 C 
ATOM      8  C   UNL     1      -8.647  31.401  45.005  1.00  0.00    -0.070 CG0
ATOM      9  C   UNL     1      -9.099  32.121  43.757  1.00  0.00     0.039 C 
ATOM     10  G   UNL     1      -9.094  29.961  45.197  1.00  0.00     0.000 G0
ENDBRANCH   6   7
ENDBRANCH   5   6
ENDBRANCH   3   5
ENDBRANCH   1   3
BRANCH   1  11
ATOM     11  C   UNL     1      -5.575  29.063  44.591  1.00  0.00     0.087 C 
BRANCH  11  12
ATOM     12  C   UNL     1      -6.874  28.433  45.148  1.00  0.00     0.066 C 
BRANCH  12  13
ATOM     13  C   UNL     1      -8.141  28.978  44.500  1.00  0.00     0.140 C 
ATOM     14  O   UNL     1      -8.369  28.677  43.337  1.00  0.00    -0.299 OA
BRANCH  13  15
ATOM     15  C   UNL     1      -9.089  29.928  45.199  1.00  0.00     0.106 CG0
ATOM     16  G   UNL     1      -8.663  31.373  44.997  1.00  0.00     0.000 G0
ENDBRANCH  13  15
ENDBRANCH  12  13
BRANCH  12  17
ATOM     17  C   UNL     1      -6.816  26.875  45.159  1.00  0.00    -0.006 C 
ATOM     18  C   UNL     1      -5.928  26.340  44.025  1.00  0.00     0.008 C 
ATOM     19  C   UNL     1      -6.368  26.272  46.501  1.00  0.00     0.008 C 
ENDBRANCH  12  17
ENDBRANCH  11  12
ENDBRANCH   1  11
TORSDOF 1
ENDMDL
MODEL 2
REMARK VINA RESULT:    -2.961      1.694      4.311
REMARK INTER + INTRA:          -4.867
REMARK INTER:                  -4.559
REMARK INTRA:                  -0.308
REMARK UNBOUND:                -0.347
REMARK SMILES CC1=CCC[C@@H](C)C(=O)C[C@H](C(C)C)C(=O)C1
REMARK SMILES IDX 8 1 9 2 6 3 7 4 5 5 4 6 3 7 2 8 1 9 10 11 11 12 15 13 16 14
REMARK SMILES IDX 17 15 12 17 13 18 14 19
REMARK H PARENT
REMARK Flexibility Score: 70.00
ROOT
ATOM      1  C   UNL     1      -5.802  28.072  46.264  1.00  0.00     0.136 C 
ATOM      2  O   UNL     1      -4.613  28.033  46.550  1.00  0.00    -0.299 OA
ENDROOT
BRANCH   1   3
ATOM      3  C   UNL     1      -6.474  26.846  45.685  1.00  0.00     0.053 C 
ATOM      4  C   UNL     1      -6.341  25.664  46.652  1.00  0.00     0.016 C 
BRANCH   3   5
ATOM      5  C   UNL     1      -5.893  26.491  44.303  1.00  0.00     0.015 C 
BRANCH   5   6
ATOM      6  C   UNL     1      -6.448  27.382  43.172  1.00  0.00     0.028 C 
BRANCH   6   7
ATOM      7  C   UNL     1      -7.954  27.292  43.080  1.00  0.00    -0.028 C 
ATOM      8  C   UNL     1      -8.845  28.309  43.165  1.00  0.00    -0.070 CG0
ATOM      9  C   UNL     1     -10.311  27.957  43.090  1.00  0.00     0.039 C 
ATOM     10  G   UNL     1      -8.472  29.776  43.306  1.00  0.00     0.000 G0
ENDBRANCH   6   7
ENDBRANCH   5   6
ENDBRANCH   3   5
ENDBRANCH   1   3
BRANCH   1  11
ATOM     11  C   UNL     1      -6.617  29.313  46.549  1.00  0.00     0.087 C 
BRANCH  11  12
ATOM     12  C   UNL     1      -6.787  30.238  45.321  1.00  0.00     0.066 C 
BRANCH  12  13
ATOM     13  C   UNL     1      -8.186  30.202  44.720  1.00  0.00     0.140 C 
ATOM     14  O   UNL     1      -9.134  30.455  45.449  1.00  0.00    -0.299 OA
BRANCH  13  15
ATOM     15  C   UNL     1      -8.465  29.798  43.288  1.00  0.00     0.106 CG0
ATOM     16  G   UNL     1      -8.849  28.330  43.198  1.00  0.00     0.000 G0
ENDBRANCH  13  15
ENDBRANCH  12  13
BRANCH  12  17
ATOM     17  C   UNL     1      -6.280  31.686  45.599  1.00  0.00    -0.006 C 
ATOM     18  C   UNL     1      -6.369  32.033  47.093  1.00  0.00     0.008 C 
ATOM     19  C   UNL     1      -4.858  31.965  45.083  1.00  0.00     0.008 C 
ENDBRANCH  12  17
ENDBRANCH  11  12
ENDBRANCH   1  11
TORSDOF 1
ENDMDL
MODEL 3
REMARK VINA RESULT:    -2.758      1.894      4.294
REMARK INTER + INTRA:          -4.557
REMARK INTER:                  -4.452
REMARK INTRA:                  -0.105
REMARK UNBOUND:                -0.347
REMARK SMILES CC1=CCC[C@@H](C)C(=O)C[C@H](C(C)C)C(=O)C1
REMARK SMILES IDX 8 1 9 2 6 3 7 4 5 5 4 6 3 7 2 8 1 9 10 11 11 12 15 13 16 14
REMARK SMILES IDX 17 15 12 17 13 18 14 19
REMARK H PARENT
REMARK Flexibility Score: 70.00
ROOT
ATOM      1  C   UNL     1      -5.727  28.904  46.461  1.00  0.00     0.136 C 
ATOM      2  O   UNL     1      -4.703  28.376  46.875  1.00  0.00    -0.299 OA
ENDROOT
BRANCH   1   3
ATOM      3  C   UNL     1      -6.520  28.238  45.359  1.00  0.00     0.053 C 
ATOM      4  C   UNL     1      -7.173  26.952  45.880  1.00  0.00     0.016 C 
BRANCH   3   5
ATOM      5  C   UNL     1      -5.635  27.944  44.133  1.00  0.00     0.015 C 
BRANCH   5   6
ATOM      6  C   UNL     1      -5.588  29.119  43.132  1.00  0.00     0.028 C 
BRANCH   6   7
ATOM      7  C   UNL     1      -6.975  29.583  42.752  1.00  0.00    -0.028 C 
ATOM      8  C   UNL     1      -7.558  30.767  43.059  1.00  0.00    -0.070 CG0
ATOM      9  C   UNL     1      -8.981  30.980  42.603  1.00  0.00     0.039 C 
ATOM     10  G   UNL     1      -6.874  31.900  43.809  1.00  0.00     0.000 G0
ENDBRANCH   6   7
ENDBRANCH   5   6
ENDBRANCH   3   5
ENDBRANCH   1   3
BRANCH   1  11
ATOM     11  C   UNL     1      -6.238  30.179  47.092  1.00  0.00     0.087 C 
BRANCH  11  12
ATOM     12  C   UNL     1      -5.941  31.446  46.255  1.00  0.00     0.066 C 
BRANCH  12  13
ATOM     13  C   UNL     1      -7.067  31.823  45.300  1.00  0.00     0.140 C 
ATOM     14  O   UNL     1      -8.187  31.984  45.765  1.00  0.00    -0.299 OA
BRANCH  13  15
ATOM     15  C   UNL     1      -6.884  31.935  43.803  1.00  0.00     0.106 CG0
ATOM     16  G   UNL     1      -7.555  30.777  43.081  1.00  0.00     0.000 G0
ENDBRANCH  13  15
ENDBRANCH  12  13
BRANCH  12  17
ATOM     17  C   UNL     1      -5.467  32.639  47.139  1.00  0.00    -0.006 C 
ATOM     18  C   UNL     1      -5.355  33.934  46.319  1.00  0.00     0.008 C 
ATOM     19  C   UNL     1      -6.336  32.884  48.384  1.00  0.00     0.008 C 
ENDBRANCH  12  17
ENDBRANCH  11  12
ENDBRANCH   1  11
TORSDOF 1
ENDMDL
MODEL 4
REMARK VINA RESULT:    -2.721      2.151      4.500
REMARK INTER + INTRA:          -4.500
REMARK INTER:                  -4.295
REMARK INTRA:                  -0.206
REMARK UNBOUND:                -0.347
REMARK SMILES CC1=CCC[C@@H](C)C(=O)C[C@H](C(C)C)C(=O)C1
REMARK SMILES IDX 8 1 9 2 6 3 7 4 5 5 4 6 3 7 2 8 1 9 10 11 11 12 15 13 16 14
REMARK SMILES IDX 17 15 12 17 13 18 14 19
REMARK H PARENT
REMARK Flexibility Score: 70.00
ROOT
ATOM      1  C   UNL     1      -6.806  29.623  46.454  1.00  0.00     0.136 C 
ATOM      2  O   UNL     1      -5.991  29.152  47.237  1.00  0.00    -0.299 OA
ENDROOT
BRANCH   1   3
ATOM      3  C   UNL     1      -7.056  28.936  45.130  1.00  0.00     0.053 C 
ATOM      4  C   UNL     1      -7.622  27.530  45.362  1.00  0.00     0.016 C 
BRANCH   3   5
ATOM      5  C   UNL     1      -5.773  28.876  44.280  1.00  0.00     0.015 C 
BRANCH   5   6
ATOM      6  C   UNL     1      -5.742  29.944  43.165  1.00  0.00     0.028 C 
BRANCH   6   7
ATOM      7  C   UNL     1      -7.127  30.233  42.633  1.00  0.00    -0.028 C 
ATOM      8  C   UNL     1      -7.859  31.358  42.818  1.00  0.00    -0.070 CG0
ATOM      9  C   UNL     1      -9.245  31.391  42.221  1.00  0.00     0.039 C 
ATOM     10  G   UNL     1      -7.376  32.592  43.564  1.00  0.00     0.000 G0
ENDBRANCH   6   7
ENDBRANCH   5   6
ENDBRANCH   3   5
ENDBRANCH   1   3
BRANCH   1  11
ATOM     11  C   UNL     1      -7.612  30.845  46.833  1.00  0.00     0.087 C 
BRANCH  11  12
ATOM     12  C   UNL     1      -7.093  32.153  46.188  1.00  0.00     0.066 C 
BRANCH  12  13
ATOM     13  C   UNL     1      -7.915  32.609  44.990  1.00  0.00     0.140 C 
ATOM     14  O   UNL     1      -9.077  32.939  45.180  1.00  0.00    -0.299 OA
BRANCH  13  15
ATOM     15  C   UNL     1      -7.391  32.604  43.570  1.00  0.00     0.106 CG0
ATOM     16  G   UNL     1      -7.845  31.361  42.823  1.00  0.00     0.000 G0
ENDBRANCH  13  15
ENDBRANCH  12  13
BRANCH  12  17
ATOM     17  C   UNL     1      -6.870  33.281  47.240  1.00  0.00    -0.006 C 
ATOM     18  C   UNL     1      -5.996  32.794  48.407  1.00  0.00     0.008 C 
ATOM     19  C   UNL     1      -6.285  34.579  46.657  1.00  0.00     0.008 C 
ENDBRANCH  12  17
ENDBRANCH  11  12
ENDBRANCH   1  11
TORSDOF 1
ENDMDL
MODEL 5
REMARK VINA RESULT:    -2.711      2.251      4.651
REMARK INTER + INTRA:          -4.485
REMARK INTER:                  -4.204
REMARK INTRA:                  -0.282
REMARK UNBOUND:                -0.347
REMARK SMILES CC1=CCC[C@@H](C)C(=O)C[C@H](C(C)C)C(=O)C1
REMARK SMILES IDX 8 1 9 2 6 3 7 4 5 5 4 6 3 7 2 8 1 9 10 11 11 12 15 13 16 14
REMARK SMILES IDX 17 15 12 17 13 18 14 19
REMARK H PARENT
REMARK Flexibility Score: 70.00
ROOT
ATOM      1  C   UNL     1      -6.564  26.218  42.859  1.00  0.00     0.136 C 
ATOM      2  O   UNL     1      -6.999  25.231  42.281  1.00  0.00    -0.299 OA
ENDROOT
BRANCH   1   3
ATOM      3  C   UNL     1      -5.371  26.082  43.779  1.00  0.00     0.053 C 
ATOM      4  C   UNL     1      -4.219  25.379  43.052  1.00  0.00     0.016 C 
BRANCH   3   5
ATOM      5  C   UNL     1      -5.744  25.328  45.070  1.00  0.00     0.015 C 
BRANCH   5   6
ATOM      6  C   UNL     1      -6.258  26.265  46.184  1.00  0.00     0.028 C 
BRANCH   6   7
ATOM      7  C   UNL     1      -5.330  27.438  46.398  1.00  0.00    -0.028 C 
ATOM      8  C   UNL     1      -5.632  28.755  46.291  1.00  0.00    -0.070 CG0
ATOM      9  C   UNL     1      -4.513  29.744  46.507  1.00  0.00     0.039 C 
ATOM     10  G   UNL     1      -7.018  29.303  45.991  1.00  0.00     0.000 G0
ENDBRANCH   6   7
ENDBRANCH   5   6
ENDBRANCH   3   5
ENDBRANCH   1   3
BRANCH   1  11
ATOM     11  C   UNL     1      -7.166  27.581  42.604  1.00  0.00     0.087 C 
BRANCH  11  12
ATOM     12  C   UNL     1      -7.986  28.128  43.797  1.00  0.00     0.066 C 
BRANCH  12  13
ATOM     13  C   UNL     1      -7.324  29.305  44.501  1.00  0.00     0.140 C 
ATOM     14  O   UNL     1      -6.971  30.260  43.822  1.00  0.00    -0.299 OA
BRANCH  13  15
ATOM     15  C   UNL     1      -7.015  29.321  45.982  1.00  0.00     0.106 CG0
ATOM     16  G   UNL     1      -5.634  28.748  46.260  1.00  0.00     0.000 G0
ENDBRANCH  13  15
ENDBRANCH  12  13
BRANCH  12  17
ATOM     17  C   UNL     1      -9.472  28.405  43.414  1.00  0.00    -0.006 C 
ATOM     18  C   UNL     1      -9.720  28.157  41.918  1.00  0.00     0.008 C 
ATOM     19  C   UNL     1     -10.494  27.615  44.249  1.00  0.00     0.008 C 
ENDBRANCH  12  17
ENDBRANCH  11  12
ENDBRANCH   1  11
TORSDOF 1
ENDMDL
MODEL 6
REMARK VINA RESULT:    -2.656      1.918      4.102
REMARK INTER + INTRA:          -4.401
REMARK INTER:                  -4.306
REMARK INTRA:                  -0.094
REMARK UNBOUND:                -0.347
REMARK SMILES CC1=CCC[C@@H](C)C(=O)C[C@H](C(C)C)C(=O)C1
REMARK SMILES IDX 8 1 9 2 6 3 7 4 5 5 4 6 3 7 2 8 1 9 10 11 11 12 15 13 16 14
REMARK SMILES IDX 17 15 12 17 13 18 14 19
REMARK H PARENT
REMARK Flexibility Score: 70.00
ROOT
ATOM      1  C   UNL     1      -7.917  28.329  45.057  1.00  0.00     0.136 C 
ATOM      2  O   UNL     1      -7.479  27.222  44.775  1.00  0.00    -0.299 OA
ENDROOT
BRANCH   1   3
ATOM      3  C   UNL     1      -9.007  28.942  44.207  1.00  0.00     0.053 C 
ATOM      4  C   UNL     1     -10.126  27.923  43.965  1.00  0.00     0.016 C 
BRANCH   3   5
ATOM      5  C   UNL     1      -8.446  29.467  42.871  1.00  0.00     0.015 C 
BRANCH   5   6
ATOM      6  C   UNL     1      -9.013  30.850  42.484  1.00  0.00     0.028 C 
BRANCH   6   7
ATOM      7  C   UNL     1      -8.025  31.956  42.769  1.00  0.00    -0.028 C 
ATOM      8  C   UNL     1      -7.791  32.563  43.958  1.00  0.00    -0.070 CG0
ATOM      9  C   UNL     1      -6.779  33.683  43.980  1.00  0.00     0.039 C 
ATOM     10  G   UNL     1      -8.458  32.181  45.270  1.00  0.00     0.000 G0
ENDBRANCH   6   7
ENDBRANCH   5   6
ENDBRANCH   3   5
ENDBRANCH   1   3
BRANCH   1  11
ATOM     11  C   UNL     1      -7.425  29.055  46.289  1.00  0.00     0.087 C 
BRANCH  11  12
ATOM     12  C   UNL     1      -6.639  30.350  45.972  1.00  0.00     0.066 C 
BRANCH  12  13
ATOM     13  C   UNL     1      -7.427  31.624  46.251  1.00  0.00     0.140 C 
ATOM     14  O   UNL     1      -7.280  32.166  47.338  1.00  0.00    -0.299 OA
BRANCH  13  15
ATOM     15  C   UNL     1      -8.433  32.207  45.284  1.00  0.00     0.106 CG0
ATOM     16  G   UNL     1      -7.779  32.558  43.958  1.00  0.00     0.000 G0
ENDBRANCH  13  15
ENDBRANCH  12  13
BRANCH  12  17
ATOM     17  C   UNL     1      -5.222  30.354  46.622  1.00  0.00    -0.006 C 
ATOM     18  C   UNL     1      -4.517  29.002  46.436  1.00  0.00     0.008 C 
ATOM     19  C   UNL     1      -4.308  31.491  46.132  1.00  0.00     0.008 C 
ENDBRANCH  12  17
ENDBRANCH  11  12
ENDBRANCH   1  11
TORSDOF 1
ENDMDL
MODEL 7
REMARK VINA RESULT:    -2.570      2.225      3.542
REMARK INTER + INTRA:          -4.269
REMARK INTER:                  -4.683
REMARK INTRA:                   0.413
REMARK UNBOUND:                -0.347
REMARK SMILES CC1=CCC[C@@H](C)C(=O)C[C@H](C(C)C)C(=O)C1
REMARK SMILES IDX 8 1 9 2 6 3 7 4 5 5 4 6 3 7 2 8 1 9 10 11 11 12 15 13 16 14
REMARK SMILES IDX 17 15 12 17 13 18 14 19
REMARK H PARENT
REMARK Flexibility Score: 70.00
ROOT
ATOM      1  C   UNL     1      -7.202  32.009  46.366  1.00  0.00     0.136 C 
ATOM      2  O   UNL     1      -7.915  32.857  45.846  1.00  0.00    -0.299 OA
ENDROOT
BRANCH   1   3
ATOM      3  C   UNL     1      -5.829  32.392  46.871  1.00  0.00     0.053 C 
ATOM      4  C   UNL     1      -5.946  33.155  48.196  1.00  0.00     0.016 C 
BRANCH   3   5
ATOM      5  C   UNL     1      -5.061  33.224  45.827  1.00  0.00     0.015 C 
BRANCH   5   6
ATOM      6  C   UNL     1      -4.102  32.371  44.968  1.00  0.00     0.028 C 
BRANCH   6   7
ATOM      7  C   UNL     1      -4.812  31.760  43.782  1.00  0.00    -0.028 C 
ATOM      8  C   UNL     1      -5.060  30.446  43.560  1.00  0.00    -0.070 CG0
ATOM      9  C   UNL     1      -5.749  30.078  42.269  1.00  0.00     0.039 C 
ATOM     10  G   UNL     1      -4.714  29.326  44.527  1.00  0.00     0.000 G0
ENDBRANCH   6   7
ENDBRANCH   5   6
ENDBRANCH   3   5
ENDBRANCH   1   3
BRANCH   1  11
ATOM     11  C   UNL     1      -7.713  30.600  46.568  1.00  0.00     0.087 C 
BRANCH  11  12
ATOM     12  C   UNL     1      -7.185  29.594  45.516  1.00  0.00     0.066 C 
BRANCH  12  13
ATOM     13  C   UNL     1      -5.705  29.271  45.672  1.00  0.00     0.140 C 
ATOM     14  O   UNL     1      -5.283  29.024  46.792  1.00  0.00    -0.299 OA
BRANCH  13  15
ATOM     15  C   UNL     1      -4.720  29.315  44.523  1.00  0.00     0.106 CG0
ATOM     16  G   UNL     1      -5.056  30.438  43.556  1.00  0.00     0.000 G0
ENDBRANCH  13  15
ENDBRANCH  12  13
BRANCH  12  17
ATOM     17  C   UNL     1      -8.080  28.321  45.418  1.00  0.00    -0.006 C 
ATOM     18  C   UNL     1      -8.967  28.355  44.164  1.00  0.00     0.008 C 
ATOM     19  C   UNL     1      -7.298  26.997  45.468  1.00  0.00     0.008 C 
ENDBRANCH  12  17
ENDBRANCH  11  12
ENDBRANCH   1  11
TORSDOF 1
ENDMDL
MODEL 8
REMARK VINA RESULT:    -2.567      2.436      3.244
REMARK INTER + INTRA:          -4.264
REMARK INTER:                  -4.427
REMARK INTRA:                   0.163
REMARK UNBOUND:                -0.347
REMARK SMILES CC1=CCC[C@@H](C)C(=O)C[C@H](C(C)C)C(=O)C1
REMARK SMILES IDX 8 1 9 2 6 3 7 4 5 5 4 6 3 7 2 8 1 9 10 11 11 12 15 13 16 14
REMARK SMILES IDX 17 15 12 17 13 18 14 19
REMARK H PARENT
REMARK Flexibility Score: 70.00
ROOT
ATOM      1  C   UNL     1      -6.135  31.621  47.312  1.00  0.00     0.136 C 
ATOM      2  O   UNL     1      -7.336  31.756  47.498  1.00  0.00    -0.299 OA
ENDROOT
BRANCH   1   3
ATOM      3  C   UNL     1      -5.185  32.726  47.717  1.00  0.00     0.053 C 
ATOM      4  C   UNL     1      -5.757  33.508  48.905  1.00  0.00     0.016 C 
BRANCH   3   5
ATOM      5  C   UNL     1      -4.887  33.669  46.535  1.00  0.00     0.015 C 
BRANCH   5   6
ATOM      6  C   UNL     1      -4.101  32.978  45.400  1.00  0.00     0.028 C 
BRANCH   6   7
ATOM      7  C   UNL     1      -4.699  33.278  44.045  1.00  0.00    -0.028 C 
ATOM      8  C   UNL     1      -5.241  32.395  43.172  1.00  0.00    -0.070 CG0
ATOM      9  C   UNL     1      -5.734  32.936  41.852  1.00  0.00     0.039 C 
ATOM     10  G   UNL     1      -5.406  30.907  43.437  1.00  0.00     0.000 G0
ENDBRANCH   6   7
ENDBRANCH   5   6
ENDBRANCH   3   5
ENDBRANCH   1   3
BRANCH   1  11
ATOM     11  C   UNL     1      -5.590  30.331  46.743  1.00  0.00     0.087 C 
BRANCH  11  12
ATOM     12  C   UNL     1      -6.457  29.740  45.605  1.00  0.00     0.066 C 
BRANCH  12  13
ATOM     13  C   UNL     1      -6.572  30.653  44.392  1.00  0.00     0.140 C 
ATOM     14  O   UNL     1      -7.658  31.162  44.154  1.00  0.00    -0.299 OA
BRANCH  13  15
ATOM     15  C   UNL     1      -5.432  30.902  43.427  1.00  0.00     0.106 CG0
ATOM     16  G   UNL     1      -5.255  32.387  43.161  1.00  0.00     0.000 G0
ENDBRANCH  13  15
ENDBRANCH  12  13
BRANCH  12  17
ATOM     17  C   UNL     1      -6.034  28.285  45.237  1.00  0.00    -0.006 C 
ATOM     18  C   UNL     1      -4.706  27.902  45.906  1.00  0.00     0.008 C 
ATOM     19  C   UNL     1      -7.101  27.222  45.548  1.00  0.00     0.008 C 
ENDBRANCH  12  17
ENDBRANCH  11  12
ENDBRANCH   1  11
TORSDOF 1
ENDMDL
MODEL 9
REMARK VINA RESULT:    -2.489      2.276      4.159
REMARK INTER + INTRA:          -4.146
REMARK INTER:                  -3.817
REMARK INTRA:                  -0.329
REMARK UNBOUND:                -0.347
REMARK SMILES CC1=CCC[C@@H](C)C(=O)C[C@H](C(C)C)C(=O)C1
REMARK SMILES IDX 8 1 9 2 6 3 7 4 5 5 4 6 3 7 2 8 1 9 10 11 11 12 15 13 16 14
REMARK SMILES IDX 17 15 12 17 13 18 14 19
REMARK H PARENT
REMARK Flexibility Score: 70.00
ROOT
ATOM      1  C   UNL     1      -8.941  30.433  43.565  1.00  0.00     0.136 C 
ATOM      2  O   UNL     1      -9.451  29.525  42.922  1.00  0.00    -0.299 OA
ENDROOT
BRANCH   1   3
ATOM      3  C   UNL     1      -8.564  31.723  42.870  1.00  0.00     0.053 C 
ATOM      4  C   UNL     1      -9.740  32.234  42.030  1.00  0.00     0.016 C 
BRANCH   3   5
ATOM      5  C   UNL     1      -7.307  31.542  41.999  1.00  0.00     0.015 C 
BRANCH   5   6
ATOM      6  C   UNL     1      -6.026  32.076  42.677  1.00  0.00     0.028 C 
BRANCH   6   7
ATOM      7  C   UNL     1      -6.318  33.268  43.558  1.00  0.00    -0.028 C 
ATOM      8  C   UNL     1      -6.181  33.348  44.904  1.00  0.00    -0.070 CG0
ATOM      9  C   UNL     1      -6.585  34.642  45.567  1.00  0.00     0.039 C 
ATOM     10  G   UNL     1      -5.631  32.238  45.785  1.00  0.00     0.000 G0
ENDBRANCH   6   7
ENDBRANCH   5   6
ENDBRANCH   3   5
ENDBRANCH   1   3
BRANCH   1  11
ATOM     11  C   UNL     1      -8.749  30.298  45.058  1.00  0.00     0.087 C 
BRANCH  11  12
ATOM     12  C   UNL     1      -7.268  30.144  45.481  1.00  0.00     0.066 C 
BRANCH  12  13
ATOM     13  C   UNL     1      -6.739  31.324  46.287  1.00  0.00     0.140 C 
ATOM     14  O   UNL     1      -7.281  31.584  47.352  1.00  0.00    -0.299 OA
BRANCH  13  15
ATOM     15  C   UNL     1      -5.630  32.231  45.802  1.00  0.00     0.106 CG0
ATOM     16  G   UNL     1      -6.174  33.332  44.906  1.00  0.00     0.000 G0
ENDBRANCH  13  15
ENDBRANCH  12  13
BRANCH  12  17
ATOM     17  C   UNL     1      -6.988  28.768  46.158  1.00  0.00    -0.006 C 
ATOM     18  C   UNL     1      -7.599  27.612  45.351  1.00  0.00     0.008 C 
ATOM     19  C   UNL     1      -5.499  28.488  46.423  1.00  0.00     0.008 C 
ENDBRANCH  12  17
ENDBRANCH  11  12
ENDBRANCH   1  11
TORSDOF 1
ENDMDL
