MODEL 1
REMARK VINA RESULT:    -3.875      0.000      0.000
REMARK INTER + INTRA:          -5.341
REMARK INTER:                  -5.008
REMARK INTRA:                  -0.334
REMARK UNBOUND:                -0.334
REMARK SMILES CCCCCCC(=O)[O-]
REMARK SMILES IDX 5 1 6 2 7 3 8 4 9 5 4 6 3 7 2 8 1 9
REMARK H PARENT
REMARK Flexibility Score: inf
ROOT
ATOM      1  C   UNL     1     -14.543   1.082 -20.432  1.00  0.00     0.006 C 
ENDROOT
BRANCH   1   2
ATOM      2  C   UNL     1     -15.220   2.151 -19.568  1.00  0.00     0.053 C 
BRANCH   2   3
ATOM      3  C   UNL     1     -16.110   3.015 -20.405  1.00  0.00     0.041 C 
ATOM      4  O   UNL     1     -16.964   3.761 -19.859  1.00  0.00    -0.550 OA
ATOM      5  O   UNL     1     -16.030   2.957 -21.790  1.00  0.00    -0.550 OA
ENDBRANCH   2   3
ENDBRANCH   1   2
BRANCH   1   6
ATOM      6  C   UNL     1     -14.890  -0.327 -19.935  1.00  0.00     0.000 C 
BRANCH   6   7
ATOM      7  C   UNL     1     -15.249  -1.249 -21.109  1.00  0.00    -0.000 C 
BRANCH   7   8
ATOM      8  C   UNL     1     -15.645  -0.471 -22.374  1.00  0.00    -0.003 C 
ATOM      9  C   UNL     1     -17.159  -0.366 -22.555  1.00  0.00     0.004 C 
ENDBRANCH   7   8
ENDBRANCH   6   7
ENDBRANCH   1   6
TORSDOF 5
ENDMDL
MODEL 2
REMARK VINA RESULT:    -3.860      3.232      4.533
REMARK INTER + INTRA:          -5.322
REMARK INTER:                  -5.030
REMARK INTRA:                  -0.292
REMARK UNBOUND:                -0.334
REMARK SMILES CCCCCCC(=O)[O-]
REMARK SMILES IDX 5 1 6 2 7 3 8 4 9 5 4 6 3 7 2 8 1 9
REMARK H PARENT
REMARK Flexibility Score: inf
ROOT
ATOM      1  C   UNL     1     -15.347  -0.889 -20.954  1.00  0.00     0.006 C 
ENDROOT
BRANCH   1   2
ATOM      2  C   UNL     1     -13.926  -1.409 -20.711  1.00  0.00     0.053 C 
BRANCH   2   3
ATOM      3  C   UNL     1     -13.789  -1.926 -19.314  1.00  0.00     0.041 C 
ATOM      4  O   UNL     1     -14.326  -1.312 -18.356  1.00  0.00    -0.550 OA
ATOM      5  O   UNL     1     -13.027  -3.060 -19.065  1.00  0.00    -0.550 OA
ENDBRANCH   2   3
ENDBRANCH   1   2
BRANCH   1   6
ATOM      6  C   UNL     1     -15.321   0.526 -21.544  1.00  0.00     0.000 C 
BRANCH   6   7
ATOM      7  C   UNL     1     -14.470   1.467 -20.678  1.00  0.00    -0.000 C 
BRANCH   7   8
ATOM      8  C   UNL     1     -15.275   2.114 -19.540  1.00  0.00    -0.003 C 
ATOM      9  C   UNL     1     -16.288   3.143 -20.043  1.00  0.00     0.004 C 
ENDBRANCH   7   8
ENDBRANCH   6   7
ENDBRANCH   1   6
TORSDOF 5
ENDMDL
MODEL 3
REMARK VINA RESULT:    -3.852      3.004      4.236
REMARK INTER + INTRA:          -5.312
REMARK INTER:                  -5.135
REMARK INTRA:                  -0.177
REMARK UNBOUND:                -0.334
REMARK SMILES CCCCCCC(=O)[O-]
REMARK SMILES IDX 5 1 6 2 7 3 8 4 9 5 4 6 3 7 2 8 1 9
REMARK H PARENT
REMARK Flexibility Score: inf
ROOT
ATOM      1  C   UNL     1     -14.494   1.177 -20.708  1.00  0.00     0.006 C 
ENDROOT
BRANCH   1   2
ATOM      2  C   UNL     1     -14.815   0.327 -19.474  1.00  0.00     0.053 C 
BRANCH   2   3
ATOM      3  C   UNL     1     -14.500  -1.112 -19.734  1.00  0.00     0.041 C 
ATOM      4  O   UNL     1     -13.812  -1.769 -18.909  1.00  0.00    -0.550 OA
ATOM      5  O   UNL     1     -14.924  -1.715 -20.911  1.00  0.00    -0.550 OA
ENDBRANCH   2   3
ENDBRANCH   1   2
BRANCH   1   6
ATOM      6  C   UNL     1     -15.682   2.073 -21.083  1.00  0.00     0.000 C 
BRANCH   6   7
ATOM      7  C   UNL     1     -16.111   2.941 -19.891  1.00  0.00    -0.000 C 
BRANCH   7   8
ATOM      8  C   UNL     1     -17.138   4.016 -20.282  1.00  0.00    -0.003 C 
ATOM      9  C   UNL     1     -17.732   3.788 -21.671  1.00  0.00     0.004 C 
ENDBRANCH   7   8
ENDBRANCH   6   7
ENDBRANCH   1   6
TORSDOF 5
ENDMDL
MODEL 4
REMARK VINA RESULT:    -3.840      2.665      3.607
REMARK INTER + INTRA:          -5.296
REMARK INTER:                  -4.964
REMARK INTRA:                  -0.332
REMARK UNBOUND:                -0.334
REMARK SMILES CCCCCCC(=O)[O-]
REMARK SMILES IDX 5 1 6 2 7 3 8 4 9 5 4 6 3 7 2 8 1 9
REMARK H PARENT
REMARK Flexibility Score: inf
ROOT
ATOM      1  C   UNL     1     -14.885   1.317 -20.891  1.00  0.00     0.006 C 
ENDROOT
BRANCH   1   2
ATOM      2  C   UNL     1     -14.855   0.527 -19.578  1.00  0.00     0.053 C 
BRANCH   2   3
ATOM      3  C   UNL     1     -14.693  -0.935 -19.850  1.00  0.00     0.041 C 
ATOM      4  O   UNL     1     -15.185  -1.444 -20.892  1.00  0.00    -0.550 OA
ATOM      5  O   UNL     1     -14.041  -1.745 -18.929  1.00  0.00    -0.550 OA
ENDBRANCH   2   3
ENDBRANCH   1   2
BRANCH   1   6
ATOM      6  C   UNL     1     -15.893   2.471 -20.815  1.00  0.00     0.000 C 
BRANCH   6   7
ATOM      7  C   UNL     1     -17.013   2.291 -21.850  1.00  0.00    -0.000 C 
BRANCH   7   8
ATOM      8  C   UNL     1     -16.739   1.133 -22.823  1.00  0.00    -0.003 C 
ATOM      9  C   UNL     1     -17.830   0.062 -22.789  1.00  0.00     0.004 C 
ENDBRANCH   7   8
ENDBRANCH   6   7
ENDBRANCH   1   6
TORSDOF 5
ENDMDL
MODEL 5
REMARK VINA RESULT:    -3.763      1.637      2.324
REMARK INTER + INTRA:          -5.197
REMARK INTER:                  -5.064
REMARK INTRA:                  -0.133
REMARK UNBOUND:                -0.334
REMARK SMILES CCCCCCC(=O)[O-]
REMARK SMILES IDX 5 1 6 2 7 3 8 4 9 5 4 6 3 7 2 8 1 9
REMARK H PARENT
REMARK Flexibility Score: inf
ROOT
ATOM      1  C   UNL     1     -15.207   2.109 -19.481  1.00  0.00     0.006 C 
ENDROOT
BRANCH   1   2
ATOM      2  C   UNL     1     -15.384   3.177 -20.567  1.00  0.00     0.053 C 
BRANCH   2   3
ATOM      3  C   UNL     1     -16.835   3.397 -20.853  1.00  0.00     0.041 C 
ATOM      4  O   UNL     1     -17.404   2.754 -21.775  1.00  0.00    -0.550 OA
ATOM      5  O   UNL     1     -17.549   4.348 -20.135  1.00  0.00    -0.550 OA
ENDBRANCH   2   3
ENDBRANCH   1   2
BRANCH   1   6
ATOM      6  C   UNL     1     -14.803   0.763 -20.095  1.00  0.00     0.000 C 
BRANCH   6   7
ATOM      7  C   UNL     1     -14.745  -0.334 -19.022  1.00  0.00    -0.000 C 
BRANCH   7   8
ATOM      8  C   UNL     1     -14.046  -1.610 -19.518  1.00  0.00    -0.003 C 
ATOM      9  C   UNL     1     -14.372  -1.936 -20.975  1.00  0.00     0.004 C 
ENDBRANCH   7   8
ENDBRANCH   6   7
ENDBRANCH   1   6
TORSDOF 5
ENDMDL
MODEL 6
REMARK VINA RESULT:    -3.737      2.217      3.707
REMARK INTER + INTRA:          -5.163
REMARK INTER:                  -4.789
REMARK INTRA:                  -0.374
REMARK UNBOUND:                -0.334
REMARK SMILES CCCCCCC(=O)[O-]
REMARK SMILES IDX 5 1 6 2 7 3 8 4 9 5 4 6 3 7 2 8 1 9
REMARK H PARENT
REMARK Flexibility Score: inf
ROOT
ATOM      1  C   UNL     1     -14.393   0.001 -20.524  1.00  0.00     0.006 C 
ENDROOT
BRANCH   1   2
ATOM      2  C   UNL     1     -15.206  -1.189 -21.044  1.00  0.00     0.053 C 
BRANCH   2   3
ATOM      3  C   UNL     1     -15.805  -0.871 -22.378  1.00  0.00     0.041 C 
ATOM      4  O   UNL     1     -15.088  -0.879 -23.413  1.00  0.00    -0.550 OA
ATOM      5  O   UNL     1     -17.145  -0.516 -22.471  1.00  0.00    -0.550 OA
ENDBRANCH   2   3
ENDBRANCH   1   2
BRANCH   1   6
ATOM      6  C   UNL     1     -15.083   0.654 -19.320  1.00  0.00     0.000 C 
BRANCH   6   7
ATOM      7  C   UNL     1     -15.212   2.172 -19.516  1.00  0.00    -0.000 C 
BRANCH   7   8
ATOM      8  C   UNL     1     -15.361   2.566 -20.994  1.00  0.00    -0.003 C 
ATOM      9  C   UNL     1     -16.811   2.843 -21.390  1.00  0.00     0.004 C 
ENDBRANCH   7   8
ENDBRANCH   6   7
ENDBRANCH   1   6
TORSDOF 5
ENDMDL
MODEL 7
REMARK VINA RESULT:    -3.715      4.176      6.422
REMARK INTER + INTRA:          -5.135
REMARK INTER:                  -4.989
REMARK INTRA:                  -0.146
REMARK UNBOUND:                -0.334
REMARK SMILES CCCCCCC(=O)[O-]
REMARK SMILES IDX 5 1 6 2 7 3 8 4 9 5 4 6 3 7 2 8 1 9
REMARK H PARENT
REMARK Flexibility Score: inf
ROOT
ATOM      1  C   UNL     1     -14.528   5.420 -22.428  1.00  0.00     0.006 C 
ENDROOT
BRANCH   1   2
ATOM      2  C   UNL     1     -13.729   4.414 -23.262  1.00  0.00     0.053 C 
BRANCH   2   3
ATOM      3  C   UNL     1     -14.359   3.059 -23.191  1.00  0.00     0.041 C 
ATOM      4  O   UNL     1     -13.772   2.118 -22.595  1.00  0.00    -0.550 OA
ATOM      5  O   UNL     1     -15.571   2.822 -23.826  1.00  0.00    -0.550 OA
ENDBRANCH   2   3
ENDBRANCH   1   2
BRANCH   1   6
ATOM      6  C   UNL     1     -14.046   5.432 -20.972  1.00  0.00     0.000 C 
BRANCH   6   7
ATOM      7  C   UNL     1     -13.177   6.667 -20.691  1.00  0.00    -0.000 C 
BRANCH   7   8
ATOM      8  C   UNL     1     -14.010   7.907 -20.330  1.00  0.00    -0.003 C 
ATOM      9  C   UNL     1     -13.148   9.126 -20.006  1.00  0.00     0.004 C 
ENDBRANCH   7   8
ENDBRANCH   6   7
ENDBRANCH   1   6
TORSDOF 5
ENDMDL
MODEL 8
REMARK VINA RESULT:    -3.703      1.689      2.603
REMARK INTER + INTRA:          -5.119
REMARK INTER:                  -4.891
REMARK INTRA:                  -0.228
REMARK UNBOUND:                -0.334
REMARK SMILES CCCCCCC(=O)[O-]
REMARK SMILES IDX 5 1 6 2 7 3 8 4 9 5 4 6 3 7 2 8 1 9
REMARK H PARENT
REMARK Flexibility Score: inf
ROOT
ATOM      1  C   UNL     1     -15.729   2.836 -19.881  1.00  0.00     0.006 C 
ENDROOT
BRANCH   1   2
ATOM      2  C   UNL     1     -15.724   2.701 -21.408  1.00  0.00     0.053 C 
BRANCH   2   3
ATOM      3  C   UNL     1     -17.102   2.412 -21.912  1.00  0.00     0.041 C 
ATOM      4  O   UNL     1     -18.006   3.284 -21.823  1.00  0.00    -0.550 OA
ATOM      5  O   UNL     1     -17.402   1.160 -22.436  1.00  0.00    -0.550 OA
ENDBRANCH   2   3
ENDBRANCH   1   2
BRANCH   1   6
ATOM      6  C   UNL     1     -15.260   1.537 -19.214  1.00  0.00     0.000 C 
BRANCH   6   7
ATOM      7  C   UNL     1     -14.430   0.688 -20.188  1.00  0.00    -0.000 C 
BRANCH   7   8
ATOM      8  C   UNL     1     -14.830  -0.796 -20.170  1.00  0.00    -0.003 C 
ATOM      9  C   UNL     1     -14.048  -1.607 -19.137  1.00  0.00     0.004 C 
ENDBRANCH   7   8
ENDBRANCH   6   7
ENDBRANCH   1   6
TORSDOF 5
ENDMDL
MODEL 9
REMARK VINA RESULT:    -3.679      4.973      6.809
REMARK INTER + INTRA:          -5.088
REMARK INTER:                  -4.699
REMARK INTRA:                  -0.389
REMARK UNBOUND:                -0.334
REMARK SMILES CCCCCCC(=O)[O-]
REMARK SMILES IDX 5 1 6 2 7 3 8 4 9 5 4 6 3 7 2 8 1 9
REMARK H PARENT
REMARK Flexibility Score: inf
ROOT
ATOM      1  C   UNL     1     -13.997   5.901 -20.736  1.00  0.00     0.006 C 
ENDROOT
BRANCH   1   2
ATOM      2  C   UNL     1     -14.076   5.276 -22.133  1.00  0.00     0.053 C 
BRANCH   2   3
ATOM      3  C   UNL     1     -15.366   5.642 -22.797  1.00  0.00     0.041 C 
ATOM      4  O   UNL     1     -16.259   4.772 -22.970  1.00  0.00    -0.550 OA
ATOM      5  O   UNL     1     -15.561   6.934 -23.271  1.00  0.00    -0.550 OA
ENDBRANCH   2   3
ENDBRANCH   1   2
BRANCH   1   6
ATOM      6  C   UNL     1     -12.932   7.003 -20.687  1.00  0.00     0.000 C 
BRANCH   6   7
ATOM      7  C   UNL     1     -13.556   8.352 -20.300  1.00  0.00    -0.000 C 
BRANCH   7   8
ATOM      8  C   UNL     1     -15.029   8.225 -19.883  1.00  0.00    -0.003 C 
ATOM      9  C   UNL     1     -15.936   9.227 -20.598  1.00  0.00     0.004 C 
ENDBRANCH   7   8
ENDBRANCH   6   7
ENDBRANCH   1   6
TORSDOF 5
ENDMDL
