MODEL 1
REMARK VINA RESULT:    -4.420      0.000      0.000
REMARK INTER + INTRA:         -10.010
REMARK INTER:                  -8.037
REMARK INTRA:                  -1.974
REMARK UNBOUND:                -1.974
REMARK SMILES CCCCCC=CCC=CCCCCCCCC(=O)[O-]
REMARK SMILES IDX 11 1 12 2 13 3 14 4 15 5 16 6 17 7 18 8 19 9 20 10 10 11
REMARK SMILES IDX 9 12 8 13 7 14 6 15 5 16 4 17 3 18 2 19 1 20
REMARK H PARENT
REMARK Flexibility Score: inf
ROOT
ATOM      1  C   UNL     1      27.540  34.742  21.702  1.00  0.00     0.027 C 
ENDROOT
BRANCH   1   2
ATOM      2  C   UNL     1      27.679  33.294  21.211  1.00  0.00     0.004 C 
BRANCH   2   3
ATOM      3  C   UNL     1      28.413  33.196  19.864  1.00  0.00     0.000 C 
BRANCH   3   4
ATOM      4  C   UNL     1      27.445  33.012  18.680  1.00  0.00     0.000 C 
BRANCH   4   5
ATOM      5  C   UNL     1      26.197  32.194  19.053  1.00  0.00     0.000 C 
BRANCH   5   6
ATOM      6  C   UNL     1      24.891  32.874  18.608  1.00  0.00     0.006 C 
BRANCH   6   7
ATOM      7  C   UNL     1      24.224  33.604  19.780  1.00  0.00     0.053 C 
BRANCH   7   8
ATOM      8  C   UNL     1      22.798  33.169  19.933  1.00  0.00     0.041 C 
ATOM      9  O   UNL     1      22.512  32.201  20.687  1.00  0.00    -0.550 OA
ATOM     10  O   UNL     1      21.795  33.795  19.202  1.00  0.00    -0.550 OA
ENDBRANCH   7   8
ENDBRANCH   6   7
ENDBRANCH   5   6
ENDBRANCH   4   5
ENDBRANCH   3   4
ENDBRANCH   2   3
ENDBRANCH   1   2
BRANCH   1  11
ATOM     11  C   UNL     1      28.546  35.046  22.783  1.00  0.00    -0.031 C 
ATOM     12  C   UNL     1      29.581  35.897  22.644  1.00  0.00    -0.027 C 
BRANCH  12  13
ATOM     13  C   UNL     1      29.904  36.658  21.383  1.00  0.00     0.054 C 
BRANCH  13  14
ATOM     14  C   UNL     1      30.841  35.888  20.498  1.00  0.00    -0.027 C 
ATOM     15  C   UNL     1      31.647  34.948  21.013  1.00  0.00    -0.031 C 
BRANCH  15  16
ATOM     16  C   UNL     1      32.617  34.182  20.153  1.00  0.00     0.027 C 
BRANCH  16  17
ATOM     17  C   UNL     1      32.474  32.662  20.322  1.00  0.00     0.004 C 
BRANCH  17  18
ATOM     18  C   UNL     1      31.799  32.285  21.652  1.00  0.00     0.000 C 
BRANCH  18  19
ATOM     19  C   UNL     1      32.690  31.394  22.532  1.00  0.00    -0.003 C 
ATOM     20  C   UNL     1      33.053  32.057  23.863  1.00  0.00     0.004 C 
ENDBRANCH  18  19
ENDBRANCH  17  18
ENDBRANCH  16  17
ENDBRANCH  15  16
ENDBRANCH  13  14
ENDBRANCH  12  13
ENDBRANCH   1  11
TORSDOF 14
ENDMDL
MODEL 2
REMARK VINA RESULT:    -4.275      3.270      7.335
REMARK INTER + INTRA:          -9.748
REMARK INTER:                  -7.930
REMARK INTRA:                  -1.818
REMARK UNBOUND:                -1.974
REMARK SMILES CCCCCC=CCC=CCCCCCCCC(=O)[O-]
REMARK SMILES IDX 11 1 12 2 13 3 14 4 15 5 16 6 17 7 18 8 19 9 20 10 10 11
REMARK SMILES IDX 9 12 8 13 7 14 6 15 5 16 4 17 3 18 2 19 1 20
REMARK H PARENT
REMARK Flexibility Score: inf
ROOT
ATOM      1  C   UNL     1      30.069  35.071  22.280  1.00  0.00     0.027 C 
ENDROOT
BRANCH   1   2
ATOM      2  C   UNL     1      30.676  36.354  21.693  1.00  0.00     0.004 C 
BRANCH   2   3
ATOM      3  C   UNL     1      31.405  36.105  20.363  1.00  0.00     0.000 C 
BRANCH   3   4
ATOM      4  C   UNL     1      30.685  35.065  19.485  1.00  0.00     0.000 C 
BRANCH   4   5
ATOM      5  C   UNL     1      31.624  33.950  18.991  1.00  0.00     0.000 C 
BRANCH   5   6
ATOM      6  C   UNL     1      31.497  32.661  19.820  1.00  0.00     0.006 C 
BRANCH   6   7
ATOM      7  C   UNL     1      32.747  32.435  20.680  1.00  0.00     0.053 C 
BRANCH   7   8
ATOM      8  C   UNL     1      32.374  31.879  22.020  1.00  0.00     0.041 C 
ATOM      9  O   UNL     1      33.268  31.437  22.790  1.00  0.00    -0.550 OA
ATOM     10  O   UNL     1      31.038  31.799  22.396  1.00  0.00    -0.550 OA
ENDBRANCH   7   8
ENDBRANCH   6   7
ENDBRANCH   5   6
ENDBRANCH   4   5
ENDBRANCH   3   4
ENDBRANCH   2   3
ENDBRANCH   1   2
BRANCH   1  11
ATOM     11  C   UNL     1      28.576  35.203  22.438  1.00  0.00    -0.031 C 
ATOM     12  C   UNL     1      27.679  34.304  21.989  1.00  0.00    -0.027 C 
BRANCH  12  13
ATOM     13  C   UNL     1      28.028  33.041  21.245  1.00  0.00     0.054 C 
BRANCH  13  14
ATOM     14  C   UNL     1      27.406  33.016  19.878  1.00  0.00    -0.027 C 
ATOM     15  C   UNL     1      26.189  32.484  19.693  1.00  0.00    -0.031 C 
BRANCH  15  16
ATOM     16  C   UNL     1      25.555  32.418  18.329  1.00  0.00     0.027 C 
BRANCH  16  17
ATOM     17  C   UNL     1      24.030  32.601  18.385  1.00  0.00     0.004 C 
BRANCH  17  18
ATOM     18  C   UNL     1      23.572  33.283  19.685  1.00  0.00     0.000 C 
BRANCH  18  19
ATOM     19  C   UNL     1      22.411  32.540  20.362  1.00  0.00    -0.003 C 
ATOM     20  C   UNL     1      21.650  31.630  19.395  1.00  0.00     0.004 C 
ENDBRANCH  18  19
ENDBRANCH  17  18
ENDBRANCH  16  17
ENDBRANCH  15  16
ENDBRANCH  13  14
ENDBRANCH  12  13
ENDBRANCH   1  11
TORSDOF 14
ENDMDL
MODEL 3
REMARK VINA RESULT:    -4.211      3.261      6.525
REMARK INTER + INTRA:          -9.631
REMARK INTER:                  -6.817
REMARK INTRA:                  -2.813
REMARK UNBOUND:                -1.974
REMARK SMILES CCCCCC=CCC=CCCCCCCCC(=O)[O-]
REMARK SMILES IDX 11 1 12 2 13 3 14 4 15 5 16 6 17 7 18 8 19 9 20 10 10 11
REMARK SMILES IDX 9 12 8 13 7 14 6 15 5 16 4 17 3 18 2 19 1 20
REMARK H PARENT
REMARK Flexibility Score: inf
ROOT
ATOM      1  C   UNL     1      30.321  37.103  21.434  1.00  0.00     0.027 C 
ENDROOT
BRANCH   1   2
ATOM      2  C   UNL     1      30.362  37.166  19.900  1.00  0.00     0.004 C 
BRANCH   2   3
ATOM      3  C   UNL     1      28.980  36.942  19.265  1.00  0.00     0.000 C 
BRANCH   3   4
ATOM      4  C   UNL     1      28.915  35.641  18.443  1.00  0.00     0.000 C 
BRANCH   4   5
ATOM      5  C   UNL     1      30.299  35.011  18.213  1.00  0.00     0.000 C 
BRANCH   5   6
ATOM      6  C   UNL     1      30.383  33.565  18.730  1.00  0.00     0.006 C 
BRANCH   6   7
ATOM      7  C   UNL     1      31.756  33.284  19.356  1.00  0.00     0.053 C 
BRANCH   7   8
ATOM      8  C   UNL     1      31.717  32.029  20.173  1.00  0.00     0.041 C 
ATOM      9  O   UNL     1      31.031  31.985  21.229  1.00  0.00    -0.550 OA
ATOM     10  O   UNL     1      32.478  30.928  19.799  1.00  0.00    -0.550 OA
ENDBRANCH   7   8
ENDBRANCH   6   7
ENDBRANCH   5   6
ENDBRANCH   4   5
ENDBRANCH   3   4
ENDBRANCH   2   3
ENDBRANCH   1   2
BRANCH   1  11
ATOM     11  C   UNL     1      30.645  35.714  21.926  1.00  0.00    -0.031 C 
ATOM     12  C   UNL     1      29.732  34.839  22.390  1.00  0.00    -0.027 C 
BRANCH  12  13
ATOM     13  C   UNL     1      28.255  35.118  22.507  1.00  0.00     0.054 C 
BRANCH  13  14
ATOM     14  C   UNL     1      27.473  34.409  21.439  1.00  0.00    -0.027 C 
ATOM     15  C   UNL     1      27.680  33.106  21.195  1.00  0.00    -0.031 C 
BRANCH  15  16
ATOM     16  C   UNL     1      26.932  32.378  20.110  1.00  0.00     0.027 C 
BRANCH  16  17
ATOM     17  C   UNL     1      26.079  33.325  19.252  1.00  0.00     0.004 C 
BRANCH  17  18
ATOM     18  C   UNL     1      24.652  32.791  19.037  1.00  0.00     0.000 C 
BRANCH  18  19
ATOM     19  C   UNL     1      23.621  33.490  19.936  1.00  0.00    -0.003 C 
ATOM     20  C   UNL     1      22.478  32.562  20.352  1.00  0.00     0.004 C 
ENDBRANCH  18  19
ENDBRANCH  17  18
ENDBRANCH  16  17
ENDBRANCH  15  16
ENDBRANCH  13  14
ENDBRANCH  12  13
ENDBRANCH   1  11
TORSDOF 14
ENDMDL
MODEL 4
REMARK VINA RESULT:    -4.202     11.091     13.565
REMARK INTER + INTRA:          -9.615
REMARK INTER:                  -6.945
REMARK INTRA:                  -2.670
REMARK UNBOUND:                -1.974
REMARK SMILES CCCCCC=CCC=CCCCCCCCC(=O)[O-]
REMARK SMILES IDX 11 1 12 2 13 3 14 4 15 5 16 6 17 7 18 8 19 9 20 10 10 11
REMARK SMILES IDX 9 12 8 13 7 14 6 15 5 16 4 17 3 18 2 19 1 20
REMARK H PARENT
REMARK Flexibility Score: inf
ROOT
ATOM      1  C   UNL     1      22.570  24.792  23.711  1.00  0.00     0.027 C 
ENDROOT
BRANCH   1   2
ATOM      2  C   UNL     1      21.576  23.932  24.506  1.00  0.00     0.004 C 
BRANCH   2   3
ATOM      3  C   UNL     1      20.385  23.468  23.651  1.00  0.00     0.000 C 
BRANCH   3   4
ATOM      4  C   UNL     1      19.138  23.160  24.500  1.00  0.00     0.000 C 
BRANCH   4   5
ATOM      5  C   UNL     1      17.953  24.086  24.176  1.00  0.00     0.000 C 
BRANCH   5   6
ATOM      6  C   UNL     1      18.307  25.151  23.124  1.00  0.00     0.006 C 
BRANCH   6   7
ATOM      7  C   UNL     1      17.924  26.554  23.612  1.00  0.00     0.053 C 
BRANCH   7   8
ATOM      8  C   UNL     1      18.717  26.926  24.828  1.00  0.00     0.041 C 
ATOM      9  O   UNL     1      18.124  27.262  25.888  1.00  0.00    -0.550 OA
ATOM     10  O   UNL     1      20.106  26.952  24.776  1.00  0.00    -0.550 OA
ENDBRANCH   7   8
ENDBRANCH   6   7
ENDBRANCH   5   6
ENDBRANCH   4   5
ENDBRANCH   3   4
ENDBRANCH   2   3
ENDBRANCH   1   2
BRANCH   1  11
ATOM     11  C   UNL     1      22.935  24.130  22.407  1.00  0.00    -0.031 C 
ATOM     12  C   UNL     1      22.548  24.569  21.194  1.00  0.00    -0.027 C 
BRANCH  12  13
ATOM     13  C   UNL     1      21.676  25.776  20.956  1.00  0.00     0.054 C 
BRANCH  13  14
ATOM     14  C   UNL     1      20.370  25.397  20.320  1.00  0.00    -0.027 C 
ATOM     15  C   UNL     1      20.084  24.111  20.065  1.00  0.00    -0.031 C 
BRANCH  15  16
ATOM     16  C   UNL     1      18.795  23.706  19.401  1.00  0.00     0.027 C 
BRANCH  16  17
ATOM     17  C   UNL     1      18.511  22.203  19.547  1.00  0.00     0.004 C 
BRANCH  17  18
ATOM     18  C   UNL     1      19.032  21.638  20.880  1.00  0.00     0.000 C 
BRANCH  18  19
ATOM     19  C   UNL     1      20.001  20.463  20.682  1.00  0.00    -0.003 C 
ATOM     20  C   UNL     1      21.463  20.912  20.610  1.00  0.00     0.004 C 
ENDBRANCH  18  19
ENDBRANCH  17  18
ENDBRANCH  16  17
ENDBRANCH  15  16
ENDBRANCH  13  14
ENDBRANCH  12  13
ENDBRANCH   1  11
TORSDOF 14
ENDMDL
MODEL 5
REMARK VINA RESULT:    -4.159     10.907     13.678
REMARK INTER + INTRA:          -9.537
REMARK INTER:                  -6.905
REMARK INTRA:                  -2.632
REMARK UNBOUND:                -1.974
REMARK SMILES CCCCCC=CCC=CCCCCCCCC(=O)[O-]
REMARK SMILES IDX 11 1 12 2 13 3 14 4 15 5 16 6 17 7 18 8 19 9 20 10 10 11
REMARK SMILES IDX 9 12 8 13 7 14 6 15 5 16 4 17 3 18 2 19 1 20
REMARK H PARENT
REMARK Flexibility Score: inf
ROOT
ATOM      1  C   UNL     1      22.763  24.480  24.064  1.00  0.00     0.027 C 
ENDROOT
BRANCH   1   2
ATOM      2  C   UNL     1      21.354  24.268  24.636  1.00  0.00     0.004 C 
BRANCH   2   3
ATOM      3  C   UNL     1      20.411  25.443  24.330  1.00  0.00     0.000 C 
BRANCH   3   4
ATOM      4  C   UNL     1      19.019  24.975  23.869  1.00  0.00     0.000 C 
BRANCH   4   5
ATOM      5  C   UNL     1      19.056  24.229  22.524  1.00  0.00     0.000 C 
BRANCH   5   6
ATOM      6  C   UNL     1      18.486  25.067  21.368  1.00  0.00     0.006 C 
BRANCH   6   7
ATOM      7  C   UNL     1      19.611  25.650  20.503  1.00  0.00     0.053 C 
BRANCH   7   8
ATOM      8  C   UNL     1      19.727  27.129  20.712  1.00  0.00     0.041 C 
ATOM      9  O   UNL     1      18.940  27.913  20.117  1.00  0.00    -0.550 OA
ATOM     10  O   UNL     1      20.735  27.644  21.518  1.00  0.00    -0.550 OA
ENDBRANCH   7   8
ENDBRANCH   6   7
ENDBRANCH   5   6
ENDBRANCH   4   5
ENDBRANCH   3   4
ENDBRANCH   2   3
ENDBRANCH   1   2
BRANCH   1  11
ATOM     11  C   UNL     1      22.700  25.000  22.650  1.00  0.00    -0.031 C 
ATOM     12  C   UNL     1      22.741  24.224  21.550  1.00  0.00    -0.027 C 
BRANCH  12  13
ATOM     13  C   UNL     1      22.876  22.723  21.562  1.00  0.00     0.054 C 
BRANCH  13  14
ATOM     14  C   UNL     1      21.636  22.052  21.046  1.00  0.00    -0.027 C 
ATOM     15  C   UNL     1      21.126  22.388  19.852  1.00  0.00    -0.031 C 
BRANCH  15  16
ATOM     16  C   UNL     1      19.867  21.754  19.324  1.00  0.00     0.027 C 
BRANCH  16  17
ATOM     17  C   UNL     1      20.059  20.268  18.984  1.00  0.00     0.004 C 
BRANCH  17  18
ATOM     18  C   UNL     1      19.455  19.342  20.055  1.00  0.00     0.000 C 
BRANCH  18  19
ATOM     19  C   UNL     1      20.357  18.139  20.369  1.00  0.00    -0.003 C 
ATOM     20  C   UNL     1      21.203  18.351  21.627  1.00  0.00     0.004 C 
ENDBRANCH  18  19
ENDBRANCH  17  18
ENDBRANCH  16  17
ENDBRANCH  15  16
ENDBRANCH  13  14
ENDBRANCH  12  13
ENDBRANCH   1  11
TORSDOF 14
ENDMDL
MODEL 6
REMARK VINA RESULT:    -4.116     11.384     14.073
REMARK INTER + INTRA:          -9.458
REMARK INTER:                  -7.022
REMARK INTRA:                  -2.436
REMARK UNBOUND:                -1.974
REMARK SMILES CCCCCC=CCC=CCCCCCCCC(=O)[O-]
REMARK SMILES IDX 11 1 12 2 13 3 14 4 15 5 16 6 17 7 18 8 19 9 20 10 10 11
REMARK SMILES IDX 9 12 8 13 7 14 6 15 5 16 4 17 3 18 2 19 1 20
REMARK H PARENT
REMARK Flexibility Score: inf
ROOT
ATOM      1  C   UNL     1      19.879  24.610  20.681  1.00  0.00     0.027 C 
ENDROOT
BRANCH   1   2
ATOM      2  C   UNL     1      21.163  25.442  20.548  1.00  0.00     0.004 C 
BRANCH   2   3
ATOM      3  C   UNL     1      22.411  24.678  21.019  1.00  0.00     0.000 C 
BRANCH   3   4
ATOM      4  C   UNL     1      22.168  23.905  22.329  1.00  0.00     0.000 C 
BRANCH   4   5
ATOM      5  C   UNL     1      22.547  24.716  23.579  1.00  0.00     0.000 C 
BRANCH   5   6
ATOM      6  C   UNL     1      21.335  25.022  24.475  1.00  0.00     0.006 C 
BRANCH   6   7
ATOM      7  C   UNL     1      20.605  26.285  24.001  1.00  0.00     0.053 C 
BRANCH   7   8
ATOM      8  C   UNL     1      19.381  26.531  24.829  1.00  0.00     0.041 C 
ATOM      9  O   UNL     1      18.339  25.852  24.631  1.00  0.00    -0.550 OA
ATOM     10  O   UNL     1      19.374  27.544  25.781  1.00  0.00    -0.550 OA
ENDBRANCH   7   8
ENDBRANCH   6   7
ENDBRANCH   5   6
ENDBRANCH   4   5
ENDBRANCH   3   4
ENDBRANCH   2   3
ENDBRANCH   1   2
BRANCH   1  11
ATOM     11  C   UNL     1      19.100  24.609  19.390  1.00  0.00    -0.031 C 
ATOM     12  C   UNL     1      19.418  23.872  18.308  1.00  0.00    -0.027 C 
BRANCH  12  13
ATOM     13  C   UNL     1      20.609  22.952  18.216  1.00  0.00     0.054 C 
BRANCH  13  14
ATOM     14  C   UNL     1      20.393  21.690  19.001  1.00  0.00    -0.027 C 
ATOM     15  C   UNL     1      21.312  21.272  19.884  1.00  0.00    -0.031 C 
BRANCH  15  16
ATOM     16  C   UNL     1      21.136  19.995  20.662  1.00  0.00     0.027 C 
BRANCH  16  17
ATOM     17  C   UNL     1      19.656  19.652  20.894  1.00  0.00     0.004 C 
BRANCH  17  18
ATOM     18  C   UNL     1      19.169  20.083  22.288  1.00  0.00     0.000 C 
BRANCH  18  19
ATOM     19  C   UNL     1      18.562  21.494  22.288  1.00  0.00    -0.003 C 
ATOM     20  C   UNL     1      18.966  22.309  23.519  1.00  0.00     0.004 C 
ENDBRANCH  18  19
ENDBRANCH  17  18
ENDBRANCH  16  17
ENDBRANCH  15  16
ENDBRANCH  13  14
ENDBRANCH  12  13
ENDBRANCH   1  11
TORSDOF 14
ENDMDL
MODEL 7
REMARK VINA RESULT:    -4.108     11.612     14.062
REMARK INTER + INTRA:          -9.443
REMARK INTER:                  -6.535
REMARK INTRA:                  -2.908
REMARK UNBOUND:                -1.974
REMARK SMILES CCCCCC=CCC=CCCCCCCCC(=O)[O-]
REMARK SMILES IDX 11 1 12 2 13 3 14 4 15 5 16 6 17 7 18 8 19 9 20 10 10 11
REMARK SMILES IDX 9 12 8 13 7 14 6 15 5 16 4 17 3 18 2 19 1 20
REMARK H PARENT
REMARK Flexibility Score: inf
ROOT
ATOM      1  C   UNL     1      22.391  25.006  20.961  1.00  0.00     0.027 C 
ENDROOT
BRANCH   1   2
ATOM      2  C   UNL     1      21.086  24.949  20.154  1.00  0.00     0.004 C 
BRANCH   2   3
ATOM      3  C   UNL     1      20.909  23.614  19.412  1.00  0.00     0.000 C 
BRANCH   3   4
ATOM      4  C   UNL     1      19.496  23.451  18.824  1.00  0.00     0.000 C 
BRANCH   4   5
ATOM      5  C   UNL     1      19.044  21.982  18.757  1.00  0.00     0.000 C 
BRANCH   5   6
ATOM      6  C   UNL     1      20.219  21.011  18.561  1.00  0.00     0.006 C 
BRANCH   6   7
ATOM      7  C   UNL     1      20.003  19.718  19.357  1.00  0.00     0.053 C 
BRANCH   7   8
ATOM      8  C   UNL     1      20.698  19.791  20.683  1.00  0.00     0.041 C 
ATOM      9  O   UNL     1      21.750  20.472  20.807  1.00  0.00    -0.550 OA
ATOM     10  O   UNL     1      20.214  19.065  21.766  1.00  0.00    -0.550 OA
ENDBRANCH   7   8
ENDBRANCH   6   7
ENDBRANCH   5   6
ENDBRANCH   4   5
ENDBRANCH   3   4
ENDBRANCH   2   3
ENDBRANCH   1   2
BRANCH   1  11
ATOM     11  C   UNL     1      22.631  23.709  21.693  1.00  0.00    -0.031 C 
ATOM     12  C   UNL     1      22.814  23.608  23.024  1.00  0.00    -0.027 C 
BRANCH  12  13
ATOM     13  C   UNL     1      22.827  24.773  23.980  1.00  0.00     0.054 C 
BRANCH  13  14
ATOM     14  C   UNL     1      21.497  24.948  24.656  1.00  0.00    -0.027 C 
ATOM     15  C   UNL     1      20.549  25.718  24.104  1.00  0.00    -0.031 C 
BRANCH  15  16
ATOM     16  C   UNL     1      19.219  25.935  24.775  1.00  0.00     0.027 C 
BRANCH  16  17
ATOM     17  C   UNL     1      18.066  25.257  24.018  1.00  0.00     0.004 C 
BRANCH  17  18
ATOM     18  C   UNL     1      18.453  24.888  22.576  1.00  0.00     0.000 C 
BRANCH  18  19
ATOM     19  C   UNL     1      18.157  23.417  22.246  1.00  0.00    -0.003 C 
ATOM     20  C   UNL     1      19.272  22.474  22.706  1.00  0.00     0.004 C 
ENDBRANCH  18  19
ENDBRANCH  17  18
ENDBRANCH  16  17
ENDBRANCH  15  16
ENDBRANCH  13  14
ENDBRANCH  12  13
ENDBRANCH   1  11
TORSDOF 14
ENDMDL
MODEL 8
REMARK VINA RESULT:    -4.064     10.898     13.414
REMARK INTER + INTRA:          -9.364
REMARK INTER:                  -6.568
REMARK INTRA:                  -2.796
REMARK UNBOUND:                -1.974
REMARK SMILES CCCCCC=CCC=CCCCCCCCC(=O)[O-]
REMARK SMILES IDX 11 1 12 2 13 3 14 4 15 5 16 6 17 7 18 8 19 9 20 10 10 11
REMARK SMILES IDX 9 12 8 13 7 14 6 15 5 16 4 17 3 18 2 19 1 20
REMARK H PARENT
REMARK Flexibility Score: inf
ROOT
ATOM      1  C   UNL     1      20.689  25.711  24.318  1.00  0.00     0.027 C 
ENDROOT
BRANCH   1   2
ATOM      2  C   UNL     1      19.347  25.037  24.637  1.00  0.00     0.004 C 
BRANCH   2   3
ATOM      3  C   UNL     1      19.311  23.562  24.205  1.00  0.00     0.000 C 
BRANCH   3   4
ATOM      4  C   UNL     1      18.215  23.282  23.160  1.00  0.00     0.000 C 
BRANCH   4   5
ATOM      5  C   UNL     1      18.694  23.516  21.717  1.00  0.00     0.000 C 
BRANCH   5   6
ATOM      6  C   UNL     1      18.264  24.886  21.166  1.00  0.00     0.006 C 
BRANCH   6   7
ATOM      7  C   UNL     1      19.414  25.559  20.406  1.00  0.00     0.053 C 
BRANCH   7   8
ATOM      8  C   UNL     1      19.446  27.030  20.690  1.00  0.00     0.041 C 
ATOM      9  O   UNL     1      18.502  27.768  20.301  1.00  0.00    -0.550 OA
ATOM     10  O   UNL     1      20.542  27.593  21.335  1.00  0.00    -0.550 OA
ENDBRANCH   7   8
ENDBRANCH   6   7
ENDBRANCH   5   6
ENDBRANCH   4   5
ENDBRANCH   3   4
ENDBRANCH   2   3
ENDBRANCH   1   2
BRANCH   1  11
ATOM     11  C   UNL     1      21.836  24.751  24.511  1.00  0.00    -0.031 C 
ATOM     12  C   UNL     1      22.743  24.446  23.563  1.00  0.00    -0.027 C 
BRANCH  12  13
ATOM     13  C   UNL     1      22.740  25.001  22.162  1.00  0.00     0.054 C 
BRANCH  13  14
ATOM     14  C   UNL     1      22.422  23.940  21.148  1.00  0.00    -0.027 C 
ATOM     15  C   UNL     1      22.198  22.675  21.533  1.00  0.00    -0.031 C 
BRANCH  15  16
ATOM     16  C   UNL     1      21.908  21.586  20.535  1.00  0.00     0.027 C 
BRANCH  16  17
ATOM     17  C   UNL     1      21.026  22.076  19.376  1.00  0.00     0.004 C 
BRANCH  17  18
ATOM     18  C   UNL     1      20.297  20.919  18.670  1.00  0.00     0.000 C 
BRANCH  18  19
ATOM     19  C   UNL     1      18.783  20.935  18.925  1.00  0.00    -0.003 C 
ATOM     20  C   UNL     1      18.390  20.163  20.187  1.00  0.00     0.004 C 
ENDBRANCH  18  19
ENDBRANCH  17  18
ENDBRANCH  16  17
ENDBRANCH  15  16
ENDBRANCH  13  14
ENDBRANCH  12  13
ENDBRANCH   1  11
TORSDOF 14
ENDMDL
MODEL 9
REMARK VINA RESULT:    -4.058     11.166     13.729
REMARK INTER + INTRA:          -9.352
REMARK INTER:                  -6.395
REMARK INTRA:                  -2.957
REMARK UNBOUND:                -1.974
REMARK SMILES CCCCCC=CCC=CCCCCCCCC(=O)[O-]
REMARK SMILES IDX 11 1 12 2 13 3 14 4 15 5 16 6 17 7 18 8 19 9 20 10 10 11
REMARK SMILES IDX 9 12 8 13 7 14 6 15 5 16 4 17 3 18 2 19 1 20
REMARK H PARENT
REMARK Flexibility Score: inf
ROOT
ATOM      1  C   UNL     1      21.971  24.653  24.600  1.00  0.00     0.027 C 
ENDROOT
BRANCH   1   2
ATOM      2  C   UNL     1      22.809  24.771  23.319  1.00  0.00     0.004 C 
BRANCH   2   3
ATOM      3  C   UNL     1      22.209  23.978  22.147  1.00  0.00     0.000 C 
BRANCH   3   4
ATOM      4  C   UNL     1      22.406  24.689  20.795  1.00  0.00     0.000 C 
BRANCH   4   5
ATOM      5  C   UNL     1      21.104  24.795  19.983  1.00  0.00     0.000 C 
BRANCH   5   6
ATOM      6  C   UNL     1      19.859  24.446  20.815  1.00  0.00     0.006 C 
BRANCH   6   7
ATOM      7  C   UNL     1      18.633  25.228  20.325  1.00  0.00     0.053 C 
BRANCH   7   8
ATOM      8  C   UNL     1      18.708  26.659  20.764  1.00  0.00     0.041 C 
ATOM      9  O   UNL     1      18.623  26.948  21.987  1.00  0.00    -0.550 OA
ATOM     10  O   UNL     1      18.818  27.674  19.820  1.00  0.00    -0.550 OA
ENDBRANCH   7   8
ENDBRANCH   6   7
ENDBRANCH   5   6
ENDBRANCH   4   5
ENDBRANCH   3   4
ENDBRANCH   2   3
ENDBRANCH   1   2
BRANCH   1  11
ATOM     11  C   UNL     1      20.644  25.352  24.444  1.00  0.00    -0.031 C 
ATOM     12  C   UNL     1      19.449  24.729  24.444  1.00  0.00    -0.027 C 
BRANCH  12  13
ATOM     13  C   UNL     1      19.257  23.240  24.580  1.00  0.00     0.054 C 
BRANCH  13  14
ATOM     14  C   UNL     1      18.531  22.667  23.397  1.00  0.00    -0.027 C 
ATOM     15  C   UNL     1      18.919  21.501  22.859  1.00  0.00    -0.031 C 
BRANCH  15  16
ATOM     16  C   UNL     1      18.229  20.919  21.654  1.00  0.00     0.027 C 
BRANCH  16  17
ATOM     17  C   UNL     1      19.172  20.788  20.448  1.00  0.00     0.004 C 
BRANCH  17  18
ATOM     18  C   UNL     1      20.642  20.631  20.872  1.00  0.00     0.000 C 
BRANCH  18  19
ATOM     19  C   UNL     1      21.621  21.124  19.796  1.00  0.00    -0.003 C 
ATOM     20  C   UNL     1      20.945  21.341  18.440  1.00  0.00     0.004 C 
ENDBRANCH  18  19
ENDBRANCH  17  18
ENDBRANCH  16  17
ENDBRANCH  15  16
ENDBRANCH  13  14
ENDBRANCH  12  13
ENDBRANCH   1  11
TORSDOF 14
ENDMDL
