MODEL 1
REMARK VINA RESULT:    -5.917      0.000      0.000
REMARK INTER + INTRA:          -7.755
REMARK INTER:                  -7.301
REMARK INTRA:                  -0.454
REMARK UNBOUND:                -0.454
REMARK SMILES COC(=O)c1ccccc1C(=O)OC
REMARK SMILES IDX 5 1 6 2 7 3 8 4 9 5 10 6 3 7 4 8 2 9 1 10 11 11 12 12 13 13
REMARK SMILES IDX 14 14
REMARK H PARENT
REMARK Flexibility Score: inf
ROOT
ATOM      1  C   UNL     1     149.389 169.917 150.648  1.00  0.00     0.074 A 
ATOM      2  C   UNL     1     148.833 169.620 149.390  1.00  0.00     0.016 A 
ATOM      3  C   UNL     1     149.479 168.750 148.511  1.00  0.00     0.001 A 
ATOM      4  C   UNL     1     150.689 168.163 148.872  1.00  0.00     0.001 A 
ATOM      5  C   UNL     1     151.247 168.425 150.124  1.00  0.00     0.016 A 
ATOM      6  C   UNL     1     150.602 169.281 151.035  1.00  0.00     0.074 A 
ENDROOT
BRANCH   1   7
ATOM      7  C   UNL     1     148.709 170.934 151.481  1.00  0.00     0.338 C 
ATOM      8  O   UNL     1     149.128 172.125 151.501  1.00  0.00    -0.246 OA
BRANCH   7   9
ATOM      9  O   UNL     1     147.563 170.582 152.202  1.00  0.00    -0.465 OA
ATOM     10  C   UNL     1     147.597 169.689 153.308  1.00  0.00     0.282 C 
ENDBRANCH   7   9
ENDBRANCH   1   7
BRANCH   6  11
ATOM     11  C   UNL     1     151.192 169.424 152.386  1.00  0.00     0.338 C 
ATOM     12  O   UNL     1     150.976 168.550 153.271  1.00  0.00    -0.246 OA
BRANCH  11  13
ATOM     13  O   UNL     1     152.038 170.504 152.658  1.00  0.00    -0.465 OA
ATOM     14  C   UNL     1     151.788 171.429 153.708  1.00  0.00     0.282 C 
ENDBRANCH  11  13
ENDBRANCH   6  11
TORSDOF 4
ENDMDL
MODEL 2
REMARK VINA RESULT:    -5.915      0.053      3.405
REMARK INTER + INTRA:          -7.752
REMARK INTER:                  -7.296
REMARK INTRA:                  -0.456
REMARK UNBOUND:                -0.454
REMARK SMILES COC(=O)c1ccccc1C(=O)OC
REMARK SMILES IDX 5 1 6 2 7 3 8 4 9 5 10 6 3 7 4 8 2 9 1 10 11 11 12 12 13 13
REMARK SMILES IDX 14 14
REMARK H PARENT
REMARK Flexibility Score: inf
ROOT
ATOM      1  C   UNL     1     150.565 169.293 151.021  1.00  0.00     0.074 A 
ATOM      2  C   UNL     1     151.213 168.441 150.108  1.00  0.00     0.016 A 
ATOM      3  C   UNL     1     150.654 168.174 148.858  1.00  0.00     0.001 A 
ATOM      4  C   UNL     1     149.439 168.753 148.499  1.00  0.00     0.001 A 
ATOM      5  C   UNL     1     148.789 169.619 149.379  1.00  0.00     0.016 A 
ATOM      6  C   UNL     1     149.346 169.920 150.636  1.00  0.00     0.074 A 
ENDROOT
BRANCH   1   7
ATOM      7  C   UNL     1     151.157 169.441 152.369  1.00  0.00     0.338 C 
ATOM      8  O   UNL     1     150.965 168.557 153.250  1.00  0.00    -0.246 OA
BRANCH   7   9
ATOM      9  O   UNL     1     151.980 170.538 152.645  1.00  0.00    -0.465 OA
ATOM     10  C   UNL     1     151.753 171.410 153.745  1.00  0.00     0.282 C 
ENDBRANCH   7   9
ENDBRANCH   1   7
BRANCH   6  11
ATOM     11  C   UNL     1     148.662 170.934 151.470  1.00  0.00     0.338 C 
ATOM     12  O   UNL     1     149.079 172.125 151.497  1.00  0.00    -0.246 OA
BRANCH  11  13
ATOM     13  O   UNL     1     147.513 170.577 152.185  1.00  0.00    -0.465 OA
ATOM     14  C   UNL     1     147.557 169.773 153.357  1.00  0.00     0.282 C 
ENDBRANCH  11  13
ENDBRANCH   6  11
TORSDOF 4
ENDMDL
MODEL 3
REMARK VINA RESULT:    -5.667      0.908      3.138
REMARK INTER + INTRA:          -7.446
REMARK INTER:                  -7.073
REMARK INTRA:                  -0.374
REMARK UNBOUND:                -0.454
REMARK SMILES COC(=O)c1ccccc1C(=O)OC
REMARK SMILES IDX 5 1 6 2 7 3 8 4 9 5 10 6 3 7 4 8 2 9 1 10 11 11 12 12 13 13
REMARK SMILES IDX 14 14
REMARK H PARENT
REMARK Flexibility Score: inf
ROOT
ATOM      1  C   UNL     1     150.607 169.192 150.896  1.00  0.00     0.074 A 
ATOM      2  C   UNL     1     151.033 168.405 149.810  1.00  0.00     0.016 A 
ATOM      3  C   UNL     1     150.298 168.368 148.625  1.00  0.00     0.001 A 
ATOM      4  C   UNL     1     149.128 169.113 148.504  1.00  0.00     0.001 A 
ATOM      5  C   UNL     1     148.699 169.918 149.560  1.00  0.00     0.016 A 
ATOM      6  C   UNL     1     149.436 169.989 150.757  1.00  0.00     0.074 A 
ENDROOT
BRANCH   1   7
ATOM      7  C   UNL     1     151.372 169.096 152.161  1.00  0.00     0.338 C 
ATOM      8  O   UNL     1     152.426 169.772 152.321  1.00  0.00    -0.246 OA
BRANCH   7   9
ATOM      9  O   UNL     1     150.888 168.295 153.201  1.00  0.00    -0.465 OA
ATOM     10  C   UNL     1     149.967 167.234 152.986  1.00  0.00     0.282 C 
ENDBRANCH   7   9
ENDBRANCH   1   7
BRANCH   6  11
ATOM     11  C   UNL     1     148.985 170.949 151.790  1.00  0.00     0.338 C 
ATOM     12  O   UNL     1     149.566 172.062 151.922  1.00  0.00    -0.246 OA
BRANCH  11  13
ATOM     13  O   UNL     1     147.874 170.638 152.582  1.00  0.00    -0.465 OA
ATOM     14  C   UNL     1     147.990 170.218 153.935  1.00  0.00     0.282 C 
ENDBRANCH  11  13
ENDBRANCH   6  11
TORSDOF 4
ENDMDL
MODEL 4
REMARK VINA RESULT:    -5.556      1.602      3.446
REMARK INTER + INTRA:          -7.309
REMARK INTER:                  -6.826
REMARK INTRA:                  -0.483
REMARK UNBOUND:                -0.454
REMARK SMILES COC(=O)c1ccccc1C(=O)OC
REMARK SMILES IDX 5 1 6 2 7 3 8 4 9 5 10 6 3 7 4 8 2 9 1 10 11 11 12 12 13 13
REMARK SMILES IDX 14 14
REMARK H PARENT
REMARK Flexibility Score: inf
ROOT
ATOM      1  C   UNL     1     150.410 170.826 152.175  1.00  0.00     0.074 A 
ATOM      2  C   UNL     1     151.155 171.714 152.972  1.00  0.00     0.016 A 
ATOM      3  C   UNL     1     152.472 171.422 153.327  1.00  0.00     0.001 A 
ATOM      4  C   UNL     1     153.066 170.240 152.894  1.00  0.00     0.001 A 
ATOM      5  C   UNL     1     152.354 169.355 152.084  1.00  0.00     0.016 A 
ATOM      6  C   UNL     1     151.032 169.639 151.695  1.00  0.00     0.074 A 
ENDROOT
BRANCH   1   7
ATOM      7  C   UNL     1     148.985 171.145 151.932  1.00  0.00     0.338 C 
ATOM      8  O   UNL     1     148.664 172.033 151.095  1.00  0.00    -0.246 OA
BRANCH   7   9
ATOM      9  O   UNL     1     147.992 170.415 152.595  1.00  0.00    -0.465 OA
ATOM     10  C   UNL     1     146.982 169.691 151.903  1.00  0.00     0.282 C 
ENDBRANCH   7   9
ENDBRANCH   1   7
BRANCH   6  11
ATOM     11  C   UNL     1     150.377 168.713 150.744  1.00  0.00     0.338 C 
ATOM     12  O   UNL     1     149.867 167.634 151.154  1.00  0.00    -0.246 OA
BRANCH  11  13
ATOM     13  O   UNL     1     150.275 169.069 149.394  1.00  0.00    -0.465 OA
ATOM     14  C   UNL     1     149.027 169.164 148.719  1.00  0.00     0.282 C 
ENDBRANCH  11  13
ENDBRANCH   6  11
TORSDOF 4
ENDMDL
MODEL 5
REMARK VINA RESULT:    -5.553      1.571      4.340
REMARK INTER + INTRA:          -7.305
REMARK INTER:                  -6.816
REMARK INTRA:                  -0.489
REMARK UNBOUND:                -0.454
REMARK SMILES COC(=O)c1ccccc1C(=O)OC
REMARK SMILES IDX 5 1 6 2 7 3 8 4 9 5 10 6 3 7 4 8 2 9 1 10 11 11 12 12 13 13
REMARK SMILES IDX 14 14
REMARK H PARENT
REMARK Flexibility Score: inf
ROOT
ATOM      1  C   UNL     1     151.056 169.635 151.792  1.00  0.00     0.074 A 
ATOM      2  C   UNL     1     152.364 169.349 152.226  1.00  0.00     0.016 A 
ATOM      3  C   UNL     1     153.058 170.245 153.040  1.00  0.00     0.001 A 
ATOM      4  C   UNL     1     152.461 171.439 153.433  1.00  0.00     0.001 A 
ATOM      5  C   UNL     1     151.156 171.733 153.033  1.00  0.00     0.016 A 
ATOM      6  C   UNL     1     150.429 170.835 152.231  1.00  0.00     0.074 A 
ENDROOT
BRANCH   1   7
ATOM      7  C   UNL     1     150.423 168.696 150.839  1.00  0.00     0.338 C 
ATOM      8  O   UNL     1     149.887 167.631 151.255  1.00  0.00    -0.246 OA
BRANCH   7   9
ATOM      9  O   UNL     1     150.370 169.022 149.480  1.00  0.00    -0.465 OA
ATOM     10  C   UNL     1     149.145 169.174 148.775  1.00  0.00     0.282 C 
ENDBRANCH   7   9
ENDBRANCH   1   7
BRANCH   6  11
ATOM     11  C   UNL     1     149.014 171.159 151.941  1.00  0.00     0.338 C 
ATOM     12  O   UNL     1     148.724 172.017 151.061  1.00  0.00    -0.246 OA
BRANCH  11  13
ATOM     13  O   UNL     1     147.997 170.465 152.606  1.00  0.00    -0.465 OA
ATOM     14  C   UNL     1     147.000 169.720 151.918  1.00  0.00     0.282 C 
ENDBRANCH  11  13
ENDBRANCH   6  11
TORSDOF 4
ENDMDL
MODEL 6
REMARK VINA RESULT:    -5.349     14.442     16.013
REMARK INTER + INTRA:          -7.054
REMARK INTER:                  -6.879
REMARK INTRA:                  -0.175
REMARK UNBOUND:                -0.454
REMARK SMILES COC(=O)c1ccccc1C(=O)OC
REMARK SMILES IDX 5 1 6 2 7 3 8 4 9 5 10 6 3 7 4 8 2 9 1 10 11 11 12 12 13 13
REMARK SMILES IDX 14 14
REMARK H PARENT
REMARK Flexibility Score: inf
ROOT
ATOM      1  C   UNL     1     150.871 156.726 159.972  1.00  0.00     0.074 A 
ATOM      2  C   UNL     1     149.596 157.096 160.437  1.00  0.00     0.016 A 
ATOM      3  C   UNL     1     148.808 157.998 159.722  1.00  0.00     0.001 A 
ATOM      4  C   UNL     1     149.281 158.547 158.533  1.00  0.00     0.001 A 
ATOM      5  C   UNL     1     150.533 158.178 158.041  1.00  0.00     0.016 A 
ATOM      6  C   UNL     1     151.335 157.253 158.733  1.00  0.00     0.074 A 
ENDROOT
BRANCH   1   7
ATOM      7  C   UNL     1     151.697 155.854 160.837  1.00  0.00     0.338 C 
ATOM      8  O   UNL     1     152.077 156.257 161.971  1.00  0.00    -0.246 OA
BRANCH   7   9
ATOM      9  O   UNL     1     152.005 154.556 160.415  1.00  0.00    -0.465 OA
ATOM     10  C   UNL     1     153.275 153.957 160.640  1.00  0.00     0.282 C 
ENDBRANCH   7   9
ENDBRANCH   1   7
BRANCH   6  11
ATOM     11  C   UNL     1     152.600 156.821 158.096  1.00  0.00     0.338 C 
ATOM     12  O   UNL     1     153.700 156.974 158.697  1.00  0.00    -0.246 OA
BRANCH  11  13
ATOM     13  O   UNL     1     152.564 156.190 156.848  1.00  0.00    -0.465 OA
ATOM     14  C   UNL     1     152.420 154.783 156.705  1.00  0.00     0.282 C 
ENDBRANCH  11  13
ENDBRANCH   6  11
TORSDOF 4
ENDMDL
MODEL 7
REMARK VINA RESULT:    -5.335     14.423     15.944
REMARK INTER + INTRA:          -7.037
REMARK INTER:                  -6.869
REMARK INTRA:                  -0.168
REMARK UNBOUND:                -0.454
REMARK SMILES COC(=O)c1ccccc1C(=O)OC
REMARK SMILES IDX 5 1 6 2 7 3 8 4 9 5 10 6 3 7 4 8 2 9 1 10 11 11 12 12 13 13
REMARK SMILES IDX 14 14
REMARK H PARENT
REMARK Flexibility Score: inf
ROOT
ATOM      1  C   UNL     1     151.328 157.257 158.711  1.00  0.00     0.074 A 
ATOM      2  C   UNL     1     150.523 158.185 158.027  1.00  0.00     0.016 A 
ATOM      3  C   UNL     1     149.276 158.558 158.530  1.00  0.00     0.001 A 
ATOM      4  C   UNL     1     148.813 158.010 159.723  1.00  0.00     0.001 A 
ATOM      5  C   UNL     1     149.604 157.105 160.431  1.00  0.00     0.016 A 
ATOM      6  C   UNL     1     150.874 156.732 159.954  1.00  0.00     0.074 A 
ENDROOT
BRANCH   1   7
ATOM      7  C   UNL     1     152.586 156.822 158.063  1.00  0.00     0.338 C 
ATOM      8  O   UNL     1     153.691 156.970 158.654  1.00  0.00    -0.246 OA
BRANCH   7   9
ATOM      9  O   UNL     1     152.537 156.192 156.815  1.00  0.00    -0.465 OA
ATOM     10  C   UNL     1     152.415 154.783 156.671  1.00  0.00     0.282 C 
ENDBRANCH   7   9
ENDBRANCH   1   7
BRANCH   6  11
ATOM     11  C   UNL     1     151.705 155.856 160.812  1.00  0.00     0.338 C 
ATOM     12  O   UNL     1     152.078 156.250 161.952  1.00  0.00    -0.246 OA
BRANCH  11  13
ATOM     13  O   UNL     1     152.025 154.566 160.375  1.00  0.00    -0.465 OA
ATOM     14  C   UNL     1     153.314 153.993 160.558  1.00  0.00     0.282 C 
ENDBRANCH  11  13
ENDBRANCH   6  11
TORSDOF 4
ENDMDL
MODEL 8
REMARK VINA RESULT:    -5.098      2.307      3.478
REMARK INTER + INTRA:          -6.744
REMARK INTER:                  -6.433
REMARK INTRA:                  -0.312
REMARK UNBOUND:                -0.454
REMARK SMILES COC(=O)c1ccccc1C(=O)OC
REMARK SMILES IDX 5 1 6 2 7 3 8 4 9 5 10 6 3 7 4 8 2 9 1 10 11 11 12 12 13 13
REMARK SMILES IDX 14 14
REMARK H PARENT
REMARK Flexibility Score: inf
ROOT
ATOM      1  C   UNL     1     150.528 169.621 151.293  1.00  0.00     0.074 A 
ATOM      2  C   UNL     1     149.504 170.542 151.004  1.00  0.00     0.016 A 
ATOM      3  C   UNL     1     149.381 171.725 151.734  1.00  0.00     0.001 A 
ATOM      4  C   UNL     1     150.276 172.007 152.763  1.00  0.00     0.001 A 
ATOM      5  C   UNL     1     151.312 171.119 153.051  1.00  0.00     0.016 A 
ATOM      6  C   UNL     1     151.469 169.931 152.314  1.00  0.00     0.074 A 
ENDROOT
BRANCH   1   7
ATOM      7  C   UNL     1     150.530 168.337 150.556  1.00  0.00     0.338 C 
ATOM      8  O   UNL     1     151.308 168.165 149.577  1.00  0.00    -0.246 OA
BRANCH   7   9
ATOM      9  O   UNL     1     149.704 167.293 150.987  1.00  0.00    -0.465 OA
ATOM     10  C   UNL     1     149.245 167.182 152.328  1.00  0.00     0.282 C 
ENDBRANCH   7   9
ENDBRANCH   1   7
BRANCH   6  11
ATOM     11  C   UNL     1     152.656 169.092 152.599  1.00  0.00     0.338 C 
ATOM     12  O   UNL     1     152.603 168.191 153.481  1.00  0.00    -0.246 OA
BRANCH  11  13
ATOM     13  O   UNL     1     153.821 169.266 151.843  1.00  0.00    -0.465 OA
ATOM     14  C   UNL     1     154.801 168.246 151.698  1.00  0.00     0.282 C 
ENDBRANCH  11  13
ENDBRANCH   6  11
TORSDOF 4
ENDMDL
MODEL 9
REMARK VINA RESULT:    -4.939      1.406      3.863
REMARK INTER + INTRA:          -6.547
REMARK INTER:                  -6.199
REMARK INTRA:                  -0.348
REMARK UNBOUND:                -0.454
REMARK SMILES COC(=O)c1ccccc1C(=O)OC
REMARK SMILES IDX 5 1 6 2 7 3 8 4 9 5 10 6 3 7 4 8 2 9 1 10 11 11 12 12 13 13
REMARK SMILES IDX 14 14
REMARK H PARENT
REMARK Flexibility Score: inf
ROOT
ATOM      1  C   UNL     1     149.666 168.606 151.251  1.00  0.00     0.074 A 
ATOM      2  C   UNL     1     150.596 168.263 150.252  1.00  0.00     0.016 A 
ATOM      3  C   UNL     1     150.327 168.522 148.908  1.00  0.00     0.001 A 
ATOM      4  C   UNL     1     149.128 169.125 148.539  1.00  0.00     0.001 A 
ATOM      5  C   UNL     1     148.201 169.494 149.514  1.00  0.00     0.016 A 
ATOM      6  C   UNL     1     148.461 169.263 150.878  1.00  0.00     0.074 A 
ENDROOT
BRANCH   1   7
ATOM      7  C   UNL     1     149.967 168.200 152.643  1.00  0.00     0.338 C 
ATOM      8  O   UNL     1     149.885 166.987 152.985  1.00  0.00    -0.246 OA
BRANCH   7   9
ATOM      9  O   UNL     1     150.398 169.161 153.564  1.00  0.00    -0.465 OA
ATOM     10  C   UNL     1     151.159 170.299 153.185  1.00  0.00     0.282 C 
ENDBRANCH   7   9
ENDBRANCH   1   7
BRANCH   6  11
ATOM     11  C   UNL     1     147.486 169.783 151.864  1.00  0.00     0.338 C 
ATOM     12  O   UNL     1     147.423 171.020 152.107  1.00  0.00    -0.246 OA
BRANCH  11  13
ATOM     13  O   UNL     1     146.594 168.900 152.483  1.00  0.00    -0.465 OA
ATOM     14  C   UNL     1     146.010 167.797 151.802  1.00  0.00     0.282 C 
ENDBRANCH  11  13
ENDBRANCH   6  11
TORSDOF 4
ENDMDL
