MODEL 1
REMARK VINA RESULT:    -1.518      0.000      0.000
REMARK INTER + INTRA:          -2.943
REMARK INTER:                  -2.051
REMARK INTRA:                  -0.892
REMARK UNBOUND:                -0.892
REMARK SMILES C=CC(C)=CCC=C(C)CCC=C(C)C
REMARK SMILES IDX 8 1 7 2 9 3 10 4 11 5 12 6 14 7 13 8 15 9 6 10 5 11 3 12
REMARK SMILES IDX 4 13 2 14 1 15
REMARK H PARENT
REMARK Flexibility Score: inf
ROOT
ATOM      1  C   UNL     1     152.422 135.593 161.552  1.00  0.00    -0.077 C 
ATOM      2  C   UNL     1     152.599 136.540 160.602  1.00  0.00    -0.024 C 
ATOM      3  C   UNL     1     151.105 134.875 161.730  1.00  0.00     0.039 C 
ENDROOT
BRANCH   1   4
ATOM      4  C   UNL     1     153.573 135.252 162.473  1.00  0.00     0.034 C 
BRANCH   4   5
ATOM      5  C   UNL     1     154.580 136.406 162.538  1.00  0.00     0.032 C 
BRANCH   5   6
ATOM      6  C   UNL     1     154.335 137.261 163.755  1.00  0.00    -0.028 C 
ATOM      7  C   UNL     1     153.643 139.253 165.019  1.00  0.00     0.039 C 
ATOM      8  C   UNL     1     153.877 138.533 163.715  1.00  0.00    -0.080 C 
ATOM      9  C   UNL     1     153.614 139.249 162.411  1.00  0.00     0.039 C 
ENDBRANCH   5   6
ENDBRANCH   4   5
ENDBRANCH   1   4
BRANCH   2  10
ATOM     10  C   UNL     1     151.533 136.989 159.632  1.00  0.00     0.055 C 
BRANCH  10  11
ATOM     11  C   UNL     1     152.127 137.502 158.347  1.00  0.00    -0.020 C 
ATOM     12  C   UNL     1     151.716 137.155 157.110  1.00  0.00    -0.055 C 
ATOM     13  C   UNL     1     150.601 136.157 156.886  1.00  0.00     0.044 C 
BRANCH  12  14
ATOM     14  C   UNL     1     152.452 137.723 155.951  1.00  0.00    -0.005 C 
ATOM     15  C   UNL     1     153.636 138.327 156.051  1.00  0.00     0.009 C 
ENDBRANCH  12  14
ENDBRANCH  10  11
ENDBRANCH   2  10
TORSDOF 6
ENDMDL
MODEL 2
REMARK VINA RESULT:    -1.217     21.272     22.262
REMARK INTER + INTRA:          -2.535
REMARK INTER:                  -2.722
REMARK INTRA:                   0.186
REMARK UNBOUND:                -0.892
REMARK SMILES C=CC(C)=CCC=C(C)CCC=C(C)C
REMARK SMILES IDX 8 1 7 2 9 3 10 4 11 5 12 6 14 7 13 8 15 9 6 10 5 11 3 12
REMARK SMILES IDX 4 13 2 14 1 15
REMARK H PARENT
REMARK Flexibility Score: inf
ROOT
ATOM      1  C   UNL     1     138.962 153.702 161.271  1.00  0.00    -0.077 C 
ATOM      2  C   UNL     1     139.360 154.484 160.241  1.00  0.00    -0.024 C 
ATOM      3  C   UNL     1     138.807 152.206 161.125  1.00  0.00     0.039 C 
ENDROOT
BRANCH   1   4
ATOM      4  C   UNL     1     138.650 154.345 162.605  1.00  0.00     0.034 C 
BRANCH   4   5
ATOM      5  C   UNL     1     137.255 154.980 162.591  1.00  0.00     0.032 C 
BRANCH   5   6
ATOM      6  C   UNL     1     136.190 153.926 162.425  1.00  0.00    -0.028 C 
ATOM      7  C   UNL     1     134.939 151.873 162.937  1.00  0.00     0.039 C 
ATOM      8  C   UNL     1     136.083 152.821 163.196  1.00  0.00    -0.080 C 
ATOM      9  C   UNL     1     137.079 152.505 164.287  1.00  0.00     0.039 C 
ENDBRANCH   5   6
ENDBRANCH   4   5
ENDBRANCH   1   4
BRANCH   2  10
ATOM     10  C   UNL     1     139.684 153.977 158.857  1.00  0.00     0.055 C 
BRANCH  10  11
ATOM     11  C   UNL     1     138.472 153.402 158.174  1.00  0.00    -0.020 C 
ATOM     12  C   UNL     1     138.352 153.205 156.845  1.00  0.00    -0.055 C 
ATOM     13  C   UNL     1     139.449 153.584 155.875  1.00  0.00     0.044 C 
BRANCH  12  14
ATOM     14  C   UNL     1     137.061 152.671 156.338  1.00  0.00    -0.005 C 
ATOM     15  C   UNL     1     136.847 151.383 156.071  1.00  0.00     0.009 C 
ENDBRANCH  12  14
ENDBRANCH  10  11
ENDBRANCH   2  10
TORSDOF 6
ENDMDL
MODEL 3
REMARK VINA RESULT:    -0.619     21.173     22.750
REMARK INTER + INTRA:          -1.728
REMARK INTER:                  -2.113
REMARK INTRA:                   0.386
REMARK UNBOUND:                -0.892
REMARK SMILES C=CC(C)=CCC=C(C)CCC=C(C)C
REMARK SMILES IDX 8 1 7 2 9 3 10 4 11 5 12 6 14 7 13 8 15 9 6 10 5 11 3 12
REMARK SMILES IDX 4 13 2 14 1 15
REMARK H PARENT
REMARK Flexibility Score: inf
ROOT
ATOM      1  C   UNL     1     138.968 153.584 161.016  1.00  0.00    -0.077 C 
ATOM      2  C   UNL     1     138.763 154.704 161.747  1.00  0.00    -0.024 C 
ATOM      3  C   UNL     1     138.069 152.376 161.137  1.00  0.00     0.039 C 
ENDROOT
BRANCH   1   4
ATOM      4  C   UNL     1     140.140 153.535 160.060  1.00  0.00     0.034 C 
BRANCH   4   5
ATOM      5  C   UNL     1     139.777 154.183 158.720  1.00  0.00     0.032 C 
BRANCH   5   6
ATOM      6  C   UNL     1     138.510 153.585 158.162  1.00  0.00    -0.028 C 
ATOM      7  C   UNL     1     137.052 152.530 156.488  1.00  0.00     0.039 C 
ATOM      8  C   UNL     1     138.369 153.141 156.893  1.00  0.00    -0.080 C 
ATOM      9  C   UNL     1     139.481 153.257 155.876  1.00  0.00     0.039 C 
ENDBRANCH   5   6
ENDBRANCH   4   5
ENDBRANCH   1   4
BRANCH   2  10
ATOM     10  C   UNL     1     137.648 154.881 162.749  1.00  0.00     0.055 C 
BRANCH  10  11
ATOM     11  C   UNL     1     137.449 153.647 163.588  1.00  0.00    -0.020 C 
ATOM     12  C   UNL     1     136.311 152.927 163.649  1.00  0.00    -0.055 C 
ATOM     13  C   UNL     1     135.070 153.320 162.877  1.00  0.00     0.044 C 
BRANCH  12  14
ATOM     14  C   UNL     1     136.276 151.762 164.571  1.00  0.00    -0.005 C 
ATOM     15  C   UNL     1     137.346 151.303 165.222  1.00  0.00     0.009 C 
ENDBRANCH  12  14
ENDBRANCH  10  11
ENDBRANCH   2  10
TORSDOF 6
ENDMDL
MODEL 4
REMARK VINA RESULT:    -0.595      0.829      6.302
REMARK INTER + INTRA:          -1.696
REMARK INTER:                  -1.936
REMARK INTRA:                   0.240
REMARK UNBOUND:                -0.892
REMARK SMILES C=CC(C)=CCC=C(C)CCC=C(C)C
REMARK SMILES IDX 8 1 7 2 9 3 10 4 11 5 12 6 14 7 13 8 15 9 6 10 5 11 3 12
REMARK SMILES IDX 4 13 2 14 1 15
REMARK H PARENT
REMARK Flexibility Score: inf
ROOT
ATOM      1  C   UNL     1     151.773 136.405 161.188  1.00  0.00    -0.077 C 
ATOM      2  C   UNL     1     152.967 136.980 161.461  1.00  0.00    -0.024 C 
ATOM      3  C   UNL     1     151.388 135.057 161.750  1.00  0.00     0.039 C 
ENDROOT
BRANCH   1   4
ATOM      4  C   UNL     1     150.800 137.127 160.282  1.00  0.00     0.034 C 
BRANCH   4   5
ATOM      5  C   UNL     1     150.984 136.689 158.825  1.00  0.00     0.032 C 
BRANCH   5   6
ATOM      6  C   UNL     1     152.217 137.319 158.228  1.00  0.00    -0.028 C 
ATOM      7  C   UNL     1     153.670 138.216 156.461  1.00  0.00     0.039 C 
ATOM      8  C   UNL     1     152.399 137.540 156.908  1.00  0.00    -0.080 C 
ATOM      9  C   UNL     1     151.379 137.116 155.876  1.00  0.00     0.039 C 
ENDBRANCH   5   6
ENDBRANCH   4   5
ENDBRANCH   1   4
BRANCH   2  10
ATOM     10  C   UNL     1     154.035 136.364 162.332  1.00  0.00     0.055 C 
BRANCH  10  11
ATOM     11  C   UNL     1     154.112 137.030 163.680  1.00  0.00    -0.020 C 
ATOM     12  C   UNL     1     153.916 138.345 163.906  1.00  0.00    -0.055 C 
ATOM     13  C   UNL     1     153.621 139.317 162.785  1.00  0.00     0.044 C 
BRANCH  12  14
ATOM     14  C   UNL     1     154.081 138.841 165.297  1.00  0.00    -0.005 C 
ATOM     15  C   UNL     1     153.969 140.123 165.643  1.00  0.00     0.009 C 
ENDBRANCH  12  14
ENDBRANCH  10  11
ENDBRANCH   2  10
TORSDOF 6
ENDMDL
MODEL 5
REMARK VINA RESULT:     0.022     21.259     22.823
REMARK INTER + INTRA:          -0.862
REMARK INTER:                  -1.127
REMARK INTRA:                   0.265
REMARK UNBOUND:                -0.892
REMARK SMILES C=CC(C)=CCC=C(C)CCC=C(C)C
REMARK SMILES IDX 8 1 7 2 9 3 10 4 11 5 12 6 14 7 13 8 15 9 6 10 5 11 3 12
REMARK SMILES IDX 4 13 2 14 1 15
REMARK H PARENT
REMARK Flexibility Score: inf
ROOT
ATOM      1  C   UNL     1     138.435 154.344 161.086  1.00  0.00    -0.077 C 
ATOM      2  C   UNL     1     137.590 155.125 161.798  1.00  0.00    -0.024 C 
ATOM      3  C   UNL     1     138.360 152.836 161.131  1.00  0.00     0.039 C 
ENDROOT
BRANCH   1   4
ATOM      4  C   UNL     1     139.495 155.001 160.229  1.00  0.00     0.034 C 
BRANCH   4   5
ATOM      5  C   UNL     1     140.259 153.955 159.410  1.00  0.00     0.032 C 
BRANCH   5   6
ATOM      6  C   UNL     1     139.426 153.471 158.250  1.00  0.00    -0.028 C 
ATOM      7  C   UNL     1     138.667 153.320 155.917  1.00  0.00     0.039 C 
ATOM      8  C   UNL     1     139.544 153.926 156.983  1.00  0.00    -0.080 C 
ATOM      9  C   UNL     1     140.510 155.029 156.614  1.00  0.00     0.039 C 
ENDBRANCH   5   6
ENDBRANCH   4   5
ENDBRANCH   1   4
BRANCH   2  10
ATOM     10  C   UNL     1     136.502 154.603 162.705  1.00  0.00     0.055 C 
BRANCH  10  11
ATOM     11  C   UNL     1     137.041 153.641 163.730  1.00  0.00    -0.020 C 
ATOM     12  C   UNL     1     136.639 152.362 163.879  1.00  0.00    -0.055 C 
ATOM     13  C   UNL     1     135.548 151.759 163.022  1.00  0.00     0.044 C 
BRANCH  12  14
ATOM     14  C   UNL     1     137.247 151.569 164.979  1.00  0.00    -0.005 C 
ATOM     15  C   UNL     1     136.542 150.992 165.952  1.00  0.00     0.009 C 
ENDBRANCH  12  14
ENDBRANCH  10  11
ENDBRANCH   2  10
TORSDOF 6
ENDMDL
MODEL 6
REMARK VINA RESULT:     0.328      1.671      2.907
REMARK INTER + INTRA:          -0.448
REMARK INTER:                   0.214
REMARK INTRA:                  -0.663
REMARK UNBOUND:                -0.892
REMARK SMILES C=CC(C)=CCC=C(C)CCC=C(C)C
REMARK SMILES IDX 8 1 7 2 9 3 10 4 11 5 12 6 14 7 13 8 15 9 6 10 5 11 3 12
REMARK SMILES IDX 4 13 2 14 1 15
REMARK H PARENT
REMARK Flexibility Score: inf
ROOT
ATOM      1  C   UNL     1     153.687 135.025 162.266  1.00  0.00    -0.077 C 
ATOM      2  C   UNL     1     152.343 134.908 162.368  1.00  0.00    -0.024 C 
ATOM      3  C   UNL     1     154.380 135.142 160.928  1.00  0.00     0.039 C 
ENDROOT
BRANCH   1   4
ATOM      4  C   UNL     1     154.523 135.025 163.527  1.00  0.00     0.034 C 
BRANCH   4   5
ATOM      5  C   UNL     1     155.113 136.415 163.790  1.00  0.00     0.032 C 
BRANCH   5   6
ATOM      6  C   UNL     1     154.604 137.412 162.779  1.00  0.00    -0.028 C 
ATOM      7  C   UNL     1     153.528 139.470 161.976  1.00  0.00     0.039 C 
ATOM      8  C   UNL     1     153.942 138.547 163.094  1.00  0.00    -0.080 C 
ATOM      9  C   UNL     1     153.596 138.904 164.521  1.00  0.00     0.039 C 
ENDBRANCH   5   6
ENDBRANCH   4   5
ENDBRANCH   1   4
BRANCH   2  10
ATOM     10  C   UNL     1     151.395 134.875 161.194  1.00  0.00     0.055 C 
BRANCH  10  11
ATOM     11  C   UNL     1     150.691 136.193 161.006  1.00  0.00    -0.020 C 
ATOM     12  C   UNL     1     150.783 136.971 159.909  1.00  0.00    -0.055 C 
ATOM     13  C   UNL     1     151.657 136.597 158.731  1.00  0.00     0.044 C 
BRANCH  12  14
ATOM     14  C   UNL     1     150.057 138.268 159.916  1.00  0.00    -0.005 C 
ATOM     15  C   UNL     1     148.815 138.421 159.458  1.00  0.00     0.009 C 
ENDBRANCH  12  14
ENDBRANCH  10  11
ENDBRANCH   2  10
TORSDOF 6
ENDMDL
MODEL 7
REMARK VINA RESULT:     0.616     21.329     22.306
REMARK INTER + INTRA:          -0.060
REMARK INTER:                   0.615
REMARK INTRA:                  -0.675
REMARK UNBOUND:                -0.892
REMARK SMILES C=CC(C)=CCC=C(C)CCC=C(C)C
REMARK SMILES IDX 8 1 7 2 9 3 10 4 11 5 12 6 14 7 13 8 15 9 6 10 5 11 3 12
REMARK SMILES IDX 4 13 2 14 1 15
REMARK H PARENT
REMARK Flexibility Score: inf
ROOT
ATOM      1  C   UNL     1     138.011 154.655 161.814  1.00  0.00    -0.077 C 
ATOM      2  C   UNL     1     138.237 154.028 160.636  1.00  0.00    -0.024 C 
ATOM      3  C   UNL     1     139.114 154.888 162.819  1.00  0.00     0.039 C 
ENDROOT
BRANCH   1   4
ATOM      4  C   UNL     1     136.611 155.125 162.140  1.00  0.00     0.034 C 
BRANCH   4   5
ATOM      5  C   UNL     1     135.693 153.935 162.443  1.00  0.00     0.032 C 
BRANCH   5   6
ATOM      6  C   UNL     1     136.131 153.229 163.701  1.00  0.00    -0.028 C 
ATOM      7  C   UNL     1     137.140 151.447 165.061  1.00  0.00     0.039 C 
ATOM      8  C   UNL     1     136.719 152.012 163.728  1.00  0.00    -0.080 C 
ATOM      9  C   UNL     1     136.948 151.204 162.471  1.00  0.00     0.039 C 
ENDBRANCH   5   6
ENDBRANCH   4   5
ENDBRANCH   1   4
BRANCH   2  10
ATOM     10  C   UNL     1     139.577 153.494 160.194  1.00  0.00     0.055 C 
BRANCH  10  11
ATOM     11  C   UNL     1     139.915 153.924 158.791  1.00  0.00    -0.020 C 
ATOM     12  C   UNL     1     139.191 153.625 157.693  1.00  0.00    -0.055 C 
ATOM     13  C   UNL     1     137.943 152.773 157.762  1.00  0.00     0.044 C 
BRANCH  12  14
ATOM     14  C   UNL     1     139.702 154.092 156.378  1.00  0.00    -0.005 C 
ATOM     15  C   UNL     1     140.557 155.105 156.235  1.00  0.00     0.009 C 
ENDBRANCH  12  14
ENDBRANCH  10  11
ENDBRANCH   2  10
TORSDOF 6
ENDMDL
MODEL 8
REMARK VINA RESULT:     0.714      1.612      2.299
REMARK INTER + INTRA:           0.073
REMARK INTER:                   0.551
REMARK INTRA:                  -0.479
REMARK UNBOUND:                -0.892
REMARK SMILES C=CC(C)=CCC=C(C)CCC=C(C)C
REMARK SMILES IDX 8 1 7 2 9 3 10 4 11 5 12 6 14 7 13 8 15 9 6 10 5 11 3 12
REMARK SMILES IDX 4 13 2 14 1 15
REMARK H PARENT
REMARK Flexibility Score: inf
ROOT
ATOM      1  C   UNL     1     153.153 135.472 162.118  1.00  0.00    -0.077 C 
ATOM      2  C   UNL     1     153.680 136.237 161.134  1.00  0.00    -0.024 C 
ATOM      3  C   UNL     1     151.764 134.887 162.017  1.00  0.00     0.039 C 
ENDROOT
BRANCH   1   4
ATOM      4  C   UNL     1     153.973 135.207 163.361  1.00  0.00     0.034 C 
BRANCH   4   5
ATOM      5  C   UNL     1     155.011 136.313 163.576  1.00  0.00     0.032 C 
BRANCH   5   6
ATOM      6  C   UNL     1     154.466 137.390 164.479  1.00  0.00    -0.028 C 
ATOM      7  C   UNL     1     153.516 139.578 165.073  1.00  0.00     0.039 C 
ATOM      8  C   UNL     1     154.080 138.616 164.059  1.00  0.00    -0.080 C 
ATOM      9  C   UNL     1     154.215 139.048 162.617  1.00  0.00     0.039 C 
ENDBRANCH   5   6
ENDBRANCH   4   5
ENDBRANCH   1   4
BRANCH   2  10
ATOM     10  C   UNL     1     152.966 136.596 159.853  1.00  0.00     0.055 C 
BRANCH  10  11
ATOM     11  C   UNL     1     151.645 137.267 160.118  1.00  0.00    -0.020 C 
ATOM     12  C   UNL     1     150.563 137.191 159.316  1.00  0.00    -0.055 C 
ATOM     13  C   UNL     1     150.582 136.424 158.013  1.00  0.00     0.044 C 
BRANCH  12  14
ATOM     14  C   UNL     1     149.354 137.961 159.710  1.00  0.00    -0.005 C 
ATOM     15  C   UNL     1     148.357 138.251 158.873  1.00  0.00     0.009 C 
ENDBRANCH  12  14
ENDBRANCH  10  11
ENDBRANCH   2  10
TORSDOF 6
ENDMDL
