MODEL 1
REMARK VINA RESULT:    -2.926      0.000      0.000
REMARK INTER + INTRA:          -3.183
REMARK INTER:                  -3.183
REMARK INTRA:                   0.000
REMARK UNBOUND:                 0.000
REMARK SMILES [NH3+]CC(=O)[O-]
REMARK SMILES IDX 2 1 1 2 3 6 4 7 5 8
REMARK H PARENT 1 3 1 4 1 5
REMARK Flexibility Score: inf
ROOT
ATOM      1  C   UNL     1       9.273   7.189  19.628  1.00  0.00     0.312 C 
ENDROOT
BRANCH   1   2
ATOM      2  N   UNL     1      10.144   7.175  18.454  1.00  0.00    -0.353 N 
ATOM      3  H   UNL     1      11.116   7.429  18.746  1.00  0.00     0.344 HD
ATOM      4  H   UNL     1      10.155   6.220  18.027  1.00  0.00     0.344 HD
ATOM      5  H   UNL     1       9.808   7.873  17.750  1.00  0.00     0.344 HD
ENDBRANCH   1   2
BRANCH   1   6
ATOM      6  C   UNL     1       7.910   6.673  19.282  1.00  0.00     0.096 C 
ATOM      7  O   UNL     1       7.205   6.109  20.159  1.00  0.00    -0.544 OA
ATOM      8  O   UNL     1       7.400   6.862  18.005  1.00  0.00    -0.544 OA
ENDBRANCH   1   6
TORSDOF 2
ENDMDL
MODEL 2
REMARK VINA RESULT:    -2.913      0.151      1.452
REMARK INTER + INTRA:          -3.169
REMARK INTER:                  -3.169
REMARK INTRA:                   0.000
REMARK UNBOUND:                 0.000
REMARK SMILES [NH3+]CC(=O)[O-]
REMARK SMILES IDX 2 1 1 2 3 6 4 7 5 8
REMARK H PARENT 1 3 1 4 1 5
REMARK Flexibility Score: inf
ROOT
ATOM      1  C   UNL     1       9.340   7.179  19.562  1.00  0.00     0.312 C 
ENDROOT
BRANCH   1   2
ATOM      2  N   UNL     1      10.260   7.163  18.427  1.00  0.00    -0.353 N 
ATOM      3  H   UNL     1      10.318   6.191  18.046  1.00  0.00     0.344 HD
ATOM      4  H   UNL     1       9.913   7.803  17.675  1.00  0.00     0.344 HD
ATOM      5  H   UNL     1      11.214   7.464  18.734  1.00  0.00     0.344 HD
ENDBRANCH   1   2
BRANCH   1   6
ATOM      6  C   UNL     1       7.970   6.746  19.138  1.00  0.00     0.096 C 
ATOM      7  O   UNL     1       7.583   6.936  17.955  1.00  0.00    -0.544 OA
ATOM      8  O   UNL     1       7.142   6.086  20.036  1.00  0.00    -0.544 OA
ENDBRANCH   1   6
TORSDOF 2
ENDMDL
MODEL 3
REMARK VINA RESULT:    -2.872      2.467      2.717
REMARK INTER + INTRA:          -3.123
REMARK INTER:                  -3.123
REMARK INTRA:                   0.000
REMARK UNBOUND:                 0.000
REMARK SMILES [NH3+]CC(=O)[O-]
REMARK SMILES IDX 2 1 1 2 3 6 4 7 5 8
REMARK H PARENT 1 3 1 4 1 5
REMARK Flexibility Score: inf
ROOT
ATOM      1  C   UNL     1       6.947   6.322  17.470  1.00  0.00     0.312 C 
ENDROOT
BRANCH   1   2
ATOM      2  N   UNL     1       5.704   5.784  18.017  1.00  0.00    -0.353 N 
ATOM      3  H   UNL     1       5.391   4.979  17.427  1.00  0.00     0.344 HD
ATOM      4  H   UNL     1       5.858   5.449  18.996  1.00  0.00     0.344 HD
ATOM      5  H   UNL     1       4.960   6.520  18.008  1.00  0.00     0.344 HD
ENDBRANCH   1   2
BRANCH   1   6
ATOM      6  C   UNL     1       7.857   6.774  18.571  1.00  0.00     0.096 C 
ATOM      7  O   UNL     1       7.500   6.664  19.773  1.00  0.00    -0.544 OA
ATOM      8  O   UNL     1       9.119   7.269  18.269  1.00  0.00    -0.544 OA
ENDBRANCH   1   6
TORSDOF 2
ENDMDL
MODEL 4
REMARK VINA RESULT:    -2.857      9.191      9.419
REMARK INTER + INTRA:          -3.108
REMARK INTER:                  -3.108
REMARK INTRA:                   0.000
REMARK UNBOUND:                 0.000
REMARK SMILES [NH3+]CC(=O)[O-]
REMARK SMILES IDX 2 1 1 2 3 6 4 7 5 8
REMARK H PARENT 1 3 1 4 1 5
REMARK Flexibility Score: inf
ROOT
ATOM      1  C   UNL     1      16.312   2.972  15.532  1.00  0.00     0.312 C 
ENDROOT
BRANCH   1   2
ATOM      2  N   UNL     1      15.163   3.794  15.163  1.00  0.00    -0.353 N 
ATOM      3  H   UNL     1      14.840   4.328  16.003  1.00  0.00     0.344 HD
ATOM      4  H   UNL     1      15.432   4.473  14.413  1.00  0.00     0.344 HD
ATOM      5  H   UNL     1      14.380   3.187  14.826  1.00  0.00     0.344 HD
ENDBRANCH   1   2
BRANCH   1   6
ATOM      6  C   UNL     1      16.766   3.290  16.924  1.00  0.00     0.096 C 
ATOM      7  O   UNL     1      15.925   3.590  17.811  1.00  0.00    -0.544 OA
ATOM      8  O   UNL     1      18.112   3.204  17.251  1.00  0.00    -0.544 OA
ENDBRANCH   1   6
TORSDOF 2
ENDMDL
MODEL 5
REMARK VINA RESULT:    -2.838      2.471      3.009
REMARK INTER + INTRA:          -3.087
REMARK INTER:                  -3.087
REMARK INTRA:                   0.000
REMARK UNBOUND:                 0.000
REMARK SMILES [NH3+]CC(=O)[O-]
REMARK SMILES IDX 2 1 1 2 3 6 4 7 5 8
REMARK H PARENT 1 3 1 4 1 5
REMARK Flexibility Score: inf
ROOT
ATOM      1  C   UNL     1       6.876   6.589  17.377  1.00  0.00     0.312 C 
ENDROOT
BRANCH   1   2
ATOM      2  N   UNL     1       5.645   5.970  17.864  1.00  0.00    -0.353 N 
ATOM      3  H   UNL     1       4.938   5.961  17.094  1.00  0.00     0.344 HD
ATOM      4  H   UNL     1       5.834   4.985  18.164  1.00  0.00     0.344 HD
ATOM      5  H   UNL     1       5.262   6.518  18.669  1.00  0.00     0.344 HD
ENDBRANCH   1   2
BRANCH   1   6
ATOM      6  C   UNL     1       7.844   6.797  18.500  1.00  0.00     0.096 C 
ATOM      7  O   UNL     1       9.003   7.230  18.266  1.00  0.00    -0.544 OA
ATOM      8  O   UNL     1       7.449   6.561  19.810  1.00  0.00    -0.544 OA
ENDBRANCH   1   6
TORSDOF 2
ENDMDL
MODEL 6
REMARK VINA RESULT:    -2.764      6.367      6.730
REMARK INTER + INTRA:          -3.006
REMARK INTER:                  -3.006
REMARK INTRA:                   0.000
REMARK UNBOUND:                 0.000
REMARK SMILES [NH3+]CC(=O)[O-]
REMARK SMILES IDX 2 1 1 2 3 6 4 7 5 8
REMARK H PARENT 1 3 1 4 1 5
REMARK Flexibility Score: inf
ROOT
ATOM      1  C   UNL     1       6.149   6.571  14.246  1.00  0.00     0.312 C 
ENDROOT
BRANCH   1   2
ATOM      2  N   UNL     1       4.838   6.351  14.854  1.00  0.00    -0.353 N 
ATOM      3  H   UNL     1       4.207   7.146  14.606  1.00  0.00     0.344 HD
ATOM      4  H   UNL     1       4.421   5.461  14.495  1.00  0.00     0.344 HD
ATOM      5  H   UNL     1       4.930   6.303  15.896  1.00  0.00     0.344 HD
ENDBRANCH   1   2
BRANCH   1   6
ATOM      6  C   UNL     1       6.017   7.350  12.974  1.00  0.00     0.096 C 
ATOM      7  O   UNL     1       6.993   8.011  12.531  1.00  0.00    -0.544 OA
ATOM      8  O   UNL     1       4.832   7.304  12.251  1.00  0.00    -0.544 OA
ENDBRANCH   1   6
TORSDOF 2
ENDMDL
MODEL 7
REMARK VINA RESULT:    -2.736      3.030      3.379
REMARK INTER + INTRA:          -2.976
REMARK INTER:                  -2.976
REMARK INTRA:                   0.000
REMARK UNBOUND:                 0.000
REMARK SMILES [NH3+]CC(=O)[O-]
REMARK SMILES IDX 2 1 1 2 3 6 4 7 5 8
REMARK H PARENT 1 3 1 4 1 5
REMARK Flexibility Score: inf
ROOT
ATOM      1  C   UNL     1       7.291   5.036  20.620  1.00  0.00     0.312 C 
ENDROOT
BRANCH   1   2
ATOM      2  N   UNL     1       7.023   6.254  19.857  1.00  0.00    -0.353 N 
ATOM      3  H   UNL     1       6.010   6.498  19.946  1.00  0.00     0.344 HD
ATOM      4  H   UNL     1       7.598   7.045  20.231  1.00  0.00     0.344 HD
ATOM      5  H   UNL     1       7.248   6.101  18.847  1.00  0.00     0.344 HD
ENDBRANCH   1   2
BRANCH   1   6
ATOM      6  C   UNL     1       8.633   4.474  20.266  1.00  0.00     0.096 C 
ATOM      7  O   UNL     1       8.815   3.927  19.146  1.00  0.00    -0.544 OA
ATOM      8  O   UNL     1       9.694   4.600  21.152  1.00  0.00    -0.544 OA
ENDBRANCH   1   6
TORSDOF 2
ENDMDL
MODEL 8
REMARK VINA RESULT:    -2.659      2.106      2.289
REMARK INTER + INTRA:          -2.892
REMARK INTER:                  -2.892
REMARK INTRA:                   0.000
REMARK UNBOUND:                 0.000
REMARK SMILES [NH3+]CC(=O)[O-]
REMARK SMILES IDX 2 1 1 2 3 6 4 7 5 8
REMARK H PARENT 1 3 1 4 1 5
REMARK Flexibility Score: inf
ROOT
ATOM      1  C   UNL     1       9.279   6.644  19.549  1.00  0.00     0.312 C 
ENDROOT
BRANCH   1   2
ATOM      2  N   UNL     1      10.189   7.024  18.472  1.00  0.00    -0.353 N 
ATOM      3  H   UNL     1       9.816   6.662  17.564  1.00  0.00     0.344 HD
ATOM      4  H   UNL     1      10.264   8.067  18.416  1.00  0.00     0.344 HD
ATOM      5  H   UNL     1      11.136   6.610  18.639  1.00  0.00     0.344 HD
ENDBRANCH   1   2
BRANCH   1   6
ATOM      6  C   UNL     1       9.444   5.197  19.896  1.00  0.00     0.096 C 
ATOM      7  O   UNL     1      10.152   4.858  20.881  1.00  0.00    -0.544 OA
ATOM      8  O   UNL     1       8.776   4.226  19.162  1.00  0.00    -0.544 OA
ENDBRANCH   1   6
TORSDOF 2
ENDMDL
MODEL 9
REMARK VINA RESULT:    -2.648      7.215      7.633
REMARK INTER + INTRA:          -2.880
REMARK INTER:                  -2.880
REMARK INTRA:                   0.000
REMARK UNBOUND:                 0.000
REMARK SMILES [NH3+]CC(=O)[O-]
REMARK SMILES IDX 2 1 1 2 3 6 4 7 5 8
REMARK H PARENT 1 3 1 4 1 5
REMARK Flexibility Score: inf
ROOT
ATOM      1  C   UNL     1       8.152   6.722  11.570  1.00  0.00     0.312 C 
ENDROOT
BRANCH   1   2
ATOM      2  N   UNL     1       8.160   6.748  10.109  1.00  0.00    -0.353 N 
ATOM      3  H   UNL     1       7.914   5.798   9.748  1.00  0.00     0.344 HD
ATOM      4  H   UNL     1       7.455   7.438   9.758  1.00  0.00     0.344 HD
ATOM      5  H   UNL     1       9.112   7.008   9.760  1.00  0.00     0.344 HD
ENDBRANCH   1   2
BRANCH   1   6
ATOM      6  C   UNL     1       7.125   7.669  12.111  1.00  0.00     0.096 C 
ATOM      7  O   UNL     1       6.771   7.598  13.317  1.00  0.00    -0.544 OA
ATOM      8  O   UNL     1       6.598   8.661  11.295  1.00  0.00    -0.544 OA
ENDBRANCH   1   6
TORSDOF 2
ENDMDL
