MODEL 1
REMARK VINA RESULT:    -3.908      0.000      0.000
REMARK INTER + INTRA:          -5.500
REMARK INTER:                  -5.393
REMARK INTRA:                  -0.108
REMARK UNBOUND:                -0.108
REMARK SMILES C[C@@H]1C(=O)O[C@H](C)[C@H]1C[C@@H](O)[C@](C)(O)[C@@H]1CC[C@]2(O)C3=CC(=O)[C@@H]4C[C@H](O)[C@H](O)C[C@]4(C)[C@H]3CC[C@@]12C
REMARK SMILES IDX 12 1 13 2 10 3 9 4 8 5 1 6 2 7 3 8 6 9 5 10 4 11 7 12 11 13
REMARK SMILES IDX 15 15 16 16 36 17 17 18 18 19 35 20 37 21 20 22 34 23 33 24
REMARK SMILES IDX 21 25 31 26 22 27 24 28 30 29 32 30 23 31 25 32 28 33 26 34
REMARK SMILES IDX 19 35 29 37 27 39 14 41
REMARK H PARENT 11 14 19 36 29 38 27 40 14 42
REMARK Flexibility Score: inf
ROOT
ATOM      1  C   UNL     1     129.060 -42.218  35.013  1.00  0.00     0.091 C 
ATOM      2  C   UNL     1     127.817 -43.011  35.524  1.00  0.00     0.045 C 
ENDROOT
BRANCH   1   3
ATOM      3  C   UNL     1     129.565 -41.238  36.147  1.00  0.00     0.146 C 
BRANCH   3   4
ATOM      4  C   UNL     1     130.047 -41.933  37.459  1.00  0.00     0.043 C 
BRANCH   4   5
ATOM      5  C   UNL     1     131.555 -41.785  37.784  1.00  0.00     0.046 C 
ATOM      6  C   UNL     1     132.091 -40.094  39.639  1.00  0.00     0.020 C 
ATOM      7  C   UNL     1     131.897 -41.571  39.281  1.00  0.00     0.103 C 
ATOM      8  C   UNL     1     133.156 -42.344  39.416  1.00  0.00     0.309 C 
ATOM      9  C   UNL     1     132.419 -42.996  37.327  1.00  0.00     0.177 C 
ATOM     10  O   UNL     1     133.436 -43.113  38.307  1.00  0.00    -0.462 OA
ATOM     11  O   UNL     1     133.884 -42.344  40.444  1.00  0.00    -0.252 OA
ATOM     12  C   UNL     1     133.041 -42.798  35.946  1.00  0.00     0.053 C 
ENDBRANCH   4   5
ENDBRANCH   3   4
BRANCH   3  13
ATOM     13  O   UNL     1     130.594 -40.403  35.667  1.00  0.00    -0.390 OA
ATOM     14  H   UNL     1     130.198 -39.782  35.000  1.00  0.00     0.211 HD
ENDBRANCH   3  13
ENDBRANCH   1   3
BRANCH   1  15
ATOM     15  C   UNL     1     128.734 -41.369  33.711  1.00  0.00     0.032 C 
ATOM     16  C   UNL     1     127.255 -41.354  33.239  1.00  0.00     0.010 C 
ATOM     17  C   UNL     1     129.554 -41.607  32.404  1.00  0.00     0.006 C 
ATOM     18  C   UNL     1     127.283 -41.123  31.715  1.00  0.00     0.041 C 
ATOM     19  C   UNL     1     128.742 -40.749  31.398  1.00  0.00     0.092 C 
ATOM     20  C   UNL     1     131.032 -41.102  32.445  1.00  0.00     0.011 C 
ATOM     21  C   UNL     1     129.558 -43.125  32.023  1.00  0.00     0.015 C 
ATOM     22  C   UNL     1     129.285 -40.981  29.996  1.00  0.00    -0.031 C 
ATOM     23  C   UNL     1     131.528 -40.464  31.113  1.00  0.00     0.009 C 
ATOM     24  C   UNL     1     130.803 -40.973  29.822  1.00  0.00     0.025 C 
ATOM     25  C   UNL     1     128.480 -41.106  28.933  1.00  0.00     0.050 C 
ATOM     26  C   UNL     1     131.241 -40.233  28.503  1.00  0.00    -0.013 C 
ATOM     27  C   UNL     1     129.019 -41.157  27.568  1.00  0.00     0.159 C 
ATOM     28  C   UNL     1     130.469 -40.849  27.271  1.00  0.00     0.070 C 
ATOM     29  C   UNL     1     132.792 -40.395  28.310  1.00  0.00     0.042 C 
ATOM     30  C   UNL     1     130.901 -38.718  28.571  1.00  0.00     0.013 C 
ATOM     31  O   UNL     1     128.237 -41.425  26.616  1.00  0.00    -0.295 OA
ATOM     32  C   UNL     1     131.187 -42.095  26.715  1.00  0.00     0.047 C 
ATOM     33  C   UNL     1     133.202 -40.485  26.834  1.00  0.00     0.143 C 
ATOM     34  C   UNL     1     132.594 -41.752  26.171  1.00  0.00     0.143 C 
BRANCH  19  35
ATOM     35  O   UNL     1     128.904 -39.377  31.698  1.00  0.00    -0.385 OA
ATOM     36  H   UNL     1     128.327 -39.163  32.478  1.00  0.00     0.211 HD
ENDBRANCH  19  35
BRANCH  33  37
ATOM     37  O   UNL     1     134.603 -40.494  26.740  1.00  0.00    -0.390 OA
ATOM     38  H   UNL     1     134.834 -40.069  25.873  1.00  0.00     0.211 HD
ENDBRANCH  33  37
BRANCH  34  39
ATOM     39  O   UNL     1     133.433 -42.864  26.370  1.00  0.00    -0.390 OA
ATOM     40  H   UNL     1     132.854 -43.626  26.633  1.00  0.00     0.211 HD
ENDBRANCH  34  39
ENDBRANCH   1  15
BRANCH   1  41
ATOM     41  O   UNL     1     130.089 -43.125  34.689  1.00  0.00    -0.387 OA
ATOM     42  H   UNL     1     130.400 -43.568  35.520  1.00  0.00     0.211 HD
ENDBRANCH   1  41
TORSDOF 9
ENDMDL
MODEL 2
REMARK VINA RESULT:    -2.221      3.954      8.512
REMARK INTER + INTRA:          -3.173
REMARK INTER:                  -3.855
REMARK INTRA:                   0.682
REMARK UNBOUND:                -0.108
REMARK SMILES C[C@@H]1C(=O)O[C@H](C)[C@H]1C[C@@H](O)[C@](C)(O)[C@@H]1CC[C@]2(O)C3=CC(=O)[C@@H]4C[C@H](O)[C@H](O)C[C@]4(C)[C@H]3CC[C@@]12C
REMARK SMILES IDX 12 1 13 2 10 3 9 4 8 5 1 6 2 7 3 8 6 9 5 10 4 11 7 12 11 13
REMARK SMILES IDX 15 15 16 16 36 17 17 18 18 19 35 20 37 21 20 22 34 23 33 24
REMARK SMILES IDX 21 25 31 26 22 27 24 28 30 29 32 30 23 31 25 32 28 33 26 34
REMARK SMILES IDX 19 35 29 37 27 39 14 41
REMARK H PARENT 11 14 19 36 29 38 27 40 14 42
REMARK Flexibility Score: inf
ROOT
ATOM      1  C   UNL     1     134.196 -40.626  27.392  1.00  0.00     0.091 C 
ATOM      2  C   UNL     1     133.475 -40.028  26.145  1.00  0.00     0.045 C 
ENDROOT
BRANCH   1   3
ATOM      3  C   UNL     1     135.376 -41.568  26.921  1.00  0.00     0.146 C 
BRANCH   3   4
ATOM      4  C   UNL     1     136.229 -42.191  28.071  1.00  0.00     0.043 C 
BRANCH   4   5
ATOM      5  C   UNL     1     137.744 -41.867  28.036  1.00  0.00     0.046 C 
ATOM      6  C   UNL     1     138.549 -40.741  25.875  1.00  0.00     0.020 C 
ATOM      7  C   UNL     1     138.126 -40.538  27.334  1.00  0.00     0.103 C 
ATOM      8  C   UNL     1     139.250 -40.064  28.177  1.00  0.00     0.309 C 
ATOM      9  C   UNL     1     138.406 -41.801  29.442  1.00  0.00     0.177 C 
ATOM     10  O   UNL     1     139.399 -40.795  29.335  1.00  0.00    -0.462 OA
ATOM     11  O   UNL     1     139.976 -39.072  27.902  1.00  0.00    -0.252 OA
ATOM     12  C   UNL     1     139.041 -43.124  29.866  1.00  0.00     0.053 C 
ENDBRANCH   4   5
ENDBRANCH   3   4
BRANCH   3  13
ATOM     13  O   UNL     1     134.893 -42.604  26.097  1.00  0.00    -0.390 OA
ATOM     14  H   UNL     1     134.192 -43.095  26.601  1.00  0.00     0.211 HD
ENDBRANCH   3  13
ENDBRANCH   1   3
BRANCH   1  15
ATOM     15  C   UNL     1     133.208 -41.465  28.309  1.00  0.00     0.032 C 
ATOM     16  C   UNL     1     132.750 -42.845  27.764  1.00  0.00     0.010 C 
ATOM     17  C   UNL     1     131.897 -40.805  28.842  1.00  0.00     0.006 C 
ATOM     18  C   UNL     1     131.366 -43.124  28.384  1.00  0.00     0.041 C 
ATOM     19  C   UNL     1     131.188 -42.040  29.462  1.00  0.00     0.092 C 
ATOM     20  C   UNL     1     132.100 -39.714  29.942  1.00  0.00     0.011 C 
ATOM     21  C   UNL     1     131.076 -40.179  27.666  1.00  0.00     0.015 C 
ATOM     22  C   UNL     1     129.786 -41.641  29.896  1.00  0.00    -0.031 C 
ATOM     23  C   UNL     1     131.026 -39.735  31.070  1.00  0.00     0.009 C 
ATOM     24  C   UNL     1     129.635 -40.323  30.653  1.00  0.00     0.025 C 
ATOM     25  C   UNL     1     128.729 -42.440  29.705  1.00  0.00     0.050 C 
ATOM     26  C   UNL     1     128.603 -40.438  31.838  1.00  0.00    -0.013 C 
ATOM     27  C   UNL     1     127.416 -42.120  30.281  1.00  0.00     0.159 C 
ATOM     28  C   UNL     1     127.237 -41.012  31.292  1.00  0.00     0.070 C 
ATOM     29  C   UNL     1     128.383 -39.017  32.472  1.00  0.00     0.042 C 
ATOM     30  C   UNL     1     129.121 -41.402  32.940  1.00  0.00     0.013 C 
ATOM     31  O   UNL     1     126.421 -42.821  29.950  1.00  0.00    -0.295 OA
ATOM     32  C   UNL     1     126.338 -39.896  30.724  1.00  0.00     0.047 C 
ATOM     33  C   UNL     1     126.952 -38.809  32.985  1.00  0.00     0.143 C 
ATOM     34  C   UNL     1     125.934 -38.873  31.812  1.00  0.00     0.143 C 
BRANCH  19  35
ATOM     35  O   UNL     1     131.889 -42.465  30.614  1.00  0.00    -0.385 OA
ATOM     36  H   UNL     1     132.787 -42.040  30.601  1.00  0.00     0.211 HD
ENDBRANCH  19  35
BRANCH  33  37
ATOM     37  O   UNL     1     126.871 -37.576  33.651  1.00  0.00    -0.390 OA
ATOM     38  H   UNL     1     126.962 -37.769  34.621  1.00  0.00     0.211 HD
ENDBRANCH  33  37
BRANCH  34  39
ATOM     39  O   UNL     1     125.795 -37.610  31.209  1.00  0.00    -0.390 OA
ATOM     40  H   UNL     1     125.257 -37.735  30.385  1.00  0.00     0.211 HD
ENDBRANCH  34  39
ENDBRANCH   1  15
BRANCH   1  41
ATOM     41  O   UNL     1     134.723 -39.577  28.173  1.00  0.00    -0.387 OA
ATOM     42  H   UNL     1     134.976 -39.934  29.063  1.00  0.00     0.211 HD
ENDBRANCH   1  41
TORSDOF 9
ENDMDL
MODEL 3
REMARK VINA RESULT:    -1.864      3.082      4.669
REMARK INTER + INTRA:          -2.681
REMARK INTER:                  -5.087
REMARK INTRA:                   2.406
REMARK UNBOUND:                -0.108
REMARK SMILES C[C@@H]1C(=O)O[C@H](C)[C@H]1C[C@@H](O)[C@](C)(O)[C@@H]1CC[C@]2(O)C3=CC(=O)[C@@H]4C[C@H](O)[C@H](O)C[C@]4(C)[C@H]3CC[C@@]12C
REMARK SMILES IDX 12 1 13 2 10 3 9 4 8 5 1 6 2 7 3 8 6 9 5 10 4 11 7 12 11 13
REMARK SMILES IDX 15 15 16 16 36 17 17 18 18 19 35 20 37 21 20 22 34 23 33 24
REMARK SMILES IDX 21 25 31 26 22 27 24 28 30 29 32 30 23 31 25 32 28 33 26 34
REMARK SMILES IDX 19 35 29 37 27 39 14 41
REMARK H PARENT 11 14 19 36 29 38 27 40 14 42
REMARK Flexibility Score: inf
ROOT
ATOM      1  C   UNL     1     129.505 -38.745  33.195  1.00  0.00     0.091 C 
ATOM      2  C   UNL     1     130.965 -38.518  33.697  1.00  0.00     0.045 C 
ENDROOT
BRANCH   1   3
ATOM      3  C   UNL     1     128.912 -40.050  33.864  1.00  0.00     0.146 C 
BRANCH   3   4
ATOM      4  C   UNL     1     128.521 -41.188  32.869  1.00  0.00     0.043 C 
BRANCH   4   5
ATOM      5  C   UNL     1     127.411 -42.154  33.355  1.00  0.00     0.046 C 
ATOM      6  C   UNL     1     127.739 -43.051  35.737  1.00  0.00     0.020 C 
ATOM      7  C   UNL     1     127.023 -42.026  34.850  1.00  0.00     0.103 C 
ATOM      8  C   UNL     1     125.560 -42.260  34.803  1.00  0.00     0.309 C 
ATOM      9  C   UNL     1     126.077 -42.027  32.565  1.00  0.00     0.177 C 
ATOM     10  O   UNL     1     125.059 -42.277  33.519  1.00  0.00    -0.462 OA
ATOM     11  O   UNL     1     124.827 -42.389  35.819  1.00  0.00    -0.252 OA
ATOM     12  C   UNL     1     125.970 -43.022  31.410  1.00  0.00     0.053 C 
ENDBRANCH   4   5
ENDBRANCH   3   4
BRANCH   3  13
ATOM     13  O   UNL     1     129.801 -40.569  34.826  1.00  0.00    -0.390 OA
ATOM     14  H   UNL     1     129.344 -41.316  35.295  1.00  0.00     0.211 HD
ENDBRANCH   3  13
ENDBRANCH   1   3
BRANCH   1  15
ATOM     15  C   UNL     1     129.433 -38.901  31.617  1.00  0.00     0.032 C 
ATOM     16  C   UNL     1     128.132 -39.517  31.035  1.00  0.00     0.010 C 
ATOM     17  C   UNL     1     130.582 -39.635  30.857  1.00  0.00     0.006 C 
ATOM     18  C   UNL     1     128.526 -40.200  29.709  1.00  0.00     0.041 C 
ATOM     19  C   UNL     1     129.966 -39.733  29.435  1.00  0.00     0.092 C 
ATOM     20  C   UNL     1     131.936 -38.856  30.786  1.00  0.00     0.011 C 
ATOM     21  C   UNL     1     130.851 -41.042  31.487  1.00  0.00     0.015 C 
ATOM     22  C   UNL     1     130.874 -40.584  28.560  1.00  0.00    -0.031 C 
ATOM     23  C   UNL     1     132.684 -38.996  29.427  1.00  0.00     0.009 C 
ATOM     24  C   UNL     1     132.375 -40.309  28.630  1.00  0.00     0.025 C 
ATOM     25  C   UNL     1     130.387 -41.484  27.695  1.00  0.00     0.050 C 
ATOM     26  C   UNL     1     133.053 -40.375  27.210  1.00  0.00    -0.013 C 
ATOM     27  C   UNL     1     131.262 -42.172  26.737  1.00  0.00     0.159 C 
ATOM     28  C   UNL     1     132.696 -41.749  26.519  1.00  0.00     0.070 C 
ATOM     29  C   UNL     1     134.610 -40.236  27.373  1.00  0.00     0.042 C 
ATOM     30  C   UNL     1     132.543 -39.230  26.291  1.00  0.00     0.013 C 
ATOM     31  O   UNL     1     130.784 -43.115  26.049  1.00  0.00    -0.295 OA
ATOM     32  C   UNL     1     133.665 -42.869  26.945  1.00  0.00     0.047 C 
ATOM     33  C   UNL     1     135.393 -41.049  26.334  1.00  0.00     0.143 C 
ATOM     34  C   UNL     1     135.118 -42.569  26.507  1.00  0.00     0.143 C 
BRANCH  19  35
ATOM     35  O   UNL     1     129.894 -38.446  28.855  1.00  0.00    -0.385 OA
ATOM     36  H   UNL     1     129.066 -38.402  28.309  1.00  0.00     0.211 HD
ENDBRANCH  19  35
BRANCH  33  37
ATOM     37  O   UNL     1     136.763 -40.771  26.461  1.00  0.00    -0.390 OA
ATOM     38  H   UNL     1     136.961 -40.023  25.838  1.00  0.00     0.211 HD
ENDBRANCH  33  37
BRANCH  34  39
ATOM     39  O   UNL     1     135.995 -43.124  27.457  1.00  0.00    -0.390 OA
ATOM     40  H   UNL     1     135.451 -43.693  28.062  1.00  0.00     0.211 HD
ENDBRANCH  34  39
ENDBRANCH   1  15
BRANCH   1  41
ATOM     41  O   UNL     1     128.712 -37.636  33.555  1.00  0.00    -0.387 OA
ATOM     42  H   UNL     1     128.180 -37.869  34.359  1.00  0.00     0.211 HD
ENDBRANCH   1  41
TORSDOF 9
ENDMDL
MODEL 4
REMARK VINA RESULT:    -1.216      1.821      2.912
REMARK INTER + INTRA:          -1.786
REMARK INTER:                  -2.387
REMARK INTRA:                   0.601
REMARK UNBOUND:                -0.108
REMARK SMILES C[C@@H]1C(=O)O[C@H](C)[C@H]1C[C@@H](O)[C@](C)(O)[C@@H]1CC[C@]2(O)C3=CC(=O)[C@@H]4C[C@H](O)[C@H](O)C[C@]4(C)[C@H]3CC[C@@]12C
REMARK SMILES IDX 12 1 13 2 10 3 9 4 8 5 1 6 2 7 3 8 6 9 5 10 4 11 7 12 11 13
REMARK SMILES IDX 15 15 16 16 36 17 17 18 18 19 35 20 37 21 20 22 34 23 33 24
REMARK SMILES IDX 21 25 31 26 22 27 24 28 30 29 32 30 23 31 25 32 28 33 26 34
REMARK SMILES IDX 19 35 29 37 27 39 14 41
REMARK H PARENT 11 14 19 36 29 38 27 40 14 42
REMARK Flexibility Score: inf
ROOT
ATOM      1  C   UNL     1     129.657 -39.264  33.489  1.00  0.00     0.091 C 
ATOM      2  C   UNL     1     131.025 -38.640  33.907  1.00  0.00     0.045 C 
ENDROOT
BRANCH   1   3
ATOM      3  C   UNL     1     129.549 -40.734  34.063  1.00  0.00     0.146 C 
BRANCH   3   4
ATOM      4  C   UNL     1     129.647 -40.849  35.617  1.00  0.00     0.043 C 
BRANCH   4   5
ATOM      5  C   UNL     1     130.451 -42.061  36.152  1.00  0.00     0.046 C 
ATOM      6  C   UNL     1     132.071 -43.104  34.456  1.00  0.00     0.020 C 
ATOM      7  C   UNL     1     131.916 -42.162  35.655  1.00  0.00     0.103 C 
ATOM      8  C   UNL     1     132.609 -42.679  36.860  1.00  0.00     0.309 C 
ATOM      9  C   UNL     1     130.532 -42.128  37.704  1.00  0.00     0.177 C 
ATOM     10  O   UNL     1     131.812 -42.670  37.984  1.00  0.00    -0.462 OA
ATOM     11  O   UNL     1     133.812 -43.051  36.884  1.00  0.00    -0.252 OA
ATOM     12  C   UNL     1     129.443 -43.005  38.321  1.00  0.00     0.053 C 
ENDBRANCH   4   5
ENDBRANCH   3   4
BRANCH   3  13
ATOM     13  O   UNL     1     128.359 -41.354  33.633  1.00  0.00    -0.390 OA
ATOM     14  H   UNL     1     127.736 -41.392  34.406  1.00  0.00     0.211 HD
ENDBRANCH   3  13
ENDBRANCH   1   3
BRANCH   1  15
ATOM     15  C   UNL     1     129.481 -39.317  31.912  1.00  0.00     0.032 C 
ATOM     16  C   UNL     1     128.154 -39.919  31.376  1.00  0.00     0.010 C 
ATOM     17  C   UNL     1     130.588 -39.975  31.029  1.00  0.00     0.006 C 
ATOM     18  C   UNL     1     128.468 -40.504  29.985  1.00  0.00     0.041 C 
ATOM     19  C   UNL     1     129.879 -39.992  29.648  1.00  0.00     0.092 C 
ATOM     20  C   UNL     1     131.921 -39.167  30.921  1.00  0.00     0.011 C 
ATOM     21  C   UNL     1     130.920 -41.416  31.543  1.00  0.00     0.015 C 
ATOM     22  C   UNL     1     130.738 -40.764  28.659  1.00  0.00    -0.031 C 
ATOM     23  C   UNL     1     132.578 -39.201  29.509  1.00  0.00     0.009 C 
ATOM     24  C   UNL     1     132.236 -40.464  28.647  1.00  0.00     0.025 C 
ATOM     25  C   UNL     1     130.208 -41.614  27.769  1.00  0.00     0.050 C 
ATOM     26  C   UNL     1     132.818 -40.422  27.184  1.00  0.00    -0.013 C 
ATOM     27  C   UNL     1     131.026 -42.220  26.711  1.00  0.00     0.159 C 
ATOM     28  C   UNL     1     132.436 -41.754  26.427  1.00  0.00     0.070 C 
ATOM     29  C   UNL     1     134.380 -40.264  27.253  1.00  0.00     0.042 C 
ATOM     30  C   UNL     1     132.229 -39.230  26.381  1.00  0.00     0.013 C 
ATOM     31  O   UNL     1     130.518 -43.125  25.994  1.00  0.00    -0.295 OA
ATOM     32  C   UNL     1     133.449 -42.881  26.712  1.00  0.00     0.047 C 
ATOM     33  C   UNL     1     135.103 -40.990  26.111  1.00  0.00     0.143 C 
ATOM     34  C   UNL     1     134.864 -42.524  26.199  1.00  0.00     0.143 C 
BRANCH  19  35
ATOM     35  O   UNL     1     129.748 -38.670  29.162  1.00  0.00    -0.385 OA
ATOM     36  H   UNL     1     128.809 -38.381  29.310  1.00  0.00     0.211 HD
ENDBRANCH  19  35
BRANCH  33  37
ATOM     37  O   UNL     1     136.474 -40.693  26.166  1.00  0.00    -0.390 OA
ATOM     38  H   UNL     1     136.600 -40.065  26.924  1.00  0.00     0.211 HD
ENDBRANCH  33  37
BRANCH  34  39
ATOM     39  O   UNL     1     135.812 -43.123  27.049  1.00  0.00    -0.390 OA
ATOM     40  H   UNL     1     136.507 -42.441  27.242  1.00  0.00     0.211 HD
ENDBRANCH  34  39
ENDBRANCH   1  15
BRANCH   1  41
ATOM     41  O   UNL     1     128.609 -38.481  34.014  1.00  0.00    -0.387 OA
ATOM     42  H   UNL     1     128.797 -38.291  34.968  1.00  0.00     0.211 HD
ENDBRANCH   1  41
TORSDOF 9
ENDMDL
