MODEL 1
REMARK VINA RESULT:    -2.493      0.000      0.000
REMARK INTER + INTRA:          -2.819
REMARK INTER:                  -2.784
REMARK INTRA:                  -0.035
REMARK UNBOUND:                -0.035
REMARK SMILES CCCC(=O)[O-]
REMARK SMILES IDX 3 1 4 2 5 3 6 4 2 5 1 6
REMARK H PARENT
REMARK Flexibility Score: inf
ROOT
ATOM      1  C   UNL     1      64.140 130.115  -5.886  1.00  0.00     0.052 C 
ENDROOT
BRANCH   1   2
ATOM      2  C   UNL     1      65.044 128.988  -5.500  1.00  0.00     0.041 C 
ATOM      3  O   UNL     1      65.616 128.990  -4.378  1.00  0.00    -0.550 OA
ATOM      4  O   UNL     1      65.218 127.911  -6.359  1.00  0.00    -0.550 OA
ENDBRANCH   1   2
BRANCH   1   5
ATOM      5  C   UNL     1      63.884 130.105  -7.396  1.00  0.00     0.003 C 
ATOM      6  C   UNL     1      62.394 129.984  -7.700  1.00  0.00     0.004 C 
ENDBRANCH   1   5
TORSDOF 2
ENDMDL
MODEL 2
REMARK VINA RESULT:    -2.267      1.777      2.367
REMARK INTER + INTRA:          -2.568
REMARK INTER:                  -2.543
REMARK INTRA:                  -0.025
REMARK UNBOUND:                -0.035
REMARK SMILES CCCC(=O)[O-]
REMARK SMILES IDX 3 1 4 2 5 3 6 4 2 5 1 6
REMARK H PARENT
REMARK Flexibility Score: inf
ROOT
ATOM      1  C   UNL     1      62.717 130.022  -6.858  1.00  0.00     0.052 C 
ENDROOT
BRANCH   1   2
ATOM      2  C   UNL     1      64.161 130.043  -6.466  1.00  0.00     0.041 C 
ATOM      3  O   UNL     1      65.047 130.277  -7.329  1.00  0.00    -0.550 OA
ATOM      4  O   UNL     1      64.525 129.853  -5.140  1.00  0.00    -0.550 OA
ENDBRANCH   1   2
BRANCH   1   5
ATOM      5  C   UNL     1      62.322 128.635  -7.374  1.00  0.00     0.003 C 
ATOM      6  C   UNL     1      61.294 127.979  -6.458  1.00  0.00     0.004 C 
ENDBRANCH   1   5
TORSDOF 2
ENDMDL
MODEL 3
REMARK VINA RESULT:    -2.151     21.602     22.065
REMARK INTER + INTRA:          -2.438
REMARK INTER:                  -2.423
REMARK INTRA:                  -0.016
REMARK UNBOUND:                -0.035
REMARK SMILES CCCC(=O)[O-]
REMARK SMILES IDX 3 1 4 2 5 3 6 4 2 5 1 6
REMARK H PARENT
REMARK Flexibility Score: inf
ROOT
ATOM      1  C   UNL     1      52.894 147.770  -6.462  1.00  0.00     0.052 C 
ENDROOT
BRANCH   1   2
ATOM      2  C   UNL     1      53.162 147.920  -4.998  1.00  0.00     0.041 C 
ATOM      3  O   UNL     1      54.340 148.079  -4.584  1.00  0.00    -0.550 OA
ATOM      4  O   UNL     1      52.107 147.935  -4.096  1.00  0.00    -0.550 OA
ENDBRANCH   1   2
BRANCH   1   5
ATOM      5  C   UNL     1      51.439 148.125  -6.780  1.00  0.00     0.003 C 
ATOM      6  C   UNL     1      50.940 147.360  -8.002  1.00  0.00     0.004 C 
ENDBRANCH   1   5
TORSDOF 2
ENDMDL
MODEL 4
REMARK VINA RESULT:    -2.015      2.878      3.316
REMARK INTER + INTRA:          -2.286
REMARK INTER:                  -2.248
REMARK INTRA:                  -0.038
REMARK UNBOUND:                -0.035
REMARK SMILES CCCC(=O)[O-]
REMARK SMILES IDX 3 1 4 2 5 3 6 4 2 5 1 6
REMARK H PARENT
REMARK Flexibility Score: inf
ROOT
ATOM      1  C   UNL     1      62.653 129.892  -6.854  1.00  0.00     0.052 C 
ENDROOT
BRANCH   1   2
ATOM      2  C   UNL     1      62.010 128.576  -7.160  1.00  0.00     0.041 C 
ATOM      3  O   UNL     1      62.428 127.876  -8.120  1.00  0.00    -0.550 OA
ATOM      4  O   UNL     1      60.983 128.100  -6.357  1.00  0.00    -0.550 OA
ENDBRANCH   1   2
BRANCH   1   5
ATOM      5  C   UNL     1      63.274 130.492  -8.118  1.00  0.00     0.003 C 
ATOM      6  C   UNL     1      64.780 130.677  -7.956  1.00  0.00     0.004 C 
ENDBRANCH   1   5
TORSDOF 2
ENDMDL
MODEL 5
REMARK VINA RESULT:    -1.966      1.951      3.210
REMARK INTER + INTRA:          -2.231
REMARK INTER:                  -2.201
REMARK INTRA:                  -0.030
REMARK UNBOUND:                -0.035
REMARK SMILES CCCC(=O)[O-]
REMARK SMILES IDX 3 1 4 2 5 3 6 4 2 5 1 6
REMARK H PARENT
REMARK Flexibility Score: inf
ROOT
ATOM      1  C   UNL     1      64.320 130.019  -5.977  1.00  0.00     0.052 C 
ENDROOT
BRANCH   1   2
ATOM      2  C   UNL     1      63.212 129.445  -6.802  1.00  0.00     0.041 C 
ATOM      3  O   UNL     1      62.462 130.205  -7.470  1.00  0.00    -0.550 OA
ATOM      4  O   UNL     1      63.037 128.070  -6.872  1.00  0.00    -0.550 OA
ENDBRANCH   1   2
BRANCH   1   5
ATOM      5  C   UNL     1      65.077 128.905  -5.248  1.00  0.00     0.003 C 
ATOM      6  C   UNL     1      66.566 128.945  -5.577  1.00  0.00     0.004 C 
ENDBRANCH   1   5
TORSDOF 2
ENDMDL
MODEL 6
REMARK VINA RESULT:    -1.831     21.230     21.757
REMARK INTER + INTRA:          -2.080
REMARK INTER:                  -2.065
REMARK INTRA:                  -0.015
REMARK UNBOUND:                -0.035
REMARK SMILES CCCC(=O)[O-]
REMARK SMILES IDX 3 1 4 2 5 3 6 4 2 5 1 6
REMARK H PARENT
REMARK Flexibility Score: inf
ROOT
ATOM      1  C   UNL     1      53.452 147.852  -1.573  1.00  0.00     0.052 C 
ENDROOT
BRANCH   1   2
ATOM      2  C   UNL     1      54.600 147.827  -2.531  1.00  0.00     0.041 C 
ATOM      3  O   UNL     1      55.748 147.493  -2.135  1.00  0.00    -0.550 OA
ATOM      4  O   UNL     1      54.395 148.124  -3.871  1.00  0.00    -0.550 OA
ENDBRANCH   1   2
BRANCH   1   5
ATOM      5  C   UNL     1      53.956 148.017  -0.136  1.00  0.00     0.003 C 
ATOM      6  C   UNL     1      52.919 147.529   0.870  1.00  0.00     0.004 C 
ENDBRANCH   1   5
TORSDOF 2
ENDMDL
MODEL 7
REMARK VINA RESULT:    -1.764      1.548      2.207
REMARK INTER + INTRA:          -2.005
REMARK INTER:                  -2.014
REMARK INTRA:                   0.008
REMARK UNBOUND:                -0.035
REMARK SMILES CCCC(=O)[O-]
REMARK SMILES IDX 3 1 4 2 5 3 6 4 2 5 1 6
REMARK H PARENT
REMARK Flexibility Score: inf
ROOT
ATOM      1  C   UNL     1      65.271 128.996  -5.622  1.00  0.00     0.052 C 
ENDROOT
BRANCH   1   2
ATOM      2  C   UNL     1      66.157 128.856  -6.819  1.00  0.00     0.041 C 
ATOM      3  O   UNL     1      66.001 127.891  -7.614  1.00  0.00    -0.550 OA
ATOM      4  O   UNL     1      67.124 129.817  -7.086  1.00  0.00    -0.550 OA
ENDBRANCH   1   2
BRANCH   1   5
ATOM      5  C   UNL     1      64.260 130.126  -5.834  1.00  0.00     0.003 C 
ATOM      6  C   UNL     1      63.402 129.873  -7.069  1.00  0.00     0.004 C 
ENDBRANCH   1   5
TORSDOF 2
ENDMDL
