MODEL 1
REMARK VINA RESULT:    -4.982      0.000      0.000
REMARK INTER + INTRA:          -7.745
REMARK INTER:                  -6.729
REMARK INTRA:                  -1.015
REMARK UNBOUND:                -1.015
REMARK SMILES CC(=O)CCC=C(C)CCC=C(C)C
REMARK SMILES IDX 7 1 6 2 8 3 9 4 10 5 11 6 13 7 12 8 14 9 5 10 4 11 2 12 3 13
REMARK SMILES IDX 1 14
REMARK H PARENT
REMARK Flexibility Score: inf
ROOT
ATOM      1  C   UNL     1      13.760 -19.405 -20.268  1.00  0.00    -0.077 C 
ATOM      2  C   UNL     1      14.177 -18.980 -19.054  1.00  0.00    -0.028 C 
ATOM      3  C   UNL     1      13.384 -20.856 -20.429  1.00  0.00     0.039 C 
ENDROOT
BRANCH   1   4
ATOM      4  C   UNL     1      13.638 -18.478 -21.465  1.00  0.00     0.034 C 
BRANCH   4   5
ATOM      5  C   UNL     1      12.468 -17.493 -21.314  1.00  0.00     0.032 C 
BRANCH   5   6
ATOM      6  C   UNL     1      11.134 -18.199 -21.325  1.00  0.00    -0.028 C 
ATOM      7  C   UNL     1       8.951 -18.932 -20.466  1.00  0.00     0.039 C 
ATOM      8  C   UNL     1      10.272 -18.227 -20.284  1.00  0.00    -0.080 C 
ATOM      9  C   UNL     1      10.601 -17.594 -18.953  1.00  0.00     0.039 C 
ENDBRANCH   5   6
ENDBRANCH   4   5
ENDBRANCH   1   4
BRANCH   2  10
ATOM     10  C   UNL     1      14.614 -17.563 -18.764  1.00  0.00     0.035 C 
BRANCH  10  11
ATOM     11  C   UNL     1      16.021 -17.531 -18.152  1.00  0.00     0.079 C 
BRANCH  11  12
ATOM     12  C   UNL     1      17.150 -17.270 -19.128  1.00  0.00     0.130 C 
ATOM     13  O   UNL     1      18.274 -17.123 -18.670  1.00  0.00    -0.300 OA
ATOM     14  C   UNL     1      16.988 -17.179 -20.623  1.00  0.00     0.087 C 
ENDBRANCH  11  12
ENDBRANCH  10  11
ENDBRANCH   2  10
TORSDOF 6
ENDMDL
MODEL 2
REMARK VINA RESULT:    -4.963      2.171      3.556
REMARK INTER + INTRA:          -7.720
REMARK INTER:                  -6.005
REMARK INTRA:                  -1.714
REMARK UNBOUND:                -1.015
REMARK SMILES CC(=O)CCC=C(C)CCC=C(C)C
REMARK SMILES IDX 7 1 6 2 8 3 9 4 10 5 11 6 13 7 12 8 14 9 5 10 4 11 2 12 3 13
REMARK SMILES IDX 1 14
REMARK H PARENT
REMARK Flexibility Score: inf
ROOT
ATOM      1  C   UNL     1      14.938 -17.965 -18.185  1.00  0.00    -0.077 C 
ATOM      2  C   UNL     1      16.265 -17.821 -18.401  1.00  0.00    -0.028 C 
ATOM      3  C   UNL     1      14.489 -18.762 -16.986  1.00  0.00     0.039 C 
ENDROOT
BRANCH   1   4
ATOM      4  C   UNL     1      13.887 -17.341 -19.086  1.00  0.00     0.034 C 
BRANCH   4   5
ATOM      5  C   UNL     1      12.963 -18.397 -19.711  1.00  0.00     0.032 C 
BRANCH   5   6
ATOM      6  C   UNL     1      13.295 -18.649 -21.161  1.00  0.00    -0.028 C 
ATOM      7  C   UNL     1      14.201 -19.855 -23.102  1.00  0.00     0.039 C 
ATOM      8  C   UNL     1      13.992 -19.715 -21.615  1.00  0.00    -0.080 C 
ATOM      9  C   UNL     1      14.577 -20.747 -20.681  1.00  0.00     0.039 C 
ENDBRANCH   5   6
ENDBRANCH   4   5
ENDBRANCH   1   4
BRANCH   2  10
ATOM     10  C   UNL     1      16.849 -17.078 -19.579  1.00  0.00     0.035 C 
BRANCH  10  11
ATOM     11  C   UNL     1      17.236 -18.043 -20.707  1.00  0.00     0.079 C 
BRANCH  11  12
ATOM     12  C   UNL     1      17.000 -17.530 -22.114  1.00  0.00     0.130 C 
ATOM     13  O   UNL     1      17.639 -18.043 -23.020  1.00  0.00    -0.300 OA
ATOM     14  C   UNL     1      16.034 -16.431 -22.475  1.00  0.00     0.087 C 
ENDBRANCH  11  12
ENDBRANCH  10  11
ENDBRANCH   2  10
TORSDOF 6
ENDMDL
MODEL 3
REMARK VINA RESULT:    -4.930      3.660      5.816
REMARK INTER + INTRA:          -7.675
REMARK INTER:                  -6.876
REMARK INTRA:                  -0.799
REMARK UNBOUND:                -1.015
REMARK SMILES CC(=O)CCC=C(C)CCC=C(C)C
REMARK SMILES IDX 7 1 6 2 8 3 9 4 10 5 11 6 13 7 12 8 14 9 5 10 4 11 2 12 3 13
REMARK SMILES IDX 1 14
REMARK H PARENT
REMARK Flexibility Score: inf
ROOT
ATOM      1  C   UNL     1      14.223 -20.454 -21.305  1.00  0.00    -0.077 C 
ATOM      2  C   UNL     1      14.907 -21.582 -21.602  1.00  0.00    -0.028 C 
ATOM      3  C   UNL     1      13.269 -20.479 -20.138  1.00  0.00     0.039 C 
ENDROOT
BRANCH   1   4
ATOM      4  C   UNL     1      14.393 -19.161 -22.086  1.00  0.00     0.034 C 
BRANCH   4   5
ATOM      5  C   UNL     1      14.336 -17.926 -21.174  1.00  0.00     0.032 C 
BRANCH   5   6
ATOM      6  C   UNL     1      15.682 -17.610 -20.568  1.00  0.00    -0.028 C 
ATOM      7  C   UNL     1      17.336 -17.246 -18.788  1.00  0.00     0.039 C 
ATOM      8  C   UNL     1      15.925 -17.519 -19.242  1.00  0.00    -0.080 C 
ATOM      9  C   UNL     1      14.827 -17.662 -18.214  1.00  0.00     0.039 C 
ENDBRANCH   5   6
ENDBRANCH   4   5
ENDBRANCH   1   4
BRANCH   2  10
ATOM     10  C   UNL     1      15.867 -21.702 -22.763  1.00  0.00     0.035 C 
BRANCH  10  11
ATOM     11  C   UNL     1      15.646 -23.011 -23.532  1.00  0.00     0.079 C 
BRANCH  11  12
ATOM     12  C   UNL     1      16.794 -23.998 -23.480  1.00  0.00     0.130 C 
ATOM     13  O   UNL     1      17.667 -23.900 -24.330  1.00  0.00    -0.300 OA
ATOM     14  C   UNL     1      16.938 -25.094 -22.455  1.00  0.00     0.087 C 
ENDBRANCH  11  12
ENDBRANCH  10  11
ENDBRANCH   2  10
TORSDOF 6
ENDMDL
MODEL 4
REMARK VINA RESULT:    -4.750      2.018      4.103
REMARK INTER + INTRA:          -7.432
REMARK INTER:                  -6.539
REMARK INTRA:                  -0.893
REMARK UNBOUND:                -1.015
REMARK SMILES CC(=O)CCC=C(C)CCC=C(C)C
REMARK SMILES IDX 7 1 6 2 8 3 9 4 10 5 11 6 13 7 12 8 14 9 5 10 4 11 2 12 3 13
REMARK SMILES IDX 1 14
REMARK H PARENT
REMARK Flexibility Score: inf
ROOT
ATOM      1  C   UNL     1      13.665 -18.383 -19.271  1.00  0.00    -0.077 C 
ATOM      2  C   UNL     1      14.494 -17.462 -18.730  1.00  0.00    -0.028 C 
ATOM      3  C   UNL     1      12.282 -17.947 -19.686  1.00  0.00     0.039 C 
ENDROOT
BRANCH   1   4
ATOM      4  C   UNL     1      14.077 -19.827 -19.497  1.00  0.00     0.034 C 
BRANCH   4   5
ATOM      5  C   UNL     1      13.913 -20.251 -20.964  1.00  0.00     0.032 C 
BRANCH   5   6
ATOM      6  C   UNL     1      14.726 -21.480 -21.290  1.00  0.00    -0.028 C 
ATOM      7  C   UNL     1      15.972 -23.066 -22.693  1.00  0.00     0.039 C 
ATOM      8  C   UNL     1      15.119 -21.834 -22.534  1.00  0.00    -0.080 C 
ATOM      9  C   UNL     1      14.713 -21.046 -23.757  1.00  0.00     0.039 C 
ENDBRANCH   5   6
ENDBRANCH   4   5
ENDBRANCH   1   4
BRANCH   2  10
ATOM     10  C   UNL     1      15.890 -17.771 -18.243  1.00  0.00     0.035 C 
BRANCH  10  11
ATOM     11  C   UNL     1      16.948 -17.171 -19.177  1.00  0.00     0.079 C 
BRANCH  11  12
ATOM     12  C   UNL     1      16.907 -17.661 -20.610  1.00  0.00     0.130 C 
ATOM     13  O   UNL     1      17.235 -18.818 -20.824  1.00  0.00    -0.300 OA
ATOM     14  C   UNL     1      16.488 -16.824 -21.791  1.00  0.00     0.087 C 
ENDBRANCH  11  12
ENDBRANCH  10  11
ENDBRANCH   2  10
TORSDOF 6
ENDMDL
MODEL 5
REMARK VINA RESULT:    -4.719      4.163      5.908
REMARK INTER + INTRA:          -7.390
REMARK INTER:                  -6.759
REMARK INTRA:                  -0.631
REMARK UNBOUND:                -1.015
REMARK SMILES CC(=O)CCC=C(C)CCC=C(C)C
REMARK SMILES IDX 7 1 6 2 8 3 9 4 10 5 11 6 13 7 12 8 14 9 5 10 4 11 2 12 3 13
REMARK SMILES IDX 1 14
REMARK H PARENT
REMARK Flexibility Score: inf
ROOT
ATOM      1  C   UNL     1      14.535 -20.843 -22.707  1.00  0.00    -0.077 C 
ATOM      2  C   UNL     1      14.865 -21.648 -23.743  1.00  0.00    -0.028 C 
ATOM      3  C   UNL     1      14.043 -19.451 -23.009  1.00  0.00     0.039 C 
ENDROOT
BRANCH   1   4
ATOM      4  C   UNL     1      14.623 -21.293 -21.259  1.00  0.00     0.034 C 
BRANCH   4   5
ATOM      5  C   UNL     1      13.646 -20.522 -20.357  1.00  0.00     0.032 C 
BRANCH   5   6
ATOM      6  C   UNL     1      14.370 -19.647 -19.362  1.00  0.00    -0.028 C 
ATOM      7  C   UNL     1      14.819 -17.641 -18.015  1.00  0.00     0.039 C 
ATOM      8  C   UNL     1      14.029 -18.372 -19.071  1.00  0.00    -0.080 C 
ATOM      9  C   UNL     1      12.903 -17.661 -19.782  1.00  0.00     0.039 C 
ENDBRANCH   5   6
ENDBRANCH   4   5
ENDBRANCH   1   4
BRANCH   2  10
ATOM     10  C   UNL     1      15.401 -23.051 -23.580  1.00  0.00     0.035 C 
BRANCH  10  11
ATOM     11  C   UNL     1      16.935 -23.066 -23.621  1.00  0.00     0.079 C 
BRANCH  11  12
ATOM     12  C   UNL     1      17.581 -24.405 -23.329  1.00  0.00     0.130 C 
ATOM     13  O   UNL     1      18.379 -24.841 -24.145  1.00  0.00    -0.300 OA
ATOM     14  C   UNL     1      17.311 -25.238 -22.102  1.00  0.00     0.087 C 
ENDBRANCH  11  12
ENDBRANCH  10  11
ENDBRANCH   2  10
TORSDOF 6
ENDMDL
MODEL 6
REMARK VINA RESULT:    -4.651      3.809      6.405
REMARK INTER + INTRA:          -7.298
REMARK INTER:                  -6.068
REMARK INTRA:                  -1.230
REMARK UNBOUND:                -1.015
REMARK SMILES CC(=O)CCC=C(C)CCC=C(C)C
REMARK SMILES IDX 7 1 6 2 8 3 9 4 10 5 11 6 13 7 12 8 14 9 5 10 4 11 2 12 3 13
REMARK SMILES IDX 1 14
REMARK H PARENT
REMARK Flexibility Score: inf
ROOT
ATOM      1  C   UNL     1      11.112 -16.758 -25.025  1.00  0.00    -0.077 C 
ATOM      2  C   UNL     1      10.246 -17.470 -24.269  1.00  0.00    -0.028 C 
ATOM      3  C   UNL     1      11.197 -17.063 -26.499  1.00  0.00     0.039 C 
ENDROOT
BRANCH   1   4
ATOM      4  C   UNL     1      11.984 -15.652 -24.453  1.00  0.00     0.034 C 
BRANCH   4   5
ATOM      5  C   UNL     1      13.414 -16.136 -24.169  1.00  0.00     0.032 C 
BRANCH   5   6
ATOM      6  C   UNL     1      13.638 -16.399 -22.699  1.00  0.00    -0.028 C 
ATOM      7  C   UNL     1      13.990 -17.730 -20.664  1.00  0.00     0.039 C 
ATOM      8  C   UNL     1      13.711 -17.629 -22.142  1.00  0.00    -0.080 C 
ATOM      9  C   UNL     1      13.503 -18.888 -22.949  1.00  0.00     0.039 C 
ENDBRANCH   5   6
ENDBRANCH   4   5
ENDBRANCH   1   4
BRANCH   2  10
ATOM     10  C   UNL     1      10.086 -17.288 -22.778  1.00  0.00     0.035 C 
BRANCH  10  11
ATOM     11  C   UNL     1       8.974 -18.190 -22.226  1.00  0.00     0.079 C 
BRANCH  11  12
ATOM     12  C   UNL     1       9.133 -18.607 -20.778  1.00  0.00     0.130 C 
ATOM     13  O   UNL     1       8.281 -19.342 -20.302  1.00  0.00    -0.300 OA
ATOM     14  C   UNL     1      10.268 -18.182 -19.882  1.00  0.00     0.087 C 
ENDBRANCH  11  12
ENDBRANCH  10  11
ENDBRANCH   2  10
TORSDOF 6
ENDMDL
MODEL 7
REMARK VINA RESULT:    -4.618      3.463      5.619
REMARK INTER + INTRA:          -7.253
REMARK INTER:                  -6.142
REMARK INTRA:                  -1.111
REMARK UNBOUND:                -1.015
REMARK SMILES CC(=O)CCC=C(C)CCC=C(C)C
REMARK SMILES IDX 7 1 6 2 8 3 9 4 10 5 11 6 13 7 12 8 14 9 5 10 4 11 2 12 3 13
REMARK SMILES IDX 1 14
REMARK H PARENT
REMARK Flexibility Score: inf
ROOT
ATOM      1  C   UNL     1      14.143 -20.419 -21.386  1.00  0.00    -0.077 C 
ATOM      2  C   UNL     1      14.947 -21.485 -21.601  1.00  0.00    -0.028 C 
ATOM      3  C   UNL     1      13.156 -20.483 -20.247  1.00  0.00     0.039 C 
ENDROOT
BRANCH   1   4
ATOM      4  C   UNL     1      14.209 -19.157 -22.230  1.00  0.00     0.034 C 
BRANCH   4   5
ATOM      5  C   UNL     1      14.202 -17.886 -21.366  1.00  0.00     0.032 C 
BRANCH   5   6
ATOM      6  C   UNL     1      15.551 -17.622 -20.742  1.00  0.00    -0.028 C 
ATOM      7  C   UNL     1      17.190 -17.307 -18.939  1.00  0.00     0.039 C 
ATOM      8  C   UNL     1      15.775 -17.522 -19.413  1.00  0.00    -0.080 C 
ATOM      9  C   UNL     1      14.655 -17.601 -18.403  1.00  0.00     0.039 C 
ENDBRANCH   5   6
ENDBRANCH   4   5
ENDBRANCH   1   4
BRANCH   2  10
ATOM     10  C   UNL     1      15.954 -21.565 -22.724  1.00  0.00     0.035 C 
BRANCH  10  11
ATOM     11  C   UNL     1      15.439 -22.449 -23.868  1.00  0.00     0.079 C 
BRANCH  11  12
ATOM     12  C   UNL     1      14.835 -21.707 -25.043  1.00  0.00     0.130 C 
ATOM     13  O   UNL     1      15.579 -21.396 -25.961  1.00  0.00    -0.300 OA
ATOM     14  C   UNL     1      13.382 -21.326 -25.161  1.00  0.00     0.087 C 
ENDBRANCH  11  12
ENDBRANCH  10  11
ENDBRANCH   2  10
TORSDOF 6
ENDMDL
MODEL 8
REMARK VINA RESULT:    -4.612      6.184      8.188
REMARK INTER + INTRA:          -7.245
REMARK INTER:                  -5.757
REMARK INTRA:                  -1.488
REMARK UNBOUND:                -1.015
REMARK SMILES CC(=O)CCC=C(C)CCC=C(C)C
REMARK SMILES IDX 7 1 6 2 8 3 9 4 10 5 11 6 13 7 12 8 14 9 5 10 4 11 2 12 3 13
REMARK SMILES IDX 1 14
REMARK H PARENT
REMARK Flexibility Score: inf
ROOT
ATOM      1  C   UNL     1      15.371 -22.437 -22.746  1.00  0.00    -0.077 C 
ATOM      2  C   UNL     1      16.118 -23.443 -22.237  1.00  0.00    -0.028 C 
ATOM      3  C   UNL     1      14.933 -21.331 -21.819  1.00  0.00     0.039 C 
ENDROOT
BRANCH   1   4
ATOM      4  C   UNL     1      14.976 -22.367 -24.210  1.00  0.00     0.034 C 
BRANCH   4   5
ATOM      5  C   UNL     1      15.843 -21.370 -24.994  1.00  0.00     0.032 C 
BRANCH   5   6
ATOM      6  C   UNL     1      17.025 -22.045 -25.647  1.00  0.00    -0.028 C 
ATOM      7  C   UNL     1      19.355 -22.784 -25.902  1.00  0.00     0.039 C 
ATOM      8  C   UNL     1      18.288 -22.017 -25.164  1.00  0.00    -0.080 C 
ATOM      9  C   UNL     1      18.656 -21.232 -23.928  1.00  0.00     0.039 C 
ENDBRANCH   5   6
ENDBRANCH   4   5
ENDBRANCH   1   4
BRANCH   2  10
ATOM     10  C   UNL     1      16.595 -24.627 -23.046  1.00  0.00     0.035 C 
BRANCH  10  11
ATOM     11  C   UNL     1      17.727 -25.371 -22.326  1.00  0.00     0.079 C 
BRANCH  11  12
ATOM     12  C   UNL     1      19.124 -25.082 -22.835  1.00  0.00     0.130 C 
ATOM     13  O   UNL     1      19.740 -24.164 -22.315  1.00  0.00    -0.300 OA
ATOM     14  C   UNL     1      19.810 -25.848 -23.937  1.00  0.00     0.087 C 
ENDBRANCH  11  12
ENDBRANCH  10  11
ENDBRANCH   2  10
TORSDOF 6
ENDMDL
MODEL 9
REMARK VINA RESULT:    -4.607      6.540      8.112
REMARK INTER + INTRA:          -7.239
REMARK INTER:                  -6.048
REMARK INTRA:                  -1.191
REMARK UNBOUND:                -1.015
REMARK SMILES CC(=O)CCC=C(C)CCC=C(C)C
REMARK SMILES IDX 7 1 6 2 8 3 9 4 10 5 11 6 13 7 12 8 14 9 5 10 4 11 2 12 3 13
REMARK SMILES IDX 1 14
REMARK H PARENT
REMARK Flexibility Score: inf
ROOT
ATOM      1  C   UNL     1      18.794 -25.211 -22.721  1.00  0.00    -0.077 C 
ATOM      2  C   UNL     1      19.579 -24.798 -23.743  1.00  0.00    -0.028 C 
ATOM      3  C   UNL     1      19.439 -25.482 -21.386  1.00  0.00     0.039 C 
ENDROOT
BRANCH   1   4
ATOM      4  C   UNL     1      17.292 -25.391 -22.861  1.00  0.00     0.034 C 
BRANCH   4   5
ATOM      5  C   UNL     1      16.514 -24.180 -22.323  1.00  0.00     0.032 C 
BRANCH   5   6
ATOM      6  C   UNL     1      15.779 -23.451 -23.421  1.00  0.00    -0.028 C 
ATOM      7  C   UNL     1      14.490 -21.640 -24.469  1.00  0.00     0.039 C 
ATOM      8  C   UNL     1      15.137 -22.272 -23.263  1.00  0.00    -0.080 C 
ATOM      9  C   UNL     1      15.036 -21.588 -21.920  1.00  0.00     0.039 C 
ENDBRANCH   5   6
ENDBRANCH   4   5
ENDBRANCH   1   4
BRANCH   2  10
ATOM     10  C   UNL     1      19.068 -24.524 -25.137  1.00  0.00     0.035 C 
BRANCH  10  11
ATOM     11  C   UNL     1      19.474 -23.122 -25.611  1.00  0.00     0.079 C 
BRANCH  11  12
ATOM     12  C   UNL     1      18.409 -22.053 -25.470  1.00  0.00     0.130 C 
ATOM     13  O   UNL     1      17.491 -22.056 -26.275  1.00  0.00    -0.300 OA
ATOM     14  C   UNL     1      18.402 -20.985 -24.406  1.00  0.00     0.087 C 
ENDBRANCH  11  12
ENDBRANCH  10  11
ENDBRANCH   2  10
TORSDOF 6
ENDMDL
