MODEL 1
REMARK VINA RESULT:    -2.785      0.000      0.000
REMARK INTER + INTRA:          -4.342
REMARK INTER:                  -3.762
REMARK INTRA:                  -0.579
REMARK UNBOUND:                -0.579
REMARK SMILES CCCCCCCC(=O)[O-]
REMARK SMILES IDX 5 1 6 2 7 3 8 4 9 5 10 6 4 7 3 8 2 9 1 10
REMARK H PARENT
REMARK Flexibility Score: inf
ROOT
ATOM      1  C   UNL     1    -102.459 -27.859 -13.840  1.00  0.00     0.000 C 
ENDROOT
BRANCH   1   2
ATOM      2  C   UNL     1    -101.373 -27.899 -12.748  1.00  0.00     0.006 C 
BRANCH   2   3
ATOM      3  C   UNL     1     -99.934 -27.888 -13.296  1.00  0.00     0.053 C 
BRANCH   3   4
ATOM      4  C   UNL     1     -99.205 -29.170 -13.030  1.00  0.00     0.041 C 
ATOM      5  O   UNL     1     -97.952 -29.223 -13.141  1.00  0.00    -0.550 OA
ATOM      6  O   UNL     1     -99.913 -30.318 -12.698  1.00  0.00    -0.550 OA
ENDBRANCH   3   4
ENDBRANCH   2   3
ENDBRANCH   1   2
BRANCH   1   7
ATOM      7  C   UNL     1    -102.052 -27.155 -15.148  1.00  0.00     0.000 C 
BRANCH   7   8
ATOM      8  C   UNL     1    -102.039 -28.053 -16.402  1.00  0.00    -0.000 C 
BRANCH   8   9
ATOM      9  C   UNL     1    -102.047 -29.565 -16.117  1.00  0.00    -0.003 C 
ATOM     10  C   UNL     1    -100.658 -30.195 -16.210  1.00  0.00     0.004 C 
ENDBRANCH   8   9
ENDBRANCH   7   8
ENDBRANCH   1   7
TORSDOF 6
ENDMDL
MODEL 2
REMARK VINA RESULT:    -2.770      3.523      5.009
REMARK INTER + INTRA:          -4.321
REMARK INTER:                  -4.016
REMARK INTRA:                  -0.305
REMARK UNBOUND:                -0.579
REMARK SMILES CCCCCCCC(=O)[O-]
REMARK SMILES IDX 5 1 6 2 7 3 8 4 9 5 10 6 4 7 3 8 2 9 1 10
REMARK H PARENT
REMARK Flexibility Score: inf
ROOT
ATOM      1  C   UNL     1    -101.841 -28.058 -16.401  1.00  0.00     0.000 C 
ENDROOT
BRANCH   1   2
ATOM      2  C   UNL     1    -103.309 -27.616 -16.546  1.00  0.00     0.006 C 
BRANCH   2   3
ATOM      3  C   UNL     1    -103.489 -26.101 -16.755  1.00  0.00     0.053 C 
BRANCH   3   4
ATOM      4  C   UNL     1    -103.946 -25.397 -15.514  1.00  0.00     0.041 C 
ATOM      5  O   UNL     1    -104.010 -26.016 -14.420  1.00  0.00    -0.550 OA
ATOM      6  O   UNL     1    -104.339 -24.065 -15.573  1.00  0.00    -0.550 OA
ENDBRANCH   3   4
ENDBRANCH   2   3
ENDBRANCH   1   2
BRANCH   1   7
ATOM      7  C   UNL     1    -101.482 -28.721 -15.058  1.00  0.00     0.000 C 
BRANCH   7   8
ATOM      8  C   UNL     1    -100.938 -27.765 -13.977  1.00  0.00    -0.000 C 
BRANCH   8   9
ATOM      9  C   UNL     1    -100.285 -28.457 -12.768  1.00  0.00    -0.003 C 
ATOM     10  C   UNL     1     -98.929 -29.080 -13.100  1.00  0.00     0.004 C 
ENDBRANCH   8   9
ENDBRANCH   7   8
ENDBRANCH   1   7
TORSDOF 6
ENDMDL
MODEL 3
REMARK VINA RESULT:    -2.735      1.506      2.617
REMARK INTER + INTRA:          -4.273
REMARK INTER:                  -4.034
REMARK INTRA:                  -0.240
REMARK UNBOUND:                -0.579
REMARK SMILES CCCCCCCC(=O)[O-]
REMARK SMILES IDX 5 1 6 2 7 3 8 4 9 5 10 6 4 7 3 8 2 9 1 10
REMARK H PARENT
REMARK Flexibility Score: inf
ROOT
ATOM      1  C   UNL     1    -101.775 -28.083 -14.208  1.00  0.00     0.000 C 
ENDROOT
BRANCH   1   2
ATOM      2  C   UNL     1    -100.469 -27.753 -13.461  1.00  0.00     0.006 C 
BRANCH   2   3
ATOM      3  C   UNL     1     -99.857 -28.950 -12.710  1.00  0.00     0.053 C 
BRANCH   3   4
ATOM      4  C   UNL     1     -98.760 -29.618 -13.483  1.00  0.00     0.041 C 
ATOM      5  O   UNL     1     -99.032 -30.324 -14.489  1.00  0.00    -0.550 OA
ATOM      6  O   UNL     1     -97.440 -29.492 -13.069  1.00  0.00    -0.550 OA
ENDBRANCH   3   4
ENDBRANCH   2   3
ENDBRANCH   1   2
BRANCH   1   7
ATOM      7  C   UNL     1    -101.763 -27.784 -15.719  1.00  0.00     0.000 C 
BRANCH   7   8
ATOM      8  C   UNL     1    -103.148 -27.542 -16.353  1.00  0.00    -0.000 C 
BRANCH   8   9
ATOM      9  C   UNL     1    -103.400 -26.102 -16.831  1.00  0.00    -0.003 C 
ATOM     10  C   UNL     1    -104.118 -25.245 -15.788  1.00  0.00     0.004 C 
ENDBRANCH   8   9
ENDBRANCH   7   8
ENDBRANCH   1   7
TORSDOF 6
ENDMDL
MODEL 4
REMARK VINA RESULT:    -2.730      1.771      2.907
REMARK INTER + INTRA:          -4.267
REMARK INTER:                  -3.935
REMARK INTRA:                  -0.331
REMARK UNBOUND:                -0.579
REMARK SMILES CCCCCCCC(=O)[O-]
REMARK SMILES IDX 5 1 6 2 7 3 8 4 9 5 10 6 4 7 3 8 2 9 1 10
REMARK H PARENT
REMARK Flexibility Score: inf
ROOT
ATOM      1  C   UNL     1    -101.735 -27.714 -15.704  1.00  0.00     0.000 C 
ENDROOT
BRANCH   1   2
ATOM      2  C   UNL     1    -101.802 -27.761 -14.166  1.00  0.00     0.006 C 
BRANCH   2   3
ATOM      3  C   UNL     1    -100.430 -27.656 -13.476  1.00  0.00     0.053 C 
BRANCH   3   4
ATOM      4  C   UNL     1     -99.739 -28.981 -13.359  1.00  0.00     0.041 C 
ATOM      5  O   UNL     1     -98.487 -29.036 -13.246  1.00  0.00    -0.550 OA
ATOM      6  O   UNL     1    -100.476 -30.158 -13.414  1.00  0.00    -0.550 OA
ENDBRANCH   3   4
ENDBRANCH   2   3
ENDBRANCH   1   2
BRANCH   1   7
ATOM      7  C   UNL     1    -103.086 -27.523 -16.418  1.00  0.00     0.000 C 
BRANCH   7   8
ATOM      8  C   UNL     1    -103.412 -26.075 -16.834  1.00  0.00    -0.000 C 
BRANCH   8   9
ATOM      9  C   UNL     1    -104.622 -25.450 -16.120  1.00  0.00    -0.003 C 
ATOM     10  C   UNL     1    -104.259 -24.815 -14.778  1.00  0.00     0.004 C 
ENDBRANCH   8   9
ENDBRANCH   7   8
ENDBRANCH   1   7
TORSDOF 6
ENDMDL
MODEL 5
REMARK VINA RESULT:    -2.725      3.513      5.043
REMARK INTER + INTRA:          -4.260
REMARK INTER:                  -3.887
REMARK INTRA:                  -0.373
REMARK UNBOUND:                -0.579
REMARK SMILES CCCCCCCC(=O)[O-]
REMARK SMILES IDX 5 1 6 2 7 3 8 4 9 5 10 6 4 7 3 8 2 9 1 10
REMARK H PARENT
REMARK Flexibility Score: inf
ROOT
ATOM      1  C   UNL     1    -101.755 -27.996 -16.306  1.00  0.00     0.000 C 
ENDROOT
BRANCH   1   2
ATOM      2  C   UNL     1    -103.237 -27.617 -16.490  1.00  0.00     0.006 C 
BRANCH   2   3
ATOM      3  C   UNL     1    -103.474 -26.115 -16.731  1.00  0.00     0.053 C 
BRANCH   3   4
ATOM      4  C   UNL     1    -103.911 -25.393 -15.493  1.00  0.00     0.041 C 
ATOM      5  O   UNL     1    -103.878 -25.972 -14.376  1.00  0.00    -0.550 OA
ATOM      6  O   UNL     1    -104.393 -24.093 -15.579  1.00  0.00    -0.550 OA
ENDBRANCH   3   4
ENDBRANCH   2   3
ENDBRANCH   1   2
BRANCH   1   7
ATOM      7  C   UNL     1    -101.501 -29.330 -15.579  1.00  0.00     0.000 C 
BRANCH   7   8
ATOM      8  C   UNL     1    -100.707 -29.220 -14.261  1.00  0.00    -0.000 C 
BRANCH   8   9
ATOM      9  C   UNL     1    -100.686 -27.817 -13.631  1.00  0.00    -0.003 C 
ATOM     10  C   UNL     1    -101.441 -27.750 -12.304  1.00  0.00     0.004 C 
ENDBRANCH   8   9
ENDBRANCH   7   8
ENDBRANCH   1   7
TORSDOF 6
ENDMDL
MODEL 6
REMARK VINA RESULT:    -2.713      2.985      5.100
REMARK INTER + INTRA:          -4.245
REMARK INTER:                  -4.133
REMARK INTRA:                  -0.111
REMARK UNBOUND:                -0.579
REMARK SMILES CCCCCCCC(=O)[O-]
REMARK SMILES IDX 5 1 6 2 7 3 8 4 9 5 10 6 4 7 3 8 2 9 1 10
REMARK H PARENT
REMARK Flexibility Score: inf
ROOT
ATOM      1  C   UNL     1     -99.893 -29.037 -12.991  1.00  0.00     0.000 C 
ENDROOT
BRANCH   1   2
ATOM      2  C   UNL     1    -100.412 -27.690 -13.530  1.00  0.00     0.006 C 
BRANCH   2   3
ATOM      3  C   UNL     1    -101.896 -27.711 -13.943  1.00  0.00     0.053 C 
BRANCH   3   4
ATOM      4  C   UNL     1    -102.090 -27.480 -15.411  1.00  0.00     0.041 C 
ATOM      5  O   UNL     1    -102.793 -26.517 -15.814  1.00  0.00    -0.550 OA
ATOM      6  O   UNL     1    -101.525 -28.351 -16.334  1.00  0.00    -0.550 OA
ENDBRANCH   3   4
ENDBRANCH   2   3
ENDBRANCH   1   2
BRANCH   1   7
ATOM      7  C   UNL     1     -98.390 -29.297 -13.208  1.00  0.00     0.000 C 
BRANCH   7   8
ATOM      8  C   UNL     1     -97.636 -29.852 -11.982  1.00  0.00    -0.000 C 
BRANCH   8   9
ATOM      9  C   UNL     1     -96.129 -30.079 -12.196  1.00  0.00    -0.003 C 
ATOM     10  C   UNL     1     -95.296 -29.743 -10.960  1.00  0.00     0.004 C 
ENDBRANCH   8   9
ENDBRANCH   7   8
ENDBRANCH   1   7
TORSDOF 6
ENDMDL
MODEL 7
REMARK VINA RESULT:    -2.704      1.585      2.459
REMARK INTER + INTRA:          -4.232
REMARK INTER:                  -4.044
REMARK INTRA:                  -0.188
REMARK UNBOUND:                -0.579
REMARK SMILES CCCCCCCC(=O)[O-]
REMARK SMILES IDX 5 1 6 2 7 3 8 4 9 5 10 6 4 7 3 8 2 9 1 10
REMARK H PARENT
REMARK Flexibility Score: inf
ROOT
ATOM      1  C   UNL     1    -100.276 -27.736 -13.526  1.00  0.00     0.000 C 
ENDROOT
BRANCH   1   2
ATOM      2  C   UNL     1     -99.913 -29.042 -12.794  1.00  0.00     0.006 C 
BRANCH   2   3
ATOM      3  C   UNL     1     -98.638 -29.724 -13.325  1.00  0.00     0.053 C 
BRANCH   3   4
ATOM      4  C   UNL     1     -97.530 -29.744 -12.316  1.00  0.00     0.041 C 
ATOM      5  O   UNL     1     -96.330 -29.695 -12.691  1.00  0.00    -0.550 OA
ATOM      6  O   UNL     1     -97.823 -29.856 -10.963  1.00  0.00    -0.550 OA
ENDBRANCH   3   4
ENDBRANCH   2   3
ENDBRANCH   1   2
BRANCH   1   7
ATOM      7  C   UNL     1    -101.663 -27.719 -14.194  1.00  0.00     0.000 C 
BRANCH   7   8
ATOM      8  C   UNL     1    -101.660 -27.923 -15.722  1.00  0.00    -0.000 C 
BRANCH   8   9
ATOM      9  C   UNL     1    -102.839 -27.273 -16.467  1.00  0.00    -0.003 C 
ATOM     10  C   UNL     1    -103.456 -26.105 -15.698  1.00  0.00     0.004 C 
ENDBRANCH   8   9
ENDBRANCH   7   8
ENDBRANCH   1   7
TORSDOF 6
ENDMDL
MODEL 8
REMARK VINA RESULT:    -2.650      3.427      4.853
REMARK INTER + INTRA:          -4.158
REMARK INTER:                  -3.875
REMARK INTRA:                  -0.283
REMARK UNBOUND:                -0.579
REMARK SMILES CCCCCCCC(=O)[O-]
REMARK SMILES IDX 5 1 6 2 7 3 8 4 9 5 10 6 4 7 3 8 2 9 1 10
REMARK H PARENT
REMARK Flexibility Score: inf
ROOT
ATOM      1  C   UNL     1    -102.376 -27.758 -14.072  1.00  0.00     0.000 C 
ENDROOT
BRANCH   1   2
ATOM      2  C   UNL     1    -101.633 -27.705 -15.420  1.00  0.00     0.006 C 
BRANCH   2   3
ATOM      3  C   UNL     1    -102.522 -28.016 -16.638  1.00  0.00     0.053 C 
BRANCH   3   4
ATOM      4  C   UNL     1    -103.700 -27.095 -16.743  1.00  0.00     0.041 C 
ATOM      5  O   UNL     1    -104.869 -27.562 -16.786  1.00  0.00    -0.550 OA
ATOM      6  O   UNL     1    -103.506 -25.723 -16.833  1.00  0.00    -0.550 OA
ENDBRANCH   3   4
ENDBRANCH   2   3
ENDBRANCH   1   2
BRANCH   1   7
ATOM      7  C   UNL     1    -101.477 -27.884 -12.828  1.00  0.00     0.000 C 
BRANCH   7   8
ATOM      8  C   UNL     1     -99.972 -28.055 -13.119  1.00  0.00    -0.000 C 
BRANCH   8   9
ATOM      9  C   UNL     1     -99.402 -29.446 -12.794  1.00  0.00    -0.003 C 
ATOM     10  C   UNL     1     -97.908 -29.562 -13.092  1.00  0.00     0.004 C 
ENDBRANCH   8   9
ENDBRANCH   7   8
ENDBRANCH   1   7
TORSDOF 6
ENDMDL
MODEL 9
REMARK VINA RESULT:    -2.637      3.966      4.769
REMARK INTER + INTRA:          -4.141
REMARK INTER:                  -3.762
REMARK INTRA:                  -0.380
REMARK UNBOUND:                -0.579
REMARK SMILES CCCCCCCC(=O)[O-]
REMARK SMILES IDX 5 1 6 2 7 3 8 4 9 5 10 6 4 7 3 8 2 9 1 10
REMARK H PARENT
REMARK Flexibility Score: inf
ROOT
ATOM      1  C   UNL     1    -102.731 -27.551 -13.766  1.00  0.00     0.000 C 
ENDROOT
BRANCH   1   2
ATOM      2  C   UNL     1    -104.045 -27.019 -14.368  1.00  0.00     0.006 C 
BRANCH   2   3
ATOM      3  C   UNL     1    -104.262 -25.508 -14.160  1.00  0.00     0.053 C 
BRANCH   3   4
ATOM      4  C   UNL     1    -104.261 -24.742 -15.447  1.00  0.00     0.041 C 
ATOM      5  O   UNL     1    -103.869 -25.289 -16.511  1.00  0.00    -0.550 OA
ATOM      6  O   UNL     1    -104.656 -23.410 -15.465  1.00  0.00    -0.550 OA
ENDBRANCH   3   4
ENDBRANCH   2   3
ENDBRANCH   1   2
BRANCH   1   7
ATOM      7  C   UNL     1    -101.518 -27.536 -14.715  1.00  0.00     0.000 C 
BRANCH   7   8
ATOM      8  C   UNL     1    -101.808 -27.992 -16.159  1.00  0.00    -0.000 C 
BRANCH   8   9
ATOM      9  C   UNL     1    -101.872 -29.516 -16.358  1.00  0.00    -0.003 C 
ATOM     10  C   UNL     1    -100.551 -30.215 -16.036  1.00  0.00     0.004 C 
ENDBRANCH   8   9
ENDBRANCH   7   8
ENDBRANCH   1   7
TORSDOF 6
ENDMDL
