MODEL 1
REMARK VINA RESULT:    -4.263      0.000      0.000
REMARK INTER + INTRA:          -4.931
REMARK INTER:                  -4.886
REMARK INTRA:                  -0.046
REMARK UNBOUND:                -0.046
REMARK SMILES O=C([O-])c1cc(O)c(O)c(O)c1
REMARK SMILES IDX 4 1 5 2 12 3 6 4 10 5 8 6 2 7 1 8 3 9 7 10 11 12 9 14
REMARK H PARENT 7 11 11 13 9 15
REMARK Flexibility Score: inf
ROOT
ATOM      1  C   UNL     1      19.699  10.247  -7.687  1.00  0.00     0.005 A 
ATOM      2  C   UNL     1      20.454  11.016  -8.589  1.00  0.00     0.060 A 
ATOM      3  C   UNL     1      18.335  10.037  -7.947  1.00  0.00     0.060 A 
ATOM      4  C   UNL     1      19.861  11.568  -9.728  1.00  0.00     0.162 A 
ATOM      5  C   UNL     1      17.732  10.587  -9.087  1.00  0.00     0.162 A 
ATOM      6  C   UNL     1      18.496  11.355  -9.982  1.00  0.00     0.200 A 
ENDROOT
BRANCH   1   7
ATOM      7  C   UNL     1      20.328   9.664  -6.481  1.00  0.00     0.072 C 
ATOM      8  O   UNL     1      20.441   8.415  -6.358  1.00  0.00    -0.545 OA
ATOM      9  O   UNL     1      20.804  10.486  -5.467  1.00  0.00    -0.545 OA
ENDBRANCH   1   7
BRANCH   4  10
ATOM     10  O   UNL     1      20.645  12.327 -10.598  1.00  0.00    -0.504 OA
ATOM     11  H   UNL     1      20.814  12.046 -11.556  1.00  0.00     0.293 HD
ENDBRANCH   4  10
BRANCH   5  12
ATOM     12  O   UNL     1      16.376  10.371  -9.334  1.00  0.00    -0.504 OA
ATOM     13  H   UNL     1      15.694  11.114  -9.234  1.00  0.00     0.293 HD
ENDBRANCH   5  12
BRANCH   6  14
ATOM     14  O   UNL     1      17.911  11.909 -11.123  1.00  0.00    -0.502 OA
ATOM     15  H   UNL     1      18.394  11.949 -12.012  1.00  0.00     0.293 HD
ENDBRANCH   6  14
TORSDOF 4
ENDMDL
MODEL 2
REMARK VINA RESULT:    -4.245      0.043      2.430
REMARK INTER + INTRA:          -4.912
REMARK INTER:                  -4.866
REMARK INTRA:                  -0.046
REMARK UNBOUND:                -0.046
REMARK SMILES O=C([O-])c1cc(O)c(O)c(O)c1
REMARK SMILES IDX 4 1 5 2 12 3 6 4 10 5 8 6 2 7 1 8 3 9 7 10 11 12 9 14
REMARK H PARENT 7 11 11 13 9 15
REMARK Flexibility Score: inf
ROOT
ATOM      1  C   UNL     1      19.700  10.229  -7.654  1.00  0.00     0.005 A 
ATOM      2  C   UNL     1      18.335  10.032  -7.924  1.00  0.00     0.060 A 
ATOM      3  C   UNL     1      20.470  10.986  -8.552  1.00  0.00     0.060 A 
ATOM      4  C   UNL     1      17.747  10.579  -9.069  1.00  0.00     0.162 A 
ATOM      5  C   UNL     1      19.889  11.538  -9.702  1.00  0.00     0.162 A 
ATOM      6  C   UNL     1      18.523  11.335  -9.964  1.00  0.00     0.200 A 
ENDROOT
BRANCH   1   7
ATOM      7  C   UNL     1      20.321   9.649  -6.442  1.00  0.00     0.072 C 
ATOM      8  O   UNL     1      20.404   8.400  -6.299  1.00  0.00    -0.545 OA
ATOM      9  O   UNL     1      20.821  10.476  -5.443  1.00  0.00    -0.545 OA
ENDBRANCH   1   7
BRANCH   4  10
ATOM     10  O   UNL     1      16.389  10.360  -9.302  1.00  0.00    -0.504 OA
ATOM     11  H   UNL     1      15.934  10.658 -10.155  1.00  0.00     0.293 HD
ENDBRANCH   4  10
BRANCH   5  12
ATOM     12  O   UNL     1      20.665  12.288 -10.586  1.00  0.00    -0.504 OA
ATOM     13  H   UNL     1      20.704  13.299 -10.531  1.00  0.00     0.293 HD
ENDBRANCH   5  12
BRANCH   6  14
ATOM     14  O   UNL     1      17.929  11.878 -11.104  1.00  0.00    -0.502 OA
ATOM     15  H   UNL     1      17.248  11.368 -11.653  1.00  0.00     0.293 HD
ENDBRANCH   6  14
TORSDOF 4
ENDMDL
MODEL 3
REMARK VINA RESULT:    -4.035      1.602      4.197
REMARK INTER + INTRA:          -4.671
REMARK INTER:                  -4.626
REMARK INTRA:                  -0.045
REMARK UNBOUND:                -0.046
REMARK SMILES O=C([O-])c1cc(O)c(O)c(O)c1
REMARK SMILES IDX 4 1 5 2 12 3 6 4 10 5 8 6 2 7 1 8 3 9 7 10 11 12 9 14
REMARK H PARENT 7 11 11 13 9 15
REMARK Flexibility Score: inf
ROOT
ATOM      1  C   UNL     1      19.504  11.420  -9.308  1.00  0.00     0.005 A 
ATOM      2  C   UNL     1      20.780  11.306  -9.886  1.00  0.00     0.060 A 
ATOM      3  C   UNL     1      19.197  10.644  -8.178  1.00  0.00     0.060 A 
ATOM      4  C   UNL     1      21.733  10.434  -9.350  1.00  0.00     0.162 A 
ATOM      5  C   UNL     1      20.146   9.767  -7.634  1.00  0.00     0.162 A 
ATOM      6  C   UNL     1      21.419   9.660  -8.220  1.00  0.00     0.200 A 
ENDROOT
BRANCH   1   7
ATOM      7  C   UNL     1      18.497  12.343  -9.876  1.00  0.00     0.072 C 
ATOM      8  O   UNL     1      18.563  13.580  -9.650  1.00  0.00    -0.545 OA
ATOM      9  O   UNL     1      17.464  11.857 -10.669  1.00  0.00    -0.545 OA
ENDBRANCH   1   7
BRANCH   4  10
ATOM     10  O   UNL     1      22.988  10.349  -9.954  1.00  0.00    -0.504 OA
ATOM     11  H   UNL     1      23.372   9.470 -10.277  1.00  0.00     0.293 HD
ENDBRANCH   4  10
BRANCH   5  12
ATOM     12  O   UNL     1      19.828   9.002  -6.512  1.00  0.00    -0.504 OA
ATOM     13  H   UNL     1      20.007   8.005  -6.481  1.00  0.00     0.293 HD
ENDBRANCH   5  12
BRANCH   6  14
ATOM     14  O   UNL     1      22.376   8.792  -7.690  1.00  0.00    -0.502 OA
ATOM     15  H   UNL     1      23.369   8.976  -7.761  1.00  0.00     0.293 HD
ENDBRANCH   6  14
TORSDOF 4
ENDMDL
MODEL 4
REMARK VINA RESULT:    -4.004      1.613      4.770
REMARK INTER + INTRA:          -4.635
REMARK INTER:                  -4.590
REMARK INTRA:                  -0.045
REMARK UNBOUND:                -0.046
REMARK SMILES O=C([O-])c1cc(O)c(O)c(O)c1
REMARK SMILES IDX 4 1 5 2 12 3 6 4 10 5 8 6 2 7 1 8 3 9 7 10 11 12 9 14
REMARK H PARENT 7 11 11 13 9 15
REMARK Flexibility Score: inf
ROOT
ATOM      1  C   UNL     1      19.517  11.492  -9.330  1.00  0.00     0.005 A 
ATOM      2  C   UNL     1      19.203  10.698  -8.213  1.00  0.00     0.060 A 
ATOM      3  C   UNL     1      20.790  11.375  -9.911  1.00  0.00     0.060 A 
ATOM      4  C   UNL     1      20.140   9.806  -7.683  1.00  0.00     0.162 A 
ATOM      5  C   UNL     1      21.736  10.483  -9.387  1.00  0.00     0.162 A 
ATOM      6  C   UNL     1      21.413   9.695  -8.269  1.00  0.00     0.200 A 
ENDROOT
BRANCH   1   7
ATOM      7  C   UNL     1      18.524  12.435  -9.889  1.00  0.00     0.072 C 
ATOM      8  O   UNL     1      18.631  13.674  -9.684  1.00  0.00    -0.545 OA
ATOM      9  O   UNL     1      17.457  11.968 -10.648  1.00  0.00    -0.545 OA
ENDBRANCH   1   7
BRANCH   4  10
ATOM     10  O   UNL     1      19.790   9.038  -6.573  1.00  0.00    -0.504 OA
ATOM     11  H   UNL     1      18.829   8.929  -6.274  1.00  0.00     0.293 HD
ENDBRANCH   4  10
BRANCH   5  12
ATOM     12  O   UNL     1      22.997  10.377  -9.974  1.00  0.00    -0.504 OA
ATOM     13  H   UNL     1      23.216   9.637 -10.630  1.00  0.00     0.293 HD
ENDBRANCH   5  12
BRANCH   6  14
ATOM     14  O   UNL     1      22.343   8.801  -7.735  1.00  0.00    -0.502 OA
ATOM     15  H   UNL     1      22.594   7.939  -8.203  1.00  0.00     0.293 HD
ENDBRANCH   6  14
TORSDOF 4
ENDMDL
MODEL 5
REMARK VINA RESULT:    -3.190      9.564     10.685
REMARK INTER + INTRA:          -3.702
REMARK INTER:                  -3.655
REMARK INTRA:                  -0.047
REMARK UNBOUND:                -0.046
REMARK SMILES O=C([O-])c1cc(O)c(O)c(O)c1
REMARK SMILES IDX 4 1 5 2 12 3 6 4 10 5 8 6 2 7 1 8 3 9 7 10 11 12 9 14
REMARK H PARENT 7 11 11 13 9 15
REMARK Flexibility Score: inf
ROOT
ATOM      1  C   UNL     1      19.981  -0.412  -9.296  1.00  0.00     0.005 A 
ATOM      2  C   UNL     1      18.946   0.482  -9.621  1.00  0.00     0.060 A 
ATOM      3  C   UNL     1      21.307  -0.052  -9.585  1.00  0.00     0.060 A 
ATOM      4  C   UNL     1      19.227   1.711 -10.225  1.00  0.00     0.162 A 
ATOM      5  C   UNL     1      21.598   1.178 -10.190  1.00  0.00     0.162 A 
ATOM      6  C   UNL     1      20.557   2.065 -10.512  1.00  0.00     0.200 A 
ENDROOT
BRANCH   1   7
ATOM      7  C   UNL     1      19.682  -1.713  -8.658  1.00  0.00     0.072 C 
ATOM      8  O   UNL     1      18.887  -2.526  -9.201  1.00  0.00    -0.545 OA
ATOM      9  O   UNL     1      20.273  -2.056  -7.447  1.00  0.00    -0.545 OA
ENDBRANCH   1   7
BRANCH   4  10
ATOM     10  O   UNL     1      18.172   2.570 -10.533  1.00  0.00    -0.504 OA
ATOM     11  H   UNL     1      17.391   2.280 -11.107  1.00  0.00     0.293 HD
ENDBRANCH   4  10
BRANCH   5  12
ATOM     12  O   UNL     1      22.920   1.523 -10.471  1.00  0.00    -0.504 OA
ATOM     13  H   UNL     1      23.271   2.459 -10.305  1.00  0.00     0.293 HD
ENDBRANCH   5  12
BRANCH   6  14
ATOM     14  O   UNL     1      20.829   3.295 -11.114  1.00  0.00    -0.502 OA
ATOM     15  H   UNL     1      21.018   3.381 -12.105  1.00  0.00     0.293 HD
ENDBRANCH   6  14
TORSDOF 4
ENDMDL
MODEL 6
REMARK VINA RESULT:    -3.186      9.902     10.857
REMARK INTER + INTRA:          -3.697
REMARK INTER:                  -3.653
REMARK INTRA:                  -0.045
REMARK UNBOUND:                -0.046
REMARK SMILES O=C([O-])c1cc(O)c(O)c(O)c1
REMARK SMILES IDX 4 1 5 2 12 3 6 4 10 5 8 6 2 7 1 8 3 9 7 10 11 12 9 14
REMARK H PARENT 7 11 11 13 9 15
REMARK Flexibility Score: inf
ROOT
ATOM      1  C   UNL     1      19.768  -0.826  -9.275  1.00  0.00     0.005 A 
ATOM      2  C   UNL     1      21.081  -0.557  -9.698  1.00  0.00     0.060 A 
ATOM      3  C   UNL     1      18.799   0.185  -9.378  1.00  0.00     0.060 A 
ATOM      4  C   UNL     1      21.424   0.697 -10.213  1.00  0.00     0.162 A 
ATOM      5  C   UNL     1      19.134   1.445  -9.892  1.00  0.00     0.162 A 
ATOM      6  C   UNL     1      20.449   1.705 -10.312  1.00  0.00     0.200 A 
ENDROOT
BRANCH   1   7
ATOM      7  C   UNL     1      19.408  -2.154  -8.731  1.00  0.00     0.072 C 
ATOM      8  O   UNL     1      19.046  -3.085  -9.499  1.00  0.00    -0.545 OA
ATOM      9  O   UNL     1      19.464  -2.394  -7.363  1.00  0.00    -0.545 OA
ENDBRANCH   1   7
BRANCH   4  10
ATOM     10  O   UNL     1      22.738   0.925 -10.621  1.00  0.00    -0.504 OA
ATOM     11  H   UNL     1      23.007   0.925 -11.597  1.00  0.00     0.293 HD
ENDBRANCH   4  10
BRANCH   5  12
ATOM     12  O   UNL     1      18.162   2.441  -9.989  1.00  0.00    -0.504 OA
ATOM     13  H   UNL     1      17.636   2.751  -9.179  1.00  0.00     0.293 HD
ENDBRANCH   5  12
BRANCH   6  14
ATOM     14  O   UNL     1      20.799   2.954 -10.828  1.00  0.00    -0.502 OA
ATOM     15  H   UNL     1      21.545   3.513 -10.431  1.00  0.00     0.293 HD
ENDBRANCH   6  14
TORSDOF 4
ENDMDL
MODEL 7
REMARK VINA RESULT:    -3.015     10.947     12.732
REMARK INTER + INTRA:          -3.501
REMARK INTER:                  -3.451
REMARK INTRA:                  -0.050
REMARK UNBOUND:                -0.046
REMARK SMILES O=C([O-])c1cc(O)c(O)c(O)c1
REMARK SMILES IDX 4 1 5 2 12 3 6 4 10 5 8 6 2 7 1 8 3 9 7 10 11 12 9 14
REMARK H PARENT 7 11 11 13 9 15
REMARK Flexibility Score: inf
ROOT
ATOM      1  C   UNL     1      21.329  -0.718  -9.228  1.00  0.00     0.005 A 
ATOM      2  C   UNL     1      22.260  -1.057  -8.232  1.00  0.00     0.060 A 
ATOM      3  C   UNL     1      20.011  -1.192  -9.119  1.00  0.00     0.060 A 
ATOM      4  C   UNL     1      21.887  -1.856  -7.147  1.00  0.00     0.162 A 
ATOM      5  C   UNL     1      19.629  -1.994  -8.034  1.00  0.00     0.162 A 
ATOM      6  C   UNL     1      20.567  -2.328  -7.043  1.00  0.00     0.200 A 
ENDROOT
BRANCH   1   7
ATOM      7  C   UNL     1      21.725   0.128 -10.376  1.00  0.00     0.072 C 
ATOM      8  O   UNL     1      22.876   0.027 -10.879  1.00  0.00    -0.545 OA
ATOM      9  O   UNL     1      20.832   1.046 -10.916  1.00  0.00    -0.545 OA
ENDBRANCH   1   7
BRANCH   4  10
ATOM     10  O   UNL     1      22.842  -2.172  -6.180  1.00  0.00    -0.504 OA
ATOM     11  H   UNL     1      23.748  -2.551  -6.421  1.00  0.00     0.293 HD
ENDBRANCH   4  10
BRANCH   5  12
ATOM     12  O   UNL     1      18.317  -2.458  -7.937  1.00  0.00    -0.504 OA
ATOM     13  H   UNL     1      17.915  -3.065  -8.642  1.00  0.00     0.293 HD
ENDBRANCH   5  12
BRANCH   6  14
ATOM     14  O   UNL     1      20.203  -3.125  -5.957  1.00  0.00    -0.502 OA
ATOM     15  H   UNL     1      19.327  -3.632  -5.929  1.00  0.00     0.293 HD
ENDBRANCH   6  14
TORSDOF 4
ENDMDL
MODEL 8
REMARK VINA RESULT:    -2.901     10.011     11.606
REMARK INTER + INTRA:          -3.371
REMARK INTER:                  -3.324
REMARK INTRA:                  -0.047
REMARK UNBOUND:                -0.046
REMARK SMILES O=C([O-])c1cc(O)c(O)c(O)c1
REMARK SMILES IDX 4 1 5 2 12 3 6 4 10 5 8 6 2 7 1 8 3 9 7 10 11 12 9 14
REMARK H PARENT 7 11 11 13 9 15
REMARK Flexibility Score: inf
ROOT
ATOM      1  C   UNL     1      19.360   0.100  -9.587  1.00  0.00     0.005 A 
ATOM      2  C   UNL     1      20.458   0.977  -9.619  1.00  0.00     0.060 A 
ATOM      3  C   UNL     1      19.523  -1.174  -9.017  1.00  0.00     0.060 A 
ATOM      4  C   UNL     1      21.696   0.592  -9.094  1.00  0.00     0.162 A 
ATOM      5  C   UNL     1      20.760  -1.567  -8.489  1.00  0.00     0.162 A 
ATOM      6  C   UNL     1      21.851  -0.683  -8.526  1.00  0.00     0.200 A 
ENDROOT
BRANCH   1   7
ATOM      7  C   UNL     1      18.051   0.508 -10.143  1.00  0.00     0.072 C 
ATOM      8  O   UNL     1      17.508  -0.162 -11.062  1.00  0.00    -0.545 OA
ATOM      9  O   UNL     1      17.401   1.637  -9.659  1.00  0.00    -0.545 OA
ENDBRANCH   1   7
BRANCH   4  10
ATOM     10  O   UNL     1      22.761   1.492  -9.147  1.00  0.00    -0.504 OA
ATOM     11  H   UNL     1      23.015   2.072  -8.357  1.00  0.00     0.293 HD
ENDBRANCH   4  10
BRANCH   5  12
ATOM     12  O   UNL     1      20.908  -2.835  -7.925  1.00  0.00    -0.504 OA
ATOM     13  H   UNL     1      21.502  -2.992  -7.120  1.00  0.00     0.293 HD
ENDBRANCH   5  12
BRANCH   6  14
ATOM     14  O   UNL     1      23.090  -1.059  -8.003  1.00  0.00    -0.502 OA
ATOM     15  H   UNL     1      23.507  -1.962  -8.198  1.00  0.00     0.293 HD
ENDBRANCH   6  14
TORSDOF 4
ENDMDL
