MODEL 1
REMARK VINA RESULT:    -4.160      0.000      0.000
REMARK INTER + INTRA:          -4.917
REMARK INTER:                  -4.525
REMARK INTRA:                  -0.392
REMARK UNBOUND:                -0.392
REMARK SMILES C=C(C)[C@@H]1CC[C@@]2(C)CC[C@@]3(C)[C@H](CC[C@@H]4[C@]5(C)CC[C@H](O)C(C)(C)[C@H]5CC[C@@]43C)[C@@H]12
REMARK SMILES IDX 4 1 5 2 6 3 7 4 31 5 13 6 14 7 15 8 16 9 17 10 19 11 20 12
REMARK SMILES IDX 21 13 23 14 26 15 27 16 28 17 29 18 11 19 10 20 9 21 12 22
REMARK SMILES IDX 30 23 24 24 25 25 18 26 8 27 2 28 3 29 1 30 22 31
REMARK H PARENT 22 32
REMARK Flexibility Score: inf
ROOT
ATOM      1  C   UNL     1      16.271  36.889  59.990  1.00  0.00     0.018 C 
ATOM      2  C   UNL     1      16.092  37.734  58.722  1.00  0.00     0.009 C 
ATOM      3  C   UNL     1      16.677  39.103  59.025  1.00  0.00     0.008 C 
ATOM      4  C   UNL     1      17.798  38.869  60.057  1.00  0.00    -0.029 C 
ATOM      5  C   UNL     1      17.442  37.538  60.789  1.00  0.00     0.006 C 
ATOM      6  C   UNL     1      17.213  37.660  62.343  1.00  0.00    -0.000 C 
ATOM      7  C   UNL     1      18.586  37.612  63.035  1.00  0.00     0.005 C 
ATOM      8  C   UNL     1      18.465  37.534  64.536  1.00  0.00     0.005 C 
ATOM      9  C   UNL     1      17.748  38.762  65.164  1.00  0.00     0.002 C 
ATOM     10  C   UNL     1      17.719  38.662  66.776  1.00  0.00    -0.026 C 
ATOM     11  C   UNL     1      19.112  38.228  67.353  1.00  0.00     0.010 C 
ATOM     12  C   UNL     1      19.121  37.958  68.870  1.00  0.00     0.033 C 
ATOM     13  C   UNL     1      18.088  36.899  69.281  1.00  0.00     0.120 C 
ATOM     14  C   UNL     1      16.632  37.197  68.753  1.00  0.00    -0.006 C 
ATOM     15  C   UNL     1      16.662  37.574  67.208  1.00  0.00     0.003 C 
ATOM     16  C   UNL     1      15.274  37.845  66.582  1.00  0.00     0.005 C 
ATOM     17  C   UNL     1      15.325  37.949  65.043  1.00  0.00     0.008 C 
ATOM     18  C   UNL     1      16.325  39.013  64.466  1.00  0.00    -0.024 C 
ATOM     19  C   UNL     1      16.403  38.918  62.830  1.00  0.00    -0.024 C 
ATOM     20  C   UNL     1      17.051  40.222  62.228  1.00  0.00     0.008 C 
ATOM     21  C   UNL     1      17.976  40.098  60.990  1.00  0.00     0.007 C 
ATOM     22  C   UNL     1      14.950  38.816  62.260  1.00  0.00     0.012 C 
ATOM     23  C   UNL     1      15.781  40.443  64.838  1.00  0.00     0.012 C 
ATOM     24  C   UNL     1      15.989  38.298  69.638  1.00  0.00     0.014 C 
ATOM     25  C   UNL     1      15.776  35.919  68.969  1.00  0.00     0.014 C 
ATOM     26  C   UNL     1      17.421  40.084  67.363  1.00  0.00     0.012 C 
ATOM     27  C   UNL     1      19.125  38.687  59.268  1.00  0.00     0.011 C 
ENDROOT
BRANCH   1  28
ATOM     28  C   UNL     1      16.451  35.410  59.649  1.00  0.00    -0.077 C 
ATOM     29  C   UNL     1      16.466  34.405  60.779  1.00  0.00     0.039 C 
ATOM     30  C   UNL     1      16.512  34.973  58.373  1.00  0.00     0.008 C 
ENDBRANCH   1  28
BRANCH  13  31
ATOM     31  O   UNL     1      18.557  35.617  68.925  1.00  0.00    -0.393 OA
ATOM     32  H   UNL     1      19.321  35.714  68.305  1.00  0.00     0.210 HD
ENDBRANCH  13  31
TORSDOF 2
ENDMDL
MODEL 2
REMARK VINA RESULT:    -4.002      2.305      4.347
REMARK INTER + INTRA:          -4.745
REMARK INTER:                  -4.365
REMARK INTRA:                  -0.380
REMARK UNBOUND:                -0.392
REMARK SMILES C=C(C)[C@@H]1CC[C@@]2(C)CC[C@@]3(C)[C@H](CC[C@@H]4[C@]5(C)CC[C@H](O)C(C)(C)[C@H]5CC[C@@]43C)[C@@H]12
REMARK SMILES IDX 4 1 5 2 6 3 7 4 31 5 13 6 14 7 15 8 16 9 17 10 19 11 20 12
REMARK SMILES IDX 21 13 23 14 26 15 27 16 28 17 29 18 11 19 10 20 9 21 12 22
REMARK SMILES IDX 30 23 24 24 25 25 18 26 8 27 2 28 3 29 1 30 22 31
REMARK H PARENT 22 32
REMARK Flexibility Score: inf
ROOT
ATOM      1  C   UNL     1      16.862  35.803  59.272  1.00  0.00     0.018 C 
ATOM      2  C   UNL     1      16.447  34.418  58.759  1.00  0.00     0.009 C 
ATOM      3  C   UNL     1      15.370  33.908  59.701  1.00  0.00     0.008 C 
ATOM      4  C   UNL     1      14.645  35.159  60.237  1.00  0.00    -0.029 C 
ATOM      5  C   UNL     1      15.665  36.334  60.118  1.00  0.00     0.006 C 
ATOM      6  C   UNL     1      16.054  37.032  61.475  1.00  0.00    -0.000 C 
ATOM      7  C   UNL     1      14.971  38.074  61.806  1.00  0.00     0.005 C 
ATOM      8  C   UNL     1      15.346  38.928  62.992  1.00  0.00     0.005 C 
ATOM      9  C   UNL     1      15.530  38.118  64.305  1.00  0.00     0.002 C 
ATOM     10  C   UNL     1      15.852  39.091  65.554  1.00  0.00    -0.026 C 
ATOM     11  C   UNL     1      14.905  40.343  65.569  1.00  0.00     0.010 C 
ATOM     12  C   UNL     1      15.252  41.397  66.637  1.00  0.00     0.033 C 
ATOM     13  C   UNL     1      16.699  41.899  66.514  1.00  0.00     0.120 C 
ATOM     14  C   UNL     1      17.768  40.741  66.471  1.00  0.00    -0.006 C 
ATOM     15  C   UNL     1      17.334  39.615  65.435  1.00  0.00     0.003 C 
ATOM     16  C   UNL     1      18.341  38.450  65.287  1.00  0.00     0.005 C 
ATOM     17  C   UNL     1      18.011  37.525  64.096  1.00  0.00     0.008 C 
ATOM     18  C   UNL     1      16.566  36.910  64.093  1.00  0.00    -0.024 C 
ATOM     19  C   UNL     1      16.285  36.079  62.707  1.00  0.00    -0.024 C 
ATOM     20  C   UNL     1      15.040  35.128  62.872  1.00  0.00     0.008 C 
ATOM     21  C   UNL     1      14.088  34.922  61.667  1.00  0.00     0.007 C 
ATOM     22  C   UNL     1      17.524  35.175  62.400  1.00  0.00     0.012 C 
ATOM     23  C   UNL     1      16.468  35.893  65.291  1.00  0.00     0.012 C 
ATOM     24  C   UNL     1      17.984  40.198  67.908  1.00  0.00     0.014 C 
ATOM     25  C   UNL     1      19.125  41.362  66.039  1.00  0.00     0.014 C 
ATOM     26  C   UNL     1      15.574  38.312  66.884  1.00  0.00     0.012 C 
ATOM     27  C   UNL     1      13.433  35.429  59.302  1.00  0.00     0.011 C 
ENDROOT
BRANCH   1  28
ATOM     28  C   UNL     1      17.307  36.709  58.125  1.00  0.00    -0.077 C 
ATOM     29  C   UNL     1      17.628  38.155  58.430  1.00  0.00     0.039 C 
ATOM     30  C   UNL     1      17.502  36.237  56.875  1.00  0.00     0.008 C 
ENDBRANCH   1  28
BRANCH  13  31
ATOM     31  O   UNL     1      16.799  42.790  65.426  1.00  0.00    -0.393 OA
ATOM     32  H   UNL     1      17.018  42.277  64.608  1.00  0.00     0.210 HD
ENDBRANCH  13  31
TORSDOF 2
ENDMDL
MODEL 3
REMARK VINA RESULT:    -2.384      2.264      7.672
REMARK INTER + INTRA:          -2.984
REMARK INTER:                  -2.600
REMARK INTRA:                  -0.384
REMARK UNBOUND:                -0.392
REMARK SMILES C=C(C)[C@@H]1CC[C@@]2(C)CC[C@@]3(C)[C@H](CC[C@@H]4[C@]5(C)CC[C@H](O)C(C)(C)[C@H]5CC[C@@]43C)[C@@H]12
REMARK SMILES IDX 4 1 5 2 6 3 7 4 31 5 13 6 14 7 15 8 16 9 17 10 19 11 20 12
REMARK SMILES IDX 21 13 23 14 26 15 27 16 28 17 29 18 11 19 10 20 9 21 12 22
REMARK SMILES IDX 30 23 24 24 25 25 18 26 8 27 2 28 3 29 1 30 22 31
REMARK H PARENT 22 32
REMARK Flexibility Score: inf
ROOT
ATOM      1  C   UNL     1      17.753  36.988  68.253  1.00  0.00     0.018 C 
ATOM      2  C   UNL     1      17.261  37.615  69.563  1.00  0.00     0.009 C 
ATOM      3  C   UNL     1      15.863  38.147  69.293  1.00  0.00     0.008 C 
ATOM      4  C   UNL     1      15.264  37.238  68.201  1.00  0.00    -0.029 C 
ATOM      5  C   UNL     1      16.478  36.633  67.429  1.00  0.00     0.006 C 
ATOM      6  C   UNL     1      16.546  36.982  65.894  1.00  0.00    -0.000 C 
ATOM      7  C   UNL     1      15.639  35.996  65.138  1.00  0.00     0.005 C 
ATOM      8  C   UNL     1      15.778  36.127  63.642  1.00  0.00     0.005 C 
ATOM      9  C   UNL     1      15.376  37.528  63.103  1.00  0.00     0.002 C 
ATOM     10  C   UNL     1      15.470  37.584  61.491  1.00  0.00    -0.026 C 
ATOM     11  C   UNL     1      14.829  36.313  60.831  1.00  0.00     0.010 C 
ATOM     12  C   UNL     1      15.019  36.218  59.305  1.00  0.00     0.033 C 
ATOM     13  C   UNL     1      16.499  36.269  58.896  1.00  0.00     0.120 C 
ATOM     14  C   UNL     1      17.281  37.497  59.504  1.00  0.00    -0.006 C 
ATOM     15  C   UNL     1      16.985  37.634  61.061  1.00  0.00     0.003 C 
ATOM     16  C   UNL     1      17.740  38.788  61.762  1.00  0.00     0.005 C 
ATOM     17  C   UNL     1      17.631  38.724  63.301  1.00  0.00     0.008 C 
ATOM     18  C   UNL     1      16.170  38.689  63.877  1.00  0.00    -0.024 C 
ATOM     19  C   UNL     1      16.185  38.463  65.501  1.00  0.00    -0.024 C 
ATOM     20  C   UNL     1      14.792  38.846  66.129  1.00  0.00     0.008 C 
ATOM     21  C   UNL     1      14.249  38.011  67.316  1.00  0.00     0.007 C 
ATOM     22  C   UNL     1      17.257  39.412  66.133  1.00  0.00     0.012 C 
ATOM     23  C   UNL     1      15.502  40.087  63.593  1.00  0.00     0.012 C 
ATOM     24  C   UNL     1      16.921  38.774  58.699  1.00  0.00     0.014 C 
ATOM     25  C   UNL     1      18.797  37.258  59.272  1.00  0.00     0.014 C 
ATOM     26  C   UNL     1      14.639  38.811  60.981  1.00  0.00     0.012 C 
ATOM     27  C   UNL     1      14.487  36.100  68.919  1.00  0.00     0.011 C 
ENDROOT
BRANCH   1  28
ATOM     28  C   UNL     1      18.706  35.823  68.520  1.00  0.00    -0.077 C 
ATOM     29  C   UNL     1      19.118  35.540  69.947  1.00  0.00     0.039 C 
ATOM     30  C   UNL     1      19.118  34.996  67.535  1.00  0.00     0.008 C 
ENDBRANCH   1  28
BRANCH  13  31
ATOM     31  O   UNL     1      17.110  35.029  59.173  1.00  0.00    -0.393 OA
ATOM     32  H   UNL     1      16.474  34.301  58.960  1.00  0.00     0.210 HD
ENDBRANCH  13  31
TORSDOF 2
ENDMDL
