MODEL 1
REMARK VINA RESULT:    -3.848      0.000      0.000
REMARK INTER + INTRA:          -5.869
REMARK INTER:                  -5.648
REMARK INTRA:                  -0.220
REMARK UNBOUND:                -0.220
REMARK SMILES O=C([O-])CCCCCCCC(=O)[O-]
REMARK SMILES IDX 7 1 6 2 5 3 4 4 2 5 1 6 3 7 8 8 9 9 10 10 11 11 12 12 13 13
REMARK H PARENT
REMARK Flexibility Score: inf
ROOT
ATOM      1  C   UNL     1     127.676 120.080 118.000  1.00  0.00     0.000 C 
ENDROOT
BRANCH   1   2
ATOM      2  C   UNL     1     129.083 120.689 118.056  1.00  0.00     0.000 C 
BRANCH   2   3
ATOM      3  C   UNL     1     129.387 121.245 119.456  1.00  0.00     0.006 C 
BRANCH   3   4
ATOM      4  C   UNL     1     130.862 121.635 119.618  1.00  0.00     0.053 C 
BRANCH   4   5
ATOM      5  C   UNL     1     131.026 122.830 120.506  1.00  0.00     0.041 C 
ATOM      6  O   UNL     1     132.141 123.408 120.593  1.00  0.00    -0.550 OA
ATOM      7  O   UNL     1     129.955 123.285 121.264  1.00  0.00    -0.550 OA
ENDBRANCH   4   5
ENDBRANCH   3   4
ENDBRANCH   2   3
ENDBRANCH   1   2
BRANCH   1   8
ATOM      8  C   UNL     1     126.604 121.153 118.223  1.00  0.00     0.000 C 
BRANCH   8   9
ATOM      9  C   UNL     1     125.280 120.753 117.562  1.00  0.00     0.006 C 
BRANCH   9  10
ATOM     10  C   UNL     1     124.591 121.968 116.934  1.00  0.00     0.053 C 
BRANCH  10  11
ATOM     11  C   UNL     1     123.255 122.198 117.567  1.00  0.00     0.041 C 
ATOM     12  O   UNL     1     122.478 121.230 117.777  1.00  0.00    -0.550 OA
ATOM     13  O   UNL     1     122.887 123.475 117.970  1.00  0.00    -0.550 OA
ENDBRANCH  10  11
ENDBRANCH   9  10
ENDBRANCH   8   9
ENDBRANCH   1   8
TORSDOF 8
ENDMDL
MODEL 2
REMARK VINA RESULT:    -3.841      0.847      6.586
REMARK INTER + INTRA:          -5.857
REMARK INTER:                  -5.485
REMARK INTRA:                  -0.372
REMARK UNBOUND:                -0.220
REMARK SMILES O=C([O-])CCCCCCCC(=O)[O-]
REMARK SMILES IDX 7 1 6 2 5 3 4 4 2 5 1 6 3 7 8 8 9 9 10 10 11 11 12 12 13 13
REMARK H PARENT
REMARK Flexibility Score: inf
ROOT
ATOM      1  C   UNL     1     127.373 119.351 118.024  1.00  0.00     0.000 C 
ENDROOT
BRANCH   1   2
ATOM      2  C   UNL     1     126.771 120.741 117.783  1.00  0.00     0.000 C 
BRANCH   2   3
ATOM      3  C   UNL     1     125.235 120.684 117.792  1.00  0.00     0.006 C 
BRANCH   3   4
ATOM      4  C   UNL     1     124.605 121.895 117.091  1.00  0.00     0.053 C 
BRANCH   4   5
ATOM      5  C   UNL     1     123.211 122.153 117.574  1.00  0.00     0.041 C 
ATOM      6  O   UNL     1     122.375 121.213 117.632  1.00  0.00    -0.550 OA
ATOM      7  O   UNL     1     122.825 123.439 117.930  1.00  0.00    -0.550 OA
ENDBRANCH   4   5
ENDBRANCH   3   4
ENDBRANCH   2   3
ENDBRANCH   1   2
BRANCH   1   8
ATOM      8  C   UNL     1     128.905 119.416 118.067  1.00  0.00     0.000 C 
BRANCH   8   9
ATOM      9  C   UNL     1     129.396 120.867 118.024  1.00  0.00     0.006 C 
BRANCH   9  10
ATOM     10  C   UNL     1     130.587 121.071 118.965  1.00  0.00     0.053 C 
BRANCH  10  11
ATOM     11  C   UNL     1     130.217 121.987 120.088  1.00  0.00     0.041 C 
ATOM     12  O   UNL     1     131.026 122.867 120.481  1.00  0.00    -0.550 OA
ATOM     13  O   UNL     1     128.958 121.900 120.670  1.00  0.00    -0.550 OA
ENDBRANCH  10  11
ENDBRANCH   9  10
ENDBRANCH   8   9
ENDBRANCH   1   8
TORSDOF 8
ENDMDL
MODEL 3
REMARK VINA RESULT:    -3.818      0.900      6.832
REMARK INTER + INTRA:          -5.824
REMARK INTER:                  -5.566
REMARK INTRA:                  -0.257
REMARK UNBOUND:                -0.220
REMARK SMILES O=C([O-])CCCCCCCC(=O)[O-]
REMARK SMILES IDX 7 1 6 2 5 3 4 4 2 5 1 6 3 7 8 8 9 9 10 10 11 11 12 12 13 13
REMARK H PARENT
REMARK Flexibility Score: inf
ROOT
ATOM      1  C   UNL     1     127.160 120.693 119.014  1.00  0.00     0.000 C 
ENDROOT
BRANCH   1   2
ATOM      2  C   UNL     1     126.387 120.478 117.706  1.00  0.00     0.000 C 
BRANCH   2   3
ATOM      3  C   UNL     1     124.872 120.581 117.939  1.00  0.00     0.006 C 
BRANCH   3   4
ATOM      4  C   UNL     1     124.278 121.862 117.337  1.00  0.00     0.053 C 
BRANCH   4   5
ATOM      5  C   UNL     1     123.498 122.641 118.351  1.00  0.00     0.041 C 
ATOM      6  O   UNL     1     123.762 122.531 119.577  1.00  0.00    -0.550 OA
ATOM      7  O   UNL     1     122.457 123.466 117.943  1.00  0.00    -0.550 OA
ENDBRANCH   4   5
ENDBRANCH   3   4
ENDBRANCH   2   3
ENDBRANCH   1   2
BRANCH   1   8
ATOM      8  C   UNL     1     128.658 120.880 118.743  1.00  0.00     0.000 C 
BRANCH   8   9
ATOM      9  C   UNL     1     129.409 121.234 120.032  1.00  0.00     0.006 C 
BRANCH   9  10
ATOM     10  C   UNL     1     130.822 121.738 119.722  1.00  0.00     0.053 C 
BRANCH  10  11
ATOM     11  C   UNL     1     131.174 122.888 120.612  1.00  0.00     0.041 C 
ATOM     12  O   UNL     1     130.280 123.470 121.280  1.00  0.00    -0.550 OA
ATOM     13  O   UNL     1     132.498 123.288 120.740  1.00  0.00    -0.550 OA
ENDBRANCH  10  11
ENDBRANCH   9  10
ENDBRANCH   8   9
ENDBRANCH   1   8
TORSDOF 8
ENDMDL
MODEL 4
REMARK VINA RESULT:    -3.778     16.190     17.182
REMARK INTER + INTRA:          -5.766
REMARK INTER:                  -5.286
REMARK INTRA:                  -0.480
REMARK UNBOUND:                -0.220
REMARK SMILES O=C([O-])CCCCCCCC(=O)[O-]
REMARK SMILES IDX 7 1 6 2 5 3 4 4 2 5 1 6 3 7 8 8 9 9 10 10 11 11 12 12 13 13
REMARK H PARENT
REMARK Flexibility Score: inf
ROOT
ATOM      1  C   UNL     1     131.856 122.803 133.789  1.00  0.00     0.000 C 
ENDROOT
BRANCH   1   2
ATOM      2  C   UNL     1     133.269 123.398 133.756  1.00  0.00     0.000 C 
BRANCH   2   3
ATOM      3  C   UNL     1     133.402 124.557 134.756  1.00  0.00     0.006 C 
BRANCH   3   4
ATOM      4  C   UNL     1     132.059 124.921 135.404  1.00  0.00     0.053 C 
BRANCH   4   5
ATOM      5  C   UNL     1     131.538 126.232 134.900  1.00  0.00     0.041 C 
ATOM      6  O   UNL     1     132.138 127.303 135.178  1.00  0.00    -0.550 OA
ATOM      7  O   UNL     1     130.371 126.273 134.148  1.00  0.00    -0.550 OA
ENDBRANCH   4   5
ENDBRANCH   3   4
ENDBRANCH   2   3
ENDBRANCH   1   2
BRANCH   1   8
ATOM      8  C   UNL     1     131.889 121.329 134.213  1.00  0.00     0.000 C 
BRANCH   8   9
ATOM      9  C   UNL     1     131.389 121.160 135.653  1.00  0.00     0.006 C 
BRANCH   9  10
ATOM     10  C   UNL     1     130.095 120.342 135.691  1.00  0.00     0.053 C 
BRANCH  10  11
ATOM     11  C   UNL     1     130.345 118.944 135.219  1.00  0.00     0.041 C 
ATOM     12  O   UNL     1     131.068 118.167 135.897  1.00  0.00    -0.550 OA
ATOM     13  O   UNL     1     129.742 118.484 134.056  1.00  0.00    -0.550 OA
ENDBRANCH  10  11
ENDBRANCH   9  10
ENDBRANCH   8   9
ENDBRANCH   1   8
TORSDOF 8
ENDMDL
MODEL 5
REMARK VINA RESULT:    -3.734      1.544      6.359
REMARK INTER + INTRA:          -5.701
REMARK INTER:                  -5.173
REMARK INTRA:                  -0.528
REMARK UNBOUND:                -0.220
REMARK SMILES O=C([O-])CCCCCCCC(=O)[O-]
REMARK SMILES IDX 7 1 6 2 5 3 4 4 2 5 1 6 3 7 8 8 9 9 10 10 11 11 12 12 13 13
REMARK H PARENT
REMARK Flexibility Score: inf
ROOT
ATOM      1  C   UNL     1     125.210 119.854 117.724  1.00  0.00     0.000 C 
ENDROOT
BRANCH   1   2
ATOM      2  C   UNL     1     123.965 120.585 117.206  1.00  0.00     0.000 C 
BRANCH   2   3
ATOM      3  C   UNL     1     124.232 122.092 117.061  1.00  0.00     0.006 C 
BRANCH   3   4
ATOM      4  C   UNL     1     123.229 122.938 117.856  1.00  0.00     0.053 C 
BRANCH   4   5
ATOM      5  C   UNL     1     123.078 122.444 119.262  1.00  0.00     0.041 C 
ATOM      6  O   UNL     1     121.951 122.079 119.689  1.00  0.00    -0.550 OA
ATOM      7  O   UNL     1     124.176 122.418 120.112  1.00  0.00    -0.550 OA
ENDBRANCH   4   5
ENDBRANCH   3   4
ENDBRANCH   2   3
ENDBRANCH   1   2
BRANCH   1   8
ATOM      8  C   UNL     1     126.432 120.781 117.729  1.00  0.00     0.000 C 
BRANCH   8   9
ATOM      9  C   UNL     1     127.215 120.652 119.040  1.00  0.00     0.006 C 
BRANCH   9  10
ATOM     10  C   UNL     1     128.723 120.723 118.787  1.00  0.00     0.053 C 
BRANCH  10  11
ATOM     11  C   UNL     1     129.403 121.480 119.883  1.00  0.00     0.041 C 
ATOM     12  O   UNL     1     128.778 121.766 120.938  1.00  0.00    -0.550 OA
ATOM     13  O   UNL     1     130.742 121.830 119.761  1.00  0.00    -0.550 OA
ENDBRANCH  10  11
ENDBRANCH   9  10
ENDBRANCH   8   9
ENDBRANCH   1   8
TORSDOF 8
ENDMDL
MODEL 6
REMARK VINA RESULT:    -3.658      1.684      1.916
REMARK INTER + INTRA:          -5.589
REMARK INTER:                  -5.444
REMARK INTRA:                  -0.145
REMARK UNBOUND:                -0.220
REMARK SMILES O=C([O-])CCCCCCCC(=O)[O-]
REMARK SMILES IDX 7 1 6 2 5 3 4 4 2 5 1 6 3 7 8 8 9 9 10 10 11 11 12 12 13 13
REMARK H PARENT
REMARK Flexibility Score: inf
ROOT
ATOM      1  C   UNL     1     127.856 120.727 118.725  1.00  0.00     0.000 C 
ENDROOT
BRANCH   1   2
ATOM      2  C   UNL     1     129.206 120.732 117.997  1.00  0.00     0.000 C 
BRANCH   2   3
ATOM      3  C   UNL     1     130.337 121.178 118.937  1.00  0.00     0.006 C 
BRANCH   3   4
ATOM      4  C   UNL     1     131.453 120.129 119.040  1.00  0.00     0.053 C 
BRANCH   4   5
ATOM      5  C   UNL     1     131.991 120.028 120.435  1.00  0.00     0.041 C 
ATOM      6  O   UNL     1     131.827 118.973 121.103  1.00  0.00    -0.550 OA
ATOM      7  O   UNL     1     132.645 121.110 121.008  1.00  0.00    -0.550 OA
ENDBRANCH   4   5
ENDBRANCH   3   4
ENDBRANCH   2   3
ENDBRANCH   1   2
BRANCH   1   8
ATOM      8  C   UNL     1     126.698 120.544 117.737  1.00  0.00     0.000 C 
BRANCH   8   9
ATOM      9  C   UNL     1     125.393 121.108 118.309  1.00  0.00     0.006 C 
BRANCH   9  10
ATOM     10  C   UNL     1     124.480 121.620 117.190  1.00  0.00     0.053 C 
BRANCH  10  11
ATOM     11  C   UNL     1     123.148 122.018 117.743  1.00  0.00     0.041 C 
ATOM     12  O   UNL     1     122.311 121.138 118.076  1.00  0.00    -0.550 OA
ATOM     13  O   UNL     1     122.848 123.361 117.935  1.00  0.00    -0.550 OA
ENDBRANCH  10  11
ENDBRANCH   9  10
ENDBRANCH   8   9
ENDBRANCH   1   8
TORSDOF 8
ENDMDL
MODEL 7
REMARK VINA RESULT:    -3.575     16.056     17.136
REMARK INTER + INTRA:          -5.467
REMARK INTER:                  -4.987
REMARK INTRA:                  -0.480
REMARK UNBOUND:                -0.220
REMARK SMILES O=C([O-])CCCCCCCC(=O)[O-]
REMARK SMILES IDX 7 1 6 2 5 3 4 4 2 5 1 6 3 7 8 8 9 9 10 10 11 11 12 12 13 13
REMARK H PARENT
REMARK Flexibility Score: inf
ROOT
ATOM      1  C   UNL     1     131.925 122.624 133.658  1.00  0.00     0.000 C 
ENDROOT
BRANCH   1   2
ATOM      2  C   UNL     1     132.175 121.186 134.132  1.00  0.00     0.000 C 
BRANCH   2   3
ATOM      3  C   UNL     1     131.370 120.877 135.404  1.00  0.00     0.006 C 
BRANCH   3   4
ATOM      4  C   UNL     1     130.936 119.407 135.473  1.00  0.00     0.053 C 
BRANCH   4   5
ATOM      5  C   UNL     1     129.753 119.136 134.594  1.00  0.00     0.041 C 
ATOM      6  O   UNL     1     129.618 118.014 134.041  1.00  0.00    -0.550 OA
ATOM      7  O   UNL     1     128.817 120.135 134.361  1.00  0.00    -0.550 OA
ENDBRANCH   4   5
ENDBRANCH   3   4
ENDBRANCH   2   3
ENDBRANCH   1   2
BRANCH   1   8
ATOM      8  C   UNL     1     133.197 123.472 133.779  1.00  0.00     0.000 C 
BRANCH   8   9
ATOM      9  C   UNL     1     133.046 124.538 134.870  1.00  0.00     0.006 C 
BRANCH   9  10
ATOM     10  C   UNL     1     131.570 124.787 135.193  1.00  0.00     0.053 C 
BRANCH  10  11
ATOM     11  C   UNL     1     131.136 126.119 134.667  1.00  0.00     0.041 C 
ATOM     12  O   UNL     1     131.918 127.104 134.715  1.00  0.00    -0.550 OA
ATOM     13  O   UNL     1     129.885 126.261 134.080  1.00  0.00    -0.550 OA
ENDBRANCH  10  11
ENDBRANCH   9  10
ENDBRANCH   8   9
ENDBRANCH   1   8
TORSDOF 8
ENDMDL
MODEL 8
REMARK VINA RESULT:    -3.501      1.921      2.602
REMARK INTER + INTRA:          -5.359
REMARK INTER:                  -5.030
REMARK INTRA:                  -0.330
REMARK UNBOUND:                -0.220
REMARK SMILES O=C([O-])CCCCCCCC(=O)[O-]
REMARK SMILES IDX 7 1 6 2 5 3 4 4 2 5 1 6 3 7 8 8 9 9 10 10 11 11 12 12 13 13
REMARK H PARENT
REMARK Flexibility Score: inf
ROOT
ATOM      1  C   UNL     1     125.407 120.826 117.757  1.00  0.00     0.000 C 
ENDROOT
BRANCH   1   2
ATOM      2  C   UNL     1     126.915 121.101 117.688  1.00  0.00     0.000 C 
BRANCH   2   3
ATOM      3  C   UNL     1     127.675 120.267 118.731  1.00  0.00     0.006 C 
BRANCH   3   4
ATOM      4  C   UNL     1     128.483 121.143 119.697  1.00  0.00     0.053 C 
BRANCH   4   5
ATOM      5  C   UNL     1     129.895 121.325 119.233  1.00  0.00     0.041 C 
ATOM      6  O   UNL     1     130.309 120.721 118.208  1.00  0.00    -0.550 OA
ATOM      7  O   UNL     1     130.765 122.135 119.951  1.00  0.00    -0.550 OA
ENDBRANCH   4   5
ENDBRANCH   3   4
ENDBRANCH   2   3
ENDBRANCH   1   2
BRANCH   1   8
ATOM      8  C   UNL     1     124.619 121.876 116.965  1.00  0.00     0.000 C 
BRANCH   8   9
ATOM      9  C   UNL     1     123.287 122.197 117.652  1.00  0.00     0.006 C 
BRANCH   9  10
ATOM     10  C   UNL     1     123.508 122.622 119.107  1.00  0.00     0.053 C 
BRANCH  10  11
ATOM     11  C   UNL     1     122.537 121.928 120.008  1.00  0.00     0.041 C 
ATOM     12  O   UNL     1     121.787 121.023 119.556  1.00  0.00    -0.550 OA
ATOM     13  O   UNL     1     122.493 122.246 121.360  1.00  0.00    -0.550 OA
ENDBRANCH  10  11
ENDBRANCH   9  10
ENDBRANCH   8   9
ENDBRANCH   1   8
TORSDOF 8
ENDMDL
MODEL 9
REMARK VINA RESULT:    -3.464     15.301     16.494
REMARK INTER + INTRA:          -5.304
REMARK INTER:                  -4.694
REMARK INTRA:                  -0.610
REMARK UNBOUND:                -0.220
REMARK SMILES O=C([O-])CCCCCCCC(=O)[O-]
REMARK SMILES IDX 7 1 6 2 5 3 4 4 2 5 1 6 3 7 8 8 9 9 10 10 11 11 12 12 13 13
REMARK H PARENT
REMARK Flexibility Score: inf
ROOT
ATOM      1  C   UNL     1     131.450 125.788 134.615  1.00  0.00     0.000 C 
ENDROOT
BRANCH   1   2
ATOM      2  C   UNL     1     132.916 125.566 135.012  1.00  0.00     0.000 C 
BRANCH   2   3
ATOM      3  C   UNL     1     133.390 124.163 134.604  1.00  0.00     0.006 C 
BRANCH   3   4
ATOM      4  C   UNL     1     132.344 123.417 133.765  1.00  0.00     0.053 C 
BRANCH   4   5
ATOM      5  C   UNL     1     131.835 122.197 134.469  1.00  0.00     0.041 C 
ATOM      6  O   UNL     1     131.856 122.135 135.727  1.00  0.00    -0.550 OA
ATOM      7  O   UNL     1     131.367 121.115 133.735  1.00  0.00    -0.550 OA
ENDBRANCH   4   5
ENDBRANCH   3   4
ENDBRANCH   2   3
ENDBRANCH   1   2
BRANCH   1   8
ATOM      8  C   UNL     1     130.546 125.830 135.852  1.00  0.00     0.000 C 
BRANCH   8   9
ATOM      9  C   UNL     1     129.070 125.699 135.459  1.00  0.00     0.006 C 
BRANCH   9  10
ATOM     10  C   UNL     1     128.914 124.867 134.183  1.00  0.00     0.053 C 
BRANCH  10  11
ATOM     11  C   UNL     1     127.823 125.425 133.325  1.00  0.00     0.041 C 
ATOM     12  O   UNL     1     128.029 126.450 132.624  1.00  0.00    -0.550 OA
ATOM     13  O   UNL     1     126.592 124.785 133.262  1.00  0.00    -0.550 OA
ENDBRANCH  10  11
ENDBRANCH   9  10
ENDBRANCH   8   9
ENDBRANCH   1   8
TORSDOF 8
ENDMDL
