MODEL 1
REMARK VINA RESULT:    -5.435      0.000      0.000
REMARK INTER + INTRA:          -9.867
REMARK INTER:                  -8.294
REMARK INTRA:                  -1.573
REMARK UNBOUND:                -1.573
REMARK SMILES CCCCCCCCCC=CC(=O)[O-]
REMARK SMILES IDX 7 1 8 2 9 3 10 4 11 5 12 6 13 7 14 8 6 9 5 10 4 11 3 12 2 13
REMARK SMILES IDX 1 14
REMARK H PARENT
REMARK Flexibility Score: inf
ROOT
ATOM      1  C   UNL     1      23.234 -21.362 -10.057  1.00  0.00     0.000 C 
ENDROOT
BRANCH   1   2
ATOM      2  C   UNL     1      24.025 -21.870 -11.279  1.00  0.00     0.004 C 
BRANCH   2   3
ATOM      3  C   UNL     1      24.533 -23.318 -11.154  1.00  0.00     0.027 C 
BRANCH   3   4
ATOM      4  C   UNL     1      24.490 -23.826  -9.740  1.00  0.00    -0.025 C 
ATOM      5  C   UNL     1      24.249 -25.113  -9.467  1.00  0.00     0.020 C 
BRANCH   5   6
ATOM      6  C   UNL     1      24.198 -25.621  -8.088  1.00  0.00     0.064 C 
ATOM      7  O   UNL     1      23.235 -25.302  -7.344  1.00  0.00    -0.545 OA
ATOM      8  O   UNL     1      25.197 -26.451  -7.594  1.00  0.00    -0.545 OA
ENDBRANCH   5   6
ENDBRANCH   3   4
ENDBRANCH   2   3
ENDBRANCH   1   2
BRANCH   1   9
ATOM      9  C   UNL     1      21.703 -21.398 -10.216  1.00  0.00     0.000 C 
BRANCH   9  10
ATOM     10  C   UNL     1      21.017 -22.302  -9.178  1.00  0.00     0.000 C 
BRANCH  10  11
ATOM     11  C   UNL     1      20.738 -23.714  -9.717  1.00  0.00    -0.000 C 
BRANCH  11  12
ATOM     12  C   UNL     1      20.705 -23.764 -11.251  1.00  0.00    -0.000 C 
BRANCH  12  13
ATOM     13  C   UNL     1      21.063 -25.164 -11.762  1.00  0.00    -0.003 C 
ATOM     14  C   UNL     1      20.709 -26.234 -10.734  1.00  0.00     0.004 C 
ENDBRANCH  12  13
ENDBRANCH  11  12
ENDBRANCH  10  11
ENDBRANCH   9  10
ENDBRANCH   1   9
TORSDOF 9
ENDMDL
MODEL 2
REMARK VINA RESULT:    -5.331      2.188      4.848
REMARK INTER + INTRA:          -9.709
REMARK INTER:                  -8.158
REMARK INTRA:                  -1.551
REMARK UNBOUND:                -1.573
REMARK SMILES CCCCCCCCCC=CC(=O)[O-]
REMARK SMILES IDX 7 1 8 2 9 3 10 4 11 5 12 6 13 7 14 8 6 9 5 10 4 11 3 12 2 13
REMARK SMILES IDX 1 14
REMARK H PARENT
REMARK Flexibility Score: inf
ROOT
ATOM      1  C   UNL     1      22.274 -25.329 -10.113  1.00  0.00     0.000 C 
ENDROOT
BRANCH   1   2
ATOM      2  C   UNL     1      21.510 -24.839 -11.360  1.00  0.00     0.004 C 
BRANCH   2   3
ATOM      3  C   UNL     1      20.922 -23.423 -11.232  1.00  0.00     0.027 C 
BRANCH   3   4
ATOM      4  C   UNL     1      20.944 -22.912  -9.819  1.00  0.00    -0.025 C 
ATOM      5  C   UNL     1      21.374 -21.679  -9.528  1.00  0.00     0.020 C 
BRANCH   5   6
ATOM      6  C   UNL     1      21.406 -21.170  -8.149  1.00  0.00     0.064 C 
ATOM      7  O   UNL     1      22.493 -21.163  -7.515  1.00  0.00    -0.545 OA
ATOM      8  O   UNL     1      20.254 -20.694  -7.535  1.00  0.00    -0.545 OA
ENDBRANCH   5   6
ENDBRANCH   3   4
ENDBRANCH   2   3
ENDBRANCH   1   2
BRANCH   1   9
ATOM      9  C   UNL     1      23.806 -25.353 -10.260  1.00  0.00     0.000 C 
BRANCH   9  10
ATOM     10  C   UNL     1      24.520 -24.495  -9.202  1.00  0.00     0.000 C 
BRANCH  10  11
ATOM     11  C   UNL     1      24.721 -23.041  -9.658  1.00  0.00    -0.000 C 
BRANCH  11  12
ATOM     12  C   UNL     1      24.831 -22.911 -11.184  1.00  0.00    -0.000 C 
BRANCH  12  13
ATOM     13  C   UNL     1      24.509 -21.483 -11.637  1.00  0.00    -0.003 C 
ATOM     14  C   UNL     1      24.927 -20.462 -10.584  1.00  0.00     0.004 C 
ENDBRANCH  12  13
ENDBRANCH  11  12
ENDBRANCH  10  11
ENDBRANCH   9  10
ENDBRANCH   1   9
TORSDOF 9
ENDMDL
MODEL 3
REMARK VINA RESULT:    -5.242      2.403      4.640
REMARK INTER + INTRA:          -9.574
REMARK INTER:                  -7.995
REMARK INTRA:                  -1.579
REMARK UNBOUND:                -1.573
REMARK SMILES CCCCCCCCCC=CC(=O)[O-]
REMARK SMILES IDX 7 1 8 2 9 3 10 4 11 5 12 6 13 7 14 8 6 9 5 10 4 11 3 12 2 13
REMARK SMILES IDX 1 14
REMARK H PARENT
REMARK Flexibility Score: inf
ROOT
ATOM      1  C   UNL     1      23.063 -22.071  -7.718  1.00  0.00     0.000 C 
ENDROOT
BRANCH   1   2
ATOM      2  C   UNL     1      21.555 -21.868  -7.972  1.00  0.00     0.004 C 
BRANCH   2   3
ATOM      3  C   UNL     1      21.216 -21.252  -9.340  1.00  0.00     0.027 C 
BRANCH   3   4
ATOM      4  C   UNL     1      21.341 -22.240 -10.466  1.00  0.00    -0.025 C 
ATOM      5  C   UNL     1      20.808 -23.463 -10.386  1.00  0.00     0.020 C 
BRANCH   5   6
ATOM      6  C   UNL     1      20.929 -24.440 -11.478  1.00  0.00     0.064 C 
ATOM      7  O   UNL     1      20.464 -25.600 -11.328  1.00  0.00    -0.545 OA
ATOM      8  O   UNL     1      21.547 -24.102 -12.676  1.00  0.00    -0.545 OA
ENDBRANCH   5   6
ENDBRANCH   3   4
ENDBRANCH   2   3
ENDBRANCH   1   2
BRANCH   1   9
ATOM      9  C   UNL     1      23.556 -23.521  -7.874  1.00  0.00     0.000 C 
BRANCH   9  10
ATOM     10  C   UNL     1      24.799 -23.633  -8.774  1.00  0.00     0.000 C 
BRANCH  10  11
ATOM     11  C   UNL     1      24.456 -24.097 -10.198  1.00  0.00    -0.000 C 
BRANCH  11  12
ATOM     12  C   UNL     1      24.756 -23.025 -11.256  1.00  0.00    -0.000 C 
BRANCH  12  13
ATOM     13  C   UNL     1      25.265 -21.736 -10.602  1.00  0.00    -0.003 C 
ATOM     14  C   UNL     1      24.581 -20.508 -11.197  1.00  0.00     0.004 C 
ENDBRANCH  12  13
ENDBRANCH  11  12
ENDBRANCH  10  11
ENDBRANCH   9  10
ENDBRANCH   1   9
TORSDOF 9
ENDMDL
MODEL 4
REMARK VINA RESULT:    -5.224      2.648      4.259
REMARK INTER + INTRA:          -9.546
REMARK INTER:                  -8.123
REMARK INTRA:                  -1.423
REMARK UNBOUND:                -1.573
REMARK SMILES CCCCCCCCCC=CC(=O)[O-]
REMARK SMILES IDX 7 1 8 2 9 3 10 4 11 5 12 6 13 7 14 8 6 9 5 10 4 11 3 12 2 13
REMARK SMILES IDX 1 14
REMARK H PARENT
REMARK Flexibility Score: inf
ROOT
ATOM      1  C   UNL     1      22.663 -25.252  -9.928  1.00  0.00     0.000 C 
ENDROOT
BRANCH   1   2
ATOM      2  C   UNL     1      23.378 -25.262  -8.561  1.00  0.00     0.004 C 
BRANCH   2   3
ATOM      3  C   UNL     1      24.599 -24.330  -8.473  1.00  0.00     0.027 C 
BRANCH   3   4
ATOM      4  C   UNL     1      24.722 -23.423  -9.666  1.00  0.00    -0.025 C 
ATOM      5  C   UNL     1      24.766 -22.093  -9.531  1.00  0.00     0.020 C 
BRANCH   5   6
ATOM      6  C   UNL     1      24.880 -21.196 -10.690  1.00  0.00     0.064 C 
ATOM      7  O   UNL     1      24.539 -21.606 -11.829  1.00  0.00    -0.545 OA
ATOM      8  O   UNL     1      25.358 -19.898 -10.546  1.00  0.00    -0.545 OA
ENDBRANCH   5   6
ENDBRANCH   3   4
ENDBRANCH   2   3
ENDBRANCH   1   2
BRANCH   1   9
ATOM      9  C   UNL     1      21.133 -25.411  -9.859  1.00  0.00     0.000 C 
BRANCH   9  10
ATOM     10  C   UNL     1      20.386 -24.086 -10.086  1.00  0.00     0.000 C 
BRANCH  10  11
ATOM     11  C   UNL     1      21.253 -23.033 -10.793  1.00  0.00    -0.000 C 
BRANCH  11  12
ATOM     12  C   UNL     1      21.243 -21.678 -10.071  1.00  0.00    -0.000 C 
BRANCH  12  13
ATOM     13  C   UNL     1      21.095 -21.864  -8.557  1.00  0.00    -0.003 C 
ATOM     14  C   UNL     1      20.161 -20.816  -7.960  1.00  0.00     0.004 C 
ENDBRANCH  12  13
ENDBRANCH  11  12
ENDBRANCH  10  11
ENDBRANCH   9  10
ENDBRANCH   1   9
TORSDOF 9
ENDMDL
MODEL 5
REMARK VINA RESULT:    -5.193      2.564      3.408
REMARK INTER + INTRA:          -9.499
REMARK INTER:                  -8.001
REMARK INTRA:                  -1.499
REMARK UNBOUND:                -1.573
REMARK SMILES CCCCCCCCCC=CC(=O)[O-]
REMARK SMILES IDX 7 1 8 2 9 3 10 4 11 5 12 6 13 7 14 8 6 9 5 10 4 11 3 12 2 13
REMARK SMILES IDX 1 14
REMARK H PARENT
REMARK Flexibility Score: inf
ROOT
ATOM      1  C   UNL     1      22.714 -24.586  -7.997  1.00  0.00     0.000 C 
ENDROOT
BRANCH   1   2
ATOM      2  C   UNL     1      24.217 -24.931  -8.006  1.00  0.00     0.004 C 
BRANCH   2   3
ATOM      3  C   UNL     1      24.760 -25.383  -9.373  1.00  0.00     0.027 C 
BRANCH   3   4
ATOM      4  C   UNL     1      24.303 -24.498 -10.498  1.00  0.00    -0.025 C 
ATOM      5  C   UNL     1      24.833 -23.287 -10.696  1.00  0.00     0.020 C 
BRANCH   5   6
ATOM      6  C   UNL     1      24.390 -22.410 -11.790  1.00  0.00     0.064 C 
ATOM      7  O   UNL     1      24.519 -21.163 -11.677  1.00  0.00    -0.545 OA
ATOM      8  O   UNL     1      23.832 -22.937 -12.948  1.00  0.00    -0.545 OA
ENDBRANCH   5   6
ENDBRANCH   3   4
ENDBRANCH   2   3
ENDBRANCH   1   2
BRANCH   1   9
ATOM      9  C   UNL     1      22.394 -23.088  -7.841  1.00  0.00     0.000 C 
BRANCH   9  10
ATOM     10  C   UNL     1      21.448 -22.563  -8.934  1.00  0.00     0.000 C 
BRANCH  10  11
ATOM     11  C   UNL     1      20.635 -23.685  -9.599  1.00  0.00    -0.000 C 
BRANCH  11  12
ATOM     12  C   UNL     1      20.760 -23.677 -11.130  1.00  0.00    -0.000 C 
BRANCH  12  13
ATOM     13  C   UNL     1      21.000 -25.092 -11.668  1.00  0.00    -0.003 C 
ATOM     14  C   UNL     1      20.595 -26.148 -10.644  1.00  0.00     0.004 C 
ENDBRANCH  12  13
ENDBRANCH  11  12
ENDBRANCH  10  11
ENDBRANCH   9  10
ENDBRANCH   1   9
TORSDOF 9
ENDMDL
MODEL 6
REMARK VINA RESULT:    -5.176      1.186      3.218
REMARK INTER + INTRA:          -9.472
REMARK INTER:                  -7.787
REMARK INTRA:                  -1.685
REMARK UNBOUND:                -1.573
REMARK SMILES CCCCCCCCCC=CC(=O)[O-]
REMARK SMILES IDX 7 1 8 2 9 3 10 4 11 5 12 6 13 7 14 8 6 9 5 10 4 11 3 12 2 13
REMARK SMILES IDX 1 14
REMARK H PARENT
REMARK Flexibility Score: inf
ROOT
ATOM      1  C   UNL     1      20.792 -22.795  -9.441  1.00  0.00     0.000 C 
ENDROOT
BRANCH   1   2
ATOM      2  C   UNL     1      21.081 -23.520 -10.771  1.00  0.00     0.004 C 
BRANCH   2   3
ATOM      3  C   UNL     1      21.578 -24.968 -10.614  1.00  0.00     0.027 C 
BRANCH   3   4
ATOM      4  C   UNL     1      22.378 -25.172  -9.358  1.00  0.00    -0.025 C 
ATOM      5  C   UNL     1      23.714 -25.240  -9.383  1.00  0.00     0.020 C 
BRANCH   5   6
ATOM      6  C   UNL     1      24.507 -25.445  -8.162  1.00  0.00     0.064 C 
ATOM      7  O   UNL     1      25.665 -25.931  -8.249  1.00  0.00    -0.545 OA
ATOM      8  O   UNL     1      24.000 -25.108  -6.914  1.00  0.00    -0.545 OA
ENDBRANCH   5   6
ENDBRANCH   3   4
ENDBRANCH   2   3
ENDBRANCH   1   2
BRANCH   1   9
ATOM      9  C   UNL     1      21.629 -21.526  -9.200  1.00  0.00     0.000 C 
BRANCH   9  10
ATOM     10  C   UNL     1      22.680 -21.707  -8.091  1.00  0.00     0.000 C 
BRANCH  10  11
ATOM     11  C   UNL     1      24.118 -21.552  -8.608  1.00  0.00    -0.000 C 
BRANCH  11  12
ATOM     12  C   UNL     1      24.173 -21.217 -10.106  1.00  0.00    -0.000 C 
BRANCH  12  13
ATOM     13  C   UNL     1      25.105 -22.180 -10.849  1.00  0.00    -0.003 C 
ATOM     14  C   UNL     1      24.400 -22.824 -12.039  1.00  0.00     0.004 C 
ENDBRANCH  12  13
ENDBRANCH  11  12
ENDBRANCH  10  11
ENDBRANCH   9  10
ENDBRANCH   1   9
TORSDOF 9
ENDMDL
MODEL 7
REMARK VINA RESULT:    -5.126      2.036      3.629
REMARK INTER + INTRA:          -9.396
REMARK INTER:                  -8.063
REMARK INTRA:                  -1.333
REMARK UNBOUND:                -1.573
REMARK SMILES CCCCCCCCCC=CC(=O)[O-]
REMARK SMILES IDX 7 1 8 2 9 3 10 4 11 5 12 6 13 7 14 8 6 9 5 10 4 11 3 12 2 13
REMARK SMILES IDX 1 14
REMARK H PARENT
REMARK Flexibility Score: inf
ROOT
ATOM      1  C   UNL     1      25.223 -22.347 -10.493  1.00  0.00     0.000 C 
ENDROOT
BRANCH   1   2
ATOM      2  C   UNL     1      24.909 -22.881  -9.080  1.00  0.00     0.004 C 
BRANCH   2   3
ATOM      3  C   UNL     1      24.711 -24.405  -9.003  1.00  0.00     0.027 C 
BRANCH   3   4
ATOM      4  C   UNL     1      23.281 -24.814  -9.216  1.00  0.00    -0.025 C 
ATOM      5  C   UNL     1      22.844 -25.235 -10.408  1.00  0.00     0.020 C 
BRANCH   5   6
ATOM      6  C   UNL     1      21.446 -25.633 -10.630  1.00  0.00     0.064 C 
ATOM      7  O   UNL     1      20.682 -25.794  -9.644  1.00  0.00    -0.545 OA
ATOM      8  O   UNL     1      20.955 -25.832 -11.915  1.00  0.00    -0.545 OA
ENDBRANCH   5   6
ENDBRANCH   3   4
ENDBRANCH   2   3
ENDBRANCH   1   2
BRANCH   1   9
ATOM      9  C   UNL     1      24.138 -21.438 -11.098  1.00  0.00     0.000 C 
BRANCH   9  10
ATOM     10  C   UNL     1      23.009 -21.117 -10.104  1.00  0.00     0.000 C 
BRANCH  10  11
ATOM     11  C   UNL     1      21.687 -21.811 -10.468  1.00  0.00    -0.000 C 
BRANCH  11  12
ATOM     12  C   UNL     1      20.791 -22.053  -9.245  1.00  0.00    -0.000 C 
BRANCH  12  13
ATOM     13  C   UNL     1      21.264 -21.225  -8.046  1.00  0.00    -0.003 C 
ATOM     14  C   UNL     1      20.083 -20.626  -7.287  1.00  0.00     0.004 C 
ENDBRANCH  12  13
ENDBRANCH  11  12
ENDBRANCH  10  11
ENDBRANCH   9  10
ENDBRANCH   1   9
TORSDOF 9
ENDMDL
MODEL 8
REMARK VINA RESULT:    -5.010      2.261      4.383
REMARK INTER + INTRA:          -9.219
REMARK INTER:                  -8.182
REMARK INTRA:                  -1.036
REMARK UNBOUND:                -1.573
REMARK SMILES CCCCCCCCCC=CC(=O)[O-]
REMARK SMILES IDX 7 1 8 2 9 3 10 4 11 5 12 6 13 7 14 8 6 9 5 10 4 11 3 12 2 13
REMARK SMILES IDX 1 14
REMARK H PARENT
REMARK Flexibility Score: inf
ROOT
ATOM      1  C   UNL     1      23.220 -21.963  -8.080  1.00  0.00     0.000 C 
ENDROOT
BRANCH   1   2
ATOM      2  C   UNL     1      21.936 -21.130  -8.273  1.00  0.00     0.004 C 
BRANCH   2   3
ATOM      3  C   UNL     1      20.696 -21.952  -8.667  1.00  0.00     0.027 C 
BRANCH   3   4
ATOM      4  C   UNL     1      20.962 -22.888  -9.812  1.00  0.00    -0.025 C 
ATOM      5  C   UNL     1      20.440 -24.119  -9.845  1.00  0.00     0.020 C 
BRANCH   5   6
ATOM      6  C   UNL     1      20.698 -25.046 -10.957  1.00  0.00     0.064 C 
ATOM      7  O   UNL     1      21.157 -24.603 -12.041  1.00  0.00    -0.545 OA
ATOM      8  O   UNL     1      20.445 -26.406 -10.827  1.00  0.00    -0.545 OA
ENDBRANCH   5   6
ENDBRANCH   3   4
ENDBRANCH   2   3
ENDBRANCH   1   2
BRANCH   1   9
ATOM      9  C   UNL     1      24.395 -21.560  -8.989  1.00  0.00     0.000 C 
BRANCH   9  10
ATOM     10  C   UNL     1      25.138 -22.773  -9.574  1.00  0.00     0.000 C 
BRANCH  10  11
ATOM     11  C   UNL     1      24.185 -23.803 -10.200  1.00  0.00    -0.000 C 
BRANCH  11  12
ATOM     12  C   UNL     1      24.508 -25.242  -9.774  1.00  0.00    -0.000 C 
BRANCH  12  13
ATOM     13  C   UNL     1      24.805 -25.316  -8.272  1.00  0.00    -0.003 C 
ATOM     14  C   UNL     1      25.949 -26.284  -7.982  1.00  0.00     0.004 C 
ENDBRANCH  12  13
ENDBRANCH  11  12
ENDBRANCH  10  11
ENDBRANCH   9  10
ENDBRANCH   1   9
TORSDOF 9
ENDMDL
MODEL 9
REMARK VINA RESULT:    -4.985      2.312      3.715
REMARK INTER + INTRA:          -9.181
REMARK INTER:                  -7.558
REMARK INTRA:                  -1.623
REMARK UNBOUND:                -1.573
REMARK SMILES CCCCCCCCCC=CC(=O)[O-]
REMARK SMILES IDX 7 1 8 2 9 3 10 4 11 5 12 6 13 7 14 8 6 9 5 10 4 11 3 12 2 13
REMARK SMILES IDX 1 14
REMARK H PARENT
REMARK Flexibility Score: inf
ROOT
ATOM      1  C   UNL     1      24.453 -23.923 -11.069  1.00  0.00     0.000 C 
ENDROOT
BRANCH   1   2
ATOM      2  C   UNL     1      24.885 -22.702 -10.232  1.00  0.00     0.004 C 
BRANCH   2   3
ATOM      3  C   UNL     1      24.212 -21.379 -10.639  1.00  0.00     0.027 C 
BRANCH   3   4
ATOM      4  C   UNL     1      22.892 -21.166  -9.951  1.00  0.00    -0.025 C 
ATOM      5  C   UNL     1      22.723 -21.457  -8.657  1.00  0.00     0.020 C 
BRANCH   5   6
ATOM      6  C   UNL     1      21.436 -21.259  -7.975  1.00  0.00     0.064 C 
ATOM      7  O   UNL     1      20.419 -20.944  -8.646  1.00  0.00    -0.545 OA
ATOM      8  O   UNL     1      21.324 -21.416  -6.598  1.00  0.00    -0.545 OA
ENDBRANCH   5   6
ENDBRANCH   3   4
ENDBRANCH   2   3
ENDBRANCH   1   2
BRANCH   1   9
ATOM      9  C   UNL     1      24.070 -25.168 -10.249  1.00  0.00     0.000 C 
BRANCH   9  10
ATOM     10  C   UNL     1      23.645 -24.825  -8.811  1.00  0.00     0.000 C 
BRANCH  10  11
ATOM     11  C   UNL     1      22.164 -25.137  -8.543  1.00  0.00    -0.000 C 
BRANCH  11  12
ATOM     12  C   UNL     1      21.367 -25.370  -9.834  1.00  0.00    -0.000 C 
BRANCH  12  13
ATOM     13  C   UNL     1      20.495 -24.155 -10.167  1.00  0.00    -0.003 C 
ATOM     14  C   UNL     1      20.734 -23.677 -11.596  1.00  0.00     0.004 C 
ENDBRANCH  12  13
ENDBRANCH  11  12
ENDBRANCH  10  11
ENDBRANCH   9  10
ENDBRANCH   1   9
TORSDOF 9
ENDMDL
