MODEL 1
REMARK VINA RESULT:    -3.463      0.000      0.000
REMARK INTER + INTRA:          -5.074
REMARK INTER:                  -5.285
REMARK INTRA:                   0.210
REMARK UNBOUND:                 0.210
REMARK SMILES CC1=CCC[C@H](C)C(=O)C[C@@H](C(C)C)C(=O)C1
REMARK SMILES IDX 8 1 9 2 6 3 7 4 5 5 4 6 3 7 2 8 1 9 10 11 11 12 15 13 16 14
REMARK SMILES IDX 17 15 12 17 13 18 14 19
REMARK H PARENT
REMARK Flexibility Score: 70.00
ROOT
ATOM      1  C   UNL     1       4.154  21.252   4.938  1.00  0.00     0.136 C 
ATOM      2  O   UNL     1       5.370  21.136   5.001  1.00  0.00    -0.299 OA
ENDROOT
BRANCH   1   3
ATOM      3  C   UNL     1       3.369  21.743   6.143  1.00  0.00     0.053 C 
ATOM      4  C   UNL     1       3.248  20.672   7.240  1.00  0.00     0.016 C 
BRANCH   3   5
ATOM      5  C   UNL     1       3.952  23.059   6.699  1.00  0.00     0.015 C 
BRANCH   5   6
ATOM      6  C   UNL     1       3.049  24.286   6.465  1.00  0.00     0.028 C 
BRANCH   6   7
ATOM      7  C   UNL     1       3.483  25.039   5.233  1.00  0.00    -0.028 C 
ATOM      8  C   UNL     1       2.991  24.828   3.990  1.00  0.00    -0.070 CG0
ATOM      9  C   UNL     1       3.483  25.715   2.874  1.00  0.00     0.039 C 
ATOM     10  G   UNL     1       1.986  23.730   3.670  1.00  0.00     0.000 G0
ENDBRANCH   6   7
ENDBRANCH   5   6
ENDBRANCH   3   5
ENDBRANCH   1   3
BRANCH   1  11
ATOM     11  C   UNL     1       3.453  20.905   3.646  1.00  0.00     0.087 C 
BRANCH  11  12
ATOM     12  C   UNL     1       3.628  22.010   2.571  1.00  0.00     0.066 C 
BRANCH  12  13
ATOM     13  C   UNL     1       2.399  22.904   2.487  1.00  0.00     0.140 C 
ATOM     14  O   UNL     1       1.780  22.992   1.436  1.00  0.00    -0.299 OA
BRANCH  13  15
ATOM     15  C   UNL     1       1.971  23.742   3.668  1.00  0.00     0.106 CG0
ATOM     16  G   UNL     1       2.984  24.826   4.009  1.00  0.00     0.000 G0
ENDBRANCH  13  15
ENDBRANCH  12  13
BRANCH  12  17
ATOM     17  C   UNL     1       4.033  21.417   1.186  1.00  0.00    -0.006 C 
ATOM     18  C   UNL     1       4.920  20.172   1.343  1.00  0.00     0.008 C 
ATOM     19  C   UNL     1       4.703  22.427   0.237  1.00  0.00     0.008 C 
ENDBRANCH  12  17
ENDBRANCH  11  12
ENDBRANCH   1  11
TORSDOF 1
ENDMDL
MODEL 2
REMARK VINA RESULT:    -3.444      1.685      2.156
REMARK INTER + INTRA:          -5.046
REMARK INTER:                  -5.334
REMARK INTRA:                   0.288
REMARK UNBOUND:                 0.210
REMARK SMILES CC1=CCC[C@H](C)C(=O)C[C@@H](C(C)C)C(=O)C1
REMARK SMILES IDX 8 1 9 2 6 3 7 4 5 5 4 6 3 7 2 8 1 9 10 11 11 12 15 13 16 14
REMARK SMILES IDX 17 15 12 17 13 18 14 19
REMARK H PARENT
REMARK Flexibility Score: 70.00
ROOT
ATOM      1  C   UNL     1       2.157  20.110   5.248  1.00  0.00     0.136 C 
ATOM      2  O   UNL     1       0.936  20.181   5.208  1.00  0.00    -0.299 OA
ENDROOT
BRANCH   1   3
ATOM      3  C   UNL     1       2.873  19.988   6.583  1.00  0.00     0.053 C 
ATOM      4  C   UNL     1       3.851  18.802   6.618  1.00  0.00     0.016 C 
BRANCH   3   5
ATOM      5  C   UNL     1       3.571  21.308   6.972  1.00  0.00     0.015 C 
BRANCH   5   6
ATOM      6  C   UNL     1       2.609  22.507   7.092  1.00  0.00     0.028 C 
BRANCH   6   7
ATOM      7  C   UNL     1       3.245  23.757   6.541  1.00  0.00    -0.028 C 
ATOM      8  C   UNL     1       3.101  24.197   5.269  1.00  0.00    -0.070 CG0
ATOM      9  C   UNL     1       3.751  25.506   4.895  1.00  0.00     0.039 C 
ATOM     10  G   UNL     1       2.335  23.424   4.205  1.00  0.00     0.000 G0
ENDBRANCH   6   7
ENDBRANCH   5   6
ENDBRANCH   3   5
ENDBRANCH   1   3
BRANCH   1  11
ATOM     11  C   UNL     1       2.933  20.141   3.953  1.00  0.00     0.087 C 
BRANCH  11  12
ATOM     12  C   UNL     1       3.912  21.342   3.886  1.00  0.00     0.066 C 
BRANCH  12  13
ATOM     13  C   UNL     1       3.232  22.583   3.326  1.00  0.00     0.140 C 
ATOM     14  O   UNL     1       3.449  22.930   2.174  1.00  0.00    -0.299 OA
BRANCH  13  15
ATOM     15  C   UNL     1       2.342  23.437   4.198  1.00  0.00     0.106 CG0
ATOM     16  G   UNL     1       3.125  24.191   5.264  1.00  0.00     0.000 G0
ENDBRANCH  13  15
ENDBRANCH  12  13
BRANCH  12  17
ATOM     17  C   UNL     1       5.224  20.982   3.123  1.00  0.00    -0.006 C 
ATOM     18  C   UNL     1       4.927  20.255   1.802  1.00  0.00     0.008 C 
ATOM     19  C   UNL     1       6.239  20.177   3.954  1.00  0.00     0.008 C 
ENDBRANCH  12  17
ENDBRANCH  11  12
ENDBRANCH   1  11
TORSDOF 1
ENDMDL
MODEL 3
REMARK VINA RESULT:    -3.362      1.653      4.102
REMARK INTER + INTRA:          -4.921
REMARK INTER:                  -4.932
REMARK INTRA:                   0.011
REMARK UNBOUND:                 0.210
REMARK SMILES CC1=CCC[C@H](C)C(=O)C[C@@H](C(C)C)C(=O)C1
REMARK SMILES IDX 8 1 9 2 6 3 7 4 5 5 4 6 3 7 2 8 1 9 10 11 11 12 15 13 16 14
REMARK SMILES IDX 17 15 12 17 13 18 14 19
REMARK H PARENT
REMARK Flexibility Score: 70.00
ROOT
ATOM      1  C   UNL     1       5.089  20.772   3.518  1.00  0.00     0.136 C 
ATOM      2  O   UNL     1       5.700  19.796   3.103  1.00  0.00    -0.299 OA
ENDROOT
BRANCH   1   3
ATOM      3  C   UNL     1       4.201  21.573   2.581  1.00  0.00     0.053 C 
ATOM      4  C   UNL     1       4.834  21.764   1.193  1.00  0.00     0.016 C 
BRANCH   3   5
ATOM      5  C   UNL     1       2.789  20.959   2.478  1.00  0.00     0.015 C 
BRANCH   5   6
ATOM      6  C   UNL     1       1.661  21.924   2.896  1.00  0.00     0.028 C 
BRANCH   6   7
ATOM      7  C   UNL     1       2.171  23.339   2.971  1.00  0.00    -0.028 C 
ATOM      8  C   UNL     1       2.490  23.983   4.119  1.00  0.00    -0.070 CG0
ATOM      9  C   UNL     1       3.053  25.378   4.015  1.00  0.00     0.039 C 
ATOM     10  G   UNL     1       2.287  23.370   5.498  1.00  0.00     0.000 G0
ENDBRANCH   6   7
ENDBRANCH   5   6
ENDBRANCH   3   5
ENDBRANCH   1   3
BRANCH   1  11
ATOM     11  C   UNL     1       5.231  21.159   4.971  1.00  0.00     0.087 C 
BRANCH  11  12
ATOM     12  C   UNL     1       3.857  21.272   5.683  1.00  0.00     0.066 C 
BRANCH  12  13
ATOM     13  C   UNL     1       3.537  22.715   6.047  1.00  0.00     0.140 C 
ATOM     14  O   UNL     1       4.262  23.324   6.820  1.00  0.00    -0.299 OA
BRANCH  13  15
ATOM     15  C   UNL     1       2.292  23.387   5.519  1.00  0.00     0.106 CG0
ATOM     16  G   UNL     1       2.494  23.976   4.130  1.00  0.00     0.000 G0
ENDBRANCH  13  15
ENDBRANCH  12  13
BRANCH  12  17
ATOM     17  C   UNL     1       3.753  20.309   6.906  1.00  0.00    -0.006 C 
ATOM     18  C   UNL     1       3.837  18.837   6.472  1.00  0.00     0.008 C 
ATOM     19  C   UNL     1       2.509  20.533   7.782  1.00  0.00     0.008 C 
ENDBRANCH  12  17
ENDBRANCH  11  12
ENDBRANCH   1  11
TORSDOF 1
ENDMDL
MODEL 4
REMARK VINA RESULT:    -3.278      1.932      4.310
REMARK INTER + INTRA:          -4.792
REMARK INTER:                  -4.827
REMARK INTRA:                   0.034
REMARK UNBOUND:                 0.210
REMARK SMILES CC1=CCC[C@H](C)C(=O)C[C@@H](C(C)C)C(=O)C1
REMARK SMILES IDX 8 1 9 2 6 3 7 4 5 5 4 6 3 7 2 8 1 9 10 11 11 12 15 13 16 14
REMARK SMILES IDX 17 15 12 17 13 18 14 19
REMARK H PARENT
REMARK Flexibility Score: 70.00
ROOT
ATOM      1  C   UNL     1       5.021  20.351   5.019  1.00  0.00     0.136 C 
ATOM      2  O   UNL     1       4.283  19.492   5.482  1.00  0.00    -0.299 OA
ENDROOT
BRANCH   1   3
ATOM      3  C   UNL     1       6.300  19.954   4.301  1.00  0.00     0.053 C 
ATOM      4  C   UNL     1       6.497  18.429   4.252  1.00  0.00     0.016 C 
BRANCH   3   5
ATOM      5  C   UNL     1       6.375  20.579   2.893  1.00  0.00     0.015 C 
BRANCH   5   6
ATOM      6  C   UNL     1       5.260  20.101   1.941  1.00  0.00     0.028 C 
BRANCH   6   7
ATOM      7  C   UNL     1       4.897  21.186   0.960  1.00  0.00    -0.028 C 
ATOM      8  C   UNL     1       3.812  21.988   1.066  1.00  0.00    -0.070 CG0
ATOM      9  C   UNL     1       3.629  23.071   0.033  1.00  0.00     0.039 C 
ATOM     10  G   UNL     1       2.768  21.832   2.163  1.00  0.00     0.000 G0
ENDBRANCH   6   7
ENDBRANCH   5   6
ENDBRANCH   3   5
ENDBRANCH   1   3
BRANCH   1  11
ATOM     11  C   UNL     1       4.636  21.803   5.170  1.00  0.00     0.087 C 
BRANCH  11  12
ATOM     12  C   UNL     1       3.163  22.063   4.759  1.00  0.00     0.066 C 
BRANCH  12  13
ATOM     13  C   UNL     1       3.073  22.685   3.373  1.00  0.00     0.140 C 
ATOM     14  O   UNL     1       3.199  23.894   3.239  1.00  0.00    -0.299 OA
BRANCH  13  15
ATOM     15  C   UNL     1       2.760  21.838   2.163  1.00  0.00     0.106 CG0
ATOM     16  G   UNL     1       3.802  21.987   1.064  1.00  0.00     0.000 G0
ENDBRANCH  13  15
ENDBRANCH  12  13
BRANCH  12  17
ATOM     17  C   UNL     1       2.394  22.888   5.837  1.00  0.00    -0.006 C 
ATOM     18  C   UNL     1       3.334  23.834   6.599  1.00  0.00     0.008 C 
ATOM     19  C   UNL     1       1.585  22.033   6.829  1.00  0.00     0.008 C 
ENDBRANCH  12  17
ENDBRANCH  11  12
ENDBRANCH   1  11
TORSDOF 1
ENDMDL
MODEL 5
REMARK VINA RESULT:    -3.262      1.639      2.783
REMARK INTER + INTRA:          -4.768
REMARK INTER:                  -4.668
REMARK INTRA:                  -0.100
REMARK UNBOUND:                 0.210
REMARK SMILES CC1=CCC[C@H](C)C(=O)C[C@@H](C(C)C)C(=O)C1
REMARK SMILES IDX 8 1 9 2 6 3 7 4 5 5 4 6 3 7 2 8 1 9 10 11 11 12 15 13 16 14
REMARK SMILES IDX 17 15 12 17 13 18 14 19
REMARK H PARENT
REMARK Flexibility Score: 70.00
ROOT
ATOM      1  C   UNL     1       4.568  20.893   2.902  1.00  0.00     0.136 C 
ATOM      2  O   UNL     1       5.207  20.691   1.879  1.00  0.00    -0.299 OA
ENDROOT
BRANCH   1   3
ATOM      3  C   UNL     1       5.072  20.369   4.236  1.00  0.00     0.053 C 
ATOM      4  C   UNL     1       6.501  20.843   4.550  1.00  0.00     0.016 C 
BRANCH   3   5
ATOM      5  C   UNL     1       4.098  20.710   5.382  1.00  0.00     0.015 C 
BRANCH   5   6
ATOM      6  C   UNL     1       4.618  21.805   6.334  1.00  0.00     0.028 C 
BRANCH   6   7
ATOM      7  C   UNL     1       3.474  22.605   6.901  1.00  0.00    -0.028 C 
ATOM      8  C   UNL     1       2.962  23.724   6.336  1.00  0.00    -0.070 CG0
ATOM      9  C   UNL     1       1.770  24.369   6.996  1.00  0.00     0.039 C 
ATOM     10  G   UNL     1       3.548  24.363   5.084  1.00  0.00     0.000 G0
ENDBRANCH   6   7
ENDBRANCH   5   6
ENDBRANCH   3   5
ENDBRANCH   1   3
BRANCH   1  11
ATOM     11  C   UNL     1       3.277  21.674   2.814  1.00  0.00     0.087 C 
BRANCH  11  12
ATOM     12  C   UNL     1       3.524  23.201   2.710  1.00  0.00     0.066 C 
BRANCH  12  13
ATOM     13  C   UNL     1       2.806  23.957   3.818  1.00  0.00     0.140 C 
ATOM     14  O   UNL     1       1.638  24.291   3.671  1.00  0.00    -0.299 OA
BRANCH  13  15
ATOM     15  C   UNL     1       3.536  24.367   5.075  1.00  0.00     0.106 CG0
ATOM     16  G   UNL     1       2.955  23.716   6.323  1.00  0.00     0.000 G0
ENDBRANCH  13  15
ENDBRANCH  12  13
BRANCH  12  17
ATOM     17  C   UNL     1       3.183  23.752   1.291  1.00  0.00    -0.006 C 
ATOM     18  C   UNL     1       2.072  22.930   0.620  1.00  0.00     0.008 C 
ATOM     19  C   UNL     1       4.395  23.870   0.350  1.00  0.00     0.008 C 
ENDBRANCH  12  17
ENDBRANCH  11  12
ENDBRANCH   1  11
TORSDOF 1
ENDMDL
MODEL 6
REMARK VINA RESULT:    -3.254      1.520      2.354
REMARK INTER + INTRA:          -4.756
REMARK INTER:                  -4.836
REMARK INTRA:                   0.080
REMARK UNBOUND:                 0.210
REMARK SMILES CC1=CCC[C@H](C)C(=O)C[C@@H](C(C)C)C(=O)C1
REMARK SMILES IDX 8 1 9 2 6 3 7 4 5 5 4 6 3 7 2 8 1 9 10 11 11 12 15 13 16 14
REMARK SMILES IDX 17 15 12 17 13 18 14 19
REMARK H PARENT
REMARK Flexibility Score: 70.00
ROOT
ATOM      1  C   UNL     1       3.945  20.484   5.160  1.00  0.00     0.136 C 
ATOM      2  O   UNL     1       5.142  20.735   5.192  1.00  0.00    -0.299 OA
ENDROOT
BRANCH   1   3
ATOM      3  C   UNL     1       3.312  19.634   6.249  1.00  0.00     0.053 C 
ATOM      4  C   UNL     1       4.166  18.405   6.604  1.00  0.00     0.016 C 
BRANCH   3   5
ATOM      5  C   UNL     1       2.983  20.474   7.501  1.00  0.00     0.015 C 
BRANCH   5   6
ATOM      6  C   UNL     1       1.772  21.410   7.318  1.00  0.00     0.028 C 
BRANCH   6   7
ATOM      7  C   UNL     1       2.194  22.853   7.423  1.00  0.00    -0.028 C 
ATOM      8  C   UNL     1       2.159  23.741   6.401  1.00  0.00    -0.070 CG0
ATOM      9  C   UNL     1       2.553  25.168   6.690  1.00  0.00     0.039 C 
ATOM     10  G   UNL     1       1.761  23.359   4.983  1.00  0.00     0.000 G0
ENDBRANCH   6   7
ENDBRANCH   5   6
ENDBRANCH   3   5
ENDBRANCH   1   3
BRANCH   1  11
ATOM     11  C   UNL     1       3.113  21.035   4.026  1.00  0.00     0.087 C 
BRANCH  11  12
ATOM     12  C   UNL     1       3.677  22.375   3.485  1.00  0.00     0.066 C 
BRANCH  12  13
ATOM     13  C   UNL     1       2.858  23.560   3.974  1.00  0.00     0.140 C 
ATOM     14  O   UNL     1       3.131  24.689   3.591  1.00  0.00    -0.299 OA
BRANCH  13  15
ATOM     15  C   UNL     1       1.751  23.372   4.984  1.00  0.00     0.106 CG0
ATOM     16  G   UNL     1       2.179  23.758   6.393  1.00  0.00     0.000 G0
ENDBRANCH  13  15
ENDBRANCH  12  13
BRANCH  12  17
ATOM     17  C   UNL     1       3.837  22.356   1.933  1.00  0.00    -0.006 C 
ATOM     18  C   UNL     1       2.473  22.379   1.226  1.00  0.00     0.008 C 
ATOM     19  C   UNL     1       4.689  21.191   1.399  1.00  0.00     0.008 C 
ENDBRANCH  12  17
ENDBRANCH  11  12
ENDBRANCH   1  11
TORSDOF 1
ENDMDL
MODEL 7
REMARK VINA RESULT:    -3.211      1.970      4.394
REMARK INTER + INTRA:          -4.690
REMARK INTER:                  -4.511
REMARK INTRA:                  -0.179
REMARK UNBOUND:                 0.210
REMARK SMILES CC1=CCC[C@H](C)C(=O)C[C@@H](C(C)C)C(=O)C1
REMARK SMILES IDX 8 1 9 2 6 3 7 4 5 5 4 6 3 7 2 8 1 9 10 11 11 12 15 13 16 14
REMARK SMILES IDX 17 15 12 17 13 18 14 19
REMARK H PARENT
REMARK Flexibility Score: 70.00
ROOT
ATOM      1  C   UNL     1       4.319  21.719   1.578  1.00  0.00     0.136 C 
ATOM      2  O   UNL     1       5.059  22.446   0.928  1.00  0.00    -0.299 OA
ENDROOT
BRANCH   1   3
ATOM      3  C   UNL     1       4.768  20.320   1.963  1.00  0.00     0.053 C 
ATOM      4  C   UNL     1       5.047  19.435   0.736  1.00  0.00     0.016 C 
BRANCH   3   5
ATOM      5  C   UNL     1       5.978  20.357   2.919  1.00  0.00     0.015 C 
BRANCH   5   6
ATOM      6  C   UNL     1       5.656  20.953   4.304  1.00  0.00     0.028 C 
BRANCH   6   7
ATOM      7  C   UNL     1       4.579  20.153   4.991  1.00  0.00    -0.028 C 
ATOM      8  C   UNL     1       3.458  20.680   5.536  1.00  0.00    -0.070 CG0
ATOM      9  C   UNL     1       2.445  19.732   6.128  1.00  0.00     0.039 C 
ATOM     10  G   UNL     1       3.189  22.177   5.595  1.00  0.00     0.000 G0
ENDBRANCH   6   7
ENDBRANCH   5   6
ENDBRANCH   3   5
ENDBRANCH   1   3
BRANCH   1  11
ATOM     11  C   UNL     1       2.963  22.240   1.992  1.00  0.00     0.087 C 
BRANCH  11  12
ATOM     12  C   UNL     1       3.055  23.232   3.180  1.00  0.00     0.066 C 
BRANCH  12  13
ATOM     13  C   UNL     1       2.369  22.679   4.421  1.00  0.00     0.140 C 
ATOM     14  O   UNL     1       1.148  22.686   4.497  1.00  0.00    -0.299 OA
BRANCH  13  15
ATOM     15  C   UNL     1       3.177  22.184   5.596  1.00  0.00     0.106 CG0
ATOM     16  G   UNL     1       3.438  20.686   5.532  1.00  0.00     0.000 G0
ENDBRANCH  13  15
ENDBRANCH  12  13
BRANCH  12  17
ATOM     17  C   UNL     1       2.540  24.653   2.793  1.00  0.00    -0.006 C 
ATOM     18  C   UNL     1       3.301  25.220   1.585  1.00  0.00     0.008 C 
ATOM     19  C   UNL     1       2.554  25.667   3.951  1.00  0.00     0.008 C 
ENDBRANCH  12  17
ENDBRANCH  11  12
ENDBRANCH   1  11
TORSDOF 1
ENDMDL
MODEL 8
REMARK VINA RESULT:    -3.062      1.875      5.132
REMARK INTER + INTRA:          -4.463
REMARK INTER:                  -4.718
REMARK INTRA:                   0.255
REMARK UNBOUND:                 0.210
REMARK SMILES CC1=CCC[C@H](C)C(=O)C[C@@H](C(C)C)C(=O)C1
REMARK SMILES IDX 8 1 9 2 6 3 7 4 5 5 4 6 3 7 2 8 1 9 10 11 11 12 15 13 16 14
REMARK SMILES IDX 17 15 12 17 13 18 14 19
REMARK H PARENT
REMARK Flexibility Score: 70.00
ROOT
ATOM      1  C   UNL     1       3.263  24.918   3.449  1.00  0.00     0.136 C 
ATOM      2  O   UNL     1       3.873  25.559   4.293  1.00  0.00    -0.299 OA
ENDROOT
BRANCH   1   3
ATOM      3  C   UNL     1       3.151  25.439   2.026  1.00  0.00     0.053 C 
ATOM      4  C   UNL     1       3.530  26.926   1.914  1.00  0.00     0.016 C 
BRANCH   3   5
ATOM      5  C   UNL     1       3.965  24.573   1.042  1.00  0.00     0.015 C 
BRANCH   5   6
ATOM      6  C   UNL     1       3.178  23.377   0.471  1.00  0.00     0.028 C 
BRANCH   6   7
ATOM      7  C   UNL     1       4.055  22.154   0.387  1.00  0.00    -0.028 C 
ATOM      8  C   UNL     1       4.030  21.127   1.268  1.00  0.00    -0.070 CG0
ATOM      9  C   UNL     1       4.926  19.944   1.003  1.00  0.00     0.039 C 
ATOM     10  G   UNL     1       3.157  21.125   2.516  1.00  0.00     0.000 G0
ENDBRANCH   6   7
ENDBRANCH   5   6
ENDBRANCH   3   5
ENDBRANCH   1   3
BRANCH   1  11
ATOM     11  C   UNL     1       2.629  23.605   3.845  1.00  0.00     0.087 C 
BRANCH  11  12
ATOM     12  C   UNL     1       3.624  22.679   4.592  1.00  0.00     0.066 C 
BRANCH  12  13
ATOM     13  C   UNL     1       3.943  21.434   3.778  1.00  0.00     0.140 C 
ATOM     14  O   UNL     1       4.880  20.718   4.100  1.00  0.00    -0.299 OA
BRANCH  13  15
ATOM     15  C   UNL     1       3.159  21.104   2.530  1.00  0.00     0.106 CG0
ATOM     16  G   UNL     1       4.025  21.119   1.278  1.00  0.00     0.000 G0
ENDBRANCH  13  15
ENDBRANCH  12  13
BRANCH  12  17
ATOM     17  C   UNL     1       3.135  22.342   6.035  1.00  0.00    -0.006 C 
ATOM     18  C   UNL     1       2.147  23.396   6.556  1.00  0.00     0.008 C 
ATOM     19  C   UNL     1       4.269  22.130   7.053  1.00  0.00     0.008 C 
ENDBRANCH  12  17
ENDBRANCH  11  12
ENDBRANCH   1  11
TORSDOF 1
ENDMDL
MODEL 9
REMARK VINA RESULT:    -3.044      1.837      4.143
REMARK INTER + INTRA:          -4.436
REMARK INTER:                  -4.673
REMARK INTRA:                   0.237
REMARK UNBOUND:                 0.210
REMARK SMILES CC1=CCC[C@H](C)C(=O)C[C@@H](C(C)C)C(=O)C1
REMARK SMILES IDX 8 1 9 2 6 3 7 4 5 5 4 6 3 7 2 8 1 9 10 11 11 12 15 13 16 14
REMARK SMILES IDX 17 15 12 17 13 18 14 19
REMARK H PARENT
REMARK Flexibility Score: 70.00
ROOT
ATOM      1  C   UNL     1       3.203  23.079   6.274  1.00  0.00     0.136 C 
ATOM      2  O   UNL     1       4.088  23.064   7.118  1.00  0.00    -0.299 OA
ENDROOT
BRANCH   1   3
ATOM      3  C   UNL     1       2.756  24.394   5.658  1.00  0.00     0.053 C 
ATOM      4  C   UNL     1       3.068  25.600   6.560  1.00  0.00     0.016 C 
BRANCH   3   5
ATOM      5  C   UNL     1       3.339  24.582   4.242  1.00  0.00     0.015 C 
BRANCH   5   6
ATOM      6  C   UNL     1       2.502  23.914   3.132  1.00  0.00     0.028 C 
BRANCH   6   7
ATOM      7  C   UNL     1       3.397  23.309   2.082  1.00  0.00    -0.028 C 
ATOM      8  C   UNL     1       3.682  21.990   1.980  1.00  0.00    -0.070 CG0
ATOM      9  C   UNL     1       4.543  21.538   0.828  1.00  0.00     0.039 C 
ATOM     10  G   UNL     1       3.190  20.955   2.983  1.00  0.00     0.000 G0
ENDBRANCH   6   7
ENDBRANCH   5   6
ENDBRANCH   3   5
ENDBRANCH   1   3
BRANCH   1  11
ATOM     11  C   UNL     1       2.570  21.773   5.855  1.00  0.00     0.087 C 
BRANCH  11  12
ATOM     12  C   UNL     1       3.629  20.675   5.573  1.00  0.00     0.066 C 
BRANCH  12  13
ATOM     13  C   UNL     1       4.139  20.749   4.141  1.00  0.00     0.140 C 
ATOM     14  O   UNL     1       5.340  20.702   3.918  1.00  0.00    -0.299 OA
BRANCH  13  15
ATOM     15  C   UNL     1       3.183  20.950   2.989  1.00  0.00     0.106 CG0
ATOM     16  G   UNL     1       3.689  21.980   1.988  1.00  0.00     0.000 G0
ENDBRANCH  13  15
ENDBRANCH  12  13
BRANCH  12  17
ATOM     17  C   UNL     1       3.109  19.253   5.951  1.00  0.00    -0.006 C 
ATOM     18  C   UNL     1       1.911  19.327   6.909  1.00  0.00     0.008 C 
ATOM     19  C   UNL     1       4.188  18.317   6.523  1.00  0.00     0.008 C 
ENDBRANCH  12  17
ENDBRANCH  11  12
ENDBRANCH   1  11
TORSDOF 1
ENDMDL
