MODEL 1
REMARK VINA RESULT:    -3.070      0.000      0.000
REMARK INTER + INTRA:          -3.783
REMARK INTER:                  -3.699
REMARK INTRA:                  -0.084
REMARK UNBOUND:                -0.084
REMARK SMILES CC[C@@H](C)[C@H]([NH3+])C(=O)[O-]
REMARK SMILES IDX 3 1 4 2 5 3 6 4 7 8 8 9 9 10 2 11 1 12
REMARK H PARENT 6 5 6 6 6 7
REMARK Flexibility Score: inf
ROOT
ATOM      1  C   UNL     1      31.723  27.415 -22.002  1.00  0.00     0.050 C 
ATOM      2  C   UNL     1      32.436  28.655 -22.578  1.00  0.00     0.014 C 
ENDROOT
BRANCH   1   3
ATOM      3  C   UNL     1      30.231  27.730 -21.652  1.00  0.00     0.230 C 
BRANCH   3   4
ATOM      4  N   UNL     1      30.108  28.816 -20.666  1.00  0.00    -0.350 N 
ATOM      5  H   UNL     1      30.977  28.892 -20.089  1.00  0.00     0.345 HD
ATOM      6  H   UNL     1      29.294  28.638 -20.032  1.00  0.00     0.345 HD
ATOM      7  H   UNL     1      29.925  29.724 -21.148  1.00  0.00     0.345 HD
ENDBRANCH   3   4
BRANCH   3   8
ATOM      8  C   UNL     1      29.529  26.502 -21.127  1.00  0.00     0.099 C 
ATOM      9  O   UNL     1      29.926  25.942 -20.070  1.00  0.00    -0.544 OA
ATOM     10  O   UNL     1      28.434  25.984 -21.807  1.00  0.00    -0.544 OA
ENDBRANCH   3   8
ENDBRANCH   1   3
BRANCH   1  11
ATOM     11  C   UNL     1      31.814  26.230 -23.001  1.00  0.00     0.006 C 
ATOM     12  C   UNL     1      33.232  25.986 -23.522  1.00  0.00     0.004 C 
ENDBRANCH   1  11
TORSDOF 4
ENDMDL
MODEL 2
REMARK VINA RESULT:    -3.003     13.907     14.477
REMARK INTER + INTRA:          -3.701
REMARK INTER:                  -3.573
REMARK INTRA:                  -0.127
REMARK UNBOUND:                -0.084
REMARK SMILES CC[C@@H](C)[C@H]([NH3+])C(=O)[O-]
REMARK SMILES IDX 3 1 4 2 5 3 6 4 7 8 8 9 9 10 2 11 1 12
REMARK H PARENT 6 5 6 6 6 7
REMARK Flexibility Score: inf
ROOT
ATOM      1  C   UNL     1      35.138  22.749  -9.019  1.00  0.00     0.050 C 
ATOM      2  C   UNL     1      35.033  23.834 -10.109  1.00  0.00     0.014 C 
ENDROOT
BRANCH   1   3
ATOM      3  C   UNL     1      34.700  21.350  -9.566  1.00  0.00     0.230 C 
BRANCH   3   4
ATOM      4  N   UNL     1      34.003  21.451 -10.857  1.00  0.00    -0.350 N 
ATOM      5  H   UNL     1      34.625  21.878 -11.582  1.00  0.00     0.345 HD
ATOM      6  H   UNL     1      33.143  22.041 -10.759  1.00  0.00     0.345 HD
ATOM      7  H   UNL     1      33.688  20.507 -11.175  1.00  0.00     0.345 HD
ENDBRANCH   3   4
BRANCH   3   8
ATOM      8  C   UNL     1      33.812  20.637  -8.577  1.00  0.00     0.099 C 
ATOM      9  O   UNL     1      33.594  21.134  -7.439  1.00  0.00    -0.544 OA
ATOM     10  O   UNL     1      33.224  19.425  -8.919  1.00  0.00    -0.544 OA
ENDBRANCH   3   8
ENDBRANCH   1   3
BRANCH   1  11
ATOM     11  C   UNL     1      36.584  22.689  -8.455  1.00  0.00     0.006 C 
ATOM     12  C   UNL     1      37.487  21.710  -9.210  1.00  0.00     0.004 C 
ENDBRANCH   1  11
TORSDOF 4
ENDMDL
MODEL 3
REMARK VINA RESULT:    -2.965      1.892      2.119
REMARK INTER + INTRA:          -3.656
REMARK INTER:                  -3.577
REMARK INTRA:                  -0.079
REMARK UNBOUND:                -0.084
REMARK SMILES CC[C@@H](C)[C@H]([NH3+])C(=O)[O-]
REMARK SMILES IDX 3 1 4 2 5 3 6 4 7 8 8 9 9 10 2 11 1 12
REMARK H PARENT 6 5 6 6 6 7
REMARK Flexibility Score: inf
ROOT
ATOM      1  C   UNL     1      31.409  27.175 -23.092  1.00  0.00     0.050 C 
ATOM      2  C   UNL     1      30.891  27.044 -24.538  1.00  0.00     0.014 C 
ENDROOT
BRANCH   1   3
ATOM      3  C   UNL     1      30.947  25.967 -22.212  1.00  0.00     0.230 C 
BRANCH   3   4
ATOM      4  N   UNL     1      30.408  24.863 -23.021  1.00  0.00    -0.350 N 
ATOM      5  H   UNL     1      29.504  24.519 -22.623  1.00  0.00     0.345 HD
ATOM      6  H   UNL     1      31.090  24.069 -23.050  1.00  0.00     0.345 HD
ATOM      7  H   UNL     1      30.263  25.174 -24.008  1.00  0.00     0.345 HD
ENDBRANCH   3   4
BRANCH   3   8
ATOM      8  C   UNL     1      29.908  26.397 -21.206  1.00  0.00     0.099 C 
ATOM      9  O   UNL     1      29.909  25.915 -20.041  1.00  0.00    -0.544 OA
ATOM     10  O   UNL     1      28.945  27.333 -21.559  1.00  0.00    -0.544 OA
ENDBRANCH   3   8
ENDBRANCH   1   3
BRANCH   1  11
ATOM     11  C   UNL     1      32.957  27.300 -23.083  1.00  0.00     0.006 C 
ATOM     12  C   UNL     1      33.661  26.130 -23.776  1.00  0.00     0.004 C 
ENDBRANCH   1  11
TORSDOF 4
ENDMDL
MODEL 4
REMARK VINA RESULT:    -2.905      2.685      3.382
REMARK INTER + INTRA:          -3.584
REMARK INTER:                  -3.472
REMARK INTRA:                  -0.112
REMARK UNBOUND:                -0.084
REMARK SMILES CC[C@@H](C)[C@H]([NH3+])C(=O)[O-]
REMARK SMILES IDX 3 1 4 2 5 3 6 4 7 8 8 9 9 10 2 11 1 12
REMARK H PARENT 6 5 6 6 6 7
REMARK Flexibility Score: inf
ROOT
ATOM      1  C   UNL     1      30.669  25.902 -22.283  1.00  0.00     0.050 C 
ATOM      2  C   UNL     1      30.065  26.225 -20.902  1.00  0.00     0.014 C 
ENDROOT
BRANCH   1   3
ATOM      3  C   UNL     1      29.576  25.930 -23.401  1.00  0.00     0.230 C 
BRANCH   3   4
ATOM      4  N   UNL     1      28.218  25.778 -22.856  1.00  0.00    -0.350 N 
ATOM      5  H   UNL     1      28.244  25.692 -21.814  1.00  0.00     0.345 HD
ATOM      6  H   UNL     1      27.760  24.925 -23.255  1.00  0.00     0.345 HD
ATOM      7  H   UNL     1      27.624  26.595 -23.127  1.00  0.00     0.345 HD
ENDBRANCH   3   4
BRANCH   3   8
ATOM      8  C   UNL     1      29.822  24.849 -24.425  1.00  0.00     0.099 C 
ATOM      9  O   UNL     1      29.474  25.016 -25.626  1.00  0.00    -0.544 OA
ATOM     10  O   UNL     1      30.440  23.664 -24.049  1.00  0.00    -0.544 OA
ENDBRANCH   3   8
ENDBRANCH   1   3
BRANCH   1  11
ATOM     11  C   UNL     1      31.817  26.893 -22.614  1.00  0.00     0.006 C 
ATOM     12  C   UNL     1      33.008  26.228 -23.310  1.00  0.00     0.004 C 
ENDBRANCH   1  11
TORSDOF 4
ENDMDL
MODEL 5
REMARK VINA RESULT:    -2.887      1.808      2.604
REMARK INTER + INTRA:          -3.562
REMARK INTER:                  -3.495
REMARK INTRA:                  -0.067
REMARK UNBOUND:                -0.084
REMARK SMILES CC[C@@H](C)[C@H]([NH3+])C(=O)[O-]
REMARK SMILES IDX 3 1 4 2 5 3 6 4 7 8 8 9 9 10 2 11 1 12
REMARK H PARENT 6 5 6 6 6 7
REMARK Flexibility Score: inf
ROOT
ATOM      1  C   UNL     1      31.704  27.121 -23.002  1.00  0.00     0.050 C 
ATOM      2  C   UNL     1      33.046  26.763 -23.672  1.00  0.00     0.014 C 
ENDROOT
BRANCH   1   3
ATOM      3  C   UNL     1      31.073  25.878 -22.294  1.00  0.00     0.230 C 
BRANCH   3   4
ATOM      4  N   UNL     1      30.710  24.819 -23.247  1.00  0.00    -0.350 N 
ATOM      5  H   UNL     1      30.435  25.229 -24.170  1.00  0.00     0.345 HD
ATOM      6  H   UNL     1      29.910  24.255 -22.875  1.00  0.00     0.345 HD
ATOM      7  H   UNL     1      31.510  24.159 -23.380  1.00  0.00     0.345 HD
ENDBRANCH   3   4
BRANCH   3   8
ATOM      8  C   UNL     1      29.852  26.271 -21.500  1.00  0.00     0.099 C 
ATOM      9  O   UNL     1      28.826  26.713 -22.083  1.00  0.00    -0.544 OA
ATOM     10  O   UNL     1      29.852  26.143 -20.116  1.00  0.00    -0.544 OA
ENDBRANCH   3   8
ENDBRANCH   1   3
BRANCH   1  11
ATOM     11  C   UNL     1      31.900  28.287 -21.995  1.00  0.00     0.006 C 
ATOM     12  C   UNL     1      33.248  28.996 -22.147  1.00  0.00     0.004 C 
ENDBRANCH   1  11
TORSDOF 4
ENDMDL
MODEL 6
REMARK VINA RESULT:    -2.778      2.852      4.067
REMARK INTER + INTRA:          -3.430
REMARK INTER:                  -3.349
REMARK INTRA:                  -0.082
REMARK UNBOUND:                -0.084
REMARK SMILES CC[C@@H](C)[C@H]([NH3+])C(=O)[O-]
REMARK SMILES IDX 3 1 4 2 5 3 6 4 7 8 8 9 9 10 2 11 1 12
REMARK H PARENT 6 5 6 6 6 7
REMARK Flexibility Score: inf
ROOT
ATOM      1  C   UNL     1      29.789  26.781 -22.075  1.00  0.00     0.050 C 
ATOM      2  C   UNL     1      30.020  26.124 -20.699  1.00  0.00     0.014 C 
ENDROOT
BRANCH   1   3
ATOM      3  C   UNL     1      30.672  26.112 -23.179  1.00  0.00     0.230 C 
BRANCH   3   4
ATOM      4  N   UNL     1      30.473  24.656 -23.245  1.00  0.00    -0.350 N 
ATOM      5  H   UNL     1      29.720  24.416 -23.930  1.00  0.00     0.345 HD
ATOM      6  H   UNL     1      30.206  24.284 -22.303  1.00  0.00     0.345 HD
ATOM      7  H   UNL     1      31.362  24.180 -23.518  1.00  0.00     0.345 HD
ENDBRANCH   3   4
BRANCH   3   8
ATOM      8  C   UNL     1      32.135  26.403 -22.950  1.00  0.00     0.099 C 
ATOM      9  O   UNL     1      32.993  25.484 -23.056  1.00  0.00    -0.544 OA
ATOM     10  O   UNL     1      32.546  27.689 -22.624  1.00  0.00    -0.544 OA
ENDBRANCH   3   8
ENDBRANCH   1   3
BRANCH   1  11
ATOM     11  C   UNL     1      28.286  26.711 -22.458  1.00  0.00     0.006 C 
ATOM     12  C   UNL     1      27.575  28.064 -22.366  1.00  0.00     0.004 C 
ENDBRANCH   1  11
TORSDOF 4
ENDMDL
MODEL 7
REMARK VINA RESULT:    -2.725     15.800     16.519
REMARK INTER + INTRA:          -3.366
REMARK INTER:                  -3.290
REMARK INTRA:                  -0.076
REMARK UNBOUND:                -0.084
REMARK SMILES CC[C@@H](C)[C@H]([NH3+])C(=O)[O-]
REMARK SMILES IDX 3 1 4 2 5 3 6 4 7 8 8 9 9 10 2 11 1 12
REMARK H PARENT 6 5 6 6 6 7
REMARK Flexibility Score: inf
ROOT
ATOM      1  C   UNL     1      31.460  11.554 -16.112  1.00  0.00     0.050 C 
ATOM      2  C   UNL     1      32.651  10.576 -16.081  1.00  0.00     0.014 C 
ENDROOT
BRANCH   1   3
ATOM      3  C   UNL     1      30.351  11.067 -17.102  1.00  0.00     0.230 C 
BRANCH   3   4
ATOM      4  N   UNL     1      30.910  10.321 -18.241  1.00  0.00    -0.350 N 
ATOM      5  H   UNL     1      30.146   9.938 -18.843  1.00  0.00     0.345 HD
ATOM      6  H   UNL     1      31.502   9.529 -17.899  1.00  0.00     0.345 HD
ATOM      7  H   UNL     1      31.530  10.940 -18.810  1.00  0.00     0.345 HD
ENDBRANCH   3   4
BRANCH   3   8
ATOM      8  C   UNL     1      29.540  12.230 -17.620  1.00  0.00     0.099 C 
ATOM      9  O   UNL     1      30.114  13.266 -18.051  1.00  0.00    -0.544 OA
ATOM     10  O   UNL     1      28.153  12.161 -17.628  1.00  0.00    -0.544 OA
ENDBRANCH   3   8
ENDBRANCH   1   3
BRANCH   1  11
ATOM     11  C   UNL     1      30.878  11.738 -14.684  1.00  0.00     0.006 C 
ATOM     12  C   UNL     1      31.876  12.355 -13.701  1.00  0.00     0.004 C 
ENDBRANCH   1  11
TORSDOF 4
ENDMDL
MODEL 8
REMARK VINA RESULT:    -2.702     13.744     14.312
REMARK INTER + INTRA:          -3.339
REMARK INTER:                  -3.223
REMARK INTRA:                  -0.116
REMARK UNBOUND:                -0.084
REMARK SMILES CC[C@@H](C)[C@H]([NH3+])C(=O)[O-]
REMARK SMILES IDX 3 1 4 2 5 3 6 4 7 8 8 9 9 10 2 11 1 12
REMARK H PARENT 6 5 6 6 6 7
REMARK Flexibility Score: inf
ROOT
ATOM      1  C   UNL     1      36.121  22.682  -9.497  1.00  0.00     0.050 C 
ATOM      2  C   UNL     1      34.788  21.909  -9.452  1.00  0.00     0.014 C 
ENDROOT
BRANCH   1   3
ATOM      3  C   UNL     1      36.002  24.061  -8.768  1.00  0.00     0.230 C 
BRANCH   3   4
ATOM      4  N   UNL     1      34.692  24.239  -8.123  1.00  0.00    -0.350 N 
ATOM      5  H   UNL     1      34.802  24.387  -7.094  1.00  0.00     0.345 HD
ATOM      6  H   UNL     1      34.093  23.394  -8.281  1.00  0.00     0.345 HD
ATOM      7  H   UNL     1      34.187  25.051  -8.544  1.00  0.00     0.345 HD
ENDBRANCH   3   4
BRANCH   3   8
ATOM      8  C   UNL     1      36.242  25.202  -9.726  1.00  0.00     0.099 C 
ATOM      9  O   UNL     1      35.271  25.830 -10.226  1.00  0.00    -0.544 OA
ATOM     10  O   UNL     1      37.540  25.568 -10.058  1.00  0.00    -0.544 OA
ENDBRANCH   3   8
ENDBRANCH   1   3
BRANCH   1  11
ATOM     11  C   UNL     1      37.259  21.829  -8.876  1.00  0.00     0.006 C 
ATOM     12  C   UNL     1      38.592  21.967  -9.617  1.00  0.00     0.004 C 
ENDBRANCH   1  11
TORSDOF 4
ENDMDL
MODEL 9
REMARK VINA RESULT:    -2.700     16.021     16.736
REMARK INTER + INTRA:          -3.337
REMARK INTER:                  -3.198
REMARK INTRA:                  -0.139
REMARK UNBOUND:                -0.084
REMARK SMILES CC[C@@H](C)[C@H]([NH3+])C(=O)[O-]
REMARK SMILES IDX 3 1 4 2 5 3 6 4 7 8 8 9 9 10 2 11 1 12
REMARK H PARENT 6 5 6 6 6 7
REMARK Flexibility Score: inf
ROOT
ATOM      1  C   UNL     1      31.327  11.988 -14.994  1.00  0.00     0.050 C 
ATOM      2  C   UNL     1      32.283  11.680 -13.825  1.00  0.00     0.014 C 
ENDROOT
BRANCH   1   3
ATOM      3  C   UNL     1      31.725  11.190 -16.279  1.00  0.00     0.230 C 
BRANCH   3   4
ATOM      4  N   UNL     1      33.093  11.498 -16.723  1.00  0.00    -0.350 N 
ATOM      5  H   UNL     1      33.079  12.126 -17.560  1.00  0.00     0.345 HD
ATOM      6  H   UNL     1      33.601  10.616 -16.970  1.00  0.00     0.345 HD
ATOM      7  H   UNL     1      33.632  11.952 -15.952  1.00  0.00     0.345 HD
ENDBRANCH   3   4
BRANCH   3   8
ATOM      8  C   UNL     1      30.763  11.466 -17.407  1.00  0.00     0.099 C 
ATOM      9  O   UNL     1      30.649  12.630 -17.879  1.00  0.00    -0.544 OA
ATOM     10  O   UNL     1      29.998  10.435 -17.937  1.00  0.00    -0.544 OA
ENDBRANCH   3   8
ENDBRANCH   1   3
BRANCH   1  11
ATOM     11  C   UNL     1      29.861  11.677 -14.588  1.00  0.00     0.006 C 
ATOM     12  C   UNL     1      28.986  12.929 -14.475  1.00  0.00     0.004 C 
ENDBRANCH   1  11
TORSDOF 4
ENDMDL
