MODEL 1
REMARK VINA RESULT:    -3.149      0.000      0.000
REMARK INTER + INTRA:          -5.121
REMARK INTER:                  -4.805
REMARK INTRA:                  -0.315
REMARK UNBOUND:                -0.315
REMARK SMILES CC1=CCC[C@H](C)C(=O)C[C@@H](C(C)C)C(=O)C1
REMARK SMILES IDX 8 1 9 2 6 3 7 4 5 5 4 6 3 7 2 8 1 9 10 11 11 12 15 13 16 14
REMARK SMILES IDX 17 15 12 17 13 18 14 19
REMARK H PARENT
REMARK Flexibility Score: 70.00
ROOT
ATOM      1  C   UNL     1      14.959  55.297  34.230  1.00  0.00     0.136 C 
ATOM      2  O   UNL     1      13.754  55.201  34.413  1.00  0.00    -0.299 OA
ENDROOT
BRANCH   1   3
ATOM      3  C   UNL     1      15.653  56.637  34.405  1.00  0.00     0.053 C 
ATOM      4  C   UNL     1      16.133  56.859  35.848  1.00  0.00     0.016 C 
BRANCH   3   5
ATOM      5  C   UNL     1      16.798  56.817  33.388  1.00  0.00     0.015 C 
BRANCH   5   6
ATOM      6  C   UNL     1      18.208  56.665  33.998  1.00  0.00     0.028 C 
BRANCH   6   7
ATOM      7  C   UNL     1      19.069  55.754  33.160  1.00  0.00    -0.028 C 
ATOM      8  C   UNL     1      19.403  54.484  33.492  1.00  0.00    -0.070 CG0
ATOM      9  C   UNL     1      20.240  53.694  32.519  1.00  0.00     0.039 C 
ATOM     10  G   UNL     1      18.981  53.829  34.800  1.00  0.00     0.000 G0
ENDBRANCH   6   7
ENDBRANCH   5   6
ENDBRANCH   3   5
ENDBRANCH   1   3
BRANCH   1  11
ATOM     11  C   UNL     1      15.738  54.067  33.830  1.00  0.00     0.087 C 
BRANCH  11  12
ATOM     12  C   UNL     1      16.411  53.379  35.047  1.00  0.00     0.066 C 
BRANCH  12  13
ATOM     13  C   UNL     1      17.802  52.907  34.656  1.00  0.00     0.140 C 
ATOM     14  O   UNL     1      17.969  51.745  34.310  1.00  0.00    -0.299 OA
BRANCH  13  15
ATOM     15  C   UNL     1      18.993  53.823  34.795  1.00  0.00     0.106 CG0
ATOM     16  G   UNL     1      19.369  54.494  33.482  1.00  0.00     0.000 G0
ENDBRANCH  13  15
ENDBRANCH  12  13
BRANCH  12  17
ATOM     17  C   UNL     1      15.567  52.190  35.611  1.00  0.00    -0.006 C 
ATOM     18  C   UNL     1      14.968  52.537  36.989  1.00  0.00     0.008 C 
ATOM     19  C   UNL     1      14.421  51.782  34.665  1.00  0.00     0.008 C 
ENDBRANCH  12  17
ENDBRANCH  11  12
ENDBRANCH   1  11
TORSDOF 1
ENDMDL
MODEL 2
REMARK VINA RESULT:    -2.935     12.813     14.253
REMARK INTER + INTRA:          -4.794
REMARK INTER:                  -4.721
REMARK INTRA:                  -0.073
REMARK UNBOUND:                -0.315
REMARK SMILES CC1=CCC[C@H](C)C(=O)C[C@@H](C(C)C)C(=O)C1
REMARK SMILES IDX 8 1 9 2 6 3 7 4 5 5 4 6 3 7 2 8 1 9 10 11 11 12 15 13 16 14
REMARK SMILES IDX 17 15 12 17 13 18 14 19
REMARK H PARENT
REMARK Flexibility Score: 70.00
ROOT
ATOM      1  C   UNL     1      14.224  61.422  20.921  1.00  0.00     0.136 C 
ATOM      2  O   UNL     1      13.805  60.836  19.932  1.00  0.00    -0.299 OA
ENDROOT
BRANCH   1   3
ATOM      3  C   UNL     1      15.719  61.534  21.164  1.00  0.00     0.053 C 
ATOM      4  C   UNL     1      16.043  62.305  22.453  1.00  0.00     0.016 C 
BRANCH   3   5
ATOM      5  C   UNL     1      16.401  60.151  21.139  1.00  0.00     0.015 C 
BRANCH   5   6
ATOM      6  C   UNL     1      15.891  59.180  22.226  1.00  0.00     0.028 C 
BRANCH   6   7
ATOM      7  C   UNL     1      14.993  58.123  21.636  1.00  0.00    -0.028 C 
ATOM      8  C   UNL     1      13.733  57.857  22.056  1.00  0.00    -0.070 CG0
ATOM      9  C   UNL     1      12.954  56.792  21.328  1.00  0.00     0.039 C 
ATOM     10  G   UNL     1      13.079  58.573  23.229  1.00  0.00     0.000 G0
ENDBRANCH   6   7
ENDBRANCH   5   6
ENDBRANCH   3   5
ENDBRANCH   1   3
BRANCH   1  11
ATOM     11  C   UNL     1      13.234  62.028  21.886  1.00  0.00     0.087 C 
BRANCH  11  12
ATOM     12  C   UNL     1      13.085  61.184  23.179  1.00  0.00     0.066 C 
BRANCH  12  13
ATOM     13  C   UNL     1      12.414  59.860  22.844  1.00  0.00     0.140 C 
ATOM     14  O   UNL     1      11.302  59.862  22.333  1.00  0.00    -0.299 OA
BRANCH  13  15
ATOM     15  C   UNL     1      13.056  58.552  23.234  1.00  0.00     0.106 CG0
ATOM     16  G   UNL     1      13.736  57.863  22.059  1.00  0.00     0.000 G0
ENDBRANCH  13  15
ENDBRANCH  12  13
BRANCH  12  17
ATOM     17  C   UNL     1      12.294  61.931  24.301  1.00  0.00    -0.006 C 
ATOM     18  C   UNL     1      13.133  62.052  25.589  1.00  0.00     0.008 C 
ATOM     19  C   UNL     1      11.852  63.342  23.867  1.00  0.00     0.008 C 
ENDBRANCH  12  17
ENDBRANCH  11  12
ENDBRANCH   1  11
TORSDOF 1
ENDMDL
MODEL 3
REMARK VINA RESULT:    -2.808     12.252     13.461
REMARK INTER + INTRA:          -4.601
REMARK INTER:                  -4.491
REMARK INTRA:                  -0.110
REMARK UNBOUND:                -0.315
REMARK SMILES CC1=CCC[C@H](C)C(=O)C[C@@H](C(C)C)C(=O)C1
REMARK SMILES IDX 8 1 9 2 6 3 7 4 5 5 4 6 3 7 2 8 1 9 10 11 11 12 15 13 16 14
REMARK SMILES IDX 17 15 12 17 13 18 14 19
REMARK H PARENT
REMARK Flexibility Score: 70.00
ROOT
ATOM      1  C   UNL     1      13.590  59.690  21.432  1.00  0.00     0.136 C 
ATOM      2  O   UNL     1      13.013  59.877  22.494  1.00  0.00    -0.299 OA
ENDROOT
BRANCH   1   3
ATOM      3  C   UNL     1      13.852  60.853  20.491  1.00  0.00     0.053 C 
ATOM      4  C   UNL     1      12.588  61.684  20.225  1.00  0.00     0.016 C 
BRANCH   3   5
ATOM      5  C   UNL     1      15.018  61.730  20.989  1.00  0.00     0.015 C 
BRANCH   5   6
ATOM      6  C   UNL     1      16.404  61.062  20.866  1.00  0.00     0.028 C 
BRANCH   6   7
ATOM      7  C   UNL     1      16.918  60.619  22.212  1.00  0.00    -0.028 C 
ATOM      8  C   UNL     1      17.191  59.337  22.552  1.00  0.00    -0.070 CG0
ATOM      9  C   UNL     1      17.740  59.070  23.930  1.00  0.00     0.039 C 
ATOM     10  G   UNL     1      16.958  58.161  21.613  1.00  0.00     0.000 G0
ENDBRANCH   6   7
ENDBRANCH   5   6
ENDBRANCH   3   5
ENDBRANCH   1   3
BRANCH   1  11
ATOM     11  C   UNL     1      14.033  58.291  21.078  1.00  0.00     0.087 C 
BRANCH  11  12
ATOM     12  C   UNL     1      14.504  57.493  22.323  1.00  0.00     0.066 C 
BRANCH  12  13
ATOM     13  C   UNL     1      15.979  57.152  22.177  1.00  0.00     0.140 C 
ATOM     14  O   UNL     1      16.394  56.082  22.603  1.00  0.00    -0.299 OA
BRANCH  13  15
ATOM     15  C   UNL     1      16.950  58.159  21.613  1.00  0.00     0.106 CG0
ATOM     16  G   UNL     1      17.167  59.344  22.544  1.00  0.00     0.000 G0
ENDBRANCH  13  15
ENDBRANCH  12  13
BRANCH  12  17
ATOM     17  C   UNL     1      13.662  56.198  22.565  1.00  0.00    -0.006 C 
ATOM     18  C   UNL     1      12.903  56.269  23.905  1.00  0.00     0.008 C 
ATOM     19  C   UNL     1      12.646  55.940  21.436  1.00  0.00     0.008 C 
ENDBRANCH  12  17
ENDBRANCH  11  12
ENDBRANCH   1  11
TORSDOF 1
ENDMDL
MODEL 4
REMARK VINA RESULT:    -2.802     12.477     14.530
REMARK INTER + INTRA:          -4.591
REMARK INTER:                  -4.344
REMARK INTRA:                  -0.247
REMARK UNBOUND:                -0.315
REMARK SMILES CC1=CCC[C@H](C)C(=O)C[C@@H](C(C)C)C(=O)C1
REMARK SMILES IDX 8 1 9 2 6 3 7 4 5 5 4 6 3 7 2 8 1 9 10 11 11 12 15 13 16 14
REMARK SMILES IDX 17 15 12 17 13 18 14 19
REMARK H PARENT
REMARK Flexibility Score: 70.00
ROOT
ATOM      1  C   UNL     1      14.705  61.336  20.825  1.00  0.00     0.136 C 
ATOM      2  O   UNL     1      15.183  60.528  20.042  1.00  0.00    -0.299 OA
ENDROOT
BRANCH   1   3
ATOM      3  C   UNL     1      13.215  61.631  20.801  1.00  0.00     0.053 C 
ATOM      4  C   UNL     1      12.706  61.948  19.386  1.00  0.00     0.016 C 
BRANCH   3   5
ATOM      5  C   UNL     1      12.404  60.496  21.459  1.00  0.00     0.015 C 
BRANCH   5   6
ATOM      6  C   UNL     1      12.398  60.541  23.002  1.00  0.00     0.028 C 
BRANCH   6   7
ATOM      7  C   UNL     1      12.197  61.948  23.505  1.00  0.00    -0.028 C 
ATOM      8  C   UNL     1      12.993  62.566  24.411  1.00  0.00    -0.070 CG0
ATOM      9  C   UNL     1      12.674  63.993  24.776  1.00  0.00     0.039 C 
ATOM     10  G   UNL     1      14.179  61.884  25.077  1.00  0.00     0.000 G0
ENDBRANCH   6   7
ENDBRANCH   5   6
ENDBRANCH   3   5
ENDBRANCH   1   3
BRANCH   1  11
ATOM     11  C   UNL     1      15.617  62.028  21.810  1.00  0.00     0.087 C 
BRANCH  11  12
ATOM     12  C   UNL     1      15.805  61.205  23.111  1.00  0.00     0.066 C 
BRANCH  12  13
ATOM     13  C   UNL     1      15.486  62.080  24.313  1.00  0.00     0.140 C 
ATOM     14  O   UNL     1      16.317  62.888  24.707  1.00  0.00    -0.299 OA
BRANCH  13  15
ATOM     15  C   UNL     1      14.206  61.887  25.087  1.00  0.00     0.106 CG0
ATOM     16  G   UNL     1      13.012  62.552  24.417  1.00  0.00     0.000 G0
ENDBRANCH  13  15
ENDBRANCH  12  13
BRANCH  12  17
ATOM     17  C   UNL     1      17.240  60.598  23.240  1.00  0.00    -0.006 C 
ATOM     18  C   UNL     1      17.187  59.060  23.334  1.00  0.00     0.008 C 
ATOM     19  C   UNL     1      18.150  60.988  22.060  1.00  0.00     0.008 C 
ENDBRANCH  12  17
ENDBRANCH  11  12
ENDBRANCH   1  11
TORSDOF 1
ENDMDL
MODEL 5
REMARK VINA RESULT:    -2.777      1.679      3.886
REMARK INTER + INTRA:          -4.553
REMARK INTER:                  -4.305
REMARK INTRA:                  -0.248
REMARK UNBOUND:                -0.315
REMARK SMILES CC1=CCC[C@H](C)C(=O)C[C@@H](C(C)C)C(=O)C1
REMARK SMILES IDX 8 1 9 2 6 3 7 4 5 5 4 6 3 7 2 8 1 9 10 11 11 12 15 13 16 14
REMARK SMILES IDX 17 15 12 17 13 18 14 19
REMARK H PARENT
REMARK Flexibility Score: 70.00
ROOT
ATOM      1  C   UNL     1      14.645  54.210  35.687  1.00  0.00     0.136 C 
ATOM      2  O   UNL     1      13.423  54.196  35.642  1.00  0.00    -0.299 OA
ENDROOT
BRANCH   1   3
ATOM      3  C   UNL     1      15.423  52.906  35.715  1.00  0.00     0.053 C 
ATOM      4  C   UNL     1      15.168  52.104  37.001  1.00  0.00     0.016 C 
BRANCH   3   5
ATOM      5  C   UNL     1      15.158  52.062  34.453  1.00  0.00     0.015 C 
BRANCH   5   6
ATOM      6  C   UNL     1      16.104  52.380  33.275  1.00  0.00     0.028 C 
BRANCH   6   7
ATOM      7  C   UNL     1      17.542  52.410  33.724  1.00  0.00    -0.028 C 
ATOM      8  C   UNL     1      18.340  53.505  33.689  1.00  0.00    -0.070 CG0
ATOM      9  C   UNL     1      19.746  53.374  34.216  1.00  0.00     0.039 C 
ATOM     10  G   UNL     1      17.885  54.847  33.135  1.00  0.00     0.000 G0
ENDBRANCH   6   7
ENDBRANCH   5   6
ENDBRANCH   3   5
ENDBRANCH   1   3
BRANCH   1  11
ATOM     11  C   UNL     1      15.360  55.540  35.710  1.00  0.00     0.087 C 
BRANCH  11  12
ATOM     12  C   UNL     1      15.835  55.975  34.299  1.00  0.00     0.066 C 
BRANCH  12  13
ATOM     13  C   UNL     1      17.337  55.765  34.184  1.00  0.00     0.140 C 
ATOM     14  O   UNL     1      18.091  56.410  34.901  1.00  0.00    -0.299 OA
BRANCH  13  15
ATOM     15  C   UNL     1      17.908  54.855  33.126  1.00  0.00     0.106 CG0
ATOM     16  G   UNL     1      18.339  53.507  33.686  1.00  0.00     0.000 G0
ENDBRANCH  13  15
ENDBRANCH  12  13
BRANCH  12  17
ATOM     17  C   UNL     1      15.461  57.455  33.965  1.00  0.00    -0.006 C 
ATOM     18  C   UNL     1      15.942  57.846  32.553  1.00  0.00     0.008 C 
ATOM     19  C   UNL     1      13.945  57.712  34.056  1.00  0.00     0.008 C 
ENDBRANCH  12  17
ENDBRANCH  11  12
ENDBRANCH   1  11
TORSDOF 1
ENDMDL
MODEL 6
REMARK VINA RESULT:    -2.708     12.152     13.902
REMARK INTER + INTRA:          -4.449
REMARK INTER:                  -4.208
REMARK INTRA:                  -0.240
REMARK UNBOUND:                -0.315
REMARK SMILES CC1=CCC[C@H](C)C(=O)C[C@@H](C(C)C)C(=O)C1
REMARK SMILES IDX 8 1 9 2 6 3 7 4 5 5 4 6 3 7 2 8 1 9 10 11 11 12 15 13 16 14
REMARK SMILES IDX 17 15 12 17 13 18 14 19
REMARK H PARENT
REMARK Flexibility Score: 70.00
ROOT
ATOM      1  C   UNL     1      13.092  62.599  23.745  1.00  0.00     0.136 C 
ATOM      2  O   UNL     1      11.908  62.579  24.052  1.00  0.00    -0.299 OA
ENDROOT
BRANCH   1   3
ATOM      3  C   UNL     1      14.156  62.741  24.819  1.00  0.00     0.053 C 
ATOM      4  C   UNL     1      13.987  64.028  25.641  1.00  0.00     0.016 C 
BRANCH   3   5
ATOM      5  C   UNL     1      14.219  61.491  25.721  1.00  0.00     0.015 C 
BRANCH   5   6
ATOM      6  C   UNL     1      15.184  60.399  25.213  1.00  0.00     0.028 C 
BRANCH   6   7
ATOM      7  C   UNL     1      16.487  60.995  24.746  1.00  0.00    -0.028 C 
ATOM      8  C   UNL     1      16.968  60.909  23.483  1.00  0.00    -0.070 CG0
ATOM      9  C   UNL     1      18.272  61.600  23.173  1.00  0.00     0.039 C 
ATOM     10  G   UNL     1      16.261  60.143  22.374  1.00  0.00     0.000 G0
ENDBRANCH   6   7
ENDBRANCH   5   6
ENDBRANCH   3   5
ENDBRANCH   1   3
BRANCH   1  11
ATOM     11  C   UNL     1      13.471  62.479  22.288  1.00  0.00     0.087 C 
BRANCH  11  12
ATOM     12  C   UNL     1      13.850  61.026  21.900  1.00  0.00     0.066 C 
BRANCH  12  13
ATOM     13  C   UNL     1      15.329  60.964  21.554  1.00  0.00     0.140 C 
ATOM     14  O   UNL     1      15.736  61.530  20.547  1.00  0.00    -0.299 OA
BRANCH  13  15
ATOM     15  C   UNL     1      16.277  60.126  22.374  1.00  0.00     0.106 CG0
ATOM     16  G   UNL     1      16.960  60.925  23.475  1.00  0.00     0.000 G0
ENDBRANCH  13  15
ENDBRANCH  12  13
BRANCH  12  17
ATOM     17  C   UNL     1      12.986  60.471  20.721  1.00  0.00    -0.006 C 
ATOM     18  C   UNL     1      11.832  59.591  21.241  1.00  0.00     0.008 C 
ATOM     19  C   UNL     1      12.395  61.594  19.848  1.00  0.00     0.008 C 
ENDBRANCH  12  17
ENDBRANCH  11  12
ENDBRANCH   1  11
TORSDOF 1
ENDMDL
MODEL 7
REMARK VINA RESULT:    -2.692      2.053      2.869
REMARK INTER + INTRA:          -4.423
REMARK INTER:                  -4.328
REMARK INTRA:                  -0.095
REMARK UNBOUND:                -0.315
REMARK SMILES CC1=CCC[C@H](C)C(=O)C[C@@H](C(C)C)C(=O)C1
REMARK SMILES IDX 8 1 9 2 6 3 7 4 5 5 4 6 3 7 2 8 1 9 10 11 11 12 15 13 16 14
REMARK SMILES IDX 17 15 12 17 13 18 14 19
REMARK H PARENT
REMARK Flexibility Score: 70.00
ROOT
ATOM      1  C   UNL     1      15.193  54.221  34.300  1.00  0.00     0.136 C 
ATOM      2  O   UNL     1      14.093  54.686  34.561  1.00  0.00    -0.299 OA
ENDROOT
BRANCH   1   3
ATOM      3  C   UNL     1      16.246  54.096  35.388  1.00  0.00     0.053 C 
ATOM      4  C   UNL     1      16.260  52.699  36.028  1.00  0.00     0.016 C 
BRANCH   3   5
ATOM      5  C   UNL     1      17.642  54.502  34.872  1.00  0.00     0.015 C 
BRANCH   5   6
ATOM      6  C   UNL     1      18.689  53.370  34.941  1.00  0.00     0.028 C 
BRANCH   6   7
ATOM      7  C   UNL     1      19.596  53.392  33.737  1.00  0.00    -0.028 C 
ATOM      8  C   UNL     1      19.448  52.606  32.644  1.00  0.00    -0.070 CG0
ATOM      9  C   UNL     1      20.421  52.784  31.507  1.00  0.00     0.039 C 
ATOM     10  G   UNL     1      18.357  51.552  32.519  1.00  0.00     0.000 G0
ENDBRANCH   6   7
ENDBRANCH   5   6
ENDBRANCH   3   5
ENDBRANCH   1   3
BRANCH   1  11
ATOM     11  C   UNL     1      15.482  53.774  32.887  1.00  0.00     0.087 C 
BRANCH  11  12
ATOM     12  C   UNL     1      15.844  52.268  32.812  1.00  0.00     0.066 C 
BRANCH  12  13
ATOM     13  C   UNL     1      17.072  52.086  31.933  1.00  0.00     0.140 C 
ATOM     14  O   UNL     1      16.989  52.306  30.731  1.00  0.00    -0.299 OA
BRANCH  13  15
ATOM     15  C   UNL     1      18.354  51.537  32.506  1.00  0.00     0.106 CG0
ATOM     16  G   UNL     1      19.433  52.601  32.648  1.00  0.00     0.000 G0
ENDBRANCH  13  15
ENDBRANCH  12  13
BRANCH  12  17
ATOM     17  C   UNL     1      14.662  51.387  32.291  1.00  0.00    -0.006 C 
ATOM     18  C   UNL     1      13.834  50.818  33.460  1.00  0.00     0.008 C 
ATOM     19  C   UNL     1      13.719  52.165  31.353  1.00  0.00     0.008 C 
ENDBRANCH  12  17
ENDBRANCH  11  12
ENDBRANCH   1  11
TORSDOF 1
ENDMDL
MODEL 8
REMARK VINA RESULT:    -2.636      2.692      4.999
REMARK INTER + INTRA:          -4.338
REMARK INTER:                  -4.134
REMARK INTRA:                  -0.204
REMARK UNBOUND:                -0.315
REMARK SMILES CC1=CCC[C@H](C)C(=O)C[C@@H](C(C)C)C(=O)C1
REMARK SMILES IDX 8 1 9 2 6 3 7 4 5 5 4 6 3 7 2 8 1 9 10 11 11 12 15 13 16 14
REMARK SMILES IDX 17 15 12 17 13 18 14 19
REMARK H PARENT
REMARK Flexibility Score: 70.00
ROOT
ATOM      1  C   UNL     1      17.552  52.542  35.030  1.00  0.00     0.136 C 
ATOM      2  O   UNL     1      18.305  53.075  35.833  1.00  0.00    -0.299 OA
ENDROOT
BRANCH   1   3
ATOM      3  C   UNL     1      16.051  52.577  35.254  1.00  0.00     0.053 C 
ATOM      4  C   UNL     1      15.655  52.040  36.638  1.00  0.00     0.016 C 
BRANCH   3   5
ATOM      5  C   UNL     1      15.474  53.985  35.002  1.00  0.00     0.015 C 
BRANCH   5   6
ATOM      6  C   UNL     1      14.700  54.118  33.673  1.00  0.00     0.028 C 
BRANCH   6   7
ATOM      7  C   UNL     1      14.109  52.796  33.252  1.00  0.00    -0.028 C 
ATOM      8  C   UNL     1      14.529  52.065  32.192  1.00  0.00    -0.070 CG0
ATOM      9  C   UNL     1      13.856  50.742  31.933  1.00  0.00     0.039 C 
ATOM     10  G   UNL     1      15.635  52.523  31.252  1.00  0.00     0.000 G0
ENDBRANCH   6   7
ENDBRANCH   5   6
ENDBRANCH   3   5
ENDBRANCH   1   3
BRANCH   1  11
ATOM     11  C   UNL     1      18.141  51.856  33.821  1.00  0.00     0.087 C 
BRANCH  11  12
ATOM     12  C   UNL     1      17.931  52.676  32.522  1.00  0.00     0.066 C 
BRANCH  12  13
ATOM     13  C   UNL     1      16.982  51.928  31.599  1.00  0.00     0.140 C 
ATOM     14  O   UNL     1      17.351  50.884  31.074  1.00  0.00    -0.299 OA
BRANCH  13  15
ATOM     15  C   UNL     1      15.639  52.512  31.238  1.00  0.00     0.106 CG0
ATOM     16  G   UNL     1      14.536  52.070  32.190  1.00  0.00     0.000 G0
ENDBRANCH  13  15
ENDBRANCH  12  13
BRANCH  12  17
ATOM     17  C   UNL     1      19.272  52.997  31.787  1.00  0.00    -0.006 C 
ATOM     18  C   UNL     1      19.798  54.395  32.171  1.00  0.00     0.008 C 
ATOM     19  C   UNL     1      20.370  51.959  32.088  1.00  0.00     0.008 C 
ENDBRANCH  12  17
ENDBRANCH  11  12
ENDBRANCH   1  11
TORSDOF 1
ENDMDL
MODEL 9
REMARK VINA RESULT:    -2.610     12.042     13.679
REMARK INTER + INTRA:          -4.299
REMARK INTER:                  -4.146
REMARK INTRA:                  -0.152
REMARK UNBOUND:                -0.315
REMARK SMILES CC1=CCC[C@H](C)C(=O)C[C@@H](C(C)C)C(=O)C1
REMARK SMILES IDX 8 1 9 2 6 3 7 4 5 5 4 6 3 7 2 8 1 9 10 11 11 12 15 13 16 14
REMARK SMILES IDX 17 15 12 17 13 18 14 19
REMARK H PARENT
REMARK Flexibility Score: 70.00
ROOT
ATOM      1  C   UNL     1      15.398  62.296  23.496  1.00  0.00     0.136 C 
ATOM      2  O   UNL     1      14.467  62.776  24.127  1.00  0.00    -0.299 OA
ENDROOT
BRANCH   1   3
ATOM      3  C   UNL     1      16.721  62.009  24.186  1.00  0.00     0.053 C 
ATOM      4  C   UNL     1      17.321  63.263  24.840  1.00  0.00     0.016 C 
BRANCH   3   5
ATOM      5  C   UNL     1      16.593  60.846  25.191  1.00  0.00     0.015 C 
BRANCH   5   6
ATOM      6  C   UNL     1      16.851  59.454  24.576  1.00  0.00     0.028 C 
BRANCH   6   7
ATOM      7  C   UNL     1      18.161  59.422  23.831  1.00  0.00    -0.028 C 
ATOM      8  C   UNL     1      18.293  59.149  22.510  1.00  0.00    -0.070 CG0
ATOM      9  C   UNL     1      19.675  59.199  21.911  1.00  0.00     0.039 C 
ATOM     10  G   UNL     1      17.116  58.787  21.615  1.00  0.00     0.000 G0
ENDBRANCH   6   7
ENDBRANCH   5   6
ENDBRANCH   3   5
ENDBRANCH   1   3
BRANCH   1  11
ATOM     11  C   UNL     1      15.208  61.995  22.029  1.00  0.00     0.087 C 
BRANCH  11  12
ATOM     12  C   UNL     1      15.103  60.472  21.753  1.00  0.00     0.066 C 
BRANCH  12  13
ATOM     13  C   UNL     1      16.381  59.990  21.084  1.00  0.00     0.140 C 
ATOM     14  O   UNL     1      16.768  60.538  20.059  1.00  0.00    -0.299 OA
BRANCH  13  15
ATOM     15  C   UNL     1      17.114  58.780  21.608  1.00  0.00     0.106 CG0
ATOM     16  G   UNL     1      18.288  59.151  22.503  1.00  0.00     0.000 G0
ENDBRANCH  13  15
ENDBRANCH  12  13
BRANCH  12  17
ATOM     17  C   UNL     1      13.856  60.100  20.886  1.00  0.00    -0.006 C 
ATOM     18  C   UNL     1      12.886  59.191  21.667  1.00  0.00     0.008 C 
ATOM     19  C   UNL     1      13.085  61.342  20.402  1.00  0.00     0.008 C 
ENDBRANCH  12  17
ENDBRANCH  11  12
ENDBRANCH   1  11
TORSDOF 1
ENDMDL
