MODEL 1
REMARK VINA RESULT:    -4.595      0.000      0.000
REMARK INTER + INTRA:         -16.790
REMARK INTER:                 -12.116
REMARK INTRA:                  -4.673
REMARK UNBOUND:                -4.673
REMARK SMILES CCCCCCCCCCCCCCCCCCCCCCCCCCCCCC(=O)[O-]
REMARK SMILES IDX 16 1 17 2 18 3 19 4 20 5 21 6 22 7 23 8 24 9 25 10 26 11
REMARK SMILES IDX 27 12 28 13 29 14 30 15 31 16 32 17 15 18 14 19 13 20 12 21
REMARK SMILES IDX 11 22 10 23 9 24 8 25 7 26 6 27 5 28 4 29 3 30 2 31 1 32
REMARK H PARENT
REMARK Flexibility Score: inf
ROOT
ATOM      1  C   UNL     1      -3.657  11.340  -6.072  1.00  0.00     0.000 C 
ENDROOT
BRANCH   1   2
ATOM      2  C   UNL     1      -2.892  10.766  -7.281  1.00  0.00     0.000 C 
BRANCH   2   3
ATOM      3  C   UNL     1      -2.204  11.812  -8.185  1.00  0.00     0.000 C 
BRANCH   3   4
ATOM      4  C   UNL     1      -0.929  12.448  -7.597  1.00  0.00     0.000 C 
BRANCH   4   5
ATOM      5  C   UNL     1       0.387  11.855  -8.134  1.00  0.00     0.000 C 
BRANCH   5   6
ATOM      6  C   UNL     1       0.477  10.331  -7.930  1.00  0.00     0.000 C 
BRANCH   6   7
ATOM      7  C   UNL     1       1.936   9.826  -7.905  1.00  0.00     0.000 C 
BRANCH   7   8
ATOM      8  C   UNL     1       2.972  10.930  -7.616  1.00  0.00     0.000 C 
BRANCH   8   9
ATOM      9  C   UNL     1       3.346  11.096  -6.133  1.00  0.00     0.000 C 
BRANCH   9  10
ATOM     10  C   UNL     1       2.580  12.236  -5.448  1.00  0.00     0.000 C 
BRANCH  10  11
ATOM     11  C   UNL     1       1.447  11.684  -4.573  1.00  0.00     0.000 C 
BRANCH  11  12
ATOM     12  C   UNL     1       0.442  12.769  -4.152  1.00  0.00     0.000 C 
BRANCH  12  13
ATOM     13  C   UNL     1       0.850  14.169  -4.634  1.00  0.00     0.006 C 
BRANCH  13  14
ATOM     14  C   UNL     1       0.279  15.253  -3.716  1.00  0.00     0.053 C 
BRANCH  14  15
ATOM     15  C   UNL     1      -0.986  15.812  -4.287  1.00  0.00     0.041 C 
ATOM     16  O   UNL     1      -1.498  15.296  -5.315  1.00  0.00    -0.550 OA
ATOM     17  O   UNL     1      -1.624  16.873  -3.657  1.00  0.00    -0.550 OA
ENDBRANCH  14  15
ENDBRANCH  13  14
ENDBRANCH  12  13
ENDBRANCH  11  12
ENDBRANCH  10  11
ENDBRANCH   9  10
ENDBRANCH   8   9
ENDBRANCH   7   8
ENDBRANCH   6   7
ENDBRANCH   5   6
ENDBRANCH   4   5
ENDBRANCH   3   4
ENDBRANCH   2   3
ENDBRANCH   1   2
BRANCH   1  18
ATOM     18  C   UNL     1      -4.307  12.715  -6.305  1.00  0.00     0.000 C 
BRANCH  18  19
ATOM     19  C   UNL     1      -5.846  12.663  -6.287  1.00  0.00     0.000 C 
BRANCH  19  20
ATOM     20  C   UNL     1      -6.463  13.151  -7.616  1.00  0.00     0.000 C 
BRANCH  20  21
ATOM     21  C   UNL     1      -6.628  12.036  -8.661  1.00  0.00     0.000 C 
BRANCH  21  22
ATOM     22  C   UNL     1      -5.433  11.942  -9.626  1.00  0.00     0.000 C 
BRANCH  22  23
ATOM     23  C   UNL     1      -5.572  10.772 -10.615  1.00  0.00     0.000 C 
BRANCH  23  24
ATOM     24  C   UNL     1      -4.346   9.843 -10.607  1.00  0.00    -0.000 C 
BRANCH  24  25
ATOM     25  C   UNL     1      -4.604   8.537  -9.837  1.00  0.00    -0.000 C 
BRANCH  25  26
ATOM     26  C   UNL     1      -6.056   8.050  -9.973  1.00  0.00    -0.000 C 
BRANCH  26  27
ATOM     27  C   UNL     1      -6.833   8.148  -8.642  1.00  0.00    -0.000 C 
BRANCH  27  28
ATOM     28  C   UNL     1      -5.955   8.533  -7.436  1.00  0.00    -0.000 C 
BRANCH  28  29
ATOM     29  C   UNL     1      -6.702   9.245  -6.293  1.00  0.00    -0.000 C 
BRANCH  29  30
ATOM     30  C   UNL     1      -6.476   8.634  -4.896  1.00  0.00    -0.000 C 
BRANCH  30  31
ATOM     31  C   UNL     1      -5.246   7.705  -4.820  1.00  0.00    -0.003 C 
ATOM     32  C   UNL     1      -4.117   8.302  -3.982  1.00  0.00     0.004 C 
ENDBRANCH  30  31
ENDBRANCH  29  30
ENDBRANCH  28  29
ENDBRANCH  27  28
ENDBRANCH  26  27
ENDBRANCH  25  26
ENDBRANCH  24  25
ENDBRANCH  23  24
ENDBRANCH  22  23
ENDBRANCH  21  22
ENDBRANCH  20  21
ENDBRANCH  19  20
ENDBRANCH  18  19
ENDBRANCH   1  18
TORSDOF 28
ENDMDL
MODEL 2
REMARK VINA RESULT:    -4.400      3.064      5.425
REMARK INTER + INTRA:         -16.275
REMARK INTER:                 -11.556
REMARK INTRA:                  -4.718
REMARK UNBOUND:                -4.673
REMARK SMILES CCCCCCCCCCCCCCCCCCCCCCCCCCCCCC(=O)[O-]
REMARK SMILES IDX 16 1 17 2 18 3 19 4 20 5 21 6 22 7 23 8 24 9 25 10 26 11
REMARK SMILES IDX 27 12 28 13 29 14 30 15 31 16 32 17 15 18 14 19 13 20 12 21
REMARK SMILES IDX 11 22 10 23 9 24 8 25 7 26 6 27 5 28 4 29 3 30 2 31 1 32
REMARK H PARENT
REMARK Flexibility Score: inf
ROOT
ATOM      1  C   UNL     1      -3.089   9.937  -4.933  1.00  0.00     0.000 C 
ENDROOT
BRANCH   1   2
ATOM      2  C   UNL     1      -3.080  10.281  -3.430  1.00  0.00     0.000 C 
BRANCH   2   3
ATOM      3  C   UNL     1      -2.046  11.345  -3.002  1.00  0.00     0.000 C 
BRANCH   3   4
ATOM      4  C   UNL     1      -2.578  12.791  -2.951  1.00  0.00     0.000 C 
BRANCH   4   5
ATOM      5  C   UNL     1      -2.120  13.682  -4.120  1.00  0.00     0.000 C 
BRANCH   5   6
ATOM      6  C   UNL     1      -0.919  13.090  -4.882  1.00  0.00     0.000 C 
BRANCH   6   7
ATOM      7  C   UNL     1      -0.814  13.629  -6.325  1.00  0.00     0.000 C 
BRANCH   7   8
ATOM      8  C   UNL     1      -1.738  12.910  -7.327  1.00  0.00     0.000 C 
BRANCH   8   9
ATOM      9  C   UNL     1      -1.038  11.875  -8.225  1.00  0.00     0.000 C 
BRANCH   9  10
ATOM     10  C   UNL     1      -0.792  10.536  -7.514  1.00  0.00     0.000 C 
BRANCH  10  11
ATOM     11  C   UNL     1       0.638  10.467  -6.961  1.00  0.00     0.000 C 
BRANCH  11  12
ATOM     12  C   UNL     1       1.630  11.307  -7.781  1.00  0.00     0.000 C 
BRANCH  12  13
ATOM     13  C   UNL     1       2.937  10.556  -8.077  1.00  0.00     0.006 C 
BRANCH  13  14
ATOM     14  C   UNL     1       2.727   9.497  -9.164  1.00  0.00     0.053 C 
BRANCH  14  15
ATOM     15  C   UNL     1       3.716   9.681 -10.272  1.00  0.00     0.041 C 
ATOM     16  O   UNL     1       3.651   8.962 -11.303  1.00  0.00    -0.550 OA
ATOM     17  O   UNL     1       4.680  10.677 -10.185  1.00  0.00    -0.550 OA
ENDBRANCH  14  15
ENDBRANCH  13  14
ENDBRANCH  12  13
ENDBRANCH  11  12
ENDBRANCH  10  11
ENDBRANCH   9  10
ENDBRANCH   8   9
ENDBRANCH   7   8
ENDBRANCH   6   7
ENDBRANCH   5   6
ENDBRANCH   4   5
ENDBRANCH   3   4
ENDBRANCH   2   3
ENDBRANCH   1   2
BRANCH   1  18
ATOM     18  C   UNL     1      -4.438  10.152  -5.643  1.00  0.00     0.000 C 
BRANCH  18  19
ATOM     19  C   UNL     1      -5.581  10.492  -4.669  1.00  0.00     0.000 C 
BRANCH  19  20
ATOM     20  C   UNL     1      -5.989  11.979  -4.743  1.00  0.00     0.000 C 
BRANCH  20  21
ATOM     21  C   UNL     1      -5.383  12.722  -5.945  1.00  0.00     0.000 C 
BRANCH  21  22
ATOM     22  C   UNL     1      -6.410  13.597  -6.684  1.00  0.00     0.000 C 
BRANCH  22  23
ATOM     23  C   UNL     1      -6.542  13.217  -8.168  1.00  0.00     0.000 C 
BRANCH  23  24
ATOM     24  C   UNL     1      -7.120  11.805  -8.367  1.00  0.00    -0.000 C 
BRANCH  24  25
ATOM     25  C   UNL     1      -6.210  10.913  -9.227  1.00  0.00    -0.000 C 
BRANCH  25  26
ATOM     26  C   UNL     1      -4.810  11.518  -9.427  1.00  0.00    -0.000 C 
BRANCH  26  27
ATOM     27  C   UNL     1      -3.908  10.628 -10.308  1.00  0.00    -0.000 C 
BRANCH  27  28
ATOM     28  C   UNL     1      -3.660   9.223  -9.725  1.00  0.00    -0.000 C 
BRANCH  28  29
ATOM     29  C   UNL     1      -4.058   8.059 -10.651  1.00  0.00    -0.000 C 
BRANCH  29  30
ATOM     30  C   UNL     1      -5.476   7.503 -10.417  1.00  0.00    -0.000 C 
BRANCH  30  31
ATOM     31  C   UNL     1      -5.782   6.229 -11.233  1.00  0.00    -0.003 C 
ATOM     32  C   UNL     1      -7.043   5.516 -10.748  1.00  0.00     0.004 C 
ENDBRANCH  30  31
ENDBRANCH  29  30
ENDBRANCH  28  29
ENDBRANCH  27  28
ENDBRANCH  26  27
ENDBRANCH  25  26
ENDBRANCH  24  25
ENDBRANCH  23  24
ENDBRANCH  22  23
ENDBRANCH  21  22
ENDBRANCH  20  21
ENDBRANCH  19  20
ENDBRANCH  18  19
ENDBRANCH   1  18
TORSDOF 28
ENDMDL
MODEL 3
REMARK VINA RESULT:    -4.394      1.765      4.981
REMARK INTER + INTRA:         -16.260
REMARK INTER:                 -12.194
REMARK INTRA:                  -4.066
REMARK UNBOUND:                -4.673
REMARK SMILES CCCCCCCCCCCCCCCCCCCCCCCCCCCCCC(=O)[O-]
REMARK SMILES IDX 16 1 17 2 18 3 19 4 20 5 21 6 22 7 23 8 24 9 25 10 26 11
REMARK SMILES IDX 27 12 28 13 29 14 30 15 31 16 32 17 15 18 14 19 13 20 12 21
REMARK SMILES IDX 11 22 10 23 9 24 8 25 7 26 6 27 5 28 4 29 3 30 2 31 1 32
REMARK H PARENT
REMARK Flexibility Score: inf
ROOT
ATOM      1  C   UNL     1      -4.839  10.811 -10.789  1.00  0.00     0.000 C 
ENDROOT
BRANCH   1   2
ATOM      2  C   UNL     1      -6.244  11.390 -10.532  1.00  0.00     0.000 C 
BRANCH   2   3
ATOM      3  C   UNL     1      -6.905  10.958  -9.205  1.00  0.00     0.000 C 
BRANCH   3   4
ATOM      4  C   UNL     1      -6.922  12.036  -8.102  1.00  0.00     0.000 C 
BRANCH   4   5
ATOM      5  C   UNL     1      -5.706  12.981  -8.114  1.00  0.00     0.000 C 
BRANCH   5   6
ATOM      6  C   UNL     1      -5.029  13.094  -6.736  1.00  0.00     0.000 C 
BRANCH   6   7
ATOM      7  C   UNL     1      -3.781  12.193  -6.617  1.00  0.00     0.000 C 
BRANCH   7   8
ATOM      8  C   UNL     1      -2.487  12.850  -7.137  1.00  0.00     0.000 C 
BRANCH   8   9
ATOM      9  C   UNL     1      -1.912  12.223  -8.419  1.00  0.00     0.000 C 
BRANCH   9  10
ATOM     10  C   UNL     1      -0.851  11.150  -8.135  1.00  0.00     0.000 C 
BRANCH  10  11
ATOM     11  C   UNL     1       0.535  11.787  -7.959  1.00  0.00     0.000 C 
BRANCH  11  12
ATOM     12  C   UNL     1       1.484  10.915  -7.122  1.00  0.00     0.000 C 
BRANCH  12  13
ATOM     13  C   UNL     1       1.992  11.636  -5.864  1.00  0.00     0.006 C 
BRANCH  13  14
ATOM     14  C   UNL     1       0.824  12.149  -5.017  1.00  0.00     0.053 C 
BRANCH  14  15
ATOM     15  C   UNL     1       0.946  13.624  -4.795  1.00  0.00     0.041 C 
ATOM     16  O   UNL     1       2.081  14.165  -4.747  1.00  0.00    -0.550 OA
ATOM     17  O   UNL     1      -0.197  14.408  -4.688  1.00  0.00    -0.550 OA
ENDBRANCH  14  15
ENDBRANCH  13  14
ENDBRANCH  12  13
ENDBRANCH  11  12
ENDBRANCH  10  11
ENDBRANCH   9  10
ENDBRANCH   8   9
ENDBRANCH   7   8
ENDBRANCH   6   7
ENDBRANCH   5   6
ENDBRANCH   4   5
ENDBRANCH   3   4
ENDBRANCH   2   3
ENDBRANCH   1   2
BRANCH   1  18
ATOM     18  C   UNL     1      -4.275   9.940  -9.652  1.00  0.00     0.000 C 
BRANCH  18  19
ATOM     19  C   UNL     1      -3.838   8.543 -10.127  1.00  0.00     0.000 C 
BRANCH  19  20
ATOM     20  C   UNL     1      -5.020   7.716 -10.678  1.00  0.00     0.000 C 
BRANCH  20  21
ATOM     21  C   UNL     1      -6.120   7.450  -9.638  1.00  0.00     0.000 C 
BRANCH  21  22
ATOM     22  C   UNL     1      -5.577   7.379  -8.200  1.00  0.00     0.000 C 
BRANCH  22  23
ATOM     23  C   UNL     1      -6.383   8.256  -7.227  1.00  0.00     0.000 C 
BRANCH  23  24
ATOM     24  C   UNL     1      -5.485   9.030  -6.247  1.00  0.00    -0.000 C 
BRANCH  24  25
ATOM     25  C   UNL     1      -6.293   9.788  -5.182  1.00  0.00    -0.000 C 
BRANCH  25  26
ATOM     26  C   UNL     1      -5.676   9.669  -3.778  1.00  0.00    -0.000 C 
BRANCH  26  27
ATOM     27  C   UNL     1      -4.133   9.702  -3.812  1.00  0.00    -0.000 C 
BRANCH  27  28
ATOM     28  C   UNL     1      -3.468   8.610  -2.953  1.00  0.00    -0.000 C 
BRANCH  28  29
ATOM     29  C   UNL     1      -3.266   7.259  -3.666  1.00  0.00    -0.000 C 
BRANCH  29  30
ATOM     30  C   UNL     1      -1.981   6.506  -3.269  1.00  0.00    -0.000 C 
BRANCH  30  31
ATOM     31  C   UNL     1      -1.805   5.158  -4.000  1.00  0.00    -0.003 C 
ATOM     32  C   UNL     1      -0.351   4.692  -4.018  1.00  0.00     0.004 C 
ENDBRANCH  30  31
ENDBRANCH  29  30
ENDBRANCH  28  29
ENDBRANCH  27  28
ENDBRANCH  26  27
ENDBRANCH  25  26
ENDBRANCH  24  25
ENDBRANCH  23  24
ENDBRANCH  22  23
ENDBRANCH  21  22
ENDBRANCH  20  21
ENDBRANCH  19  20
ENDBRANCH  18  19
ENDBRANCH   1  18
TORSDOF 28
ENDMDL
MODEL 4
REMARK VINA RESULT:    -4.331      0.959      2.735
REMARK INTER + INTRA:         -16.095
REMARK INTER:                 -11.630
REMARK INTRA:                  -4.465
REMARK UNBOUND:                -4.673
REMARK SMILES CCCCCCCCCCCCCCCCCCCCCCCCCCCCCC(=O)[O-]
REMARK SMILES IDX 16 1 17 2 18 3 19 4 20 5 21 6 22 7 23 8 24 9 25 10 26 11
REMARK SMILES IDX 27 12 28 13 29 14 30 15 31 16 32 17 15 18 14 19 13 20 12 21
REMARK SMILES IDX 11 22 10 23 9 24 8 25 7 26 6 27 5 28 4 29 3 30 2 31 1 32
REMARK H PARENT
REMARK Flexibility Score: inf
ROOT
ATOM      1  C   UNL     1      -2.854  10.440  -8.038  1.00  0.00     0.000 C 
ENDROOT
BRANCH   1   2
ATOM      2  C   UNL     1      -2.594  11.680  -8.918  1.00  0.00     0.000 C 
BRANCH   2   3
ATOM      3  C   UNL     1      -1.838  12.835  -8.225  1.00  0.00     0.000 C 
BRANCH   3   4
ATOM      4  C   UNL     1      -0.642  12.403  -7.352  1.00  0.00     0.000 C 
BRANCH   4   5
ATOM      5  C   UNL     1       0.561  11.856  -8.143  1.00  0.00     0.000 C 
BRANCH   5   6
ATOM      6  C   UNL     1       0.608  10.317  -8.161  1.00  0.00     0.000 C 
BRANCH   6   7
ATOM      7  C   UNL     1       1.874   9.758  -7.476  1.00  0.00     0.000 C 
BRANCH   7   8
ATOM      8  C   UNL     1       3.013  10.788  -7.340  1.00  0.00     0.000 C 
BRANCH   8   9
ATOM      9  C   UNL     1       3.385  11.154  -5.893  1.00  0.00     0.000 C 
BRANCH   9  10
ATOM     10  C   UNL     1       2.583  12.347  -5.354  1.00  0.00     0.000 C 
BRANCH  10  11
ATOM     11  C   UNL     1       1.402  11.869  -4.499  1.00  0.00     0.000 C 
BRANCH  11  12
ATOM     12  C   UNL     1       0.787  12.998  -3.656  1.00  0.00     0.000 C 
BRANCH  12  13
ATOM     13  C   UNL     1       0.684  14.323  -4.428  1.00  0.00     0.006 C 
BRANCH  13  14
ATOM     14  C   UNL     1       0.004  15.400  -3.579  1.00  0.00     0.053 C 
BRANCH  14  15
ATOM     15  C   UNL     1      -1.069  16.086  -4.365  1.00  0.00     0.041 C 
ATOM     16  O   UNL     1      -1.550  15.539  -5.392  1.00  0.00    -0.550 OA
ATOM     17  O   UNL     1      -1.570  17.309  -3.937  1.00  0.00    -0.550 OA
ENDBRANCH  14  15
ENDBRANCH  13  14
ENDBRANCH  12  13
ENDBRANCH  11  12
ENDBRANCH  10  11
ENDBRANCH   9  10
ENDBRANCH   8   9
ENDBRANCH   7   8
ENDBRANCH   6   7
ENDBRANCH   5   6
ENDBRANCH   4   5
ENDBRANCH   3   4
ENDBRANCH   2   3
ENDBRANCH   1   2
BRANCH   1  18
ATOM     18  C   UNL     1      -3.919  10.630  -6.942  1.00  0.00     0.000 C 
BRANCH  18  19
ATOM     19  C   UNL     1      -3.313  10.761  -5.533  1.00  0.00     0.000 C 
BRANCH  19  20
ATOM     20  C   UNL     1      -4.038  11.824  -4.681  1.00  0.00     0.000 C 
BRANCH  20  21
ATOM     21  C   UNL     1      -5.492  11.455  -4.346  1.00  0.00     0.000 C 
BRANCH  21  22
ATOM     22  C   UNL     1      -6.503  12.505  -4.838  1.00  0.00     0.000 C 
BRANCH  22  23
ATOM     23  C   UNL     1      -6.819  12.356  -6.336  1.00  0.00     0.000 C 
BRANCH  23  24
ATOM     24  C   UNL     1      -5.982  13.302  -7.213  1.00  0.00    -0.000 C 
BRANCH  24  25
ATOM     25  C   UNL     1      -6.223  13.079  -8.715  1.00  0.00    -0.000 C 
BRANCH  25  26
ATOM     26  C   UNL     1      -6.728  11.660  -9.026  1.00  0.00    -0.000 C 
BRANCH  26  27
ATOM     27  C   UNL     1      -6.222  11.144 -10.389  1.00  0.00    -0.000 C 
BRANCH  27  28
ATOM     28  C   UNL     1      -5.541   9.763 -10.318  1.00  0.00    -0.000 C 
BRANCH  28  29
ATOM     29  C   UNL     1      -6.429   8.631  -9.767  1.00  0.00    -0.000 C 
BRANCH  29  30
ATOM     30  C   UNL     1      -5.940   8.014  -8.443  1.00  0.00    -0.000 C 
BRANCH  30  31
ATOM     31  C   UNL     1      -6.590   8.643  -7.192  1.00  0.00    -0.003 C 
ATOM     32  C   UNL     1      -6.015   8.081  -5.893  1.00  0.00     0.004 C 
ENDBRANCH  30  31
ENDBRANCH  29  30
ENDBRANCH  28  29
ENDBRANCH  27  28
ENDBRANCH  26  27
ENDBRANCH  25  26
ENDBRANCH  24  25
ENDBRANCH  23  24
ENDBRANCH  22  23
ENDBRANCH  21  22
ENDBRANCH  20  21
ENDBRANCH  19  20
ENDBRANCH  18  19
ENDBRANCH   1  18
TORSDOF 28
ENDMDL
MODEL 5
REMARK VINA RESULT:    -4.329      2.298      4.956
REMARK INTER + INTRA:         -16.089
REMARK INTER:                 -11.886
REMARK INTRA:                  -4.202
REMARK UNBOUND:                -4.673
REMARK SMILES CCCCCCCCCCCCCCCCCCCCCCCCCCCCCC(=O)[O-]
REMARK SMILES IDX 16 1 17 2 18 3 19 4 20 5 21 6 22 7 23 8 24 9 25 10 26 11
REMARK SMILES IDX 27 12 28 13 29 14 30 15 31 16 32 17 15 18 14 19 13 20 12 21
REMARK SMILES IDX 11 22 10 23 9 24 8 25 7 26 6 27 5 28 4 29 3 30 2 31 1 32
REMARK H PARENT
REMARK Flexibility Score: inf
ROOT
ATOM      1  C   UNL     1      -1.532  12.224  -8.175  1.00  0.00     0.000 C 
ENDROOT
BRANCH   1   2
ATOM      2  C   UNL     1      -0.164  12.607  -7.576  1.00  0.00     0.000 C 
BRANCH   2   3
ATOM      3  C   UNL     1       0.988  11.624  -7.877  1.00  0.00     0.000 C 
BRANCH   3   4
ATOM      4  C   UNL     1       1.933  11.341  -6.692  1.00  0.00     0.000 C 
BRANCH   4   5
ATOM      5  C   UNL     1       1.917  12.418  -5.591  1.00  0.00     0.000 C 
BRANCH   5   6
ATOM      6  C   UNL     1       1.224  11.939  -4.303  1.00  0.00     0.000 C 
BRANCH   6   7
ATOM      7  C   UNL     1       0.410  13.059  -3.620  1.00  0.00     0.000 C 
BRANCH   7   8
ATOM      8  C   UNL     1      -1.027  12.645  -3.247  1.00  0.00     0.000 C 
BRANCH   8   9
ATOM      9  C   UNL     1      -1.934  12.304  -4.442  1.00  0.00     0.000 C 
BRANCH   9  10
ATOM     10  C   UNL     1      -2.806  11.065  -4.195  1.00  0.00     0.000 C 
BRANCH  10  11
ATOM     11  C   UNL     1      -3.989  11.026  -5.172  1.00  0.00     0.000 C 
BRANCH  11  12
ATOM     12  C   UNL     1      -5.307  11.478  -4.523  1.00  0.00     0.000 C 
BRANCH  12  13
ATOM     13  C   UNL     1      -6.338  11.960  -5.555  1.00  0.00     0.006 C 
BRANCH  13  14
ATOM     14  C   UNL     1      -5.769  13.095  -6.410  1.00  0.00     0.053 C 
BRANCH  14  15
ATOM     15  C   UNL     1      -5.897  12.771  -7.865  1.00  0.00     0.041 C 
ATOM     16  O   UNL     1      -6.745  11.925  -8.253  1.00  0.00    -0.550 OA
ATOM     17  O   UNL     1      -5.111  13.436  -8.798  1.00  0.00    -0.550 OA
ENDBRANCH  14  15
ENDBRANCH  13  14
ENDBRANCH  12  13
ENDBRANCH  11  12
ENDBRANCH  10  11
ENDBRANCH   9  10
ENDBRANCH   8   9
ENDBRANCH   7   8
ENDBRANCH   6   7
ENDBRANCH   5   6
ENDBRANCH   4   5
ENDBRANCH   3   4
ENDBRANCH   2   3
ENDBRANCH   1   2
BRANCH   1  18
ATOM     18  C   UNL     1      -1.824  10.713  -8.219  1.00  0.00     0.000 C 
BRANCH  18  19
ATOM     19  C   UNL     1      -3.290  10.395  -8.564  1.00  0.00     0.000 C 
BRANCH  19  20
ATOM     20  C   UNL     1      -3.581  10.541 -10.073  1.00  0.00     0.000 C 
BRANCH  20  21
ATOM     21  C   UNL     1      -4.220   9.291 -10.699  1.00  0.00     0.000 C 
BRANCH  21  22
ATOM     22  C   UNL     1      -4.479   8.176  -9.671  1.00  0.00     0.000 C 
BRANCH  22  23
ATOM     23  C   UNL     1      -5.979   7.906  -9.467  1.00  0.00     0.000 C 
BRANCH  23  24
ATOM     24  C   UNL     1      -6.501   8.454  -8.128  1.00  0.00    -0.000 C 
BRANCH  24  25
ATOM     25  C   UNL     1      -5.602   8.066  -6.943  1.00  0.00    -0.000 C 
BRANCH  25  26
ATOM     26  C   UNL     1      -6.299   8.263  -5.586  1.00  0.00    -0.000 C 
BRANCH  26  27
ATOM     27  C   UNL     1      -5.851   7.219  -4.541  1.00  0.00    -0.000 C 
BRANCH  27  28
ATOM     28  C   UNL     1      -4.416   7.434  -4.023  1.00  0.00    -0.000 C 
BRANCH  28  29
ATOM     29  C   UNL     1      -3.743   6.176  -3.442  1.00  0.00    -0.000 C 
BRANCH  29  30
ATOM     30  C   UNL     1      -2.203   6.213  -3.436  1.00  0.00    -0.000 C 
BRANCH  30  31
ATOM     31  C   UNL     1      -1.557   5.171  -4.374  1.00  0.00    -0.003 C 
ATOM     32  C   UNL     1      -0.202   4.688  -3.862  1.00  0.00     0.004 C 
ENDBRANCH  30  31
ENDBRANCH  29  30
ENDBRANCH  28  29
ENDBRANCH  27  28
ENDBRANCH  26  27
ENDBRANCH  25  26
ENDBRANCH  24  25
ENDBRANCH  23  24
ENDBRANCH  22  23
ENDBRANCH  21  22
ENDBRANCH  20  21
ENDBRANCH  19  20
ENDBRANCH  18  19
ENDBRANCH   1  18
TORSDOF 28
ENDMDL
MODEL 6
REMARK VINA RESULT:    -4.297      2.423      4.973
REMARK INTER + INTRA:         -16.004
REMARK INTER:                 -11.290
REMARK INTRA:                  -4.714
REMARK UNBOUND:                -4.673
REMARK SMILES CCCCCCCCCCCCCCCCCCCCCCCCCCCCCC(=O)[O-]
REMARK SMILES IDX 16 1 17 2 18 3 19 4 20 5 21 6 22 7 23 8 24 9 25 10 26 11
REMARK SMILES IDX 27 12 28 13 29 14 30 15 31 16 32 17 15 18 14 19 13 20 12 21
REMARK SMILES IDX 11 22 10 23 9 24 8 25 7 26 6 27 5 28 4 29 3 30 2 31 1 32
REMARK H PARENT
REMARK Flexibility Score: inf
ROOT
ATOM      1  C   UNL     1      -2.426  10.251  -9.072  1.00  0.00     0.000 C 
ENDROOT
BRANCH   1   2
ATOM      2  C   UNL     1      -1.962  11.693  -8.783  1.00  0.00     0.000 C 
BRANCH   2   3
ATOM      3  C   UNL     1      -1.913  12.086  -7.291  1.00  0.00     0.000 C 
BRANCH   3   4
ATOM      4  C   UNL     1      -1.546  10.942  -6.324  1.00  0.00     0.000 C 
BRANCH   4   5
ATOM      5  C   UNL     1      -2.636  10.604  -5.290  1.00  0.00     0.000 C 
BRANCH   5   6
ATOM      6  C   UNL     1      -2.239  11.006  -3.858  1.00  0.00     0.000 C 
BRANCH   6   7
ATOM      7  C   UNL     1      -2.389  12.522  -3.607  1.00  0.00     0.000 C 
BRANCH   7   8
ATOM      8  C   UNL     1      -1.143  13.174  -2.975  1.00  0.00     0.000 C 
BRANCH   8   9
ATOM      9  C   UNL     1      -0.529  14.324  -3.791  1.00  0.00     0.000 C 
BRANCH   9  10
ATOM     10  C   UNL     1       0.359  13.830  -4.943  1.00  0.00     0.000 C 
BRANCH  10  11
ATOM     11  C   UNL     1       1.223  12.644  -4.497  1.00  0.00     0.000 C 
BRANCH  11  12
ATOM     12  C   UNL     1       2.382  12.359  -5.465  1.00  0.00     0.000 C 
BRANCH  12  13
ATOM     13  C   UNL     1       1.928  11.608  -6.725  1.00  0.00     0.006 C 
BRANCH  13  14
ATOM     14  C   UNL     1       3.052  10.722  -7.270  1.00  0.00     0.053 C 
BRANCH  14  15
ATOM     15  C   UNL     1       2.578   9.946  -8.459  1.00  0.00     0.041 C 
ATOM     16  O   UNL     1       1.365   9.624  -8.562  1.00  0.00    -0.550 OA
ATOM     17  O   UNL     1       3.467   9.619  -9.475  1.00  0.00    -0.550 OA
ENDBRANCH  14  15
ENDBRANCH  13  14
ENDBRANCH  12  13
ENDBRANCH  11  12
ENDBRANCH  10  11
ENDBRANCH   9  10
ENDBRANCH   8   9
ENDBRANCH   7   8
ENDBRANCH   6   7
ENDBRANCH   5   6
ENDBRANCH   4   5
ENDBRANCH   3   4
ENDBRANCH   2   3
ENDBRANCH   1   2
BRANCH   1  18
ATOM     18  C   UNL     1      -3.842  10.129  -9.664  1.00  0.00     0.000 C 
BRANCH  18  19
ATOM     19  C   UNL     1      -4.461  11.492 -10.024  1.00  0.00     0.000 C 
BRANCH  19  20
ATOM     20  C   UNL     1      -5.661  11.847  -9.120  1.00  0.00     0.000 C 
BRANCH  20  21
ATOM     21  C   UNL     1      -5.395  13.039  -8.187  1.00  0.00     0.000 C 
BRANCH  21  22
ATOM     22  C   UNL     1      -6.596  13.372  -7.287  1.00  0.00     0.000 C 
BRANCH  22  23
ATOM     23  C   UNL     1      -6.944  12.222  -6.327  1.00  0.00     0.000 C 
BRANCH  23  24
ATOM     24  C   UNL     1      -6.100  12.250  -5.041  1.00  0.00    -0.000 C 
BRANCH  24  25
ATOM     25  C   UNL     1      -6.621  11.274  -3.974  1.00  0.00    -0.000 C 
BRANCH  25  26
ATOM     26  C   UNL     1      -5.866   9.934  -3.983  1.00  0.00    -0.000 C 
BRANCH  26  27
ATOM     27  C   UNL     1      -6.468   8.929  -4.988  1.00  0.00    -0.000 C 
BRANCH  27  28
ATOM     28  C   UNL     1      -5.606   8.717  -6.248  1.00  0.00    -0.000 C 
BRANCH  28  29
ATOM     29  C   UNL     1      -6.401   8.552  -7.556  1.00  0.00    -0.000 C 
BRANCH  29  30
ATOM     30  C   UNL     1      -5.820   7.515  -8.538  1.00  0.00    -0.000 C 
BRANCH  30  31
ATOM     31  C   UNL     1      -6.528   7.500  -9.909  1.00  0.00    -0.003 C 
ATOM     32  C   UNL     1      -6.504   6.119 -10.561  1.00  0.00     0.004 C 
ENDBRANCH  30  31
ENDBRANCH  29  30
ENDBRANCH  28  29
ENDBRANCH  27  28
ENDBRANCH  26  27
ENDBRANCH  25  26
ENDBRANCH  24  25
ENDBRANCH  23  24
ENDBRANCH  22  23
ENDBRANCH  21  22
ENDBRANCH  20  21
ENDBRANCH  19  20
ENDBRANCH  18  19
ENDBRANCH   1  18
TORSDOF 28
ENDMDL
MODEL 7
REMARK VINA RESULT:    -4.282      2.433      4.786
REMARK INTER + INTRA:         -15.964
REMARK INTER:                 -12.047
REMARK INTRA:                  -3.918
REMARK UNBOUND:                -4.673
REMARK SMILES CCCCCCCCCCCCCCCCCCCCCCCCCCCCCC(=O)[O-]
REMARK SMILES IDX 16 1 17 2 18 3 19 4 20 5 21 6 22 7 23 8 24 9 25 10 26 11
REMARK SMILES IDX 27 12 28 13 29 14 30 15 31 16 32 17 15 18 14 19 13 20 12 21
REMARK SMILES IDX 11 22 10 23 9 24 8 25 7 26 6 27 5 28 4 29 3 30 2 31 1 32
REMARK H PARENT
REMARK Flexibility Score: inf
ROOT
ATOM      1  C   UNL     1      -2.983  11.090  -9.488  1.00  0.00     0.000 C 
ENDROOT
BRANCH   1   2
ATOM      2  C   UNL     1      -2.146  12.009  -8.577  1.00  0.00     0.000 C 
BRANCH   2   3
ATOM      3  C   UNL     1      -1.585  11.343  -7.301  1.00  0.00     0.000 C 
BRANCH   3   4
ATOM      4  C   UNL     1      -2.648  10.840  -6.304  1.00  0.00     0.000 C 
BRANCH   4   5
ATOM      5  C   UNL     1      -3.563  11.941  -5.737  1.00  0.00     0.000 C 
BRANCH   5   6
ATOM      6  C   UNL     1      -3.388  12.135  -4.220  1.00  0.00     0.000 C 
BRANCH   6   7
ATOM      7  C   UNL     1      -2.170  11.365  -3.664  1.00  0.00     0.000 C 
BRANCH   7   8
ATOM      8  C   UNL     1      -0.922  12.244  -3.453  1.00  0.00     0.000 C 
BRANCH   8   9
ATOM      9  C   UNL     1      -1.163  13.757  -3.592  1.00  0.00     0.000 C 
BRANCH   9  10
ATOM     10  C   UNL     1      -0.306  14.400  -4.692  1.00  0.00     0.000 C 
BRANCH  10  11
ATOM     11  C   UNL     1       0.455  13.330  -5.487  1.00  0.00     0.000 C 
BRANCH  11  12
ATOM     12  C   UNL     1       1.934  13.232  -5.080  1.00  0.00     0.000 C 
BRANCH  12  13
ATOM     13  C   UNL     1       2.658  12.063  -5.765  1.00  0.00     0.006 C 
BRANCH  13  14
ATOM     14  C   UNL     1       1.656  11.049  -6.323  1.00  0.00     0.053 C 
BRANCH  14  15
ATOM     15  C   UNL     1       2.152  10.477  -7.613  1.00  0.00     0.041 C 
ATOM     16  O   UNL     1       3.362  10.602  -7.937  1.00  0.00    -0.550 OA
ATOM     17  O   UNL     1       1.288   9.766  -8.437  1.00  0.00    -0.550 OA
ENDBRANCH  14  15
ENDBRANCH  13  14
ENDBRANCH  12  13
ENDBRANCH  11  12
ENDBRANCH  10  11
ENDBRANCH   9  10
ENDBRANCH   8   9
ENDBRANCH   7   8
ENDBRANCH   6   7
ENDBRANCH   5   6
ENDBRANCH   4   5
ENDBRANCH   3   4
ENDBRANCH   2   3
ENDBRANCH   1   2
BRANCH   1  18
ATOM     18  C   UNL     1      -4.507  11.279  -9.383  1.00  0.00     0.000 C 
BRANCH  18  19
ATOM     19  C   UNL     1      -5.274  10.632 -10.550  1.00  0.00     0.000 C 
BRANCH  19  20
ATOM     20  C   UNL     1      -4.727   9.233 -10.904  1.00  0.00     0.000 C 
BRANCH  20  21
ATOM     21  C   UNL     1      -4.930   8.193  -9.790  1.00  0.00     0.000 C 
BRANCH  21  22
ATOM     22  C   UNL     1      -6.410   7.830  -9.576  1.00  0.00     0.000 C 
BRANCH  22  23
ATOM     23  C   UNL     1      -6.998   8.491  -8.318  1.00  0.00     0.000 C 
BRANCH  23  24
ATOM     24  C   UNL     1      -6.023   8.467  -7.128  1.00  0.00    -0.000 C 
BRANCH  24  25
ATOM     25  C   UNL     1      -6.150   9.715  -6.239  1.00  0.00    -0.000 C 
BRANCH  25  26
ATOM     26  C   UNL     1      -6.087   9.380  -4.740  1.00  0.00    -0.000 C 
BRANCH  26  27
ATOM     27  C   UNL     1      -5.444   8.002  -4.475  1.00  0.00    -0.000 C 
BRANCH  27  28
ATOM     28  C   UNL     1      -4.162   8.067  -3.623  1.00  0.00    -0.000 C 
BRANCH  28  29
ATOM     29  C   UNL     1      -3.679   6.712  -3.074  1.00  0.00    -0.000 C 
BRANCH  29  30
ATOM     30  C   UNL     1      -2.150   6.520  -3.081  1.00  0.00    -0.000 C 
BRANCH  30  31
ATOM     31  C   UNL     1      -1.656   5.542  -4.169  1.00  0.00    -0.003 C 
ATOM     32  C   UNL     1      -0.722   4.472  -3.608  1.00  0.00     0.004 C 
ENDBRANCH  30  31
ENDBRANCH  29  30
ENDBRANCH  28  29
ENDBRANCH  27  28
ENDBRANCH  26  27
ENDBRANCH  25  26
ENDBRANCH  24  25
ENDBRANCH  23  24
ENDBRANCH  22  23
ENDBRANCH  21  22
ENDBRANCH  20  21
ENDBRANCH  19  20
ENDBRANCH  18  19
ENDBRANCH   1  18
TORSDOF 28
ENDMDL
MODEL 8
REMARK VINA RESULT:    -4.219      1.710      3.668
REMARK INTER + INTRA:         -15.797
REMARK INTER:                 -11.884
REMARK INTRA:                  -3.913
REMARK UNBOUND:                -4.673
REMARK SMILES CCCCCCCCCCCCCCCCCCCCCCCCCCCCCC(=O)[O-]
REMARK SMILES IDX 16 1 17 2 18 3 19 4 20 5 21 6 22 7 23 8 24 9 25 10 26 11
REMARK SMILES IDX 27 12 28 13 29 14 30 15 31 16 32 17 15 18 14 19 13 20 12 21
REMARK SMILES IDX 11 22 10 23 9 24 8 25 7 26 6 27 5 28 4 29 3 30 2 31 1 32
REMARK H PARENT
REMARK Flexibility Score: inf
ROOT
ATOM      1  C   UNL     1      -6.788  11.761  -8.095  1.00  0.00     0.000 C 
ENDROOT
BRANCH   1   2
ATOM      2  C   UNL     1      -5.981  12.428  -6.963  1.00  0.00     0.000 C 
BRANCH   2   3
ATOM      3  C   UNL     1      -4.866  13.390  -7.425  1.00  0.00     0.000 C 
BRANCH   3   4
ATOM      4  C   UNL     1      -3.457  13.064  -6.890  1.00  0.00     0.000 C 
BRANCH   4   5
ATOM      5  C   UNL     1      -3.223  11.575  -6.573  1.00  0.00     0.000 C 
BRANCH   5   6
ATOM      6  C   UNL     1      -2.850  10.754  -7.821  1.00  0.00     0.000 C 
BRANCH   6   7
ATOM      7  C   UNL     1      -1.494  11.179  -8.423  1.00  0.00     0.000 C 
BRANCH   7   8
ATOM      8  C   UNL     1      -0.277  10.759  -7.575  1.00  0.00     0.000 C 
BRANCH   8   9
ATOM      9  C   UNL     1       1.048  11.437  -7.962  1.00  0.00     0.000 C 
BRANCH   9  10
ATOM     10  C   UNL     1       2.132  11.290  -6.884  1.00  0.00     0.000 C 
BRANCH  10  11
ATOM     11  C   UNL     1       1.578  11.655  -5.500  1.00  0.00     0.000 C 
BRANCH  11  12
ATOM     12  C   UNL     1       2.008  13.058  -5.043  1.00  0.00     0.000 C 
BRANCH  12  13
ATOM     13  C   UNL     1       1.007  13.692  -4.065  1.00  0.00     0.006 C 
BRANCH  13  14
ATOM     14  C   UNL     1      -0.399  13.733  -4.670  1.00  0.00     0.053 C 
BRANCH  14  15
ATOM     15  C   UNL     1      -1.379  13.055  -3.766  1.00  0.00     0.041 C 
ATOM     16  O   UNL     1      -1.158  11.884  -3.357  1.00  0.00    -0.550 OA
ATOM     17  O   UNL     1      -2.514  13.731  -3.337  1.00  0.00    -0.550 OA
ENDBRANCH  14  15
ENDBRANCH  13  14
ENDBRANCH  12  13
ENDBRANCH  11  12
ENDBRANCH  10  11
ENDBRANCH   9  10
ENDBRANCH   8   9
ENDBRANCH   7   8
ENDBRANCH   6   7
ENDBRANCH   5   6
ENDBRANCH   4   5
ENDBRANCH   3   4
ENDBRANCH   2   3
ENDBRANCH   1   2
BRANCH   1  18
ATOM     18  C   UNL     1      -6.257  12.022  -9.516  1.00  0.00     0.000 C 
BRANCH  18  19
ATOM     19  C   UNL     1      -6.260  10.761 -10.399  1.00  0.00     0.000 C 
BRANCH  19  20
ATOM     20  C   UNL     1      -4.835  10.229 -10.663  1.00  0.00     0.000 C 
BRANCH  20  21
ATOM     21  C   UNL     1      -4.653   8.749 -10.288  1.00  0.00     0.000 C 
BRANCH  21  22
ATOM     22  C   UNL     1      -5.987   7.988 -10.202  1.00  0.00     0.000 C 
BRANCH  22  23
ATOM     23  C   UNL     1      -6.562   7.974  -8.775  1.00  0.00     0.000 C 
BRANCH  23  24
ATOM     24  C   UNL     1      -5.502   8.298  -7.708  1.00  0.00    -0.000 C 
BRANCH  24  25
ATOM     25  C   UNL     1      -6.042   8.144  -6.277  1.00  0.00    -0.000 C 
BRANCH  25  26
ATOM     26  C   UNL     1      -5.272   9.005  -5.262  1.00  0.00    -0.000 C 
BRANCH  26  27
ATOM     27  C   UNL     1      -5.722   8.739  -3.809  1.00  0.00    -0.000 C 
BRANCH  27  28
ATOM     28  C   UNL     1      -5.353   7.335  -3.291  1.00  0.00    -0.000 C 
BRANCH  28  29
ATOM     29  C   UNL     1      -3.867   7.145  -2.937  1.00  0.00    -0.000 C 
BRANCH  29  30
ATOM     30  C   UNL     1      -3.174   5.977  -3.666  1.00  0.00    -0.000 C 
BRANCH  30  31
ATOM     31  C   UNL     1      -1.644   5.943  -3.462  1.00  0.00    -0.003 C 
ATOM     32  C   UNL     1      -1.035   4.600  -3.858  1.00  0.00     0.004 C 
ENDBRANCH  30  31
ENDBRANCH  29  30
ENDBRANCH  28  29
ENDBRANCH  27  28
ENDBRANCH  26  27
ENDBRANCH  25  26
ENDBRANCH  24  25
ENDBRANCH  23  24
ENDBRANCH  22  23
ENDBRANCH  21  22
ENDBRANCH  20  21
ENDBRANCH  19  20
ENDBRANCH  18  19
ENDBRANCH   1  18
TORSDOF 28
ENDMDL
MODEL 9
REMARK VINA RESULT:    -4.148      3.286      6.674
REMARK INTER + INTRA:         -15.611
REMARK INTER:                 -11.373
REMARK INTRA:                  -4.238
REMARK UNBOUND:                -4.673
REMARK SMILES CCCCCCCCCCCCCCCCCCCCCCCCCCCCCC(=O)[O-]
REMARK SMILES IDX 16 1 17 2 18 3 19 4 20 5 21 6 22 7 23 8 24 9 25 10 26 11
REMARK SMILES IDX 27 12 28 13 29 14 30 15 31 16 32 17 15 18 14 19 13 20 12 21
REMARK SMILES IDX 11 22 10 23 9 24 8 25 7 26 6 27 5 28 4 29 3 30 2 31 1 32
REMARK H PARENT
REMARK Flexibility Score: inf
ROOT
ATOM      1  C   UNL     1       0.268  11.791  -4.004  1.00  0.00     0.000 C 
ENDROOT
BRANCH   1   2
ATOM      2  C   UNL     1       0.341  13.263  -3.551  1.00  0.00     0.000 C 
BRANCH   2   3
ATOM      3  C   UNL     1       0.318  14.307  -4.688  1.00  0.00     0.000 C 
BRANCH   3   4
ATOM      4  C   UNL     1      -1.066  14.917  -4.989  1.00  0.00     0.000 C 
BRANCH   4   5
ATOM      5  C   UNL     1      -1.904  14.125  -6.009  1.00  0.00     0.000 C 
BRANCH   5   6
ATOM      6  C   UNL     1      -1.038  13.411  -7.063  1.00  0.00     0.000 C 
BRANCH   6   7
ATOM      7  C   UNL     1      -1.886  12.706  -8.144  1.00  0.00     0.000 C 
BRANCH   7   8
ATOM      8  C   UNL     1      -1.608  11.195  -8.266  1.00  0.00     0.000 C 
BRANCH   8   9
ATOM      9  C   UNL     1      -2.762  10.370  -8.858  1.00  0.00     0.000 C 
BRANCH   9  10
ATOM     10  C   UNL     1      -3.460  11.074 -10.031  1.00  0.00     0.000 C 
BRANCH  10  11
ATOM     11  C   UNL     1      -4.985  11.022  -9.871  1.00  0.00     0.000 C 
BRANCH  11  12
ATOM     12  C   UNL     1      -5.594   9.727 -10.432  1.00  0.00     0.000 C 
BRANCH  12  13
ATOM     13  C   UNL     1      -6.358   8.924  -9.367  1.00  0.00     0.006 C 
BRANCH  13  14
ATOM     14  C   UNL     1      -5.824   7.492  -9.273  1.00  0.00     0.053 C 
BRANCH  14  15
ATOM     15  C   UNL     1      -4.849   7.222 -10.375  1.00  0.00     0.041 C 
ATOM     16  O   UNL     1      -3.614   7.366 -10.176  1.00  0.00    -0.550 OA
ATOM     17  O   UNL     1      -5.301   6.767 -11.607  1.00  0.00    -0.550 OA
ENDBRANCH  14  15
ENDBRANCH  13  14
ENDBRANCH  12  13
ENDBRANCH  11  12
ENDBRANCH  10  11
ENDBRANCH   9  10
ENDBRANCH   8   9
ENDBRANCH   7   8
ENDBRANCH   6   7
ENDBRANCH   5   6
ENDBRANCH   4   5
ENDBRANCH   3   4
ENDBRANCH   2   3
ENDBRANCH   1   2
BRANCH   1  18
ATOM     18  C   UNL     1      -1.087  11.102  -3.763  1.00  0.00     0.000 C 
BRANCH  18  19
ATOM     19  C   UNL     1      -2.071  11.975  -2.964  1.00  0.00     0.000 C 
BRANCH  19  20
ATOM     20  C   UNL     1      -3.537  11.529  -3.154  1.00  0.00     0.000 C 
BRANCH  20  21
ATOM     21  C   UNL     1      -4.292  12.342  -4.218  1.00  0.00     0.000 C 
BRANCH  21  22
ATOM     22  C   UNL     1      -4.699  11.497  -5.437  1.00  0.00     0.000 C 
BRANCH  22  23
ATOM     23  C   UNL     1      -4.043  10.106  -5.429  1.00  0.00     0.000 C 
BRANCH  23  24
ATOM     24  C   UNL     1      -4.935   9.028  -6.067  1.00  0.00    -0.000 C 
BRANCH  24  25
ATOM     25  C   UNL     1      -6.357   9.021  -5.484  1.00  0.00    -0.000 C 
BRANCH  25  26
ATOM     26  C   UNL     1      -6.519   8.012  -4.335  1.00  0.00    -0.000 C 
BRANCH  26  27
ATOM     27  C   UNL     1      -5.460   8.208  -3.230  1.00  0.00    -0.000 C 
BRANCH  27  28
ATOM     28  C   UNL     1      -4.430   7.065  -3.146  1.00  0.00    -0.000 C 
BRANCH  28  29
ATOM     29  C   UNL     1      -2.958   7.518  -3.154  1.00  0.00    -0.000 C 
BRANCH  29  30
ATOM     30  C   UNL     1      -1.936   6.398  -2.876  1.00  0.00    -0.000 C 
BRANCH  30  31
ATOM     31  C   UNL     1      -1.860   5.340  -3.997  1.00  0.00    -0.003 C 
ATOM     32  C   UNL     1      -0.488   4.673  -4.076  1.00  0.00     0.004 C 
ENDBRANCH  30  31
ENDBRANCH  29  30
ENDBRANCH  28  29
ENDBRANCH  27  28
ENDBRANCH  26  27
ENDBRANCH  25  26
ENDBRANCH  24  25
ENDBRANCH  23  24
ENDBRANCH  22  23
ENDBRANCH  21  22
ENDBRANCH  20  21
ENDBRANCH  19  20
ENDBRANCH  18  19
ENDBRANCH   1  18
TORSDOF 28
ENDMDL
