MODEL 1
REMARK VINA RESULT:    -7.744      0.000      0.000
REMARK INTER + INTRA:          -8.918
REMARK INTER:                  -9.328
REMARK INTRA:                   0.410
REMARK UNBOUND:                 0.410
REMARK SMILES O=c1c(O)c(-c2ccc(O)c(O)c2)oc2cc(O)cc(O)c12
REMARK SMILES IDX 5 1 3 2 2 3 1 4 22 5 20 6 19 7 17 8 16 9 15 10 14 11 6 12
REMARK SMILES IDX 7 13 8 14 9 15 13 16 11 17 10 18 12 20 4 22 21 24 18 26
REMARK H PARENT 10 19 12 21 4 23 21 25 18 27
REMARK Flexibility Score: inf
ROOT
ATOM      1  C   UNL     1     -23.352  61.089  32.299  1.00  0.00     0.180 A 
ATOM      2  C   UNL     1     -22.089  61.077  32.923  1.00  0.00     0.208 A 
ATOM      3  C   UNL     1     -20.941  61.258  32.135  1.00  0.00     0.238 A 
ATOM      4  O   UNL     1     -19.806  61.260  32.684  1.00  0.00    -0.285 OA
ATOM      5  C   UNL     1     -21.072  61.428  30.741  1.00  0.00     0.111 A 
ATOM      6  C   UNL     1     -19.966  61.612  29.877  1.00  0.00     0.134 A 
ATOM      7  C   UNL     1     -20.179  61.764  28.498  1.00  0.00     0.093 A 
ATOM      8  C   UNL     1     -21.474  61.734  27.969  1.00  0.00     0.123 A 
ATOM      9  C   UNL     1     -22.568  61.554  28.819  1.00  0.00     0.094 A 
ATOM     10  C   UNL     1     -22.376  61.402  30.196  1.00  0.00     0.146 A 
ATOM     11  O   UNL     1     -23.435  61.237  30.980  1.00  0.00    -0.452 OA
ENDROOT
BRANCH   1  12
ATOM     12  C   UNL     1     -24.608  60.924  33.064  1.00  0.00     0.025 A 
ATOM     13  C   UNL     1     -24.619  61.191  34.441  1.00  0.00     0.016 A 
ATOM     14  C   UNL     1     -25.788  61.023  35.187  1.00  0.00     0.051 A 
ATOM     15  C   UNL     1     -26.959  60.569  34.572  1.00  0.00     0.157 A 
ATOM     16  C   UNL     1     -25.781  60.448  32.450  1.00  0.00     0.062 A 
ATOM     17  C   UNL     1     -26.957  60.276  33.198  1.00  0.00     0.158 A 
BRANCH  15  18
ATOM     18  O   UNL     1     -28.112  60.413  35.341  1.00  0.00    -0.504 OA
ATOM     19  H   UNL     1     -28.721  61.192  35.562  1.00  0.00     0.293 HD
ENDBRANCH  15  18
BRANCH  17  20
ATOM     20  O   UNL     1     -28.117  59.810  32.581  1.00  0.00    -0.504 OA
ATOM     21  H   UNL     1     -28.906  59.473  33.120  1.00  0.00     0.293 HD
ENDBRANCH  17  20
ENDBRANCH   1  12
BRANCH   2  22
ATOM     22  O   UNL     1     -21.983  60.859  34.299  1.00  0.00    -0.502 OA
ATOM     23  H   UNL     1     -21.198  61.195  34.844  1.00  0.00     0.293 HD
ENDBRANCH   2  22
BRANCH   6  24
ATOM     24  O   UNL     1     -18.663  61.645  30.375  1.00  0.00    -0.507 OA
ATOM     25  H   UNL     1     -17.945  61.017  30.032  1.00  0.00     0.293 HD
ENDBRANCH   6  24
BRANCH   8  26
ATOM     26  O   UNL     1     -21.686  61.885  26.601  1.00  0.00    -0.508 OA
ATOM     27  H   UNL     1     -22.394  62.514  26.241  1.00  0.00     0.293 HD
ENDBRANCH   8  26
TORSDOF 6
ENDMDL
MODEL 2
REMARK VINA RESULT:    -7.624      3.254      7.148
REMARK INTER + INTRA:          -8.775
REMARK INTER:                  -8.445
REMARK INTRA:                  -0.330
REMARK UNBOUND:                 0.410
REMARK SMILES O=c1c(O)c(-c2ccc(O)c(O)c2)oc2cc(O)cc(O)c12
REMARK SMILES IDX 5 1 3 2 2 3 1 4 22 5 20 6 19 7 17 8 16 9 15 10 14 11 6 12
REMARK SMILES IDX 7 13 8 14 9 15 13 16 11 17 10 18 12 20 4 22 21 24 18 26
REMARK H PARENT 10 19 12 21 4 23 21 25 18 27
REMARK Flexibility Score: inf
ROOT
ATOM      1  C   UNL     1     -23.041  60.078  34.208  1.00  0.00     0.180 A 
ATOM      2  C   UNL     1     -23.541  59.377  33.093  1.00  0.00     0.208 A 
ATOM      3  C   UNL     1     -24.913  59.447  32.807  1.00  0.00     0.238 A 
ATOM      4  O   UNL     1     -25.369  58.832  31.805  1.00  0.00    -0.285 OA
ATOM      5  C   UNL     1     -25.763  60.197  33.646  1.00  0.00     0.111 A 
ATOM      6  C   UNL     1     -27.157  60.315  33.428  1.00  0.00     0.134 A 
ATOM      7  C   UNL     1     -27.937  61.073  34.315  1.00  0.00     0.093 A 
ATOM      8  C   UNL     1     -27.350  61.712  35.413  1.00  0.00     0.123 A 
ATOM      9  C   UNL     1     -25.976  61.599  35.630  1.00  0.00     0.094 A 
ATOM     10  C   UNL     1     -25.181  60.849  34.757  1.00  0.00     0.146 A 
ATOM     11  O   UNL     1     -23.876  60.763  34.985  1.00  0.00    -0.452 OA
ENDROOT
BRANCH   1  12
ATOM     12  C   UNL     1     -21.605  60.069  34.565  1.00  0.00     0.025 A 
ATOM     13  C   UNL     1     -21.118  59.088  35.442  1.00  0.00     0.016 A 
ATOM     14  C   UNL     1     -19.769  59.072  35.809  1.00  0.00     0.051 A 
ATOM     15  C   UNL     1     -18.892  60.044  35.318  1.00  0.00     0.157 A 
ATOM     16  C   UNL     1     -20.726  61.058  34.088  1.00  0.00     0.062 A 
ATOM     17  C   UNL     1     -19.371  61.045  34.457  1.00  0.00     0.158 A 
BRANCH  15  18
ATOM     18  O   UNL     1     -17.551  60.002  35.699  1.00  0.00    -0.504 OA
ATOM     19  H   UNL     1     -16.884  60.703  35.398  1.00  0.00     0.293 HD
ENDBRANCH  15  18
BRANCH  17  20
ATOM     20  O   UNL     1     -18.506  62.025  33.975  1.00  0.00    -0.504 OA
ATOM     21  H   UNL     1     -18.852  62.887  33.570  1.00  0.00     0.293 HD
ENDBRANCH  17  20
ENDBRANCH   1  12
BRANCH   2  22
ATOM     22  O   UNL     1     -22.685  58.601  32.307  1.00  0.00    -0.502 OA
ATOM     23  H   UNL     1     -22.992  57.754  31.844  1.00  0.00     0.293 HD
ENDBRANCH   2  22
BRANCH   6  24
ATOM     24  O   UNL     1     -27.771  59.688  32.343  1.00  0.00    -0.507 OA
ATOM     25  H   UNL     1     -28.019  60.198  31.503  1.00  0.00     0.293 HD
ENDBRANCH   6  24
BRANCH   8  26
ATOM     26  O   UNL     1     -28.124  62.464  36.293  1.00  0.00    -0.508 OA
ATOM     27  H   UNL     1     -28.485  63.376  36.035  1.00  0.00     0.293 HD
ENDBRANCH   8  26
TORSDOF 6
ENDMDL
MODEL 3
REMARK VINA RESULT:    -7.272      2.031      6.572
REMARK INTER + INTRA:          -8.350
REMARK INTER:                  -8.028
REMARK INTRA:                  -0.322
REMARK UNBOUND:                 0.410
REMARK SMILES O=c1c(O)c(-c2ccc(O)c(O)c2)oc2cc(O)cc(O)c12
REMARK SMILES IDX 5 1 3 2 2 3 1 4 22 5 20 6 19 7 17 8 16 9 15 10 14 11 6 12
REMARK SMILES IDX 7 13 8 14 9 15 13 16 11 17 10 18 12 20 4 22 21 24 18 26
REMARK H PARENT 10 19 12 21 4 23 21 25 18 27
REMARK Flexibility Score: inf
ROOT
ATOM      1  C   UNL     1     -23.634  59.950  31.124  1.00  0.00     0.180 A 
ATOM      2  C   UNL     1     -22.772  59.585  32.176  1.00  0.00     0.208 A 
ATOM      3  C   UNL     1     -23.170  59.839  33.498  1.00  0.00     0.238 A 
ATOM      4  O   UNL     1     -22.411  59.507  34.449  1.00  0.00    -0.285 OA
ATOM      5  C   UNL     1     -24.408  60.468  33.745  1.00  0.00     0.111 A 
ATOM      6  C   UNL     1     -24.880  60.763  35.047  1.00  0.00     0.134 A 
ATOM      7  C   UNL     1     -26.120  61.400  35.209  1.00  0.00     0.093 A 
ATOM      8  C   UNL     1     -26.894  61.747  34.097  1.00  0.00     0.123 A 
ATOM      9  C   UNL     1     -26.432  61.458  32.811  1.00  0.00     0.094 A 
ATOM     10  C   UNL     1     -25.199  60.822  32.628  1.00  0.00     0.146 A 
ATOM     11  O   UNL     1     -24.788  60.555  31.395  1.00  0.00    -0.452 OA
ENDROOT
BRANCH   1  12
ATOM     12  C   UNL     1     -23.295  59.699  29.705  1.00  0.00     0.025 A 
ATOM     13  C   UNL     1     -23.586  58.450  29.136  1.00  0.00     0.016 A 
ATOM     14  C   UNL     1     -23.256  58.183  27.805  1.00  0.00     0.051 A 
ATOM     15  C   UNL     1     -22.616  59.153  27.028  1.00  0.00     0.157 A 
ATOM     16  C   UNL     1     -22.633  60.667  28.928  1.00  0.00     0.062 A 
ATOM     17  C   UNL     1     -22.299  60.400  27.591  1.00  0.00     0.158 A 
BRANCH  15  18
ATOM     18  O   UNL     1     -22.302  58.859  25.701  1.00  0.00    -0.504 OA
ATOM     19  H   UNL     1     -21.573  58.200  25.454  1.00  0.00     0.293 HD
ENDBRANCH  15  18
BRANCH  17  20
ATOM     20  O   UNL     1     -21.648  61.367  26.826  1.00  0.00    -0.504 OA
ATOM     21  H   UNL     1     -21.358  61.183  25.873  1.00  0.00     0.293 HD
ENDBRANCH  17  20
ENDBRANCH   1  12
BRANCH   2  22
ATOM     22  O   UNL     1     -21.530  59.008  31.902  1.00  0.00    -0.502 OA
ATOM     23  H   UNL     1     -21.068  58.381  32.550  1.00  0.00     0.293 HD
ENDBRANCH   2  22
BRANCH   6  24
ATOM     24  O   UNL     1     -24.130  60.429  36.176  1.00  0.00    -0.507 OA
ATOM     25  H   UNL     1     -23.695  61.137  36.755  1.00  0.00     0.293 HD
ENDBRANCH   6  24
BRANCH   8  26
ATOM     26  O   UNL     1     -28.124  62.380  34.258  1.00  0.00    -0.508 OA
ATOM     27  H   UNL     1     -28.671  62.686  33.461  1.00  0.00     0.293 HD
ENDBRANCH   8  26
TORSDOF 6
ENDMDL
MODEL 4
REMARK VINA RESULT:    -7.177      2.168      6.892
REMARK INTER + INTRA:          -8.235
REMARK INTER:                  -7.911
REMARK INTRA:                  -0.325
REMARK UNBOUND:                 0.410
REMARK SMILES O=c1c(O)c(-c2ccc(O)c(O)c2)oc2cc(O)cc(O)c12
REMARK SMILES IDX 5 1 3 2 2 3 1 4 22 5 20 6 19 7 17 8 16 9 15 10 14 11 6 12
REMARK SMILES IDX 7 13 8 14 9 15 13 16 11 17 10 18 12 20 4 22 21 24 18 26
REMARK H PARENT 10 19 12 21 4 23 21 25 18 27
REMARK Flexibility Score: inf
ROOT
ATOM      1  C   UNL     1     -24.039  60.281  30.924  1.00  0.00     0.180 A 
ATOM      2  C   UNL     1     -25.318  60.818  31.169  1.00  0.00     0.208 A 
ATOM      3  C   UNL     1     -25.694  61.099  32.492  1.00  0.00     0.238 A 
ATOM      4  O   UNL     1     -26.833  61.589  32.722  1.00  0.00    -0.285 OA
ATOM      5  C   UNL     1     -24.798  60.822  33.545  1.00  0.00     0.111 A 
ATOM      6  C   UNL     1     -25.102  61.072  34.906  1.00  0.00     0.134 A 
ATOM      7  C   UNL     1     -24.159  60.760  35.897  1.00  0.00     0.093 A 
ATOM      8  C   UNL     1     -22.922  60.203  35.554  1.00  0.00     0.123 A 
ATOM      9  C   UNL     1     -22.618  59.956  34.214  1.00  0.00     0.094 A 
ATOM     10  C   UNL     1     -23.544  60.261  33.211  1.00  0.00     0.146 A 
ATOM     11  O   UNL     1     -23.226  60.020  31.945  1.00  0.00    -0.452 OA
ENDROOT
BRANCH   1  12
ATOM     12  C   UNL     1     -23.562  59.976  29.557  1.00  0.00     0.025 A 
ATOM     13  C   UNL     1     -23.823  58.714  29.000  1.00  0.00     0.016 A 
ATOM     14  C   UNL     1     -23.365  58.397  27.719  1.00  0.00     0.051 A 
ATOM     15  C   UNL     1     -22.627  59.327  26.982  1.00  0.00     0.157 A 
ATOM     16  C   UNL     1     -22.802  60.904  28.822  1.00  0.00     0.062 A 
ATOM     17  C   UNL     1     -22.340  60.586  27.535  1.00  0.00     0.158 A 
BRANCH  15  18
ATOM     18  O   UNL     1     -22.186  58.984  25.704  1.00  0.00    -0.504 OA
ATOM     19  H   UNL     1     -21.797  58.071  25.496  1.00  0.00     0.293 HD
ENDBRANCH  15  18
BRANCH  17  20
ATOM     20  O   UNL     1     -21.593  61.514  26.812  1.00  0.00    -0.504 OA
ATOM     21  H   UNL     1     -21.920  61.886  25.928  1.00  0.00     0.293 HD
ENDBRANCH  17  20
ENDBRANCH   1  12
BRANCH   2  22
ATOM     22  O   UNL     1     -26.205  61.037  30.113  1.00  0.00    -0.502 OA
ATOM     23  H   UNL     1     -26.413  60.326  29.421  1.00  0.00     0.293 HD
ENDBRANCH   2  22
BRANCH   6  24
ATOM     24  O   UNL     1     -26.327  61.626  35.278  1.00  0.00    -0.507 OA
ATOM     25  H   UNL     1     -26.879  61.239  36.034  1.00  0.00     0.293 HD
ENDBRANCH   6  24
BRANCH   8  26
ATOM     26  O   UNL     1     -21.987  59.893  36.538  1.00  0.00    -0.508 OA
ATOM     27  H   UNL     1     -22.058  59.044  37.089  1.00  0.00     0.293 HD
ENDBRANCH   8  26
TORSDOF 6
ENDMDL
MODEL 5
REMARK VINA RESULT:    -7.104     17.708     19.979
REMARK INTER + INTRA:          -8.148
REMARK INTER:                  -8.273
REMARK INTRA:                   0.125
REMARK UNBOUND:                 0.410
REMARK SMILES O=c1c(O)c(-c2ccc(O)c(O)c2)oc2cc(O)cc(O)c12
REMARK SMILES IDX 5 1 3 2 2 3 1 4 22 5 20 6 19 7 17 8 16 9 15 10 14 11 6 12
REMARK SMILES IDX 7 13 8 14 9 15 13 16 11 17 10 18 12 20 4 22 21 24 18 26
REMARK H PARENT 10 19 12 21 4 23 21 25 18 27
REMARK Flexibility Score: inf
ROOT
ATOM      1  C   UNL     1     -14.847  45.512  25.227  1.00  0.00     0.180 A 
ATOM      2  C   UNL     1     -14.912  46.847  25.671  1.00  0.00     0.208 A 
ATOM      3  C   UNL     1     -15.647  47.142  26.829  1.00  0.00     0.238 A 
ATOM      4  O   UNL     1     -15.703  48.333  27.242  1.00  0.00    -0.285 OA
ATOM      5  C   UNL     1     -16.320  46.107  27.511  1.00  0.00     0.111 A 
ATOM      6  C   UNL     1     -17.085  46.321  28.683  1.00  0.00     0.134 A 
ATOM      7  C   UNL     1     -17.732  45.239  29.297  1.00  0.00     0.093 A 
ATOM      8  C   UNL     1     -17.629  43.949  28.764  1.00  0.00     0.123 A 
ATOM      9  C   UNL     1     -16.875  43.734  27.609  1.00  0.00     0.094 A 
ATOM     10  C   UNL     1     -16.221  44.799  26.982  1.00  0.00     0.146 A 
ATOM     11  O   UNL     1     -15.506  44.564  25.888  1.00  0.00    -0.452 OA
ENDROOT
BRANCH   1  12
ATOM     12  C   UNL     1     -14.077  45.118  24.026  1.00  0.00     0.025 A 
ATOM     13  C   UNL     1     -14.574  44.110  23.187  1.00  0.00     0.016 A 
ATOM     14  C   UNL     1     -13.854  43.708  22.058  1.00  0.00     0.051 A 
ATOM     15  C   UNL     1     -12.621  44.294  21.761  1.00  0.00     0.157 A 
ATOM     16  C   UNL     1     -12.826  45.694  23.737  1.00  0.00     0.062 A 
ATOM     17  C   UNL     1     -12.101  45.290  22.605  1.00  0.00     0.158 A 
BRANCH  15  18
ATOM     18  O   UNL     1     -11.926  43.875  20.627  1.00  0.00    -0.504 OA
ATOM     19  H   UNL     1     -12.217  44.133  19.691  1.00  0.00     0.293 HD
ENDBRANCH  15  18
BRANCH  17  20
ATOM     20  O   UNL     1     -10.865  45.870  22.323  1.00  0.00    -0.504 OA
ATOM     21  H   UNL     1     -10.782  46.847  22.068  1.00  0.00     0.293 HD
ENDBRANCH  17  20
ENDBRANCH   1  12
BRANCH   2  22
ATOM     22  O   UNL     1     -14.277  47.862  24.950  1.00  0.00    -0.502 OA
ATOM     23  H   UNL     1     -14.693  48.776  24.818  1.00  0.00     0.293 HD
ENDBRANCH   2  22
BRANCH   6  24
ATOM     24  O   UNL     1     -17.207  47.596  29.238  1.00  0.00    -0.507 OA
ATOM     25  H   UNL     1     -16.505  48.312  29.087  1.00  0.00     0.293 HD
ENDBRANCH   6  24
BRANCH   8  26
ATOM     26  O   UNL     1     -18.272  42.875  29.374  1.00  0.00    -0.508 OA
ATOM     27  H   UNL     1     -19.126  42.483  28.993  1.00  0.00     0.293 HD
ENDBRANCH   8  26
TORSDOF 6
ENDMDL
MODEL 6
REMARK VINA RESULT:    -7.077      2.397      6.336
REMARK INTER + INTRA:          -8.115
REMARK INTER:                  -7.792
REMARK INTRA:                  -0.324
REMARK UNBOUND:                 0.410
REMARK SMILES O=c1c(O)c(-c2ccc(O)c(O)c2)oc2cc(O)cc(O)c12
REMARK SMILES IDX 5 1 3 2 2 3 1 4 22 5 20 6 19 7 17 8 16 9 15 10 14 11 6 12
REMARK SMILES IDX 7 13 8 14 9 15 13 16 11 17 10 18 12 20 4 22 21 24 18 26
REMARK H PARENT 10 19 12 21 4 23 21 25 18 27
REMARK Flexibility Score: inf
ROOT
ATOM      1  C   UNL     1     -22.057  60.871  33.152  1.00  0.00     0.180 A 
ATOM      2  C   UNL     1     -22.036  61.517  31.900  1.00  0.00     0.208 A 
ATOM      3  C   UNL     1     -23.254  61.795  31.261  1.00  0.00     0.238 A 
ATOM      4  O   UNL     1     -23.248  62.383  30.145  1.00  0.00    -0.285 OA
ATOM      5  C   UNL     1     -24.466  61.409  31.870  1.00  0.00     0.111 A 
ATOM      6  C   UNL     1     -25.735  61.649  31.289  1.00  0.00     0.134 A 
ATOM      7  C   UNL     1     -26.895  61.224  31.954  1.00  0.00     0.093 A 
ATOM      8  C   UNL     1     -26.810  60.565  33.185  1.00  0.00     0.123 A 
ATOM      9  C   UNL     1     -25.561  60.327  33.761  1.00  0.00     0.094 A 
ATOM     10  C   UNL     1     -24.393  60.743  33.115  1.00  0.00     0.146 A 
ATOM     11  O   UNL     1     -23.219  60.508  33.689  1.00  0.00    -0.452 OA
ENDROOT
BRANCH   1  12
ATOM     12  C   UNL     1     -20.817  60.560  33.898  1.00  0.00     0.025 A 
ATOM     13  C   UNL     1     -20.301  61.500  34.802  1.00  0.00     0.016 A 
ATOM     14  C   UNL     1     -19.121  61.236  35.502  1.00  0.00     0.051 A 
ATOM     15  C   UNL     1     -18.430  60.039  35.296  1.00  0.00     0.157 A 
ATOM     16  C   UNL     1     -20.110  59.363  33.676  1.00  0.00     0.062 A 
ATOM     17  C   UNL     1     -18.923  59.098  34.377  1.00  0.00     0.158 A 
BRANCH  15  18
ATOM     18  O   UNL     1     -17.256  59.801  36.011  1.00  0.00    -0.504 OA
ATOM     19  H   UNL     1     -16.586  59.095  35.728  1.00  0.00     0.293 HD
ENDBRANCH  15  18
BRANCH  17  20
ATOM     20  O   UNL     1     -18.232  57.908  34.156  1.00  0.00    -0.504 OA
ATOM     21  H   UNL     1     -17.894  57.339  34.924  1.00  0.00     0.293 HD
ENDBRANCH  17  20
ENDBRANCH   1  12
BRANCH   2  22
ATOM     22  O   UNL     1     -20.820  61.845  31.296  1.00  0.00    -0.502 OA
ATOM     23  H   UNL     1     -20.368  61.239  30.622  1.00  0.00     0.293 HD
ENDBRANCH   2  22
BRANCH   6  24
ATOM     24  O   UNL     1     -25.851  62.304  30.062  1.00  0.00    -0.507 OA
ATOM     25  H   UNL     1     -26.331  61.881  29.276  1.00  0.00     0.293 HD
ENDBRANCH   6  24
BRANCH   8  26
ATOM     26  O   UNL     1     -27.962  60.143  33.845  1.00  0.00    -0.508 OA
ATOM     27  H   UNL     1     -28.659  59.571  33.381  1.00  0.00     0.293 HD
ENDBRANCH   8  26
TORSDOF 6
ENDMDL
MODEL 7
REMARK VINA RESULT:    -6.977      2.359      3.256
REMARK INTER + INTRA:          -7.995
REMARK INTER:                  -7.806
REMARK INTRA:                  -0.188
REMARK UNBOUND:                 0.410
REMARK SMILES O=c1c(O)c(-c2ccc(O)c(O)c2)oc2cc(O)cc(O)c12
REMARK SMILES IDX 5 1 3 2 2 3 1 4 22 5 20 6 19 7 17 8 16 9 15 10 14 11 6 12
REMARK SMILES IDX 7 13 8 14 9 15 13 16 11 17 10 18 12 20 4 22 21 24 18 26
REMARK H PARENT 10 19 12 21 4 23 21 25 18 27
REMARK Flexibility Score: inf
ROOT
ATOM      1  C   UNL     1     -23.571  60.117  32.177  1.00  0.00     0.180 A 
ATOM      2  C   UNL     1     -23.668  59.011  31.311  1.00  0.00     0.208 A 
ATOM      3  C   UNL     1     -22.498  58.505  30.723  1.00  0.00     0.238 A 
ATOM      4  O   UNL     1     -22.572  57.508  29.954  1.00  0.00    -0.285 OA
ATOM      5  C   UNL     1     -21.259  59.120  30.995  1.00  0.00     0.111 A 
ATOM      6  C   UNL     1     -20.035  58.673  30.440  1.00  0.00     0.134 A 
ATOM      7  C   UNL     1     -18.844  59.347  30.752  1.00  0.00     0.093 A 
ATOM      8  C   UNL     1     -18.854  60.456  31.605  1.00  0.00     0.123 A 
ATOM      9  C   UNL     1     -20.059  60.898  32.155  1.00  0.00     0.094 A 
ATOM     10  C   UNL     1     -21.256  60.241  31.857  1.00  0.00     0.146 A 
ATOM     11  O   UNL     1     -22.386  60.681  32.398  1.00  0.00    -0.452 OA
ENDROOT
BRANCH   1  12
ATOM     12  C   UNL     1     -24.755  60.697  32.850  1.00  0.00     0.025 A 
ATOM     13  C   UNL     1     -24.903  60.549  34.237  1.00  0.00     0.016 A 
ATOM     14  C   UNL     1     -26.023  61.071  34.890  1.00  0.00     0.051 A 
ATOM     15  C   UNL     1     -27.019  61.731  34.165  1.00  0.00     0.157 A 
ATOM     16  C   UNL     1     -25.768  61.344  32.119  1.00  0.00     0.062 A 
ATOM     17  C   UNL     1     -26.895  61.866  32.772  1.00  0.00     0.158 A 
BRANCH  15  18
ATOM     18  O   UNL     1     -28.125  62.244  34.844  1.00  0.00    -0.504 OA
ATOM     19  H   UNL     1     -29.075  62.047  34.552  1.00  0.00     0.293 HD
ENDBRANCH  15  18
BRANCH  17  20
ATOM     20  O   UNL     1     -27.891  62.512  32.042  1.00  0.00    -0.504 OA
ATOM     21  H   UNL     1     -28.874  62.329  32.206  1.00  0.00     0.293 HD
ENDBRANCH  17  20
ENDBRANCH   1  12
BRANCH   2  22
ATOM     22  O   UNL     1     -24.914  58.450  31.020  1.00  0.00    -0.502 OA
ATOM     23  H   UNL     1     -25.173  57.518  31.318  1.00  0.00     0.293 HD
ENDBRANCH   2  22
BRANCH   6  24
ATOM     24  O   UNL     1     -19.994  57.571  29.586  1.00  0.00    -0.507 OA
ATOM     25  H   UNL     1     -20.839  57.105  29.275  1.00  0.00     0.293 HD
ENDBRANCH   6  24
BRANCH   8  26
ATOM     26  O   UNL     1     -17.672  61.124  31.914  1.00  0.00    -0.508 OA
ATOM     27  H   UNL     1     -16.769  60.671  31.828  1.00  0.00     0.293 HD
ENDBRANCH   8  26
TORSDOF 6
ENDMDL
MODEL 8
REMARK VINA RESULT:    -6.892      2.906      3.898
REMARK INTER + INTRA:          -7.893
REMARK INTER:                  -7.652
REMARK INTRA:                  -0.240
REMARK UNBOUND:                 0.410
REMARK SMILES O=c1c(O)c(-c2ccc(O)c(O)c2)oc2cc(O)cc(O)c12
REMARK SMILES IDX 5 1 3 2 2 3 1 4 22 5 20 6 19 7 17 8 16 9 15 10 14 11 6 12
REMARK SMILES IDX 7 13 8 14 9 15 13 16 11 17 10 18 12 20 4 22 21 24 18 26
REMARK H PARENT 10 19 12 21 4 23 21 25 18 27
REMARK Flexibility Score: inf
ROOT
ATOM      1  C   UNL     1     -24.932  60.542  30.851  1.00  0.00     0.180 A 
ATOM      2  C   UNL     1     -24.507  61.526  29.936  1.00  0.00     0.208 A 
ATOM      3  C   UNL     1     -23.753  61.133  28.819  1.00  0.00     0.238 A 
ATOM      4  O   UNL     1     -23.377  62.004  27.989  1.00  0.00    -0.285 OA
ATOM      5  C   UNL     1     -23.420  59.774  28.645  1.00  0.00     0.111 A 
ATOM      6  C   UNL     1     -22.660  59.298  27.549  1.00  0.00     0.134 A 
ATOM      7  C   UNL     1     -22.362  57.930  27.453  1.00  0.00     0.093 A 
ATOM      8  C   UNL     1     -22.808  57.032  28.429  1.00  0.00     0.123 A 
ATOM      9  C   UNL     1     -23.558  57.498  29.511  1.00  0.00     0.094 A 
ATOM     10  C   UNL     1     -23.867  58.858  29.625  1.00  0.00     0.146 A 
ATOM     11  O   UNL     1     -24.586  59.271  30.661  1.00  0.00    -0.452 OA
ENDROOT
BRANCH   1  12
ATOM     12  C   UNL     1     -25.746  60.873  32.042  1.00  0.00     0.025 A 
ATOM     13  C   UNL     1     -27.090  61.240  31.879  1.00  0.00     0.016 A 
ATOM     14  C   UNL     1     -27.872  61.576  32.987  1.00  0.00     0.051 A 
ATOM     15  C   UNL     1     -27.319  61.569  34.270  1.00  0.00     0.157 A 
ATOM     16  C   UNL     1     -25.185  60.885  33.332  1.00  0.00     0.062 A 
ATOM     17  C   UNL     1     -25.968  61.225  34.446  1.00  0.00     0.158 A 
BRANCH  15  18
ATOM     18  O   UNL     1     -28.124  61.906  35.358  1.00  0.00    -0.504 OA
ATOM     19  H   UNL     1     -28.015  62.782  35.857  1.00  0.00     0.293 HD
ENDBRANCH  15  18
BRANCH  17  20
ATOM     20  O   UNL     1     -25.406  61.229  35.721  1.00  0.00    -0.504 OA
ATOM     21  H   UNL     1     -25.797  61.784  36.473  1.00  0.00     0.293 HD
ENDBRANCH  17  20
ENDBRANCH   1  12
BRANCH   2  22
ATOM     22  O   UNL     1     -24.809  62.872  30.158  1.00  0.00    -0.502 OA
ATOM     23  H   UNL     1     -24.725  63.573  29.432  1.00  0.00     0.293 HD
ENDBRANCH   2  22
BRANCH   6  24
ATOM     24  O   UNL     1     -22.202  60.169  26.561  1.00  0.00    -0.507 OA
ATOM     25  H   UNL     1     -21.504  59.885  25.882  1.00  0.00     0.293 HD
ENDBRANCH   6  24
BRANCH   8  26
ATOM     26  O   UNL     1     -22.512  55.675  28.333  1.00  0.00    -0.508 OA
ATOM     27  H   UNL     1     -22.668  55.158  27.475  1.00  0.00     0.293 HD
ENDBRANCH   8  26
TORSDOF 6
ENDMDL
MODEL 9
REMARK VINA RESULT:    -6.869      2.467      5.274
REMARK INTER + INTRA:          -7.865
REMARK INTER:                  -7.550
REMARK INTRA:                  -0.316
REMARK UNBOUND:                 0.410
REMARK SMILES O=c1c(O)c(-c2ccc(O)c(O)c2)oc2cc(O)cc(O)c12
REMARK SMILES IDX 5 1 3 2 2 3 1 4 22 5 20 6 19 7 17 8 16 9 15 10 14 11 6 12
REMARK SMILES IDX 7 13 8 14 9 15 13 16 11 17 10 18 12 20 4 22 21 24 18 26
REMARK H PARENT 10 19 12 21 4 23 21 25 18 27
REMARK Flexibility Score: inf
ROOT
ATOM      1  C   UNL     1     -21.402  60.741  32.493  1.00  0.00     0.180 A 
ATOM      2  C   UNL     1     -22.760  60.930  32.817  1.00  0.00     0.208 A 
ATOM      3  C   UNL     1     -23.661  61.264  31.793  1.00  0.00     0.238 A 
ATOM      4  O   UNL     1     -24.881  61.425  32.070  1.00  0.00    -0.285 OA
ATOM      5  C   UNL     1     -23.190  61.421  30.473  1.00  0.00     0.111 A 
ATOM      6  C   UNL     1     -24.032  61.761  29.387  1.00  0.00     0.134 A 
ATOM      7  C   UNL     1     -23.485  61.909  28.103  1.00  0.00     0.093 A 
ATOM      8  C   UNL     1     -22.114  61.726  27.887  1.00  0.00     0.123 A 
ATOM      9  C   UNL     1     -21.281  61.390  28.956  1.00  0.00     0.094 A 
ATOM     10  C   UNL     1     -21.808  61.237  30.242  1.00  0.00     0.146 A 
ATOM     11  O   UNL     1     -20.992  60.912  31.239  1.00  0.00    -0.452 OA
ENDROOT
BRANCH   1  12
ATOM     12  C   UNL     1     -20.395  60.369  33.512  1.00  0.00     0.025 A 
ATOM     13  C   UNL     1     -19.773  61.375  34.266  1.00  0.00     0.016 A 
ATOM     14  C   UNL     1     -18.804  61.049  35.219  1.00  0.00     0.051 A 
ATOM     15  C   UNL     1     -18.432  59.717  35.421  1.00  0.00     0.157 A 
ATOM     16  C   UNL     1     -20.004  59.031  33.701  1.00  0.00     0.062 A 
ATOM     17  C   UNL     1     -19.030  58.702  34.657  1.00  0.00     0.158 A 
BRANCH  15  18
ATOM     18  O   UNL     1     -17.464  59.422  36.381  1.00  0.00    -0.504 OA
ATOM     19  H   UNL     1     -17.663  58.835  37.183  1.00  0.00     0.293 HD
ENDBRANCH  15  18
BRANCH  17  20
ATOM     20  O   UNL     1     -18.653  57.373  34.842  1.00  0.00    -0.504 OA
ATOM     21  H   UNL     1     -17.955  57.109  35.527  1.00  0.00     0.293 HD
ENDBRANCH  17  20
ENDBRANCH   1  12
BRANCH   2  22
ATOM     22  O   UNL     1     -23.193  60.816  34.140  1.00  0.00    -0.502 OA
ATOM     23  H   UNL     1     -22.634  61.133  34.923  1.00  0.00     0.293 HD
ENDBRANCH   2  22
BRANCH   6  24
ATOM     24  O   UNL     1     -25.402  61.950  29.571  1.00  0.00    -0.507 OA
ATOM     25  H   UNL     1     -25.999  62.286  28.825  1.00  0.00     0.293 HD
ENDBRANCH   6  24
BRANCH   8  26
ATOM     26  O   UNL     1     -21.571  61.873  26.614  1.00  0.00    -0.508 OA
ATOM     27  H   UNL     1     -21.568  62.769  26.139  1.00  0.00     0.293 HD
ENDBRANCH   8  26
TORSDOF 6
ENDMDL
