MODEL 1
REMARK VINA RESULT:    -6.135      0.000      0.000
REMARK INTER + INTRA:          -6.673
REMARK INTER:                  -6.673
REMARK INTRA:                   0.000
REMARK UNBOUND:                 0.000
REMARK SMILES Cc1cc(O)c2c(c1)C(=O)c1cc(O)cc(O)c1C2=O
REMARK SMILES IDX 1 1 2 2 8 3 7 4 6 5 4 6 3 7 19 8 20 9 18 10 11 11 9 12 10 13
REMARK SMILES IDX 12 14 13 15 15 16 16 17 5 18 17 20 14 22
REMARK H PARENT 5 19 17 21 14 23
REMARK Flexibility Score: inf
ROOT
ATOM      1  C   UNL     1      28.113  28.720   8.174  1.00  0.00     0.044 C 
ATOM      2  C   UNL     1      27.262  29.567   7.275  1.00  0.00    -0.047 A 
ATOM      3  C   UNL     1      26.008  30.014   7.708  1.00  0.00     0.016 A 
ATOM      4  C   UNL     1      25.216  30.836   6.887  1.00  0.00     0.038 A 
ATOM      5  C   UNL     1      25.696  31.235   5.622  1.00  0.00     0.076 A 
ATOM      6  C   UNL     1      26.969  30.791   5.193  1.00  0.00     0.127 A 
ATOM      7  C   UNL     1      27.742  29.970   6.024  1.00  0.00     0.050 A 
ATOM      8  C   UNL     1      24.864  32.136   4.782  1.00  0.00     0.201 C 
ATOM      9  O   UNL     1      25.401  32.781   3.843  1.00  0.00    -0.288 OA
ATOM     10  C   UNL     1      23.432  32.364   5.122  1.00  0.00     0.076 A 
ATOM     11  C   UNL     1      22.984  32.015   6.419  1.00  0.00     0.041 A 
ATOM     12  C   UNL     1      23.885  31.292   7.347  1.00  0.00     0.194 C 
ATOM     13  O   UNL     1      23.509  31.045   8.526  1.00  0.00    -0.289 OA
ATOM     14  C   UNL     1      21.680  32.350   6.823  1.00  0.00     0.059 A 
ATOM     15  C   UNL     1      20.813  33.009   5.950  1.00  0.00     0.120 A 
ATOM     16  C   UNL     1      21.231  33.311   4.656  1.00  0.00     0.093 A 
ATOM     17  C   UNL     1      22.515  32.967   4.218  1.00  0.00     0.131 A 
ENDROOT
BRANCH   6  18
ATOM     18  O   UNL     1      27.466  31.158   3.941  1.00  0.00    -0.507 OA
ATOM     19  H   UNL     1      26.924  31.034   3.095  1.00  0.00     0.293 HD
ENDBRANCH   6  18
BRANCH  17  20
ATOM     20  O   UNL     1      22.816  33.209   2.876  1.00  0.00    -0.507 OA
ATOM     21  H   UNL     1      23.758  33.263   2.513  1.00  0.00     0.293 HD
ENDBRANCH  17  20
BRANCH  15  22
ATOM     22  O   UNL     1      19.526  33.357   6.354  1.00  0.00    -0.508 OA
ATOM     23  H   UNL     1      18.706  32.995   5.882  1.00  0.00     0.293 HD
ENDBRANCH  15  22
TORSDOF 3
ENDMDL
MODEL 2
REMARK VINA RESULT:    -6.001      1.845      6.231
REMARK INTER + INTRA:          -6.527
REMARK INTER:                  -6.527
REMARK INTRA:                   0.000
REMARK UNBOUND:                 0.000
REMARK SMILES Cc1cc(O)c2c(c1)C(=O)c1cc(O)cc(O)c1C2=O
REMARK SMILES IDX 1 1 2 2 8 3 7 4 6 5 4 6 3 7 19 8 20 9 18 10 11 11 9 12 10 13
REMARK SMILES IDX 12 14 13 15 15 16 16 17 5 18 17 20 14 22
REMARK H PARENT 5 19 17 21 14 23
REMARK Flexibility Score: inf
ROOT
ATOM      1  C   UNL     1      19.824  33.254   5.500  1.00  0.00     0.044 C 
ATOM      2  C   UNL     1      21.081  32.635   6.036  1.00  0.00    -0.047 A 
ATOM      3  C   UNL     1      21.999  32.038   5.163  1.00  0.00     0.016 A 
ATOM      4  C   UNL     1      23.196  31.485   5.650  1.00  0.00     0.038 A 
ATOM      5  C   UNL     1      23.488  31.548   7.029  1.00  0.00     0.076 A 
ATOM      6  C   UNL     1      22.564  32.162   7.905  1.00  0.00     0.127 A 
ATOM      7  C   UNL     1      21.375  32.706   7.402  1.00  0.00     0.050 A 
ATOM      8  C   UNL     1      24.776  30.992   7.523  1.00  0.00     0.201 C 
ATOM      9  O   UNL     1      25.214  31.349   8.649  1.00  0.00    -0.288 OA
ATOM     10  C   UNL     1      25.598  30.115   6.644  1.00  0.00     0.076 A 
ATOM     11  C   UNL     1      25.330  30.113   5.255  1.00  0.00     0.041 A 
ATOM     12  C   UNL     1      24.154  30.842   4.723  1.00  0.00     0.194 C 
ATOM     13  O   UNL     1      23.958  30.898   3.477  1.00  0.00    -0.289 OA
ATOM     14  C   UNL     1      26.177  29.412   4.379  1.00  0.00     0.059 A 
ATOM     15  C   UNL     1      27.274  28.701   4.869  1.00  0.00     0.120 A 
ATOM     16  C   UNL     1      27.515  28.659   6.241  1.00  0.00     0.093 A 
ATOM     17  C   UNL     1      26.673  29.326   7.138  1.00  0.00     0.131 A 
ENDROOT
BRANCH   6  18
ATOM     18  O   UNL     1      22.818  32.229   9.276  1.00  0.00    -0.507 OA
ATOM     19  H   UNL     1      23.713  31.960   9.666  1.00  0.00     0.293 HD
ENDBRANCH   6  18
BRANCH  17  20
ATOM     20  O   UNL     1      26.922  29.143   8.500  1.00  0.00    -0.507 OA
ATOM     21  H   UNL     1      27.636  29.644   9.012  1.00  0.00     0.293 HD
ENDBRANCH  17  20
BRANCH  15  22
ATOM     22  O   UNL     1      28.125  28.020   4.001  1.00  0.00    -0.508 OA
ATOM     23  H   UNL     1      27.994  28.050   2.997  1.00  0.00     0.293 HD
ENDBRANCH  15  22
TORSDOF 3
ENDMDL
MODEL 3
REMARK VINA RESULT:    -5.463      1.338      5.497
REMARK INTER + INTRA:          -5.942
REMARK INTER:                  -5.942
REMARK INTRA:                   0.000
REMARK UNBOUND:                 0.000
REMARK SMILES Cc1cc(O)c2c(c1)C(=O)c1cc(O)cc(O)c1C2=O
REMARK SMILES IDX 1 1 2 2 8 3 7 4 6 5 4 6 3 7 19 8 20 9 18 10 11 11 9 12 10 13
REMARK SMILES IDX 12 14 13 15 15 16 16 17 5 18 17 20 14 22
REMARK H PARENT 5 19 17 21 14 23
REMARK Flexibility Score: inf
ROOT
ATOM      1  C   UNL     1      19.762  33.325   5.911  1.00  0.00     0.044 C 
ATOM      2  C   UNL     1      21.166  32.893   5.607  1.00  0.00    -0.047 A 
ATOM      3  C   UNL     1      21.864  32.080   6.509  1.00  0.00     0.016 A 
ATOM      4  C   UNL     1      23.167  31.641   6.219  1.00  0.00     0.038 A 
ATOM      5  C   UNL     1      23.775  32.004   4.999  1.00  0.00     0.076 A 
ATOM      6  C   UNL     1      23.063  32.816   4.086  1.00  0.00     0.127 A 
ATOM      7  C   UNL     1      21.766  33.246   4.393  1.00  0.00     0.050 A 
ATOM      8  C   UNL     1      25.139  31.500   4.691  1.00  0.00     0.201 C 
ATOM      9  O   UNL     1      25.547  31.503   3.499  1.00  0.00    -0.288 OA
ATOM     10  C   UNL     1      25.971  30.889   5.764  1.00  0.00     0.076 A 
ATOM     11  C   UNL     1      25.332  30.473   6.956  1.00  0.00     0.041 A 
ATOM     12  C   UNL     1      23.903  30.794   7.185  1.00  0.00     0.194 C 
ATOM     13  O   UNL     1      23.317  30.362   8.216  1.00  0.00    -0.289 OA
ATOM     14  C   UNL     1      26.056  29.762   7.928  1.00  0.00     0.059 A 
ATOM     15  C   UNL     1      27.409  29.474   7.736  1.00  0.00     0.120 A 
ATOM     16  C   UNL     1      28.056  29.923   6.587  1.00  0.00     0.093 A 
ATOM     17  C   UNL     1      27.366  30.656   5.615  1.00  0.00     0.131 A 
ENDROOT
BRANCH   6  18
ATOM     18  O   UNL     1      23.641  33.203   2.875  1.00  0.00    -0.507 OA
ATOM     19  H   UNL     1      23.183  33.034   1.988  1.00  0.00     0.293 HD
ENDBRANCH   6  18
BRANCH  17  20
ATOM     20  O   UNL     1      28.113  31.159   4.548  1.00  0.00    -0.507 OA
ATOM     21  H   UNL     1      28.516  32.086   4.533  1.00  0.00     0.293 HD
ENDBRANCH  17  20
BRANCH  15  22
ATOM     22  O   UNL     1      28.125  28.754   8.690  1.00  0.00    -0.508 OA
ATOM     23  H   UNL     1      27.690  28.429   9.546  1.00  0.00     0.293 HD
ENDBRANCH  15  22
TORSDOF 3
ENDMDL
MODEL 4
REMARK VINA RESULT:    -5.218      2.436      5.859
REMARK INTER + INTRA:          -5.675
REMARK INTER:                  -5.675
REMARK INTRA:                   0.000
REMARK UNBOUND:                 0.000
REMARK SMILES Cc1cc(O)c2c(c1)C(=O)c1cc(O)cc(O)c1C2=O
REMARK SMILES IDX 1 1 2 2 8 3 7 4 6 5 4 6 3 7 19 8 20 9 18 10 11 11 9 12 10 13
REMARK SMILES IDX 12 14 13 15 15 16 16 17 5 18 17 20 14 22
REMARK H PARENT 5 19 17 21 14 23
REMARK Flexibility Score: inf
ROOT
ATOM      1  C   UNL     1      20.626  34.000   5.275  1.00  0.00     0.044 C 
ATOM      2  C   UNL     1      21.504  32.789   5.158  1.00  0.00    -0.047 A 
ATOM      3  C   UNL     1      22.433  32.493   6.163  1.00  0.00     0.016 A 
ATOM      4  C   UNL     1      23.237  31.343   6.081  1.00  0.00     0.038 A 
ATOM      5  C   UNL     1      23.095  30.465   4.986  1.00  0.00     0.076 A 
ATOM      6  C   UNL     1      22.148  30.762   3.978  1.00  0.00     0.127 A 
ATOM      7  C   UNL     1      21.357  31.913   4.077  1.00  0.00     0.050 A 
ATOM      8  C   UNL     1      23.926  29.233   4.933  1.00  0.00     0.201 C 
ATOM      9  O   UNL     1      23.576  28.280   4.187  1.00  0.00    -0.288 OA
ATOM     10  C   UNL     1      25.096  29.080   5.842  1.00  0.00     0.076 A 
ATOM     11  C   UNL     1      25.187  29.930   6.970  1.00  0.00     0.041 A 
ATOM     12  C   UNL     1      24.227  31.046   7.140  1.00  0.00     0.194 C 
ATOM     13  O   UNL     1      24.265  31.757   8.183  1.00  0.00    -0.289 OA
ATOM     14  C   UNL     1      26.195  29.718   7.926  1.00  0.00     0.059 A 
ATOM     15  C   UNL     1      27.121  28.686   7.766  1.00  0.00     0.120 A 
ATOM     16  C   UNL     1      27.067  27.878   6.632  1.00  0.00     0.093 A 
ATOM     17  C   UNL     1      26.090  28.082   5.652  1.00  0.00     0.131 A 
ENDROOT
BRANCH   6  18
ATOM     18  O   UNL     1      21.993  29.919   2.876  1.00  0.00    -0.507 OA
ATOM     19  H   UNL     1      22.393  28.989   2.856  1.00  0.00     0.293 HD
ENDBRANCH   6  18
BRANCH  17  20
ATOM     20  O   UNL     1      26.173  27.298   4.498  1.00  0.00    -0.507 OA
ATOM     21  H   UNL     1      25.392  27.129   3.878  1.00  0.00     0.293 HD
ENDBRANCH  17  20
BRANCH  15  22
ATOM     22  O   UNL     1      28.111  28.464   8.721  1.00  0.00    -0.508 OA
ATOM     23  H   UNL     1      27.907  28.489   9.713  1.00  0.00     0.293 HD
ENDBRANCH  15  22
TORSDOF 3
ENDMDL
MODEL 5
REMARK VINA RESULT:    -5.053      3.115      6.252
REMARK INTER + INTRA:          -5.496
REMARK INTER:                  -5.496
REMARK INTRA:                   0.000
REMARK UNBOUND:                 0.000
REMARK SMILES Cc1cc(O)c2c(c1)C(=O)c1cc(O)cc(O)c1C2=O
REMARK SMILES IDX 1 1 2 2 8 3 7 4 6 5 4 6 3 7 19 8 20 9 18 10 11 11 9 12 10 13
REMARK SMILES IDX 12 14 13 15 15 16 16 17 5 18 17 20 14 22
REMARK H PARENT 5 19 17 21 14 23
REMARK Flexibility Score: inf
ROOT
ATOM      1  C   UNL     1      21.180  32.867   7.120  1.00  0.00     0.044 C 
ATOM      2  C   UNL     1      22.424  32.033   7.206  1.00  0.00    -0.047 A 
ATOM      3  C   UNL     1      22.535  30.854   6.459  1.00  0.00     0.016 A 
ATOM      4  C   UNL     1      23.709  30.083   6.505  1.00  0.00     0.038 A 
ATOM      5  C   UNL     1      24.797  30.508   7.296  1.00  0.00     0.076 A 
ATOM      6  C   UNL     1      24.686  31.706   8.040  1.00  0.00     0.127 A 
ATOM      7  C   UNL     1      23.507  32.460   7.982  1.00  0.00     0.050 A 
ATOM      8  C   UNL     1      26.046  29.701   7.304  1.00  0.00     0.201 C 
ATOM      9  O   UNL     1      27.122  30.228   7.694  1.00  0.00    -0.288 OA
ATOM     10  C   UNL     1      26.048  28.321   6.746  1.00  0.00     0.076 A 
ATOM     11  C   UNL     1      24.979  27.934   5.904  1.00  0.00     0.041 A 
ATOM     12  C   UNL     1      23.812  28.830   5.724  1.00  0.00     0.194 C 
ATOM     13  O   UNL     1      22.893  28.514   4.918  1.00  0.00    -0.289 OA
ATOM     14  C   UNL     1      25.021  26.694   5.243  1.00  0.00     0.059 A 
ATOM     15  C   UNL     1      26.103  25.830   5.423  1.00  0.00     0.120 A 
ATOM     16  C   UNL     1      27.135  26.184   6.289  1.00  0.00     0.093 A 
ATOM     17  C   UNL     1      27.106  27.400   6.980  1.00  0.00     0.131 A 
ENDROOT
BRANCH   6  18
ATOM     18  O   UNL     1      25.740  32.147   8.841  1.00  0.00    -0.507 OA
ATOM     19  H   UNL     1      25.646  32.951   9.449  1.00  0.00     0.293 HD
ENDBRANCH   6  18
BRANCH  17  20
ATOM     20  O   UNL     1      28.125  27.629   7.908  1.00  0.00    -0.507 OA
ATOM     21  H   UNL     1      28.002  27.546   8.908  1.00  0.00     0.293 HD
ENDBRANCH  17  20
BRANCH  15  22
ATOM     22  O   UNL     1      26.155  24.607   4.756  1.00  0.00    -0.508 OA
ATOM     23  H   UNL     1      26.755  24.466   3.952  1.00  0.00     0.293 HD
ENDBRANCH  15  22
TORSDOF 3
ENDMDL
MODEL 6
REMARK VINA RESULT:    -4.794      3.556      4.542
REMARK INTER + INTRA:          -5.214
REMARK INTER:                  -5.214
REMARK INTRA:                   0.000
REMARK UNBOUND:                 0.000
REMARK SMILES Cc1cc(O)c2c(c1)C(=O)c1cc(O)cc(O)c1C2=O
REMARK SMILES IDX 1 1 2 2 8 3 7 4 6 5 4 6 3 7 19 8 20 9 18 10 11 11 9 12 10 13
REMARK SMILES IDX 12 14 13 15 15 16 16 17 5 18 17 20 14 22
REMARK H PARENT 5 19 17 21 14 23
REMARK Flexibility Score: inf
ROOT
ATOM      1  C   UNL     1      25.459  23.920   4.006  1.00  0.00     0.044 C 
ATOM      2  C   UNL     1      25.628  25.180   4.802  1.00  0.00    -0.047 A 
ATOM      3  C   UNL     1      24.595  26.125   4.854  1.00  0.00     0.016 A 
ATOM      4  C   UNL     1      24.729  27.293   5.624  1.00  0.00     0.038 A 
ATOM      5  C   UNL     1      25.906  27.511   6.369  1.00  0.00     0.076 A 
ATOM      6  C   UNL     1      26.943  26.550   6.323  1.00  0.00     0.127 A 
ATOM      7  C   UNL     1      26.792  25.392   5.549  1.00  0.00     0.050 A 
ATOM      8  C   UNL     1      26.017  28.733   7.209  1.00  0.00     0.201 C 
ATOM      9  O   UNL     1      26.868  28.774   8.136  1.00  0.00    -0.288 OA
ATOM     10  C   UNL     1      25.051  29.852   7.031  1.00  0.00     0.076 A 
ATOM     11  C   UNL     1      23.846  29.597   6.333  1.00  0.00     0.041 A 
ATOM     12  C   UNL     1      23.638  28.293   5.661  1.00  0.00     0.194 C 
ATOM     13  O   UNL     1      22.535  28.041   5.100  1.00  0.00    -0.289 OA
ATOM     14  C   UNL     1      22.849  30.586   6.273  1.00  0.00     0.059 A 
ATOM     15  C   UNL     1      23.042  31.828   6.881  1.00  0.00     0.120 A 
ATOM     16  C   UNL     1      24.246  32.102   7.527  1.00  0.00     0.093 A 
ATOM     17  C   UNL     1      25.266  31.146   7.580  1.00  0.00     0.131 A 
ENDROOT
BRANCH   6  18
ATOM     18  O   UNL     1      28.125  26.742   7.040  1.00  0.00    -0.507 OA
ATOM     19  H   UNL     1      28.972  26.234   6.817  1.00  0.00     0.293 HD
ENDBRANCH   6  18
BRANCH  17  20
ATOM     20  O   UNL     1      26.478  31.540   8.152  1.00  0.00    -0.507 OA
ATOM     21  H   UNL     1      27.162  30.892   8.518  1.00  0.00     0.293 HD
ENDBRANCH  17  20
BRANCH  15  22
ATOM     22  O   UNL     1      22.048  32.803   6.837  1.00  0.00    -0.508 OA
ATOM     23  H   UNL     1      21.691  33.157   5.957  1.00  0.00     0.293 HD
ENDBRANCH  15  22
TORSDOF 3
ENDMDL
MODEL 7
REMARK VINA RESULT:    -4.576      4.169      5.491
REMARK INTER + INTRA:          -4.977
REMARK INTER:                  -4.977
REMARK INTRA:                   0.000
REMARK UNBOUND:                 0.000
REMARK SMILES Cc1cc(O)c2c(c1)C(=O)c1cc(O)cc(O)c1C2=O
REMARK SMILES IDX 1 1 2 2 8 3 7 4 6 5 4 6 3 7 19 8 20 9 18 10 11 11 9 12 10 13
REMARK SMILES IDX 12 14 13 15 15 16 16 17 5 18 17 20 14 22
REMARK H PARENT 5 19 17 21 14 23
REMARK Flexibility Score: inf
ROOT
ATOM      1  C   UNL     1      26.578  22.615   5.664  1.00  0.00     0.044 C 
ATOM      2  C   UNL     1      25.869  23.937   5.687  1.00  0.00    -0.047 A 
ATOM      3  C   UNL     1      26.495  25.062   6.239  1.00  0.00     0.016 A 
ATOM      4  C   UNL     1      25.854  26.313   6.236  1.00  0.00     0.038 A 
ATOM      5  C   UNL     1      24.576  26.445   5.653  1.00  0.00     0.076 A 
ATOM      6  C   UNL     1      23.953  25.310   5.086  1.00  0.00     0.127 A 
ATOM      7  C   UNL     1      24.606  24.071   5.101  1.00  0.00     0.050 A 
ATOM      8  C   UNL     1      23.929  27.784   5.623  1.00  0.00     0.201 C 
ATOM      9  O   UNL     1      22.987  27.999   4.815  1.00  0.00    -0.288 OA
ATOM     10  C   UNL     1      24.466  28.893   6.458  1.00  0.00     0.076 A 
ATOM     11  C   UNL     1      25.775  28.768   6.982  1.00  0.00     0.041 A 
ATOM     12  C   UNL     1      26.516  27.494   6.835  1.00  0.00     0.194 C 
ATOM     13  O   UNL     1      27.709  27.407   7.240  1.00  0.00    -0.289 OA
ATOM     14  C   UNL     1      26.368  29.854   7.649  1.00  0.00     0.059 A 
ATOM     15  C   UNL     1      25.672  31.052   7.816  1.00  0.00     0.120 A 
ATOM     16  C   UNL     1      24.365  31.164   7.346  1.00  0.00     0.093 A 
ATOM     17  C   UNL     1      23.740  30.092   6.701  1.00  0.00     0.131 A 
ENDROOT
BRANCH   6  18
ATOM     18  O   UNL     1      22.684  25.405   4.513  1.00  0.00    -0.507 OA
ATOM     19  H   UNL     1      21.841  25.258   5.055  1.00  0.00     0.293 HD
ENDBRANCH   6  18
BRANCH  17  20
ATOM     20  O   UNL     1      22.396  30.252   6.357  1.00  0.00    -0.507 OA
ATOM     21  H   UNL     1      21.931  31.148   6.312  1.00  0.00     0.293 HD
ENDBRANCH  17  20
BRANCH  15  22
ATOM     22  O   UNL     1      26.265  32.135   8.462  1.00  0.00    -0.508 OA
ATOM     23  H   UNL     1      25.718  32.922   8.789  1.00  0.00     0.293 HD
ENDBRANCH  15  22
TORSDOF 3
ENDMDL
MODEL 8
REMARK VINA RESULT:    -4.553      4.636      6.783
REMARK INTER + INTRA:          -4.953
REMARK INTER:                  -4.953
REMARK INTRA:                   0.000
REMARK UNBOUND:                 0.000
REMARK SMILES Cc1cc(O)c2c(c1)C(=O)c1cc(O)cc(O)c1C2=O
REMARK SMILES IDX 1 1 2 2 8 3 7 4 6 5 4 6 3 7 19 8 20 9 18 10 11 11 9 12 10 13
REMARK SMILES IDX 12 14 13 15 15 16 16 17 5 18 17 20 14 22
REMARK H PARENT 5 19 17 21 14 23
REMARK Flexibility Score: inf
ROOT
ATOM      1  C   UNL     1      24.304  32.184   7.614  1.00  0.00     0.044 C 
ATOM      2  C   UNL     1      24.922  30.829   7.431  1.00  0.00    -0.047 A 
ATOM      3  C   UNL     1      24.218  29.818   6.765  1.00  0.00     0.016 A 
ATOM      4  C   UNL     1      24.800  28.556   6.558  1.00  0.00     0.038 A 
ATOM      5  C   UNL     1      26.115  28.308   7.005  1.00  0.00     0.076 A 
ATOM      6  C   UNL     1      26.827  29.335   7.667  1.00  0.00     0.127 A 
ATOM      7  C   UNL     1      26.229  30.586   7.866  1.00  0.00     0.050 A 
ATOM      8  C   UNL     1      26.731  26.980   6.744  1.00  0.00     0.201 C 
ATOM      9  O   UNL     1      27.983  26.854   6.802  1.00  0.00    -0.288 OA
ATOM     10  C   UNL     1      25.885  25.837   6.303  1.00  0.00     0.076 A 
ATOM     11  C   UNL     1      24.592  26.112   5.798  1.00  0.00     0.041 A 
ATOM     12  C   UNL     1      24.044  27.488   5.867  1.00  0.00     0.194 C 
ATOM     13  O   UNL     1      22.920  27.745   5.352  1.00  0.00    -0.289 OA
ATOM     14  C   UNL     1      23.823  25.077   5.238  1.00  0.00     0.059 A 
ATOM     15  C   UNL     1      24.317  23.772   5.189  1.00  0.00     0.120 A 
ATOM     16  C   UNL     1      25.569  23.485   5.729  1.00  0.00     0.093 A 
ATOM     17  C   UNL     1      26.345  24.491   6.316  1.00  0.00     0.131 A 
ENDROOT
BRANCH   6  18
ATOM     18  O   UNL     1      28.125  29.117   8.132  1.00  0.00    -0.507 OA
ATOM     19  H   UNL     1      28.375  28.278   8.641  1.00  0.00     0.293 HD
ENDBRANCH   6  18
BRANCH  17  20
ATOM     20  O   UNL     1      27.538  24.100   6.928  1.00  0.00    -0.507 OA
ATOM     21  H   UNL     1      28.267  24.745   7.199  1.00  0.00     0.293 HD
ENDBRANCH  17  20
BRANCH  15  22
ATOM     22  O   UNL     1      23.564  22.748   4.619  1.00  0.00    -0.508 OA
ATOM     23  H   UNL     1      22.580  22.632   4.831  1.00  0.00     0.293 HD
ENDBRANCH  15  22
TORSDOF 3
ENDMDL
MODEL 9
REMARK VINA RESULT:    -4.368      4.307      6.903
REMARK INTER + INTRA:          -4.751
REMARK INTER:                  -4.751
REMARK INTRA:                   0.000
REMARK UNBOUND:                 0.000
REMARK SMILES Cc1cc(O)c2c(c1)C(=O)c1cc(O)cc(O)c1C2=O
REMARK SMILES IDX 1 1 2 2 8 3 7 4 6 5 4 6 3 7 19 8 20 9 18 10 11 11 9 12 10 13
REMARK SMILES IDX 12 14 13 15 15 16 16 17 5 18 17 20 14 22
REMARK H PARENT 5 19 17 21 14 23
REMARK Flexibility Score: inf
ROOT
ATOM      1  C   UNL     1      25.870  32.103   8.474  1.00  0.00     0.044 C 
ATOM      2  C   UNL     1      25.466  30.845   7.763  1.00  0.00    -0.047 A 
ATOM      3  C   UNL     1      26.339  29.752   7.714  1.00  0.00     0.016 A 
ATOM      4  C   UNL     1      25.958  28.557   7.079  1.00  0.00     0.038 A 
ATOM      5  C   UNL     1      24.676  28.447   6.502  1.00  0.00     0.076 A 
ATOM      6  C   UNL     1      23.792  29.549   6.564  1.00  0.00     0.127 A 
ATOM      7  C   UNL     1      24.190  30.733   7.199  1.00  0.00     0.050 A 
ATOM      8  C   UNL     1      24.274  27.163   5.869  1.00  0.00     0.201 C 
ATOM      9  O   UNL     1      23.052  26.921   5.679  1.00  0.00    -0.288 OA
ATOM     10  C   UNL     1      25.297  26.124   5.570  1.00  0.00     0.076 A 
ATOM     11  C   UNL     1      26.557  26.218   6.207  1.00  0.00     0.041 A 
ATOM     12  C   UNL     1      26.893  27.411   7.019  1.00  0.00     0.194 C 
ATOM     13  O   UNL     1      27.989  27.460   7.644  1.00  0.00    -0.289 OA
ATOM     14  C   UNL     1      27.493  25.179   6.064  1.00  0.00     0.059 A 
ATOM     15  C   UNL     1      27.199  24.060   5.282  1.00  0.00     0.120 A 
ATOM     16  C   UNL     1      25.980  23.985   4.612  1.00  0.00     0.093 A 
ATOM     17  C   UNL     1      25.040  25.016   4.716  1.00  0.00     0.131 A 
ENDROOT
BRANCH   6  18
ATOM     18  O   UNL     1      22.521  29.476   5.992  1.00  0.00    -0.507 OA
ATOM     19  H   UNL     1      22.377  29.118   5.056  1.00  0.00     0.293 HD
ENDBRANCH   6  18
BRANCH  17  20
ATOM     20  O   UNL     1      23.891  24.912   3.929  1.00  0.00    -0.507 OA
ATOM     21  H   UNL     1      23.729  25.463   3.097  1.00  0.00     0.293 HD
ENDBRANCH  17  20
BRANCH  15  22
ATOM     22  O   UNL     1      28.119  23.022   5.152  1.00  0.00    -0.508 OA
ATOM     23  H   UNL     1      28.633  22.665   5.949  1.00  0.00     0.293 HD
ENDBRANCH  15  22
TORSDOF 3
ENDMDL
