MODEL 1
REMARK VINA RESULT:    -3.601      0.000      0.000
REMARK INTER + INTRA:         -11.404
REMARK INTER:                  -8.233
REMARK INTRA:                  -3.171
REMARK UNBOUND:                -3.171
REMARK SMILES CCCCCCCCCCCCCCCCCCCCCCCC(=O)[O-]
REMARK SMILES IDX 13 1 14 2 15 3 16 4 17 5 18 6 19 7 20 8 21 9 22 10 23 11
REMARK SMILES IDX 24 12 25 13 26 14 12 15 11 16 10 17 9 18 8 19 7 20 6 21 5 22
REMARK SMILES IDX 4 23 3 24 2 25 1 26
REMARK H PARENT
REMARK Flexibility Score: inf
ROOT
ATOM      1  C   UNL     1      97.696 -66.317   3.922  1.00  0.00     0.000 C 
ENDROOT
BRANCH   1   2
ATOM      2  C   UNL     1      97.544 -67.851   3.808  1.00  0.00     0.000 C 
BRANCH   2   3
ATOM      3  C   UNL     1      98.877 -68.618   3.688  1.00  0.00     0.000 C 
BRANCH   3   4
ATOM      4  C   UNL     1      99.513 -69.038   5.028  1.00  0.00     0.000 C 
BRANCH   4   5
ATOM      5  C   UNL     1     101.020 -68.745   5.099  1.00  0.00     0.000 C 
BRANCH   5   6
ATOM      6  C   UNL     1     101.349 -67.403   4.427  1.00  0.00     0.000 C 
BRANCH   6   7
ATOM      7  C   UNL     1     100.981 -66.188   5.299  1.00  0.00     0.000 C 
BRANCH   7   8
ATOM      8  C   UNL     1     101.663 -66.152   6.678  1.00  0.00     0.000 C 
BRANCH   8   9
ATOM      9  C   UNL     1     100.667 -65.937   7.831  1.00  0.00     0.000 C 
BRANCH   9  10
ATOM     10  C   UNL     1     101.044 -66.718   9.105  1.00  0.00     0.006 C 
BRANCH  10  11
ATOM     11  C   UNL     1     101.149 -68.238   8.896  1.00  0.00     0.053 C 
BRANCH  11  12
ATOM     12  C   UNL     1     101.090 -69.002  10.183  1.00  0.00     0.041 C 
ATOM     13  O   UNL     1     102.058 -69.727  10.533  1.00  0.00    -0.550 OA
ATOM     14  O   UNL     1      99.961 -68.928  10.987  1.00  0.00    -0.550 OA
ENDBRANCH  11  12
ENDBRANCH  10  11
ENDBRANCH   9  10
ENDBRANCH   8   9
ENDBRANCH   7   8
ENDBRANCH   6   7
ENDBRANCH   5   6
ENDBRANCH   4   5
ENDBRANCH   3   4
ENDBRANCH   2   3
ENDBRANCH   1   2
BRANCH   1  15
ATOM     15  C   UNL     1      97.055 -65.542   2.755  1.00  0.00     0.000 C 
BRANCH  15  16
ATOM     16  C   UNL     1      98.008 -65.236   1.585  1.00  0.00     0.000 C 
BRANCH  16  17
ATOM     17  C   UNL     1      99.512 -65.342   1.918  1.00  0.00     0.000 C 
BRANCH  17  18
ATOM     18  C   UNL     1     100.295 -66.373   1.086  1.00  0.00    -0.000 C 
BRANCH  18  19
ATOM     19  C   UNL     1      99.513 -66.875  -0.135  1.00  0.00    -0.000 C 
BRANCH  19  20
ATOM     20  C   UNL     1      99.098 -68.343   0.043  1.00  0.00    -0.000 C 
BRANCH  20  21
ATOM     21  C   UNL     1      98.647 -68.995  -1.281  1.00  0.00    -0.000 C 
BRANCH  21  22
ATOM     22  C   UNL     1      97.927 -68.026  -2.240  1.00  0.00    -0.000 C 
BRANCH  22  23
ATOM     23  C   UNL     1      98.580 -67.866  -3.627  1.00  0.00    -0.000 C 
BRANCH  23  24
ATOM     24  C   UNL     1      99.369 -66.557  -3.825  1.00  0.00    -0.000 C 
BRANCH  24  25
ATOM     25  C   UNL     1     100.886 -66.749  -3.683  1.00  0.00    -0.003 C 
ATOM     26  C   UNL     1     101.260 -68.227  -3.735  1.00  0.00     0.004 C 
ENDBRANCH  24  25
ENDBRANCH  23  24
ENDBRANCH  22  23
ENDBRANCH  21  22
ENDBRANCH  20  21
ENDBRANCH  19  20
ENDBRANCH  18  19
ENDBRANCH  17  18
ENDBRANCH  16  17
ENDBRANCH  15  16
ENDBRANCH   1  15
TORSDOF 22
ENDMDL
MODEL 2
REMARK VINA RESULT:    -3.573      1.520      2.229
REMARK INTER + INTRA:         -11.339
REMARK INTER:                  -8.289
REMARK INTRA:                  -3.050
REMARK UNBOUND:                -3.171
REMARK SMILES CCCCCCCCCCCCCCCCCCCCCCCC(=O)[O-]
REMARK SMILES IDX 13 1 14 2 15 3 16 4 17 5 18 6 19 7 20 8 21 9 22 10 23 11
REMARK SMILES IDX 24 12 25 13 26 14 12 15 11 16 10 17 9 18 8 19 7 20 6 21 5 22
REMARK SMILES IDX 4 23 3 24 2 25 1 26
REMARK H PARENT
REMARK Flexibility Score: inf
ROOT
ATOM      1  C   UNL     1      97.841 -65.958   2.511  1.00  0.00     0.000 C 
ENDROOT
BRANCH   1   2
ATOM      2  C   UNL     1      98.310 -65.292   3.825  1.00  0.00     0.000 C 
BRANCH   2   3
ATOM      3  C   UNL     1      99.341 -66.114   4.625  1.00  0.00     0.000 C 
BRANCH   3   4
ATOM      4  C   UNL     1     100.509 -66.683   3.797  1.00  0.00     0.000 C 
BRANCH   4   5
ATOM      5  C   UNL     1     100.467 -68.213   3.666  1.00  0.00     0.000 C 
BRANCH   5   6
ATOM      6  C   UNL     1      99.497 -68.823   4.689  1.00  0.00     0.000 C 
BRANCH   6   7
ATOM      7  C   UNL     1     100.178 -69.820   5.645  1.00  0.00     0.000 C 
BRANCH   7   8
ATOM      8  C   UNL     1     101.608 -69.436   6.067  1.00  0.00     0.000 C 
BRANCH   8   9
ATOM      9  C   UNL     1     101.637 -68.360   7.167  1.00  0.00     0.000 C 
BRANCH   9  10
ATOM     10  C   UNL     1     100.731 -68.701   8.365  1.00  0.00     0.006 C 
BRANCH  10  11
ATOM     11  C   UNL     1     101.248 -68.164   9.711  1.00  0.00     0.053 C 
BRANCH  11  12
ATOM     12  C   UNL     1     100.360 -67.106  10.288  1.00  0.00     0.041 C 
ATOM     13  O   UNL     1      99.770 -67.304  11.383  1.00  0.00    -0.550 OA
ATOM     14  O   UNL     1     100.170 -65.909   9.612  1.00  0.00    -0.550 OA
ENDBRANCH  11  12
ENDBRANCH  10  11
ENDBRANCH   9  10
ENDBRANCH   8   9
ENDBRANCH   7   8
ENDBRANCH   6   7
ENDBRANCH   5   6
ENDBRANCH   4   5
ENDBRANCH   3   4
ENDBRANCH   2   3
ENDBRANCH   1   2
BRANCH   1  15
ATOM     15  C   UNL     1      97.581 -64.959   1.368  1.00  0.00     0.000 C 
BRANCH  15  16
ATOM     16  C   UNL     1      98.576 -65.048   0.196  1.00  0.00     0.000 C 
BRANCH  16  17
ATOM     17  C   UNL     1      99.920 -65.734   0.526  1.00  0.00     0.000 C 
BRANCH  17  18
ATOM     18  C   UNL     1     100.611 -66.425  -0.663  1.00  0.00    -0.000 C 
BRANCH  18  19
ATOM     19  C   UNL     1     100.637 -67.954  -0.535  1.00  0.00    -0.000 C 
BRANCH  19  20
ATOM     20  C   UNL     1      99.432 -68.458   0.274  1.00  0.00    -0.000 C 
BRANCH  20  21
ATOM     21  C   UNL     1      98.510 -69.382  -0.551  1.00  0.00    -0.000 C 
BRANCH  21  22
ATOM     22  C   UNL     1      98.366 -68.961  -2.027  1.00  0.00    -0.000 C 
BRANCH  22  23
ATOM     23  C   UNL     1      97.551 -67.676  -2.269  1.00  0.00    -0.000 C 
BRANCH  23  24
ATOM     24  C   UNL     1      97.591 -67.144  -3.714  1.00  0.00    -0.000 C 
BRANCH  24  25
ATOM     25  C   UNL     1      98.870 -67.546  -4.461  1.00  0.00    -0.003 C 
ATOM     26  C   UNL     1      99.952 -66.480  -4.314  1.00  0.00     0.004 C 
ENDBRANCH  24  25
ENDBRANCH  23  24
ENDBRANCH  22  23
ENDBRANCH  21  22
ENDBRANCH  20  21
ENDBRANCH  19  20
ENDBRANCH  18  19
ENDBRANCH  17  18
ENDBRANCH  16  17
ENDBRANCH  15  16
ENDBRANCH   1  15
TORSDOF 22
ENDMDL
MODEL 3
REMARK VINA RESULT:    -3.551      3.996      9.296
REMARK INTER + INTRA:         -11.289
REMARK INTER:                  -8.236
REMARK INTRA:                  -3.053
REMARK UNBOUND:                -3.171
REMARK SMILES CCCCCCCCCCCCCCCCCCCCCCCC(=O)[O-]
REMARK SMILES IDX 13 1 14 2 15 3 16 4 17 5 18 6 19 7 20 8 21 9 22 10 23 11
REMARK SMILES IDX 24 12 25 13 26 14 12 15 11 16 10 17 9 18 8 19 7 20 6 21 5 22
REMARK SMILES IDX 4 23 3 24 2 25 1 26
REMARK H PARENT
REMARK Flexibility Score: inf
ROOT
ATOM      1  C   UNL     1      97.985 -67.868   3.487  1.00  0.00     0.000 C 
ENDROOT
BRANCH   1   2
ATOM      2  C   UNL     1      97.881 -66.557   4.300  1.00  0.00     0.000 C 
BRANCH   2   3
ATOM      3  C   UNL     1      97.876 -65.274   3.445  1.00  0.00     0.000 C 
BRANCH   3   4
ATOM      4  C   UNL     1      99.134 -65.058   2.582  1.00  0.00     0.000 C 
BRANCH   4   5
ATOM      5  C   UNL     1     100.421 -64.929   3.412  1.00  0.00     0.000 C 
BRANCH   5   6
ATOM      6  C   UNL     1     101.550 -65.778   2.808  1.00  0.00     0.000 C 
BRANCH   6   7
ATOM      7  C   UNL     1     101.960 -65.319   1.397  1.00  0.00     0.000 C 
BRANCH   7   8
ATOM      8  C   UNL     1     101.808 -66.388   0.300  1.00  0.00     0.000 C 
BRANCH   8   9
ATOM      9  C   UNL     1     100.911 -67.562   0.730  1.00  0.00     0.000 C 
BRANCH   9  10
ATOM     10  C   UNL     1     100.114 -68.170  -0.440  1.00  0.00     0.006 C 
BRANCH  10  11
ATOM     11  C   UNL     1      98.952 -67.289  -0.927  1.00  0.00     0.053 C 
BRANCH  11  12
ATOM     12  C   UNL     1      98.134 -67.951  -1.993  1.00  0.00     0.041 C 
ATOM     13  O   UNL     1      98.400 -69.127  -2.355  1.00  0.00    -0.550 OA
ATOM     14  O   UNL     1      97.090 -67.265  -2.598  1.00  0.00    -0.550 OA
ENDBRANCH  11  12
ENDBRANCH  10  11
ENDBRANCH   9  10
ENDBRANCH   8   9
ENDBRANCH   7   8
ENDBRANCH   6   7
ENDBRANCH   5   6
ENDBRANCH   4   5
ENDBRANCH   3   4
ENDBRANCH   2   3
ENDBRANCH   1   2
BRANCH   1  15
ATOM     15  C   UNL     1      99.320 -68.612   3.680  1.00  0.00     0.000 C 
BRANCH  15  16
ATOM     16  C   UNL     1      99.482 -69.303   5.047  1.00  0.00     0.000 C 
BRANCH  16  17
ATOM     17  C   UNL     1     100.940 -69.581   5.473  1.00  0.00     0.000 C 
BRANCH  17  18
ATOM     18  C   UNL     1     101.831 -68.334   5.608  1.00  0.00    -0.000 C 
BRANCH  18  19
ATOM     19  C   UNL     1     101.670 -67.626   6.960  1.00  0.00    -0.000 C 
BRANCH  19  20
ATOM     20  C   UNL     1     100.853 -66.333   6.809  1.00  0.00    -0.000 C 
BRANCH  20  21
ATOM     21  C   UNL     1     100.590 -65.638   8.162  1.00  0.00    -0.000 C 
BRANCH  21  22
ATOM     22  C   UNL     1     101.161 -66.400   9.376  1.00  0.00    -0.000 C 
BRANCH  22  23
ATOM     23  C   UNL     1     100.183 -66.593  10.551  1.00  0.00    -0.000 C 
BRANCH  23  24
ATOM     24  C   UNL     1     100.045 -68.044  11.049  1.00  0.00    -0.000 C 
BRANCH  24  25
ATOM     25  C   UNL     1     101.178 -68.954  10.552  1.00  0.00    -0.003 C 
ATOM     26  C   UNL     1     101.910 -69.608  11.720  1.00  0.00     0.004 C 
ENDBRANCH  24  25
ENDBRANCH  23  24
ENDBRANCH  22  23
ENDBRANCH  21  22
ENDBRANCH  20  21
ENDBRANCH  19  20
ENDBRANCH  18  19
ENDBRANCH  17  18
ENDBRANCH  16  17
ENDBRANCH  15  16
ENDBRANCH   1  15
TORSDOF 22
ENDMDL
MODEL 4
REMARK VINA RESULT:    -3.531      1.137      1.998
REMARK INTER + INTRA:         -11.243
REMARK INTER:                  -7.753
REMARK INTRA:                  -3.490
REMARK UNBOUND:                -3.171
REMARK SMILES CCCCCCCCCCCCCCCCCCCCCCCC(=O)[O-]
REMARK SMILES IDX 13 1 14 2 15 3 16 4 17 5 18 6 19 7 20 8 21 9 22 10 23 11
REMARK SMILES IDX 24 12 25 13 26 14 12 15 11 16 10 17 9 18 8 19 7 20 6 21 5 22
REMARK SMILES IDX 4 23 3 24 2 25 1 26
REMARK H PARENT
REMARK Flexibility Score: inf
ROOT
ATOM      1  C   UNL     1      97.675 -67.331   3.448  1.00  0.00     0.000 C 
ENDROOT
BRANCH   1   2
ATOM      2  C   UNL     1      98.658 -68.523   3.399  1.00  0.00     0.000 C 
BRANCH   2   3
ATOM      3  C   UNL     1      99.102 -69.042   4.782  1.00  0.00     0.000 C 
BRANCH   3   4
ATOM      4  C   UNL     1     100.473 -68.530   5.263  1.00  0.00     0.000 C 
BRANCH   4   5
ATOM      5  C   UNL     1     101.271 -67.816   4.162  1.00  0.00     0.000 C 
BRANCH   5   6
ATOM      6  C   UNL     1     101.318 -66.301   4.414  1.00  0.00     0.000 C 
BRANCH   6   7
ATOM      7  C   UNL     1     100.765 -65.903   5.796  1.00  0.00     0.000 C 
BRANCH   7   8
ATOM      8  C   UNL     1     101.836 -65.655   6.873  1.00  0.00     0.000 C 
BRANCH   8   9
ATOM      9  C   UNL     1     102.058 -66.875   7.785  1.00  0.00     0.000 C 
BRANCH   9  10
ATOM     10  C   UNL     1     100.875 -67.139   8.735  1.00  0.00     0.006 C 
BRANCH  10  11
ATOM     11  C   UNL     1     100.799 -68.586   9.250  1.00  0.00     0.053 C 
BRANCH  11  12
ATOM     12  C   UNL     1     100.557 -68.661  10.726  1.00  0.00     0.041 C 
ATOM     13  O   UNL     1      99.755 -67.863  11.277  1.00  0.00    -0.550 OA
ATOM     14  O   UNL     1     101.230 -69.601  11.496  1.00  0.00    -0.550 OA
ENDBRANCH  11  12
ENDBRANCH  10  11
ENDBRANCH   9  10
ENDBRANCH   8   9
ENDBRANCH   7   8
ENDBRANCH   6   7
ENDBRANCH   5   6
ENDBRANCH   4   5
ENDBRANCH   3   4
ENDBRANCH   2   3
ENDBRANCH   1   2
BRANCH   1  15
ATOM     15  C   UNL     1      98.100 -66.141   2.567  1.00  0.00     0.000 C 
BRANCH  15  16
ATOM     16  C   UNL     1      98.829 -66.529   1.267  1.00  0.00     0.000 C 
BRANCH  16  17
ATOM     17  C   UNL     1      99.772 -65.448   0.696  1.00  0.00     0.000 C 
BRANCH  17  18
ATOM     18  C   UNL     1     101.186 -65.939   0.335  1.00  0.00    -0.000 C 
BRANCH  18  19
ATOM     19  C   UNL     1     101.334 -67.463   0.436  1.00  0.00    -0.000 C 
BRANCH  19  20
ATOM     20  C   UNL     1     102.038 -68.030  -0.806  1.00  0.00    -0.000 C 
BRANCH  20  21
ATOM     21  C   UNL     1     101.898 -67.112  -2.038  1.00  0.00    -0.000 C 
BRANCH  21  22
ATOM     22  C   UNL     1     101.565 -67.864  -3.342  1.00  0.00    -0.000 C 
BRANCH  22  23
ATOM     23  C   UNL     1     100.131 -67.665  -3.869  1.00  0.00    -0.000 C 
BRANCH  23  24
ATOM     24  C   UNL     1      99.166 -66.981  -2.882  1.00  0.00    -0.000 C 
BRANCH  24  25
ATOM     25  C   UNL     1      97.971 -67.869  -2.506  1.00  0.00    -0.003 C 
ATOM     26  C   UNL     1      98.364 -68.907  -1.460  1.00  0.00     0.004 C 
ENDBRANCH  24  25
ENDBRANCH  23  24
ENDBRANCH  22  23
ENDBRANCH  21  22
ENDBRANCH  20  21
ENDBRANCH  19  20
ENDBRANCH  18  19
ENDBRANCH  17  18
ENDBRANCH  16  17
ENDBRANCH  15  16
ENDBRANCH   1  15
TORSDOF 22
ENDMDL
MODEL 5
REMARK VINA RESULT:    -3.522      4.090      8.829
REMARK INTER + INTRA:         -11.224
REMARK INTER:                  -7.569
REMARK INTRA:                  -3.655
REMARK UNBOUND:                -3.171
REMARK SMILES CCCCCCCCCCCCCCCCCCCCCCCC(=O)[O-]
REMARK SMILES IDX 13 1 14 2 15 3 16 4 17 5 18 6 19 7 20 8 21 9 22 10 23 11
REMARK SMILES IDX 24 12 25 13 26 14 12 15 11 16 10 17 9 18 8 19 7 20 6 21 5 22
REMARK SMILES IDX 4 23 3 24 2 25 1 26
REMARK H PARENT
REMARK Flexibility Score: inf
ROOT
ATOM      1  C   UNL     1      97.985 -67.442   4.085  1.00  0.00     0.000 C 
ENDROOT
BRANCH   1   2
ATOM      2  C   UNL     1      98.397 -68.380   2.927  1.00  0.00     0.000 C 
BRANCH   2   3
ATOM      3  C   UNL     1      98.786 -67.652   1.624  1.00  0.00     0.000 C 
BRANCH   3   4
ATOM      4  C   UNL     1      99.222 -68.571   0.467  1.00  0.00     0.000 C 
BRANCH   4   5
ATOM      5  C   UNL     1     100.603 -68.209  -0.104  1.00  0.00     0.000 C 
BRANCH   5   6
ATOM      6  C   UNL     1     100.789 -66.684  -0.158  1.00  0.00     0.000 C 
BRANCH   6   7
ATOM      7  C   UNL     1     102.048 -66.259  -0.936  1.00  0.00     0.000 C 
BRANCH   7   8
ATOM      8  C   UNL     1     101.790 -65.809  -2.386  1.00  0.00     0.000 C 
BRANCH   8   9
ATOM      9  C   UNL     1     101.614 -66.991  -3.355  1.00  0.00     0.000 C 
BRANCH   9  10
ATOM     10  C   UNL     1     100.142 -67.243  -3.734  1.00  0.00     0.006 C 
BRANCH  10  11
ATOM     11  C   UNL     1      99.208 -66.059  -3.431  1.00  0.00     0.053 C 
BRANCH  11  12
ATOM     12  C   UNL     1      97.921 -66.487  -2.797  1.00  0.00     0.041 C 
ATOM     13  O   UNL     1      97.656 -66.152  -1.613  1.00  0.00    -0.550 OA
ATOM     14  O   UNL     1      97.021 -67.271  -3.507  1.00  0.00    -0.550 OA
ENDBRANCH  11  12
ENDBRANCH  10  11
ENDBRANCH   9  10
ENDBRANCH   8   9
ENDBRANCH   7   8
ENDBRANCH   6   7
ENDBRANCH   5   6
ENDBRANCH   4   5
ENDBRANCH   3   4
ENDBRANCH   2   3
ENDBRANCH   1   2
BRANCH   1  15
ATOM     15  C   UNL     1      97.827 -65.969   3.664  1.00  0.00     0.000 C 
BRANCH  15  16
ATOM     16  C   UNL     1      98.992 -65.051   4.081  1.00  0.00     0.000 C 
BRANCH  16  17
ATOM     17  C   UNL     1      99.869 -65.587   5.233  1.00  0.00     0.000 C 
BRANCH  17  18
ATOM     18  C   UNL     1     101.371 -65.695   4.914  1.00  0.00    -0.000 C 
BRANCH  18  19
ATOM     19  C   UNL     1     101.646 -66.164   3.479  1.00  0.00    -0.000 C 
BRANCH  19  20
ATOM     20  C   UNL     1     101.960 -67.667   3.443  1.00  0.00    -0.000 C 
BRANCH  20  21
ATOM     21  C   UNL     1     102.125 -68.272   4.853  1.00  0.00    -0.000 C 
BRANCH  21  22
ATOM     22  C   UNL     1     101.113 -69.391   5.173  1.00  0.00    -0.000 C 
BRANCH  22  23
ATOM     23  C   UNL     1     100.569 -69.392   6.615  1.00  0.00    -0.000 C 
BRANCH  23  24
ATOM     24  C   UNL     1     101.068 -68.233   7.498  1.00  0.00    -0.000 C 
BRANCH  24  25
ATOM     25  C   UNL     1     101.076 -68.584   8.993  1.00  0.00    -0.003 C 
ATOM     26  C   UNL     1     100.497 -67.446   9.828  1.00  0.00     0.004 C 
ENDBRANCH  24  25
ENDBRANCH  23  24
ENDBRANCH  22  23
ENDBRANCH  21  22
ENDBRANCH  20  21
ENDBRANCH  19  20
ENDBRANCH  18  19
ENDBRANCH  17  18
ENDBRANCH  16  17
ENDBRANCH  15  16
ENDBRANCH   1  15
TORSDOF 22
ENDMDL
MODEL 6
REMARK VINA RESULT:    -3.424      3.922     10.126
REMARK INTER + INTRA:         -11.000
REMARK INTER:                  -8.783
REMARK INTRA:                  -2.216
REMARK UNBOUND:                -3.171
REMARK SMILES CCCCCCCCCCCCCCCCCCCCCCCC(=O)[O-]
REMARK SMILES IDX 13 1 14 2 15 3 16 4 17 5 18 6 19 7 20 8 21 9 22 10 23 11
REMARK SMILES IDX 24 12 25 13 26 14 12 15 11 16 10 17 9 18 8 19 7 20 6 21 5 22
REMARK SMILES IDX 4 23 3 24 2 25 1 26
REMARK H PARENT
REMARK Flexibility Score: inf
ROOT
ATOM      1  C   UNL     1      98.475 -68.269   2.788  1.00  0.00     0.000 C 
ENDROOT
BRANCH   1   2
ATOM      2  C   UNL     1      99.287 -67.273   1.928  1.00  0.00     0.000 C 
BRANCH   2   3
ATOM      3  C   UNL     1     100.192 -67.934   0.869  1.00  0.00     0.000 C 
BRANCH   3   4
ATOM      4  C   UNL     1     101.345 -67.053   0.352  1.00  0.00     0.000 C 
BRANCH   4   5
ATOM      5  C   UNL     1     100.923 -66.120  -0.795  1.00  0.00     0.000 C 
BRANCH   5   6
ATOM      6  C   UNL     1     101.829 -66.316  -2.021  1.00  0.00     0.000 C 
BRANCH   6   7
ATOM      7  C   UNL     1     102.007 -67.796  -2.407  1.00  0.00     0.000 C 
BRANCH   7   8
ATOM      8  C   UNL     1     101.139 -68.264  -3.589  1.00  0.00     0.000 C 
BRANCH   8   9
ATOM      9  C   UNL     1     100.217 -67.156  -4.128  1.00  0.00     0.000 C 
BRANCH   9  10
ATOM     10  C   UNL     1      98.872 -67.696  -4.652  1.00  0.00     0.006 C 
BRANCH  10  11
ATOM     11  C   UNL     1      97.651 -67.207  -3.854  1.00  0.00     0.053 C 
BRANCH  11  12
ATOM     12  C   UNL     1      97.782 -67.464  -2.385  1.00  0.00     0.041 C 
ATOM     13  O   UNL     1      97.646 -66.521  -1.563  1.00  0.00    -0.550 OA
ATOM     14  O   UNL     1      98.072 -68.742  -1.923  1.00  0.00    -0.550 OA
ENDBRANCH  11  12
ENDBRANCH  10  11
ENDBRANCH   9  10
ENDBRANCH   8   9
ENDBRANCH   7   8
ENDBRANCH   6   7
ENDBRANCH   5   6
ENDBRANCH   4   5
ENDBRANCH   3   4
ENDBRANCH   2   3
ENDBRANCH   1   2
BRANCH   1  15
ATOM     15  C   UNL     1      98.815 -68.212   4.289  1.00  0.00     0.000 C 
BRANCH  15  16
ATOM     16  C   UNL     1     100.073 -69.001   4.696  1.00  0.00     0.000 C 
BRANCH  16  17
ATOM     17  C   UNL     1     100.029 -69.626   6.107  1.00  0.00     0.000 C 
BRANCH  17  18
ATOM     18  C   UNL     1     100.979 -68.986   7.135  1.00  0.00    -0.000 C 
BRANCH  18  19
ATOM     19  C   UNL     1     101.851 -67.876   6.533  1.00  0.00    -0.000 C 
BRANCH  19  20
ATOM     20  C   UNL     1     102.005 -66.705   7.515  1.00  0.00    -0.000 C 
BRANCH  20  21
ATOM     21  C   UNL     1     100.756 -65.799   7.557  1.00  0.00    -0.000 C 
BRANCH  21  22
ATOM     22  C   UNL     1     100.419 -65.266   8.964  1.00  0.00    -0.000 C 
BRANCH  22  23
ATOM     23  C   UNL     1     101.441 -65.618  10.063  1.00  0.00    -0.000 C 
BRANCH  23  24
ATOM     24  C   UNL     1     100.912 -66.555  11.165  1.00  0.00    -0.000 C 
BRANCH  24  25
ATOM     25  C   UNL     1     100.285 -67.839  10.605  1.00  0.00    -0.003 C 
ATOM     26  C   UNL     1     101.074 -69.071  11.036  1.00  0.00     0.004 C 
ENDBRANCH  24  25
ENDBRANCH  23  24
ENDBRANCH  22  23
ENDBRANCH  21  22
ENDBRANCH  20  21
ENDBRANCH  19  20
ENDBRANCH  18  19
ENDBRANCH  17  18
ENDBRANCH  16  17
ENDBRANCH  15  16
ENDBRANCH   1  15
TORSDOF 22
ENDMDL
MODEL 7
REMARK VINA RESULT:    -3.405      4.240      9.988
REMARK INTER + INTRA:         -10.956
REMARK INTER:                  -8.810
REMARK INTRA:                  -2.146
REMARK UNBOUND:                -3.171
REMARK SMILES CCCCCCCCCCCCCCCCCCCCCCCC(=O)[O-]
REMARK SMILES IDX 13 1 14 2 15 3 16 4 17 5 18 6 19 7 20 8 21 9 22 10 23 11
REMARK SMILES IDX 24 12 25 13 26 14 12 15 11 16 10 17 9 18 8 19 7 20 6 21 5 22
REMARK SMILES IDX 4 23 3 24 2 25 1 26
REMARK H PARENT
REMARK Flexibility Score: inf
ROOT
ATOM      1  C   UNL     1      97.487 -67.813   3.538  1.00  0.00     0.000 C 
ENDROOT
BRANCH   1   2
ATOM      2  C   UNL     1      97.642 -66.312   3.873  1.00  0.00     0.000 C 
BRANCH   2   3
ATOM      3  C   UNL     1      96.837 -65.367   2.957  1.00  0.00     0.000 C 
BRANCH   3   4
ATOM      4  C   UNL     1      97.583 -64.882   1.700  1.00  0.00     0.000 C 
BRANCH   4   5
ATOM      5  C   UNL     1      98.938 -65.577   1.496  1.00  0.00     0.000 C 
BRANCH   5   6
ATOM      6  C   UNL     1      98.919 -66.456   0.236  1.00  0.00     0.000 C 
BRANCH   6   7
ATOM      7  C   UNL     1     100.328 -66.816  -0.269  1.00  0.00     0.000 C 
BRANCH   7   8
ATOM      8  C   UNL     1     100.364 -67.882  -1.379  1.00  0.00     0.000 C 
BRANCH   8   9
ATOM      9  C   UNL     1     100.990 -67.363  -2.685  1.00  0.00     0.000 C 
BRANCH   9  10
ATOM     10  C   UNL     1      99.940 -66.872  -3.701  1.00  0.00     0.006 C 
BRANCH  10  11
ATOM     11  C   UNL     1      98.731 -67.810  -3.851  1.00  0.00     0.053 C 
BRANCH  11  12
ATOM     12  C   UNL     1      97.448 -67.169  -3.420  1.00  0.00     0.041 C 
ATOM     13  O   UNL     1      96.805 -67.634  -2.442  1.00  0.00    -0.550 OA
ATOM     14  O   UNL     1      96.952 -66.069  -4.108  1.00  0.00    -0.550 OA
ENDBRANCH  11  12
ENDBRANCH  10  11
ENDBRANCH   9  10
ENDBRANCH   8   9
ENDBRANCH   7   8
ENDBRANCH   6   7
ENDBRANCH   5   6
ENDBRANCH   4   5
ENDBRANCH   3   4
ENDBRANCH   2   3
ENDBRANCH   1   2
BRANCH   1  15
ATOM     15  C   UNL     1      98.771 -68.634   3.767  1.00  0.00     0.000 C 
BRANCH  15  16
ATOM     16  C   UNL     1      99.685 -68.102   4.886  1.00  0.00     0.000 C 
BRANCH  16  17
ATOM     17  C   UNL     1     100.964 -67.383   4.402  1.00  0.00     0.000 C 
BRANCH  17  18
ATOM     18  C   UNL     1     101.491 -66.284   5.341  1.00  0.00    -0.000 C 
BRANCH  18  19
ATOM     19  C   UNL     1     101.109 -66.517   6.809  1.00  0.00    -0.000 C 
BRANCH  19  20
ATOM     20  C   UNL     1     101.995 -67.600   7.442  1.00  0.00    -0.000 C 
BRANCH  20  21
ATOM     21  C   UNL     1     101.185 -68.620   8.270  1.00  0.00    -0.000 C 
BRANCH  21  22
ATOM     22  C   UNL     1     101.489 -68.580   9.781  1.00  0.00    -0.000 C 
BRANCH  22  23
ATOM     23  C   UNL     1     100.255 -68.636  10.702  1.00  0.00    -0.000 C 
BRANCH  23  24
ATOM     24  C   UNL     1      99.872 -67.295  11.358  1.00  0.00    -0.000 C 
BRANCH  24  25
ATOM     25  C   UNL     1     100.797 -66.143  10.940  1.00  0.00    -0.003 C 
ATOM     26  C   UNL     1     100.041 -65.099  10.124  1.00  0.00     0.004 C 
ENDBRANCH  24  25
ENDBRANCH  23  24
ENDBRANCH  22  23
ENDBRANCH  21  22
ENDBRANCH  20  21
ENDBRANCH  19  20
ENDBRANCH  18  19
ENDBRANCH  17  18
ENDBRANCH  16  17
ENDBRANCH  15  16
ENDBRANCH   1  15
TORSDOF 22
ENDMDL
MODEL 8
REMARK VINA RESULT:    -3.384      4.171      9.094
REMARK INTER + INTRA:         -10.907
REMARK INTER:                  -7.750
REMARK INTRA:                  -3.156
REMARK UNBOUND:                -3.171
REMARK SMILES CCCCCCCCCCCCCCCCCCCCCCCC(=O)[O-]
REMARK SMILES IDX 13 1 14 2 15 3 16 4 17 5 18 6 19 7 20 8 21 9 22 10 23 11
REMARK SMILES IDX 24 12 25 13 26 14 12 15 11 16 10 17 9 18 8 19 7 20 6 21 5 22
REMARK SMILES IDX 4 23 3 24 2 25 1 26
REMARK H PARENT
REMARK Flexibility Score: inf
ROOT
ATOM      1  C   UNL     1      97.476 -67.613   3.899  1.00  0.00     0.000 C 
ENDROOT
BRANCH   1   2
ATOM      2  C   UNL     1      98.715 -68.158   3.151  1.00  0.00     0.000 C 
BRANCH   2   3
ATOM      3  C   UNL     1      98.817 -67.713   1.678  1.00  0.00     0.000 C 
BRANCH   3   4
ATOM      4  C   UNL     1     100.176 -67.986   1.005  1.00  0.00     0.000 C 
BRANCH   4   5
ATOM      5  C   UNL     1     100.855 -66.712   0.479  1.00  0.00     0.000 C 
BRANCH   5   6
ATOM      6  C   UNL     1      99.868 -65.535   0.455  1.00  0.00     0.000 C 
BRANCH   6   7
ATOM      7  C   UNL     1      99.418 -65.156  -0.968  1.00  0.00     0.000 C 
BRANCH   7   8
ATOM      8  C   UNL     1      98.102 -65.811  -1.426  1.00  0.00     0.000 C 
BRANCH   8   9
ATOM      9  C   UNL     1      98.090 -66.138  -2.930  1.00  0.00     0.000 C 
BRANCH   9  10
ATOM     10  C   UNL     1      98.100 -67.652  -3.216  1.00  0.00     0.006 C 
BRANCH  10  11
ATOM     11  C   UNL     1      99.256 -68.407  -2.538  1.00  0.00     0.053 C 
BRANCH  11  12
ATOM     12  C   UNL     1     100.564 -68.208  -3.240  1.00  0.00     0.041 C 
ATOM     13  O   UNL     1     101.642 -68.235  -2.590  1.00  0.00    -0.550 OA
ATOM     14  O   UNL     1     100.593 -67.976  -4.609  1.00  0.00    -0.550 OA
ENDBRANCH  11  12
ENDBRANCH  10  11
ENDBRANCH   9  10
ENDBRANCH   8   9
ENDBRANCH   7   8
ENDBRANCH   6   7
ENDBRANCH   5   6
ENDBRANCH   4   5
ENDBRANCH   3   4
ENDBRANCH   2   3
ENDBRANCH   1   2
BRANCH   1  15
ATOM     15  C   UNL     1      97.111 -66.165   3.522  1.00  0.00     0.000 C 
BRANCH  15  16
ATOM     16  C   UNL     1      98.272 -65.159   3.629  1.00  0.00     0.000 C 
BRANCH  16  17
ATOM     17  C   UNL     1      98.802 -64.918   5.060  1.00  0.00     0.000 C 
BRANCH  17  18
ATOM     18  C   UNL     1     100.335 -64.898   5.194  1.00  0.00    -0.000 C 
BRANCH  18  19
ATOM     19  C   UNL     1     101.048 -65.557   4.005  1.00  0.00    -0.000 C 
BRANCH  19  20
ATOM     20  C   UNL     1     101.937 -66.719   4.472  1.00  0.00    -0.000 C 
BRANCH  20  21
ATOM     21  C   UNL     1     101.699 -67.089   5.951  1.00  0.00    -0.000 C 
BRANCH  21  22
ATOM     22  C   UNL     1     100.792 -68.321   6.148  1.00  0.00    -0.000 C 
BRANCH  22  23
ATOM     23  C   UNL     1     100.872 -68.982   7.538  1.00  0.00    -0.000 C 
BRANCH  23  24
ATOM     24  C   UNL     1     100.950 -67.998   8.721  1.00  0.00    -0.000 C 
BRANCH  24  25
ATOM     25  C   UNL     1     100.602 -68.653  10.065  1.00  0.00    -0.003 C 
ATOM     26  C   UNL     1     100.119 -67.617  11.074  1.00  0.00     0.004 C 
ENDBRANCH  24  25
ENDBRANCH  23  24
ENDBRANCH  22  23
ENDBRANCH  21  22
ENDBRANCH  20  21
ENDBRANCH  19  20
ENDBRANCH  18  19
ENDBRANCH  17  18
ENDBRANCH  16  17
ENDBRANCH  15  16
ENDBRANCH   1  15
TORSDOF 22
ENDMDL
