MODEL 1
REMARK VINA RESULT:    -5.906      0.000      0.000
REMARK INTER + INTRA:         -11.678
REMARK INTER:                 -10.739
REMARK INTRA:                  -0.939
REMARK UNBOUND:                -0.939
REMARK SMILES CCCCCCCCCCCCCCCC(=O)[O-]
REMARK SMILES IDX 9 1 10 2 11 3 12 4 13 5 14 6 15 7 16 8 17 9 18 10 8 11 7 12
REMARK SMILES IDX 6 13 5 14 4 15 3 16 2 17 1 18
REMARK H PARENT
REMARK Flexibility Score: inf
ROOT
ATOM      1  C   UNL     1     -11.268  -0.895  -9.625  1.00  0.00     0.000 C 
ENDROOT
BRANCH   1   2
ATOM      2  C   UNL     1     -12.306  -0.600 -10.722  1.00  0.00     0.000 C 
BRANCH   2   3
ATOM      3  C   UNL     1     -13.717  -1.116 -10.356  1.00  0.00     0.000 C 
BRANCH   3   4
ATOM      4  C   UNL     1     -14.824  -0.061 -10.540  1.00  0.00     0.000 C 
BRANCH   4   5
ATOM      5  C   UNL     1     -15.066   0.815  -9.298  1.00  0.00     0.000 C 
BRANCH   5   6
ATOM      6  C   UNL     1     -14.563   2.268  -9.470  1.00  0.00     0.006 C 
BRANCH   6   7
ATOM      7  C   UNL     1     -13.042   2.413  -9.320  1.00  0.00     0.053 C 
BRANCH   7   8
ATOM      8  C   UNL     1     -12.670   3.668  -8.589  1.00  0.00     0.041 C 
ATOM      9  O   UNL     1     -13.513   4.592  -8.448  1.00  0.00    -0.550 OA
ATOM     10  O   UNL     1     -11.399   3.811  -8.048  1.00  0.00    -0.550 OA
ENDBRANCH   7   8
ENDBRANCH   6   7
ENDBRANCH   5   6
ENDBRANCH   4   5
ENDBRANCH   3   4
ENDBRANCH   2   3
ENDBRANCH   1   2
BRANCH   1  11
ATOM     11  C   UNL     1     -10.998  -2.399  -9.452  1.00  0.00     0.000 C 
BRANCH  11  12
ATOM     12  C   UNL     1     -10.271  -2.717  -8.133  1.00  0.00    -0.000 C 
BRANCH  12  13
ATOM     13  C   UNL     1      -9.710  -4.148  -8.099  1.00  0.00    -0.000 C 
BRANCH  13  14
ATOM     14  C   UNL     1     -10.255  -5.027  -9.235  1.00  0.00    -0.000 C 
BRANCH  14  15
ATOM     15  C   UNL     1     -10.694  -6.398  -8.707  1.00  0.00    -0.000 C 
BRANCH  15  16
ATOM     16  C   UNL     1     -10.503  -6.486  -7.185  1.00  0.00    -0.000 C 
BRANCH  16  17
ATOM     17  C   UNL     1     -11.824  -6.737  -6.439  1.00  0.00    -0.003 C 
ATOM     18  C   UNL     1     -11.932  -5.937  -5.142  1.00  0.00     0.004 C 
ENDBRANCH  16  17
ENDBRANCH  15  16
ENDBRANCH  14  15
ENDBRANCH  13  14
ENDBRANCH  12  13
ENDBRANCH  11  12
ENDBRANCH   1  11
TORSDOF 14
ENDMDL
MODEL 2
REMARK VINA RESULT:    -5.778      0.962      1.324
REMARK INTER + INTRA:         -11.446
REMARK INTER:                 -10.620
REMARK INTRA:                  -0.827
REMARK UNBOUND:                -0.939
REMARK SMILES CCCCCCCCCCCCCCCC(=O)[O-]
REMARK SMILES IDX 9 1 10 2 11 3 12 4 13 5 14 6 15 7 16 8 17 9 18 10 8 11 7 12
REMARK SMILES IDX 6 13 5 14 4 15 3 16 2 17 1 18
REMARK H PARENT
REMARK Flexibility Score: inf
ROOT
ATOM      1  C   UNL     1     -11.192  -1.220  -9.549  1.00  0.00     0.000 C 
ENDROOT
BRANCH   1   2
ATOM      2  C   UNL     1     -12.187  -0.622 -10.558  1.00  0.00     0.000 C 
BRANCH   2   3
ATOM      3  C   UNL     1     -13.582  -1.287 -10.478  1.00  0.00     0.000 C 
BRANCH   3   4
ATOM      4  C   UNL     1     -14.744  -0.315 -10.754  1.00  0.00     0.000 C 
BRANCH   4   5
ATOM      5  C   UNL     1     -15.123   0.564  -9.550  1.00  0.00     0.000 C 
BRANCH   5   6
ATOM      6  C   UNL     1     -14.678   2.038  -9.707  1.00  0.00     0.006 C 
BRANCH   6   7
ATOM      7  C   UNL     1     -13.203   2.275  -9.350  1.00  0.00     0.053 C 
BRANCH   7   8
ATOM      8  C   UNL     1     -13.003   3.583  -8.646  1.00  0.00     0.041 C 
ATOM      9  O   UNL     1     -11.908   4.195  -8.748  1.00  0.00    -0.550 OA
ATOM     10  O   UNL     1     -14.030   4.136  -7.893  1.00  0.00    -0.550 OA
ENDBRANCH   7   8
ENDBRANCH   6   7
ENDBRANCH   5   6
ENDBRANCH   4   5
ENDBRANCH   3   4
ENDBRANCH   2   3
ENDBRANCH   1   2
BRANCH   1  11
ATOM     11  C   UNL     1     -10.039  -1.978 -10.229  1.00  0.00     0.000 C 
BRANCH  11  12
ATOM     12  C   UNL     1     -10.136  -3.500 -10.024  1.00  0.00    -0.000 C 
BRANCH  12  13
ATOM     13  C   UNL     1     -11.379  -3.908  -9.216  1.00  0.00    -0.000 C 
BRANCH  13  14
ATOM     14  C   UNL     1     -11.254  -5.311  -8.601  1.00  0.00    -0.000 C 
BRANCH  14  15
ATOM     15  C   UNL     1     -10.274  -5.308  -7.422  1.00  0.00    -0.000 C 
BRANCH  15  16
ATOM     16  C   UNL     1     -11.012  -5.072  -6.095  1.00  0.00    -0.000 C 
BRANCH  16  17
ATOM     17  C   UNL     1     -11.518  -6.379  -5.462  1.00  0.00    -0.003 C 
ATOM     18  C   UNL     1     -13.026  -6.568  -5.619  1.00  0.00     0.004 C 
ENDBRANCH  16  17
ENDBRANCH  15  16
ENDBRANCH  14  15
ENDBRANCH  13  14
ENDBRANCH  12  13
ENDBRANCH  11  12
ENDBRANCH   1  11
TORSDOF 14
ENDMDL
MODEL 3
REMARK VINA RESULT:    -5.721      3.802      8.115
REMARK INTER + INTRA:         -11.342
REMARK INTER:                 -10.424
REMARK INTRA:                  -0.918
REMARK UNBOUND:                -0.939
REMARK SMILES CCCCCCCCCCCCCCCC(=O)[O-]
REMARK SMILES IDX 9 1 10 2 11 3 12 4 13 5 14 6 15 7 16 8 17 9 18 10 8 11 7 12
REMARK SMILES IDX 6 13 5 14 4 15 3 16 2 17 1 18
REMARK H PARENT
REMARK Flexibility Score: inf
ROOT
ATOM      1  C   UNL     1     -11.413  -1.178  -9.545  1.00  0.00     0.000 C 
ENDROOT
BRANCH   1   2
ATOM      2  C   UNL     1     -10.180  -1.926 -10.079  1.00  0.00     0.000 C 
BRANCH   2   3
ATOM      3  C   UNL     1     -10.327  -3.462  -9.972  1.00  0.00     0.000 C 
BRANCH   3   4
ATOM      4  C   UNL     1     -11.254  -3.914  -8.829  1.00  0.00     0.000 C 
BRANCH   4   5
ATOM      5  C   UNL     1     -10.533  -4.121  -7.485  1.00  0.00     0.000 C 
BRANCH   5   6
ATOM      6  C   UNL     1     -10.617  -5.576  -6.966  1.00  0.00     0.006 C 
BRANCH   6   7
ATOM      7  C   UNL     1     -11.518  -5.737  -5.733  1.00  0.00     0.053 C 
BRANCH   7   8
ATOM      8  C   UNL     1     -12.733  -6.562  -6.033  1.00  0.00     0.041 C 
ATOM      9  O   UNL     1     -13.416  -6.332  -7.066  1.00  0.00    -0.550 OA
ATOM     10  O   UNL     1     -13.101  -7.599  -5.185  1.00  0.00    -0.550 OA
ENDBRANCH   7   8
ENDBRANCH   6   7
ENDBRANCH   5   6
ENDBRANCH   4   5
ENDBRANCH   3   4
ENDBRANCH   2   3
ENDBRANCH   1   2
BRANCH   1  11
ATOM     11  C   UNL     1     -12.338  -0.679 -10.668  1.00  0.00     0.000 C 
BRANCH  11  12
ATOM     12  C   UNL     1     -13.812  -1.046 -10.422  1.00  0.00    -0.000 C 
BRANCH  12  13
ATOM     13  C   UNL     1     -14.758   0.149 -10.617  1.00  0.00    -0.000 C 
BRANCH  13  14
ATOM     14  C   UNL     1     -15.102   0.857  -9.298  1.00  0.00    -0.000 C 
BRANCH  14  15
ATOM     15  C   UNL     1     -14.610   2.310  -9.310  1.00  0.00    -0.000 C 
BRANCH  15  16
ATOM     16  C   UNL     1     -13.076   2.370  -9.366  1.00  0.00    -0.000 C 
BRANCH  16  17
ATOM     17  C   UNL     1     -12.518   3.696  -8.824  1.00  0.00    -0.003 C 
ATOM     18  C   UNL     1     -13.352   4.264  -7.677  1.00  0.00     0.004 C 
ENDBRANCH  16  17
ENDBRANCH  15  16
ENDBRANCH  14  15
ENDBRANCH  13  14
ENDBRANCH  12  13
ENDBRANCH  11  12
ENDBRANCH   1  11
TORSDOF 14
ENDMDL
MODEL 4
REMARK VINA RESULT:    -5.626      3.616      8.342
REMARK INTER + INTRA:         -11.170
REMARK INTER:                 -10.216
REMARK INTRA:                  -0.954
REMARK UNBOUND:                -0.939
REMARK SMILES CCCCCCCCCCCCCCCC(=O)[O-]
REMARK SMILES IDX 9 1 10 2 11 3 12 4 13 5 14 6 15 7 16 8 17 9 18 10 8 11 7 12
REMARK SMILES IDX 6 13 5 14 4 15 3 16 2 17 1 18
REMARK H PARENT
REMARK Flexibility Score: inf
ROOT
ATOM      1  C   UNL     1     -10.628  -1.757  -8.712  1.00  0.00     0.000 C 
ENDROOT
BRANCH   1   2
ATOM      2  C   UNL     1     -10.423  -3.141  -8.073  1.00  0.00     0.000 C 
BRANCH   2   3
ATOM      3  C   UNL     1     -11.210  -4.254  -8.805  1.00  0.00     0.000 C 
BRANCH   3   4
ATOM      4  C   UNL     1     -10.398  -5.545  -9.016  1.00  0.00     0.000 C 
BRANCH   4   5
ATOM      5  C   UNL     1     -11.219  -6.835  -8.846  1.00  0.00     0.000 C 
BRANCH   5   6
ATOM      6  C   UNL     1     -10.694  -7.746  -7.711  1.00  0.00     0.006 C 
BRANCH   6   7
ATOM      7  C   UNL     1     -11.728  -8.009  -6.607  1.00  0.00     0.053 C 
BRANCH   7   8
ATOM      8  C   UNL     1     -12.166  -6.741  -5.939  1.00  0.00     0.041 C 
ATOM      9  O   UNL     1     -13.392  -6.490  -5.798  1.00  0.00    -0.550 OA
ATOM     10  O   UNL     1     -11.223  -5.844  -5.454  1.00  0.00    -0.550 OA
ENDBRANCH   7   8
ENDBRANCH   6   7
ENDBRANCH   5   6
ENDBRANCH   4   5
ENDBRANCH   3   4
ENDBRANCH   2   3
ENDBRANCH   1   2
BRANCH   1  11
ATOM     11  C   UNL     1     -11.513  -1.808  -9.969  1.00  0.00     0.000 C 
BRANCH  11  12
ATOM     12  C   UNL     1     -12.191  -0.459 -10.265  1.00  0.00    -0.000 C 
BRANCH  12  13
ATOM     13  C   UNL     1     -13.690  -0.607 -10.570  1.00  0.00    -0.000 C 
BRANCH  13  14
ATOM     14  C   UNL     1     -14.534   0.526  -9.967  1.00  0.00    -0.000 C 
BRANCH  14  15
ATOM     15  C   UNL     1     -13.640   1.604  -9.341  1.00  0.00    -0.000 C 
BRANCH  15  16
ATOM     16  C   UNL     1     -14.476   2.802  -8.865  1.00  0.00    -0.000 C 
BRANCH  16  17
ATOM     17  C   UNL     1     -13.605   3.973  -8.383  1.00  0.00    -0.003 C 
ATOM     18  C   UNL     1     -12.158   3.872  -8.863  1.00  0.00     0.004 C 
ENDBRANCH  16  17
ENDBRANCH  15  16
ENDBRANCH  14  15
ENDBRANCH  13  14
ENDBRANCH  12  13
ENDBRANCH  11  12
ENDBRANCH   1  11
TORSDOF 14
ENDMDL
MODEL 5
REMARK VINA RESULT:    -5.418      1.227      2.850
REMARK INTER + INTRA:         -10.792
REMARK INTER:                  -9.578
REMARK INTRA:                  -1.214
REMARK UNBOUND:                -0.939
REMARK SMILES CCCCCCCCCCCCCCCC(=O)[O-]
REMARK SMILES IDX 9 1 10 2 11 3 12 4 13 5 14 6 15 7 16 8 17 9 18 10 8 11 7 12
REMARK SMILES IDX 6 13 5 14 4 15 3 16 2 17 1 18
REMARK H PARENT
REMARK Flexibility Score: inf
ROOT
ATOM      1  C   UNL     1     -10.589  -3.726  -7.437  1.00  0.00     0.000 C 
ENDROOT
BRANCH   1   2
ATOM      2  C   UNL     1     -10.367  -2.396  -8.177  1.00  0.00     0.000 C 
BRANCH   2   3
ATOM      3  C   UNL     1     -10.881  -2.436  -9.636  1.00  0.00     0.000 C 
BRANCH   3   4
ATOM      4  C   UNL     1     -10.904  -1.057 -10.319  1.00  0.00     0.000 C 
BRANCH   4   5
ATOM      5  C   UNL     1     -12.199  -0.262 -10.079  1.00  0.00     0.000 C 
BRANCH   5   6
ATOM      6  C   UNL     1     -11.970   1.057  -9.302  1.00  0.00     0.006 C 
BRANCH   6   7
ATOM      7  C   UNL     1     -13.159   2.027  -9.377  1.00  0.00     0.053 C 
BRANCH   7   8
ATOM      8  C   UNL     1     -12.850   3.341  -8.725  1.00  0.00     0.041 C 
ATOM      9  O   UNL     1     -11.691   3.575  -8.292  1.00  0.00    -0.550 OA
ATOM     10  O   UNL     1     -13.834   4.314  -8.613  1.00  0.00    -0.550 OA
ENDBRANCH   7   8
ENDBRANCH   6   7
ENDBRANCH   5   6
ENDBRANCH   4   5
ENDBRANCH   3   4
ENDBRANCH   2   3
ENDBRANCH   1   2
BRANCH   1  11
ATOM     11  C   UNL     1      -9.900  -4.913  -8.131  1.00  0.00     0.000 C 
BRANCH  11  12
ATOM     12  C   UNL     1     -10.896  -5.813  -8.882  1.00  0.00    -0.000 C 
BRANCH  12  13
ATOM     13  C   UNL     1     -10.668  -7.308  -8.602  1.00  0.00    -0.000 C 
BRANCH  13  14
ATOM     14  C   UNL     1     -11.967  -8.053  -8.259  1.00  0.00    -0.000 C 
BRANCH  14  15
ATOM     15  C   UNL     1     -13.087  -7.069  -7.901  1.00  0.00    -0.000 C 
BRANCH  15  16
ATOM     16  C   UNL     1     -13.454  -7.172  -6.413  1.00  0.00    -0.000 C 
BRANCH  16  17
ATOM     17  C   UNL     1     -12.841  -6.039  -5.575  1.00  0.00    -0.003 C 
ATOM     18  C   UNL     1     -11.463  -6.394  -5.017  1.00  0.00     0.004 C 
ENDBRANCH  16  17
ENDBRANCH  15  16
ENDBRANCH  14  15
ENDBRANCH  13  14
ENDBRANCH  12  13
ENDBRANCH  11  12
ENDBRANCH   1  11
TORSDOF 14
ENDMDL
MODEL 6
REMARK VINA RESULT:    -5.342      3.922      8.227
REMARK INTER + INTRA:         -10.653
REMARK INTER:                  -9.740
REMARK INTRA:                  -0.914
REMARK UNBOUND:                -0.939
REMARK SMILES CCCCCCCCCCCCCCCC(=O)[O-]
REMARK SMILES IDX 9 1 10 2 11 3 12 4 13 5 14 6 15 7 16 8 17 9 18 10 8 11 7 12
REMARK SMILES IDX 6 13 5 14 4 15 3 16 2 17 1 18
REMARK H PARENT
REMARK Flexibility Score: inf
ROOT
ATOM      1  C   UNL     1     -10.051  -3.325  -9.051  1.00  0.00     0.000 C 
ENDROOT
BRANCH   1   2
ATOM      2  C   UNL     1     -11.017  -4.433  -8.600  1.00  0.00     0.000 C 
BRANCH   2   3
ATOM      3  C   UNL     1     -10.470  -5.850  -8.890  1.00  0.00     0.000 C 
BRANCH   3   4
ATOM      4  C   UNL     1     -11.572  -6.911  -9.066  1.00  0.00     0.000 C 
BRANCH   4   5
ATOM      5  C   UNL     1     -12.964  -6.449  -8.601  1.00  0.00     0.000 C 
BRANCH   5   6
ATOM      6  C   UNL     1     -13.486  -7.230  -7.370  1.00  0.00     0.006 C 
BRANCH   6   7
ATOM      7  C   UNL     1     -13.338  -6.461  -6.049  1.00  0.00     0.053 C 
BRANCH   7   8
ATOM      8  C   UNL     1     -12.043  -6.772  -5.363  1.00  0.00     0.041 C 
ATOM      9  O   UNL     1     -11.111  -5.926  -5.354  1.00  0.00    -0.550 OA
ATOM     10  O   UNL     1     -11.871  -7.989  -4.715  1.00  0.00    -0.550 OA
ENDBRANCH   7   8
ENDBRANCH   6   7
ENDBRANCH   5   6
ENDBRANCH   4   5
ENDBRANCH   3   4
ENDBRANCH   2   3
ENDBRANCH   1   2
BRANCH   1  11
ATOM     11  C   UNL     1     -10.603  -1.913  -8.793  1.00  0.00     0.000 C 
BRANCH  11  12
ATOM     12  C   UNL     1     -10.784  -1.106 -10.091  1.00  0.00    -0.000 C 
BRANCH  12  13
ATOM     13  C   UNL     1     -12.235  -0.646 -10.301  1.00  0.00    -0.000 C 
BRANCH  13  14
ATOM     14  C   UNL     1     -12.537   0.698  -9.621  1.00  0.00    -0.000 C 
BRANCH  14  15
ATOM     15  C   UNL     1     -14.009   1.088  -9.804  1.00  0.00    -0.000 C 
BRANCH  15  16
ATOM     16  C   UNL     1     -14.326   2.397  -9.065  1.00  0.00    -0.000 C 
BRANCH  16  17
ATOM     17  C   UNL     1     -13.159   3.396  -9.109  1.00  0.00    -0.003 C 
ATOM     18  C   UNL     1     -12.964   4.137  -7.787  1.00  0.00     0.004 C 
ENDBRANCH  16  17
ENDBRANCH  15  16
ENDBRANCH  14  15
ENDBRANCH  13  14
ENDBRANCH  12  13
ENDBRANCH  11  12
ENDBRANCH   1  11
TORSDOF 14
ENDMDL
MODEL 7
REMARK VINA RESULT:    -5.167      3.801      8.407
REMARK INTER + INTRA:         -10.335
REMARK INTER:                  -9.401
REMARK INTRA:                  -0.934
REMARK UNBOUND:                -0.939
REMARK SMILES CCCCCCCCCCCCCCCC(=O)[O-]
REMARK SMILES IDX 9 1 10 2 11 3 12 4 13 5 14 6 15 7 16 8 17 9 18 10 8 11 7 12
REMARK SMILES IDX 6 13 5 14 4 15 3 16 2 17 1 18
REMARK H PARENT
REMARK Flexibility Score: inf
ROOT
ATOM      1  C   UNL     1     -11.026  -3.421  -9.328  1.00  0.00     0.000 C 
ENDROOT
BRANCH   1   2
ATOM      2  C   UNL     1     -10.386  -4.440  -8.370  1.00  0.00     0.000 C 
BRANCH   2   3
ATOM      3  C   UNL     1     -11.013  -4.399  -6.957  1.00  0.00     0.000 C 
BRANCH   3   4
ATOM      4  C   UNL     1     -10.824  -5.704  -6.162  1.00  0.00     0.000 C 
BRANCH   4   5
ATOM      5  C   UNL     1     -10.439  -6.915  -7.030  1.00  0.00     0.000 C 
BRANCH   5   6
ATOM      6  C   UNL     1     -11.475  -8.063  -6.969  1.00  0.00     0.006 C 
BRANCH   6   7
ATOM      7  C   UNL     1     -12.923  -7.594  -7.171  1.00  0.00     0.053 C 
BRANCH   7   8
ATOM      8  C   UNL     1     -13.145  -7.045  -8.548  1.00  0.00     0.041 C 
ATOM      9  O   UNL     1     -12.824  -7.722  -9.559  1.00  0.00    -0.550 OA
ATOM     10  O   UNL     1     -13.725  -5.794  -8.716  1.00  0.00    -0.550 OA
ENDBRANCH   7   8
ENDBRANCH   6   7
ENDBRANCH   5   6
ENDBRANCH   4   5
ENDBRANCH   3   4
ENDBRANCH   2   3
ENDBRANCH   1   2
BRANCH   1  11
ATOM     11  C   UNL     1     -10.574  -1.977  -9.047  1.00  0.00     0.000 C 
BRANCH  11  12
ATOM     12  C   UNL     1     -10.938  -1.015 -10.192  1.00  0.00    -0.000 C 
BRANCH  12  13
ATOM     13  C   UNL     1     -12.403  -0.553 -10.129  1.00  0.00    -0.000 C 
BRANCH  13  14
ATOM     14  C   UNL     1     -12.550   0.884  -9.605  1.00  0.00    -0.000 C 
BRANCH  14  15
ATOM     15  C   UNL     1     -14.027   1.289  -9.522  1.00  0.00    -0.000 C 
BRANCH  15  16
ATOM     16  C   UNL     1     -14.170   2.767  -9.126  1.00  0.00    -0.000 C 
BRANCH  16  17
ATOM     17  C   UNL     1     -12.830   3.520  -9.166  1.00  0.00    -0.003 C 
ATOM     18  C   UNL     1     -12.353   3.953  -7.781  1.00  0.00     0.004 C 
ENDBRANCH  16  17
ENDBRANCH  15  16
ENDBRANCH  14  15
ENDBRANCH  13  14
ENDBRANCH  12  13
ENDBRANCH  11  12
ENDBRANCH   1  11
TORSDOF 14
ENDMDL
MODEL 8
REMARK VINA RESULT:    -4.984     15.748     18.266
REMARK INTER + INTRA:         -10.002
REMARK INTER:                  -8.283
REMARK INTRA:                  -1.719
REMARK UNBOUND:                -0.939
REMARK SMILES CCCCCCCCCCCCCCCC(=O)[O-]
REMARK SMILES IDX 9 1 10 2 11 3 12 4 13 5 14 6 15 7 16 8 17 9 18 10 8 11 7 12
REMARK SMILES IDX 6 13 5 14 4 15 3 16 2 17 1 18
REMARK H PARENT
REMARK Flexibility Score: inf
ROOT
ATOM      1  C   UNL     1     -11.107   3.803   7.847  1.00  0.00     0.000 C 
ENDROOT
BRANCH   1   2
ATOM      2  C   UNL     1     -12.506   4.147   8.385  1.00  0.00     0.000 C 
BRANCH   2   3
ATOM      3  C   UNL     1     -12.568   5.560   9.013  1.00  0.00     0.000 C 
BRANCH   3   4
ATOM      4  C   UNL     1     -13.498   6.528   8.260  1.00  0.00     0.000 C 
BRANCH   4   5
ATOM      5  C   UNL     1     -12.754   7.580   7.418  1.00  0.00     0.000 C 
BRANCH   5   6
ATOM      6  C   UNL     1     -13.108   7.517   5.913  1.00  0.00     0.006 C 
BRANCH   6   7
ATOM      7  C   UNL     1     -14.058   6.366   5.553  1.00  0.00     0.053 C 
BRANCH   7   8
ATOM      8  C   UNL     1     -13.518   5.522   4.438  1.00  0.00     0.041 C 
ATOM      9  O   UNL     1     -13.958   5.663   3.267  1.00  0.00    -0.550 OA
ATOM     10  O   UNL     1     -12.514   4.595   4.687  1.00  0.00    -0.550 OA
ENDBRANCH   7   8
ENDBRANCH   6   7
ENDBRANCH   5   6
ENDBRANCH   4   5
ENDBRANCH   3   4
ENDBRANCH   2   3
ENDBRANCH   1   2
BRANCH   1  11
ATOM     11  C   UNL     1     -10.107   4.961   8.008  1.00  0.00     0.000 C 
BRANCH  11  12
ATOM     12  C   UNL     1      -9.621   5.509   6.655  1.00  0.00    -0.000 C 
BRANCH  12  13
ATOM     13  C   UNL     1      -8.916   6.869   6.789  1.00  0.00    -0.000 C 
BRANCH  13  14
ATOM     14  C   UNL     1      -9.393   7.891   5.745  1.00  0.00    -0.000 C 
BRANCH  14  15
ATOM     15  C   UNL     1      -8.212   8.686   5.176  1.00  0.00    -0.000 C 
BRANCH  15  16
ATOM     16  C   UNL     1      -8.186  10.114   5.745  1.00  0.00    -0.000 C 
BRANCH  16  17
ATOM     17  C   UNL     1      -6.791  10.754   5.667  1.00  0.00    -0.003 C 
ATOM     18  C   UNL     1      -5.732   9.961   6.432  1.00  0.00     0.004 C 
ENDBRANCH  16  17
ENDBRANCH  15  16
ENDBRANCH  14  15
ENDBRANCH  13  14
ENDBRANCH  12  13
ENDBRANCH  11  12
ENDBRANCH   1  11
TORSDOF 14
ENDMDL
MODEL 9
REMARK VINA RESULT:    -4.876     16.329     18.403
REMARK INTER + INTRA:          -9.805
REMARK INTER:                  -7.525
REMARK INTRA:                  -2.280
REMARK UNBOUND:                -0.939
REMARK SMILES CCCCCCCCCCCCCCCC(=O)[O-]
REMARK SMILES IDX 9 1 10 2 11 3 12 4 13 5 14 6 15 7 16 8 17 9 18 10 8 11 7 12
REMARK SMILES IDX 6 13 5 14 4 15 3 16 2 17 1 18
REMARK H PARENT
REMARK Flexibility Score: inf
ROOT
ATOM      1  C   UNL     1     -11.257   4.629   5.377  1.00  0.00     0.000 C 
ENDROOT
BRANCH   1   2
ATOM      2  C   UNL     1      -9.978   5.482   5.359  1.00  0.00     0.000 C 
BRANCH   2   3
ATOM      3  C   UNL     1      -9.423   5.748   6.778  1.00  0.00     0.000 C 
BRANCH   3   4
ATOM      4  C   UNL     1      -8.781   7.139   6.937  1.00  0.00     0.000 C 
BRANCH   4   5
ATOM      5  C   UNL     1      -9.141   8.126   5.813  1.00  0.00     0.000 C 
BRANCH   5   6
ATOM      6  C   UNL     1      -7.903   8.667   5.057  1.00  0.00     0.006 C 
BRANCH   6   7
ATOM      7  C   UNL     1      -7.543  10.113   5.427  1.00  0.00     0.053 C 
BRANCH   7   8
ATOM      8  C   UNL     1      -6.632  10.176   6.616  1.00  0.00     0.041 C 
ATOM      9  O   UNL     1      -7.112  10.234   7.778  1.00  0.00    -0.550 OA
ATOM     10  O   UNL     1      -5.254  10.149   6.442  1.00  0.00    -0.550 OA
ENDBRANCH   7   8
ENDBRANCH   6   7
ENDBRANCH   5   6
ENDBRANCH   4   5
ENDBRANCH   3   4
ENDBRANCH   2   3
ENDBRANCH   1   2
BRANCH   1  11
ATOM     11  C   UNL     1     -11.355   3.732   6.624  1.00  0.00     0.000 C 
BRANCH  11  12
ATOM     12  C   UNL     1     -12.636   3.993   7.435  1.00  0.00    -0.000 C 
BRANCH  12  13
ATOM     13  C   UNL     1     -12.341   4.456   8.871  1.00  0.00    -0.000 C 
BRANCH  13  14
ATOM     14  C   UNL     1     -12.304   5.986   9.006  1.00  0.00    -0.000 C 
BRANCH  14  15
ATOM     15  C   UNL     1     -13.286   6.647   8.031  1.00  0.00    -0.000 C 
BRANCH  15  16
ATOM     16  C   UNL     1     -12.570   7.680   7.146  1.00  0.00    -0.000 C 
BRANCH  16  17
ATOM     17  C   UNL     1     -13.350   7.996   5.861  1.00  0.00    -0.003 C 
ATOM     18  C   UNL     1     -14.177   6.811   5.364  1.00  0.00     0.004 C 
ENDBRANCH  16  17
ENDBRANCH  15  16
ENDBRANCH  14  15
ENDBRANCH  13  14
ENDBRANCH  12  13
ENDBRANCH  11  12
ENDBRANCH   1  11
TORSDOF 14
ENDMDL
