MODEL 1
REMARK VINA RESULT:    -2.860      0.000      0.000
REMARK INTER + INTRA:          -2.872
REMARK INTER:                  -3.110
REMARK INTRA:                   0.239
REMARK UNBOUND:                 0.239
REMARK SMILES C=C(C)[C@@H]1CC[C@@H](C)C[C@H]1O
REMARK SMILES IDX 8 1 7 2 6 3 5 4 4 5 10 6 9 7 11 8 2 10 1 11 3 12
REMARK H PARENT 11 9
REMARK Flexibility Score: inf
ROOT
ATOM      1  C   UNL     1      38.799 -33.001 -10.536  1.00  0.00     0.008 C 
ATOM      2  C   UNL     1      37.693 -33.867 -11.148  1.00  0.00    -0.012 C 
ATOM      3  C   UNL     1      36.457 -33.009 -11.478  1.00  0.00     0.004 C 
ATOM      4  C   UNL     1      35.337 -33.869 -12.077  1.00  0.00     0.011 C 
ATOM      5  C   UNL     1      34.956 -35.024 -11.129  1.00  0.00     0.043 C 
ATOM      6  C   UNL     1      36.195 -35.888 -10.783  1.00  0.00     0.121 C 
ATOM      7  C   UNL     1      37.313 -35.013 -10.192  1.00  0.00     0.035 C 
ENDROOT
BRANCH   6   8
ATOM      8  O   UNL     1      35.850 -36.871  -9.839  1.00  0.00    -0.392 OA
ATOM      9  H   UNL     1      35.027 -36.559  -9.382  1.00  0.00     0.210 HD
ENDBRANCH   6   8
BRANCH   5  10
ATOM     10  C   UNL     1      33.827 -35.860 -11.719  1.00  0.00    -0.075 C 
ATOM     11  C   UNL     1      34.033 -37.125 -12.125  1.00  0.00     0.008 C 
ATOM     12  C   UNL     1      32.444 -35.275 -11.854  1.00  0.00     0.039 C 
ENDBRANCH   5  10
TORSDOF 2
ENDMDL
MODEL 2
REMARK VINA RESULT:    -2.522      1.944      3.168
REMARK INTER + INTRA:          -2.505
REMARK INTER:                  -3.085
REMARK INTRA:                   0.580
REMARK UNBOUND:                 0.239
REMARK SMILES C=C(C)[C@@H]1CC[C@@H](C)C[C@H]1O
REMARK SMILES IDX 8 1 7 2 6 3 5 4 4 5 10 6 9 7 11 8 2 10 1 11 3 12
REMARK H PARENT 11 9
REMARK Flexibility Score: inf
ROOT
ATOM      1  C   UNL     1      39.038 -37.085  -8.408  1.00  0.00     0.008 C 
ATOM      2  C   UNL     1      37.896 -36.234  -8.975  1.00  0.00    -0.012 C 
ATOM      3  C   UNL     1      36.894 -37.118  -9.741  1.00  0.00     0.004 C 
ATOM      4  C   UNL     1      35.755 -36.274 -10.326  1.00  0.00     0.011 C 
ATOM      5  C   UNL     1      36.303 -35.160 -11.241  1.00  0.00     0.043 C 
ATOM      6  C   UNL     1      37.319 -34.269 -10.482  1.00  0.00     0.121 C 
ATOM      7  C   UNL     1      38.451 -35.128  -9.893  1.00  0.00     0.035 C 
ENDROOT
BRANCH   6   8
ATOM      8  O   UNL     1      37.884 -33.326 -11.358  1.00  0.00    -0.392 OA
ATOM      9  H   UNL     1      37.196 -32.628 -11.515  1.00  0.00     0.210 HD
ENDBRANCH   6   8
BRANCH   5  10
ATOM     10  C   UNL     1      35.165 -34.341 -11.838  1.00  0.00    -0.075 C 
ATOM     11  C   UNL     1      33.974 -34.898 -12.116  1.00  0.00     0.008 C 
ATOM     12  C   UNL     1      35.358 -32.874 -12.125  1.00  0.00     0.039 C 
ENDBRANCH   5  10
TORSDOF 2
ENDMDL
MODEL 3
REMARK VINA RESULT:    -2.317      1.621      3.522
REMARK INTER + INTRA:          -2.281
REMARK INTER:                  -2.216
REMARK INTRA:                  -0.065
REMARK UNBOUND:                 0.239
REMARK SMILES C=C(C)[C@@H]1CC[C@@H](C)C[C@H]1O
REMARK SMILES IDX 8 1 7 2 6 3 5 4 4 5 10 6 9 7 11 8 2 10 1 11 3 12
REMARK H PARENT 11 9
REMARK Flexibility Score: inf
ROOT
ATOM      1  C   UNL     1      35.211 -32.056 -12.097  1.00  0.00     0.008 C 
ATOM      2  C   UNL     1      35.697 -33.147 -11.137  1.00  0.00    -0.012 C 
ATOM      3  C   UNL     1      37.214 -33.022 -10.902  1.00  0.00     0.004 C 
ATOM      4  C   UNL     1      37.714 -34.119  -9.954  1.00  0.00     0.011 C 
ATOM      5  C   UNL     1      37.364 -35.521 -10.493  1.00  0.00     0.043 C 
ATOM      6  C   UNL     1      35.841 -35.655 -10.742  1.00  0.00     0.121 C 
ATOM      7  C   UNL     1      35.351 -34.544 -11.686  1.00  0.00     0.035 C 
ENDROOT
BRANCH   6   8
ATOM      8  O   UNL     1      35.554 -36.899 -11.329  1.00  0.00    -0.392 OA
ATOM      9  H   UNL     1      36.390 -37.217 -11.758  1.00  0.00     0.210 HD
ENDBRANCH   6   8
BRANCH   5  10
ATOM     10  C   UNL     1      37.885 -36.606  -9.559  1.00  0.00    -0.075 C 
ATOM     11  C   UNL     1      39.118 -37.121  -9.705  1.00  0.00     0.008 C 
ATOM     12  C   UNL     1      37.017 -37.121  -8.440  1.00  0.00     0.039 C 
ENDBRANCH   5  10
TORSDOF 2
ENDMDL
MODEL 4
REMARK VINA RESULT:    -1.784     19.171     20.941
REMARK INTER + INTRA:          -1.701
REMARK INTER:                  -1.507
REMARK INTRA:                  -0.194
REMARK UNBOUND:                 0.239
REMARK SMILES C=C(C)[C@@H]1CC[C@@H](C)C[C@H]1O
REMARK SMILES IDX 8 1 7 2 6 3 5 4 4 5 10 6 9 7 11 8 2 10 1 11 3 12
REMARK H PARENT 11 9
REMARK Flexibility Score: inf
ROOT
ATOM      1  C   UNL     1      39.125 -26.512   3.594  1.00  0.00     0.008 C 
ATOM      2  C   UNL     1      39.125 -25.313   4.549  1.00  0.00    -0.012 C 
ATOM      3  C   UNL     1      38.748 -25.759   5.974  1.00  0.00     0.004 C 
ATOM      4  C   UNL     1      38.730 -24.565   6.935  1.00  0.00     0.011 C 
ATOM      5  C   UNL     1      37.765 -23.468   6.440  1.00  0.00     0.043 C 
ATOM      6  C   UNL     1      38.130 -23.018   5.002  1.00  0.00     0.121 C 
ATOM      7  C   UNL     1      38.154 -24.225   4.051  1.00  0.00     0.035 C 
ENDROOT
BRANCH   6   8
ATOM      8  O   UNL     1      37.182 -22.095   4.530  1.00  0.00    -0.392 OA
ATOM      9  H   UNL     1      36.299 -22.548   4.552  1.00  0.00     0.210 HD
ENDBRANCH   6   8
BRANCH   5  10
ATOM     10  C   UNL     1      37.734 -22.294   7.412  1.00  0.00    -0.075 C 
ATOM     11  C   UNL     1      36.628 -22.001   8.117  1.00  0.00     0.008 C 
ATOM     12  C   UNL     1      38.959 -21.438   7.603  1.00  0.00     0.039 C 
ENDBRANCH   5  10
TORSDOF 2
ENDMDL
