MODEL 1
REMARK VINA RESULT:    -4.767      0.000      0.000
REMARK INTER + INTRA:          -4.767
REMARK INTER:                  -4.767
REMARK INTRA:                   0.000
REMARK UNBOUND:                 0.000
REMARK SMILES CC(C)=C1CC[C@@H](C)CC1=O
REMARK SMILES IDX 8 1 7 2 6 3 5 4 4 5 2 6 1 7 3 8 10 9 11 10 9 11
REMARK H PARENT
REMARK Flexibility Score: inf
ROOT
ATOM      1  C   UNL     1      16.505  28.869  43.627  1.00  0.00     0.008 C 
ATOM      2  C   UNL     1      17.788  28.352  42.968  1.00  0.00    -0.006 C 
ATOM      3  C   UNL     1      17.614  26.894  42.514  1.00  0.00     0.008 C 
ATOM      4  C   UNL     1      18.852  26.393  41.760  1.00  0.00     0.039 C 
ATOM      5  C   UNL     1      20.140  26.611  42.543  1.00  0.00    -0.006 C 
ATOM      6  C   UNL     1      21.195  25.751  42.429  1.00  0.00    -0.070 C 
ATOM      7  C   UNL     1      22.456  25.926  43.244  1.00  0.00     0.039 C 
ATOM      8  C   UNL     1      21.134  24.554  41.508  1.00  0.00     0.039 C 
ATOM      9  C   UNL     1      20.217  27.873  43.339  1.00  0.00     0.159 C 
ATOM     10  O   UNL     1      21.314  28.468  43.519  1.00  0.00    -0.295 OA
ATOM     11  C   UNL     1      18.972  28.462  43.937  1.00  0.00     0.084 C 
ENDROOT
TORSDOF 0
ENDMDL
MODEL 2
REMARK VINA RESULT:    -4.370      1.258      4.186
REMARK INTER + INTRA:          -4.370
REMARK INTER:                  -4.370
REMARK INTRA:                   0.000
REMARK UNBOUND:                 0.000
REMARK SMILES CC(C)=C1CC[C@@H](C)CC1=O
REMARK SMILES IDX 8 1 7 2 6 3 5 4 4 5 2 6 1 7 3 8 10 9 11 10 9 11
REMARK H PARENT
REMARK Flexibility Score: inf
ROOT
ATOM      1  C   UNL     1      21.234  25.514  40.955  1.00  0.00     0.008 C 
ATOM      2  C   UNL     1      20.125  25.980  41.903  1.00  0.00    -0.006 C 
ATOM      3  C   UNL     1      18.765  25.987  41.185  1.00  0.00     0.008 C 
ATOM      4  C   UNL     1      17.628  26.352  42.147  1.00  0.00     0.039 C 
ATOM      5  C   UNL     1      17.895  27.647  42.902  1.00  0.00    -0.006 C 
ATOM      6  C   UNL     1      16.876  28.475  43.277  1.00  0.00    -0.070 C 
ATOM      7  C   UNL     1      17.133  29.789  43.976  1.00  0.00     0.039 C 
ATOM      8  C   UNL     1      15.436  28.131  42.972  1.00  0.00     0.039 C 
ATOM      9  C   UNL     1      19.314  27.890  43.304  1.00  0.00     0.159 C 
ATOM     10  O   UNL     1      19.596  28.515  44.362  1.00  0.00    -0.295 OA
ATOM     11  C   UNL     1      20.436  27.381  42.447  1.00  0.00     0.084 C 
ENDROOT
TORSDOF 0
ENDMDL
MODEL 3
REMARK VINA RESULT:    -4.354      1.511      2.373
REMARK INTER + INTRA:          -4.354
REMARK INTER:                  -4.354
REMARK INTRA:                   0.000
REMARK UNBOUND:                 0.000
REMARK SMILES CC(C)=C1CC[C@@H](C)CC1=O
REMARK SMILES IDX 8 1 7 2 6 3 5 4 4 5 2 6 1 7 3 8 10 9 11 10 9 11
REMARK H PARENT
REMARK Flexibility Score: inf
ROOT
ATOM      1  C   UNL     1      17.003  29.386  43.598  1.00  0.00     0.008 C 
ATOM      2  C   UNL     1      17.928  28.168  43.494  1.00  0.00    -0.006 C 
ATOM      3  C   UNL     1      19.345  28.522  43.972  1.00  0.00     0.008 C 
ATOM      4  C   UNL     1      20.258  27.289  43.972  1.00  0.00     0.039 C 
ATOM      5  C   UNL     1      20.257  26.562  42.634  1.00  0.00    -0.006 C 
ATOM      6  C   UNL     1      21.365  25.904  42.182  1.00  0.00    -0.070 C 
ATOM      7  C   UNL     1      21.394  25.227  40.832  1.00  0.00     0.039 C 
ATOM      8  C   UNL     1      22.635  25.856  43.001  1.00  0.00     0.039 C 
ATOM      9  C   UNL     1      18.948  26.515  41.915  1.00  0.00     0.159 C 
ATOM     10  O   UNL     1      18.634  25.532  41.191  1.00  0.00    -0.295 OA
ATOM     11  C   UNL     1      17.975  27.650  42.050  1.00  0.00     0.084 C 
ENDROOT
TORSDOF 0
ENDMDL
MODEL 4
REMARK VINA RESULT:    -4.170      2.136      3.396
REMARK INTER + INTRA:          -4.170
REMARK INTER:                  -4.170
REMARK INTRA:                   0.000
REMARK UNBOUND:                 0.000
REMARK SMILES CC(C)=C1CC[C@@H](C)CC1=O
REMARK SMILES IDX 8 1 7 2 6 3 5 4 4 5 2 6 1 7 3 8 10 9 11 10 9 11
REMARK H PARENT
REMARK Flexibility Score: inf
ROOT
ATOM      1  C   UNL     1      13.044  27.609  43.017  1.00  0.00     0.008 C 
ATOM      2  C   UNL     1      14.519  27.887  42.709  1.00  0.00    -0.006 C 
ATOM      3  C   UNL     1      15.285  26.572  42.493  1.00  0.00     0.008 C 
ATOM      4  C   UNL     1      16.739  26.834  42.083  1.00  0.00     0.039 C 
ATOM      5  C   UNL     1      17.455  27.775  43.041  1.00  0.00    -0.006 C 
ATOM      6  C   UNL     1      18.796  27.663  43.278  1.00  0.00    -0.070 C 
ATOM      7  C   UNL     1      19.506  28.556  44.270  1.00  0.00     0.039 C 
ATOM      8  C   UNL     1      19.628  26.609  42.586  1.00  0.00     0.039 C 
ATOM      9  C   UNL     1      16.632  28.888  43.604  1.00  0.00     0.159 C 
ATOM     10  O   UNL     1      17.144  30.007  43.879  1.00  0.00    -0.295 OA
ATOM     11  C   UNL     1      15.165  28.688  43.848  1.00  0.00     0.084 C 
ENDROOT
TORSDOF 0
ENDMDL
MODEL 5
REMARK VINA RESULT:    -4.169      1.947      4.690
REMARK INTER + INTRA:          -4.169
REMARK INTER:                  -4.169
REMARK INTRA:                   0.000
REMARK UNBOUND:                 0.000
REMARK SMILES CC(C)=C1CC[C@@H](C)CC1=O
REMARK SMILES IDX 8 1 7 2 6 3 5 4 4 5 2 6 1 7 3 8 10 9 11 10 9 11
REMARK H PARENT
REMARK Flexibility Score: inf
ROOT
ATOM      1  C   UNL     1      21.795  27.542  43.258  1.00  0.00     0.008 C 
ATOM      2  C   UNL     1      20.362  27.889  42.839  1.00  0.00    -0.006 C 
ATOM      3  C   UNL     1      19.573  28.462  44.026  1.00  0.00     0.008 C 
ATOM      4  C   UNL     1      18.169  28.909  43.600  1.00  0.00     0.039 C 
ATOM      5  C   UNL     1      17.406  27.816  42.865  1.00  0.00    -0.006 C 
ATOM      6  C   UNL     1      16.047  27.714  42.956  1.00  0.00    -0.070 C 
ATOM      7  C   UNL     1      15.285  26.599  42.277  1.00  0.00     0.039 C 
ATOM      8  C   UNL     1      15.241  28.693  43.779  1.00  0.00     0.039 C 
ATOM      9  C   UNL     1      18.216  26.949  41.957  1.00  0.00     0.159 C 
ATOM     10  O   UNL     1      17.721  26.462  40.904  1.00  0.00    -0.295 OA
ATOM     11  C   UNL     1      19.649  26.647  42.285  1.00  0.00     0.084 C 
ENDROOT
TORSDOF 0
ENDMDL
MODEL 6
REMARK VINA RESULT:    -4.151      1.326      3.937
REMARK INTER + INTRA:          -4.151
REMARK INTER:                  -4.151
REMARK INTRA:                   0.000
REMARK UNBOUND:                 0.000
REMARK SMILES CC(C)=C1CC[C@@H](C)CC1=O
REMARK SMILES IDX 8 1 7 2 6 3 5 4 4 5 2 6 1 7 3 8 10 9 11 10 9 11
REMARK H PARENT
REMARK Flexibility Score: inf
ROOT
ATOM      1  C   UNL     1      23.560  27.725  42.376  1.00  0.00     0.008 C 
ATOM      2  C   UNL     1      22.157  27.333  42.851  1.00  0.00    -0.006 C 
ATOM      3  C   UNL     1      21.391  26.604  41.734  1.00  0.00     0.008 C 
ATOM      4  C   UNL     1      20.024  26.113  42.225  1.00  0.00     0.039 C 
ATOM      5  C   UNL     1      19.202  27.222  42.868  1.00  0.00    -0.006 C 
ATOM      6  C   UNL     1      17.838  27.231  42.791  1.00  0.00    -0.070 C 
ATOM      7  C   UNL     1      17.016  28.355  43.377  1.00  0.00     0.039 C 
ATOM      8  C   UNL     1      17.086  26.132  42.077  1.00  0.00     0.039 C 
ATOM      9  C   UNL     1      19.966  28.217  43.679  1.00  0.00     0.159 C 
ATOM     10  O   UNL     1      19.454  28.769  44.690  1.00  0.00    -0.295 OA
ATOM     11  C   UNL     1      21.374  28.574  43.299  1.00  0.00     0.084 C 
ENDROOT
TORSDOF 0
ENDMDL
MODEL 7
REMARK VINA RESULT:    -4.148      1.791      2.619
REMARK INTER + INTRA:          -4.148
REMARK INTER:                  -4.148
REMARK INTRA:                   0.000
REMARK UNBOUND:                 0.000
REMARK SMILES CC(C)=C1CC[C@@H](C)CC1=O
REMARK SMILES IDX 8 1 7 2 6 3 5 4 4 5 2 6 1 7 3 8 10 9 11 10 9 11
REMARK H PARENT
REMARK Flexibility Score: inf
ROOT
ATOM      1  C   UNL     1      15.507  28.713  43.251  1.00  0.00     0.008 C 
ATOM      2  C   UNL     1      16.895  28.070  43.332  1.00  0.00    -0.006 C 
ATOM      3  C   UNL     1      17.954  29.113  43.726  1.00  0.00     0.008 C 
ATOM      4  C   UNL     1      19.332  28.466  43.912  1.00  0.00     0.039 C 
ATOM      5  C   UNL     1      19.753  27.633  42.709  1.00  0.00    -0.006 C 
ATOM      6  C   UNL     1      21.066  27.511  42.354  1.00  0.00    -0.070 C 
ATOM      7  C   UNL     1      21.491  26.734  41.130  1.00  0.00     0.039 C 
ATOM      8  C   UNL     1      22.159  28.186  43.151  1.00  0.00     0.039 C 
ATOM      9  C   UNL     1      18.664  26.873  42.026  1.00  0.00     0.159 C 
ATOM     10  O   UNL     1      18.888  25.761  41.475  1.00  0.00    -0.295 OA
ATOM     11  C   UNL     1      17.269  27.426  41.990  1.00  0.00     0.084 C 
ENDROOT
TORSDOF 0
ENDMDL
MODEL 8
REMARK VINA RESULT:    -3.968      1.420      4.252
REMARK INTER + INTRA:          -3.968
REMARK INTER:                  -3.968
REMARK INTRA:                   0.000
REMARK UNBOUND:                 0.000
REMARK SMILES CC(C)=C1CC[C@@H](C)CC1=O
REMARK SMILES IDX 8 1 7 2 6 3 5 4 4 5 2 6 1 7 3 8 10 9 11 10 9 11
REMARK H PARENT
REMARK Flexibility Score: inf
ROOT
ATOM      1  C   UNL     1      22.700  24.756  39.856  1.00  0.00     0.008 C 
ATOM      2  C   UNL     1      21.533  25.169  40.758  1.00  0.00    -0.006 C 
ATOM      3  C   UNL     1      20.593  26.136  40.020  1.00  0.00     0.008 C 
ATOM      4  C   UNL     1      19.365  26.480  40.871  1.00  0.00     0.039 C 
ATOM      5  C   UNL     1      19.738  26.976  42.261  1.00  0.00    -0.006 C 
ATOM      6  C   UNL     1      18.967  27.891  42.920  1.00  0.00    -0.070 C 
ATOM      7  C   UNL     1      19.358  28.433  44.275  1.00  0.00     0.039 C 
ATOM      8  C   UNL     1      17.700  28.437  42.302  1.00  0.00     0.039 C 
ATOM      9  C   UNL     1      20.920  26.319  42.896  1.00  0.00     0.159 C 
ATOM     10  O   UNL     1      20.988  26.161  44.145  1.00  0.00    -0.295 OA
ATOM     11  C   UNL     1      22.053  25.825  42.045  1.00  0.00     0.084 C 
ENDROOT
TORSDOF 0
ENDMDL
MODEL 9
REMARK VINA RESULT:    -3.951      2.198      3.448
REMARK INTER + INTRA:          -3.951
REMARK INTER:                  -3.951
REMARK INTRA:                   0.000
REMARK UNBOUND:                 0.000
REMARK SMILES CC(C)=C1CC[C@@H](C)CC1=O
REMARK SMILES IDX 8 1 7 2 6 3 5 4 4 5 2 6 1 7 3 8 10 9 11 10 9 11
REMARK H PARENT
REMARK Flexibility Score: inf
ROOT
ATOM      1  C   UNL     1      18.325  27.090  42.894  1.00  0.00     0.008 C 
ATOM      2  C   UNL     1      19.779  27.342  43.306  1.00  0.00    -0.006 C 
ATOM      3  C   UNL     1      20.301  28.646  42.681  1.00  0.00     0.008 C 
ATOM      4  C   UNL     1      21.720  28.968  43.165  1.00  0.00     0.039 C 
ATOM      5  C   UNL     1      22.681  27.802  42.971  1.00  0.00    -0.006 C 
ATOM      6  C   UNL     1      24.006  28.009  42.713  1.00  0.00    -0.070 C 
ATOM      7  C   UNL     1      24.957  26.862  42.463  1.00  0.00     0.039 C 
ATOM      8  C   UNL     1      24.578  29.406  42.625  1.00  0.00     0.039 C 
ATOM      9  C   UNL     1      22.112  26.439  43.197  1.00  0.00     0.159 C 
ATOM     10  O   UNL     1      22.820  25.503  43.656  1.00  0.00    -0.295 OA
ATOM     11  C   UNL     1      20.670  26.166  42.883  1.00  0.00     0.084 C 
ENDROOT
TORSDOF 0
ENDMDL
