MODEL 1
REMARK VINA RESULT:    -3.050      0.000      0.000
REMARK INTER + INTRA:          -3.679
REMARK INTER:                  -3.585
REMARK INTRA:                  -0.095
REMARK UNBOUND:                -0.095
REMARK SMILES CCCCC(=O)[O-]
REMARK SMILES IDX 4 1 5 2 6 3 7 4 3 5 2 6 1 7
REMARK H PARENT
REMARK Flexibility Score: inf
ROOT
ATOM      1  C   UNL     1      42.876  47.362  41.051  1.00  0.00     0.053 C 
ENDROOT
BRANCH   1   2
ATOM      2  C   UNL     1      43.688  46.250  41.642  1.00  0.00     0.041 C 
ATOM      3  O   UNL     1      43.122  45.300  42.244  1.00  0.00    -0.550 OA
ATOM      4  O   UNL     1      45.070  46.247  41.501  1.00  0.00    -0.550 OA
ENDBRANCH   1   2
BRANCH   1   5
ATOM      5  C   UNL     1      42.676  48.534  42.028  1.00  0.00     0.006 C 
BRANCH   5   6
ATOM      6  C   UNL     1      43.922  49.421  42.201  1.00  0.00    -0.003 C 
ATOM      7  C   UNL     1      44.500  49.913  40.875  1.00  0.00     0.004 C 
ENDBRANCH   5   6
ENDBRANCH   1   5
TORSDOF 3
ENDMDL
MODEL 2
REMARK VINA RESULT:    -2.919      2.044      3.435
REMARK INTER + INTRA:          -3.526
REMARK INTER:                  -3.469
REMARK INTRA:                  -0.057
REMARK UNBOUND:                -0.095
REMARK SMILES CCCCC(=O)[O-]
REMARK SMILES IDX 4 1 5 2 6 3 7 4 3 5 2 6 1 7
REMARK H PARENT
REMARK Flexibility Score: inf
ROOT
ATOM      1  C   UNL     1      43.274  48.745  41.984  1.00  0.00     0.053 C 
ENDROOT
BRANCH   1   2
ATOM      2  C   UNL     1      44.460  49.323  41.274  1.00  0.00     0.041 C 
ATOM      3  O   UNL     1      45.455  48.599  41.007  1.00  0.00    -0.550 OA
ATOM      4  O   UNL     1      44.454  50.655  40.880  1.00  0.00    -0.550 OA
ENDBRANCH   1   2
BRANCH   1   5
ATOM      5  C   UNL     1      42.233  48.154  41.016  1.00  0.00     0.006 C 
BRANCH   5   6
ATOM      6  C   UNL     1      42.311  46.623  40.876  1.00  0.00    -0.003 C 
ATOM      7  C   UNL     1      43.295  45.979  41.851  1.00  0.00     0.004 C 
ENDBRANCH   5   6
ENDBRANCH   1   5
TORSDOF 3
ENDMDL
MODEL 3
REMARK VINA RESULT:    -2.872     15.764     16.264
REMARK INTER + INTRA:          -3.470
REMARK INTER:                  -3.363
REMARK INTRA:                  -0.107
REMARK UNBOUND:                -0.095
REMARK SMILES CCCCC(=O)[O-]
REMARK SMILES IDX 4 1 5 2 6 3 7 4 3 5 2 6 1 7
REMARK H PARENT
REMARK Flexibility Score: inf
ROOT
ATOM      1  C   UNL     1      50.291  46.392  55.011  1.00  0.00     0.053 C 
ENDROOT
BRANCH   1   2
ATOM      2  C   UNL     1      51.708  45.906  55.003  1.00  0.00     0.041 C 
ATOM      3  O   UNL     1      52.201  45.399  53.961  1.00  0.00    -0.550 OA
ATOM      4  O   UNL     1      52.496  46.042  56.140  1.00  0.00    -0.550 OA
ENDBRANCH   1   2
BRANCH   1   5
ATOM      5  C   UNL     1      49.390  45.581  55.959  1.00  0.00     0.006 C 
BRANCH   5   6
ATOM      6  C   UNL     1      49.097  46.286  57.295  1.00  0.00    -0.003 C 
ATOM      7  C   UNL     1      49.863  45.687  58.473  1.00  0.00     0.004 C 
ENDBRANCH   5   6
ENDBRANCH   1   5
TORSDOF 3
ENDMDL
MODEL 4
REMARK VINA RESULT:    -2.859      6.744      7.399
REMARK INTER + INTRA:          -3.455
REMARK INTER:                  -3.432
REMARK INTRA:                  -0.023
REMARK UNBOUND:                -0.095
REMARK SMILES CCCCC(=O)[O-]
REMARK SMILES IDX 4 1 5 2 6 3 7 4 3 5 2 6 1 7
REMARK H PARENT
REMARK Flexibility Score: inf
ROOT
ATOM      1  C   UNL     1      49.534  46.679  44.128  1.00  0.00     0.053 C 
ENDROOT
BRANCH   1   2
ATOM      2  C   UNL     1      48.903  47.070  42.827  1.00  0.00     0.041 C 
ATOM      3  O   UNL     1      49.509  47.833  42.030  1.00  0.00    -0.550 OA
ATOM      4  O   UNL     1      47.655  46.565  42.480  1.00  0.00    -0.550 OA
ENDBRANCH   1   2
BRANCH   1   5
ATOM      5  C   UNL     1      51.071  46.754  44.088  1.00  0.00     0.006 C 
BRANCH   5   6
ATOM      6  C   UNL     1      51.748  46.382  45.420  1.00  0.00    -0.003 C 
ATOM      7  C   UNL     1      51.297  47.255  46.589  1.00  0.00     0.004 C 
ENDBRANCH   5   6
ENDBRANCH   1   5
TORSDOF 3
ENDMDL
MODEL 5
REMARK VINA RESULT:    -2.805      8.887      9.531
REMARK INTER + INTRA:          -3.391
REMARK INTER:                  -3.360
REMARK INTRA:                  -0.031
REMARK UNBOUND:                -0.095
REMARK SMILES CCCCC(=O)[O-]
REMARK SMILES IDX 4 1 5 2 6 3 7 4 3 5 2 6 1 7
REMARK H PARENT
REMARK Flexibility Score: inf
ROOT
ATOM      1  C   UNL     1      52.495  45.706  44.213  1.00  0.00     0.053 C 
ENDROOT
BRANCH   1   2
ATOM      2  C   UNL     1      53.495  45.998  43.137  1.00  0.00     0.041 C 
ATOM      3  O   UNL     1      53.170  46.691  42.138  1.00  0.00    -0.550 OA
ATOM      4  O   UNL     1      54.798  45.529  43.254  1.00  0.00    -0.550 OA
ENDBRANCH   1   2
BRANCH   1   5
ATOM      5  C   UNL     1      51.269  46.635  44.153  1.00  0.00     0.006 C 
BRANCH   5   6
ATOM      6  C   UNL     1      50.522  46.768  45.492  1.00  0.00    -0.003 C 
ATOM      7  C   UNL     1      51.404  47.289  46.625  1.00  0.00     0.004 C 
ENDBRANCH   5   6
ENDBRANCH   1   5
TORSDOF 3
ENDMDL
MODEL 6
REMARK VINA RESULT:    -2.789      8.340      9.052
REMARK INTER + INTRA:          -3.373
REMARK INTER:                  -3.289
REMARK INTRA:                  -0.084
REMARK UNBOUND:                -0.095
REMARK SMILES CCCCC(=O)[O-]
REMARK SMILES IDX 4 1 5 2 6 3 7 4 3 5 2 6 1 7
REMARK H PARENT
REMARK Flexibility Score: inf
ROOT
ATOM      1  C   UNL     1      52.954  45.903  43.669  1.00  0.00     0.053 C 
ENDROOT
BRANCH   1   2
ATOM      2  C   UNL     1      52.223  46.306  42.425  1.00  0.00     0.041 C 
ATOM      3  O   UNL     1      52.444  47.426  41.893  1.00  0.00    -0.550 OA
ATOM      4  O   UNL     1      51.320  45.431  41.835  1.00  0.00    -0.550 OA
ENDBRANCH   1   2
BRANCH   1   5
ATOM      5  C   UNL     1      52.008  45.645  44.856  1.00  0.00     0.006 C 
BRANCH   5   6
ATOM      6  C   UNL     1      51.137  46.857  45.234  1.00  0.00    -0.003 C 
ATOM      7  C   UNL     1      51.279  47.267  46.699  1.00  0.00     0.004 C 
ENDBRANCH   5   6
ENDBRANCH   1   5
TORSDOF 3
ENDMDL
MODEL 7
REMARK VINA RESULT:    -2.772     15.914     16.352
REMARK INTER + INTRA:          -3.352
REMARK INTER:                  -3.245
REMARK INTRA:                  -0.107
REMARK UNBOUND:                -0.095
REMARK SMILES CCCCC(=O)[O-]
REMARK SMILES IDX 4 1 5 2 6 3 7 4 3 5 2 6 1 7
REMARK H PARENT
REMARK Flexibility Score: inf
ROOT
ATOM      1  C   UNL     1      48.998  45.403  56.022  1.00  0.00     0.053 C 
ENDROOT
BRANCH   1   2
ATOM      2  C   UNL     1      48.700  45.678  57.464  1.00  0.00     0.041 C 
ATOM      3  O   UNL     1      49.609  46.080  58.236  1.00  0.00    -0.550 OA
ATOM      4  O   UNL     1      47.407  45.518  57.949  1.00  0.00    -0.550 OA
ENDBRANCH   1   2
BRANCH   1   5
ATOM      5  C   UNL     1      49.824  46.522  55.362  1.00  0.00     0.006 C 
BRANCH   5   6
ATOM      6  C   UNL     1      51.163  46.045  54.774  1.00  0.00    -0.003 C 
ATOM      7  C   UNL     1      52.224  45.768  55.838  1.00  0.00     0.004 C 
ENDBRANCH   5   6
ENDBRANCH   1   5
TORSDOF 3
ENDMDL
MODEL 8
REMARK VINA RESULT:    -2.767     16.583     17.068
REMARK INTER + INTRA:          -3.347
REMARK INTER:                  -3.265
REMARK INTRA:                  -0.082
REMARK UNBOUND:                -0.095
REMARK SMILES CCCCC(=O)[O-]
REMARK SMILES IDX 4 1 5 2 6 3 7 4 3 5 2 6 1 7
REMARK H PARENT
REMARK Flexibility Score: inf
ROOT
ATOM      1  C   UNL     1      49.701  45.994  58.469  1.00  0.00     0.053 C 
ENDROOT
BRANCH   1   2
ATOM      2  C   UNL     1      48.399  46.696  58.703  1.00  0.00     0.041 C 
ATOM      3  O   UNL     1      48.379  47.921  58.993  1.00  0.00    -0.550 OA
ATOM      4  O   UNL     1      47.202  46.002  58.570  1.00  0.00    -0.550 OA
ENDBRANCH   1   2
BRANCH   1   5
ATOM      5  C   UNL     1      49.788  45.352  57.073  1.00  0.00     0.006 C 
BRANCH   5   6
ATOM      6  C   UNL     1      49.526  46.335  55.918  1.00  0.00    -0.003 C 
ATOM      7  C   UNL     1      50.650  46.364  54.884  1.00  0.00     0.004 C 
ENDBRANCH   5   6
ENDBRANCH   1   5
TORSDOF 3
ENDMDL
