MODEL 1
REMARK VINA RESULT:    -4.214      0.000      0.000
REMARK INTER + INTRA:          -5.454
REMARK INTER:                  -5.077
REMARK INTRA:                  -0.377
REMARK UNBOUND:                -0.377
REMARK SMILES CCCCc1oc(O)c2ccccc12
REMARK SMILES IDX 4 1 5 2 7 3 6 4 9 5 14 6 10 7 13 8 11 9 12 10 8 11 3 13 2 14
REMARK SMILES IDX 1 15
REMARK H PARENT 8 12
REMARK Flexibility Score: inf
ROOT
ATOM      1  C   UNL     1       9.822  26.565  88.203  1.00  0.00     0.076 C 
ENDROOT
BRANCH   1   2
ATOM      2  C   UNL     1       9.405  25.324  88.930  1.00  0.00     0.116 A 
ATOM      3  C   UNL     1       8.739  23.311  89.255  1.00  0.00     0.290 A 
ATOM      4  O   UNL     1       9.009  24.214  88.333  1.00  0.00    -0.430 OA
ATOM      5  C   UNL     1       8.970  23.842  90.507  1.00  0.00     0.066 A 
ATOM      6  C   UNL     1       9.397  25.128  90.300  1.00  0.00     0.027 A 
ATOM      7  C   UNL     1       8.847  23.304  91.787  1.00  0.00     0.016 A 
ATOM      8  C   UNL     1       9.736  25.968  91.360  1.00  0.00     0.012 A 
ATOM      9  C   UNL     1       9.179  24.128  92.877  1.00  0.00     0.001 A 
ATOM     10  C   UNL     1       9.622  25.453  92.666  1.00  0.00     0.001 A 
BRANCH   3  11
ATOM     11  O   UNL     1       8.295  22.023  88.972  1.00  0.00    -0.480 OA
ATOM     12  H   UNL     1       8.037  21.750  88.033  1.00  0.00     0.297 HD
ENDBRANCH   3  11
ENDBRANCH   1   2
BRANCH   1  13
ATOM     13  C   UNL     1       8.608  27.462  87.932  1.00  0.00     0.008 C 
BRANCH  13  14
ATOM     14  C   UNL     1       8.356  28.471  89.062  1.00  0.00    -0.003 C 
ATOM     15  C   UNL     1       7.035  29.224  88.898  1.00  0.00     0.004 C 
ENDBRANCH  13  14
ENDBRANCH   1  13
TORSDOF 4
ENDMDL
MODEL 2
REMARK VINA RESULT:    -4.075      1.317      4.293
REMARK INTER + INTRA:          -5.286
REMARK INTER:                  -4.792
REMARK INTRA:                  -0.493
REMARK UNBOUND:                -0.377
REMARK SMILES CCCCc1oc(O)c2ccccc12
REMARK SMILES IDX 4 1 5 2 7 3 6 4 9 5 14 6 10 7 13 8 11 9 12 10 8 11 3 13 2 14
REMARK SMILES IDX 1 15
REMARK H PARENT 8 12
REMARK Flexibility Score: inf
ROOT
ATOM      1  C   UNL     1       9.548  23.293  90.101  1.00  0.00     0.076 C 
ENDROOT
BRANCH   1   2
ATOM      2  C   UNL     1       9.062  24.368  89.178  1.00  0.00     0.116 A 
ATOM      3  C   UNL     1       8.136  25.293  87.479  1.00  0.00     0.290 A 
ATOM      4  O   UNL     1       8.453  24.137  88.028  1.00  0.00    -0.430 OA
ATOM      5  C   UNL     1       8.545  26.325  88.299  1.00  0.00     0.066 A 
ATOM      6  C   UNL     1       9.135  25.734  89.385  1.00  0.00     0.027 A 
ATOM      7  C   UNL     1       8.440  27.709  88.179  1.00  0.00     0.016 A 
ATOM      8  C   UNL     1       9.660  26.487  90.435  1.00  0.00     0.012 A 
ATOM      9  C   UNL     1       8.964  28.497  89.221  1.00  0.00     0.001 A 
ATOM     10  C   UNL     1       9.570  27.889  90.344  1.00  0.00     0.001 A 
BRANCH   3  11
ATOM     11  O   UNL     1       7.482  25.418  86.257  1.00  0.00    -0.480 OA
ATOM     12  H   UNL     1       7.338  26.322  85.828  1.00  0.00     0.297 HD
ENDBRANCH   3  11
ENDBRANCH   1   2
BRANCH   1  13
ATOM     13  C   UNL     1       8.560  23.092  91.257  1.00  0.00     0.008 C 
BRANCH  13  14
ATOM     14  C   UNL     1       9.104  23.615  92.595  1.00  0.00    -0.003 C 
ATOM     15  C   UNL     1      10.631  23.626  92.648  1.00  0.00     0.004 C 
ENDBRANCH  13  14
ENDBRANCH   1  13
TORSDOF 4
ENDMDL
MODEL 3
REMARK VINA RESULT:    -4.068      1.324      4.004
REMARK INTER + INTRA:          -5.277
REMARK INTER:                  -4.797
REMARK INTRA:                  -0.480
REMARK UNBOUND:                -0.377
REMARK SMILES CCCCc1oc(O)c2ccccc12
REMARK SMILES IDX 4 1 5 2 7 3 6 4 9 5 14 6 10 7 13 8 11 9 12 10 8 11 3 13 2 14
REMARK SMILES IDX 1 15
REMARK H PARENT 8 12
REMARK Flexibility Score: inf
ROOT
ATOM      1  C   UNL     1      10.256  24.183  92.474  1.00  0.00     0.076 C 
ENDROOT
BRANCH   1   2
ATOM      2  C   UNL     1       9.644  24.068  91.111  1.00  0.00     0.116 A 
ATOM      3  C   UNL     1       8.746  23.178  89.379  1.00  0.00     0.290 A 
ATOM      4  O   UNL     1       9.264  22.926  90.565  1.00  0.00    -0.430 OA
ATOM      5  C   UNL     1       8.781  24.535  89.135  1.00  0.00     0.066 A 
ATOM      6  C   UNL     1       9.353  25.104  90.242  1.00  0.00     0.027 A 
ATOM      7  C   UNL     1       8.357  25.300  88.050  1.00  0.00     0.016 A 
ATOM      8  C   UNL     1       9.538  26.482  90.346  1.00  0.00     0.012 A 
ATOM      9  C   UNL     1       8.533  26.693  88.123  1.00  0.00     0.001 A 
ATOM     10  C   UNL     1       9.120  27.282  89.266  1.00  0.00     0.001 A 
BRANCH   3  11
ATOM     11  O   UNL     1       8.244  22.197  88.528  1.00  0.00    -0.480 OA
ATOM     12  H   UNL     1       8.607  22.078  87.591  1.00  0.00     0.297 HD
ENDBRANCH   3  11
ENDBRANCH   1   2
BRANCH   1  13
ATOM     13  C   UNL     1       9.239  24.752  93.471  1.00  0.00     0.008 C 
BRANCH  13  14
ATOM     14  C   UNL     1       9.706  26.073  94.099  1.00  0.00    -0.003 C 
ATOM     15  C   UNL     1      11.167  26.394  93.783  1.00  0.00     0.004 C 
ENDBRANCH  13  14
ENDBRANCH   1  13
TORSDOF 4
ENDMDL
MODEL 4
REMARK VINA RESULT:    -3.901      1.977      4.182
REMARK INTER + INTRA:          -5.077
REMARK INTER:                  -4.521
REMARK INTRA:                  -0.556
REMARK UNBOUND:                -0.377
REMARK SMILES CCCCc1oc(O)c2ccccc12
REMARK SMILES IDX 4 1 5 2 7 3 6 4 9 5 14 6 10 7 13 8 11 9 12 10 8 11 3 13 2 14
REMARK SMILES IDX 1 15
REMARK H PARENT 8 12
REMARK Flexibility Score: inf
ROOT
ATOM      1  C   UNL     1       8.642  23.553  87.959  1.00  0.00     0.076 C 
ENDROOT
BRANCH   1   2
ATOM      2  C   UNL     1       9.114  24.582  88.940  1.00  0.00     0.116 A 
ATOM      3  C   UNL     1       9.853  26.447  89.699  1.00  0.00     0.290 A 
ATOM      4  O   UNL     1       9.537  25.787  88.602  1.00  0.00    -0.430 OA
ATOM      5  C   UNL     1       9.624  25.650  90.802  1.00  0.00     0.066 A 
ATOM      6  C   UNL     1       9.151  24.460  90.317  1.00  0.00     0.027 A 
ATOM      7  C   UNL     1       9.787  25.878  92.167  1.00  0.00     0.016 A 
ATOM      8  C   UNL     1       8.800  23.409  91.166  1.00  0.00     0.012 A 
ATOM      9  C   UNL     1       9.445  24.836  93.049  1.00  0.00     0.001 A 
ATOM     10  C   UNL     1       8.953  23.608  92.551  1.00  0.00     0.001 A 
BRANCH   3  11
ATOM     11  O   UNL     1      10.336  27.752  89.707  1.00  0.00    -0.480 OA
ATOM     12  H   UNL     1       9.844  28.497  89.231  1.00  0.00     0.297 HD
ENDBRANCH   3  11
ENDBRANCH   1   2
BRANCH   1  13
ATOM     13  C   UNL     1       9.818  22.697  87.473  1.00  0.00     0.008 C 
BRANCH  13  14
ATOM     14  C   UNL     1       9.918  21.356  88.215  1.00  0.00    -0.003 C 
ATOM     15  C   UNL     1      11.140  21.277  89.130  1.00  0.00     0.004 C 
ENDBRANCH  13  14
ENDBRANCH   1  13
TORSDOF 4
ENDMDL
MODEL 5
REMARK VINA RESULT:    -3.897      2.237      3.072
REMARK INTER + INTRA:          -5.072
REMARK INTER:                  -4.698
REMARK INTRA:                  -0.374
REMARK UNBOUND:                -0.377
REMARK SMILES CCCCc1oc(O)c2ccccc12
REMARK SMILES IDX 4 1 5 2 7 3 6 4 9 5 14 6 10 7 13 8 11 9 12 10 8 11 3 13 2 14
REMARK SMILES IDX 1 15
REMARK H PARENT 8 12
REMARK Flexibility Score: inf
ROOT
ATOM      1  C   UNL     1      10.435  27.899  90.326  1.00  0.00     0.076 C 
ENDROOT
BRANCH   1   2
ATOM      2  C   UNL     1      10.040  26.686  91.111  1.00  0.00     0.116 A 
ATOM      3  C   UNL     1       9.590  25.442  92.799  1.00  0.00     0.290 A 
ATOM      4  O   UNL     1       9.998  26.640  92.431  1.00  0.00    -0.430 OA
ATOM      5  C   UNL     1       9.349  24.669  91.682  1.00  0.00     0.066 A 
ATOM      6  C   UNL     1       9.635  25.465  90.603  1.00  0.00     0.027 A 
ATOM      7  C   UNL     1       8.903  23.357  91.532  1.00  0.00     0.016 A 
ATOM      8  C   UNL     1       9.491  25.005  89.294  1.00  0.00     0.012 A 
ATOM      9  C   UNL     1       8.751  22.864  90.224  1.00  0.00     0.001 A 
ATOM     10  C   UNL     1       9.042  23.683  89.110  1.00  0.00     0.001 A 
BRANCH   3  11
ATOM     11  O   UNL     1       9.432  25.050  94.125  1.00  0.00    -0.480 OA
ATOM     12  H   UNL     1      10.222  25.000  94.756  1.00  0.00     0.297 HD
ENDBRANCH   3  11
ENDBRANCH   1   2
BRANCH   1  13
ATOM     13  C   UNL     1       9.235  28.838  90.152  1.00  0.00     0.008 C 
BRANCH  13  14
ATOM     14  C   UNL     1       8.374  28.475  88.933  1.00  0.00    -0.003 C 
ATOM     15  C   UNL     1       7.067  29.267  88.876  1.00  0.00     0.004 C 
ENDBRANCH  13  14
ENDBRANCH   1  13
TORSDOF 4
ENDMDL
MODEL 6
REMARK VINA RESULT:    -3.793      2.225      4.343
REMARK INTER + INTRA:          -4.946
REMARK INTER:                  -4.397
REMARK INTRA:                  -0.548
REMARK UNBOUND:                -0.377
REMARK SMILES CCCCc1oc(O)c2ccccc12
REMARK SMILES IDX 4 1 5 2 7 3 6 4 9 5 14 6 10 7 13 8 11 9 12 10 8 11 3 13 2 14
REMARK SMILES IDX 1 15
REMARK H PARENT 8 12
REMARK Flexibility Score: inf
ROOT
ATOM      1  C   UNL     1       8.718  22.556  89.527  1.00  0.00     0.076 C 
ENDROOT
BRANCH   1   2
ATOM      2  C   UNL     1       9.171  23.555  90.546  1.00  0.00     0.116 A 
ATOM      3  C   UNL     1       9.918  24.345  92.395  1.00  0.00     0.290 A 
ATOM      4  O   UNL     1       9.563  23.240  91.769  1.00  0.00    -0.430 OA
ATOM      5  C   UNL     1       9.761  25.427  91.555  1.00  0.00     0.066 A 
ATOM      6  C   UNL     1       9.286  24.923  90.373  1.00  0.00     0.027 A 
ATOM      7  C   UNL     1      10.001  26.789  91.732  1.00  0.00     0.016 A 
ATOM      8  C   UNL     1       9.021  25.746  89.279  1.00  0.00     0.012 A 
ATOM      9  C   UNL     1       9.740  27.645  90.647  1.00  0.00     0.001 A 
ATOM     10  C   UNL     1       9.253  27.127  89.426  1.00  0.00     0.001 A 
BRANCH   3  11
ATOM     11  O   UNL     1      10.383  24.376  93.707  1.00  0.00    -0.480 OA
ATOM     12  H   UNL     1      11.152  23.791  94.006  1.00  0.00     0.297 HD
ENDBRANCH   3  11
ENDBRANCH   1   2
BRANCH   1  13
ATOM     13  C   UNL     1       9.925  21.924  88.823  1.00  0.00     0.008 C 
BRANCH  13  14
ATOM     14  C   UNL     1      10.164  22.509  87.423  1.00  0.00    -0.003 C 
ATOM     15  C   UNL     1      11.312  23.518  87.394  1.00  0.00     0.004 C 
ENDBRANCH  13  14
ENDBRANCH   1  13
TORSDOF 4
ENDMDL
MODEL 7
REMARK VINA RESULT:    -3.788      1.448      2.364
REMARK INTER + INTRA:          -4.939
REMARK INTER:                  -4.379
REMARK INTRA:                  -0.561
REMARK UNBOUND:                -0.377
REMARK SMILES CCCCc1oc(O)c2ccccc12
REMARK SMILES IDX 4 1 5 2 7 3 6 4 9 5 14 6 10 7 13 8 11 9 12 10 8 11 3 13 2 14
REMARK SMILES IDX 1 15
REMARK H PARENT 8 12
REMARK Flexibility Score: inf
ROOT
ATOM      1  C   UNL     1      10.027  26.375  88.097  1.00  0.00     0.076 C 
ENDROOT
BRANCH   1   2
ATOM      2  C   UNL     1       9.521  25.177  88.839  1.00  0.00     0.116 A 
ATOM      3  C   UNL     1       8.741  23.210  89.188  1.00  0.00     0.290 A 
ATOM      4  O   UNL     1       9.089  24.073  88.254  1.00  0.00    -0.430 OA
ATOM      5  C   UNL     1       8.955  23.762  90.434  1.00  0.00     0.066 A 
ATOM      6  C   UNL     1       9.455  25.018  90.211  1.00  0.00     0.027 A 
ATOM      7  C   UNL     1       8.759  23.264  91.722  1.00  0.00     0.016 A 
ATOM      8  C   UNL     1       9.800  25.867  91.262  1.00  0.00     0.012 A 
ATOM      9  C   UNL     1       9.095  24.099  92.803  1.00  0.00     0.001 A 
ATOM     10  C   UNL     1       9.614  25.394  92.575  1.00  0.00     0.001 A 
BRANCH   3  11
ATOM     11  O   UNL     1       8.240  21.939  88.922  1.00  0.00    -0.480 OA
ATOM     12  H   UNL     1       8.430  21.473  88.044  1.00  0.00     0.297 HD
ENDBRANCH   3  11
ENDBRANCH   1   2
BRANCH   1  13
ATOM     13  C   UNL     1      11.509  26.199  87.742  1.00  0.00     0.008 C 
BRANCH  13  14
ATOM     14  C   UNL     1      12.441  26.926  88.723  1.00  0.00    -0.003 C 
ATOM     15  C   UNL     1      13.162  25.968  89.672  1.00  0.00     0.004 C 
ENDBRANCH  13  14
ENDBRANCH   1  13
TORSDOF 4
ENDMDL
MODEL 8
REMARK VINA RESULT:    -3.717      2.598      4.264
REMARK INTER + INTRA:          -4.855
REMARK INTER:                  -4.381
REMARK INTRA:                  -0.474
REMARK UNBOUND:                -0.377
REMARK SMILES CCCCc1oc(O)c2ccccc12
REMARK SMILES IDX 4 1 5 2 7 3 6 4 9 5 14 6 10 7 13 8 11 9 12 10 8 11 3 13 2 14
REMARK SMILES IDX 1 15
REMARK H PARENT 8 12
REMARK Flexibility Score: inf
ROOT
ATOM      1  C   UNL     1       9.240  24.641  92.767  1.00  0.00     0.076 C 
ENDROOT
BRANCH   1   2
ATOM      2  C   UNL     1      10.147  23.684  92.056  1.00  0.00     0.116 A 
ATOM      3  C   UNL     1      11.832  22.413  91.680  1.00  0.00     0.290 A 
ATOM      4  O   UNL     1      11.301  23.260  92.539  1.00  0.00    -0.430 OA
ATOM      5  C   UNL     1      10.996  22.267  90.593  1.00  0.00     0.066 A 
ATOM      6  C   UNL     1       9.918  23.078  90.833  1.00  0.00     0.027 A 
ATOM      7  C   UNL     1      11.094  21.495  89.436  1.00  0.00     0.016 A 
ATOM      8  C   UNL     1       8.855  23.172  89.935  1.00  0.00     0.012 A 
ATOM      9  C   UNL     1      10.039  21.571  88.509  1.00  0.00     0.001 A 
ATOM     10  C   UNL     1       8.925  22.404  88.757  1.00  0.00     0.001 A 
BRANCH   3  11
ATOM     11  O   UNL     1      13.054  21.774  91.875  1.00  0.00    -0.480 OA
ATOM     12  H   UNL     1      13.129  20.952  92.459  1.00  0.00     0.297 HD
ENDBRANCH   3  11
ENDBRANCH   1   2
BRANCH   1  13
ATOM     13  C   UNL     1       9.914  26.011  92.910  1.00  0.00     0.008 C 
BRANCH  13  14
ATOM     14  C   UNL     1      10.557  26.492  91.600  1.00  0.00    -0.003 C 
ATOM     15  C   UNL     1       9.523  26.898  90.550  1.00  0.00     0.004 C 
ENDBRANCH  13  14
ENDBRANCH   1  13
TORSDOF 4
ENDMDL
MODEL 9
REMARK VINA RESULT:    -3.711      2.920      4.404
REMARK INTER + INTRA:          -4.847
REMARK INTER:                  -4.318
REMARK INTRA:                  -0.529
REMARK UNBOUND:                -0.377
REMARK SMILES CCCCc1oc(O)c2ccccc12
REMARK SMILES IDX 4 1 5 2 7 3 6 4 9 5 14 6 10 7 13 8 11 9 12 10 8 11 3 13 2 14
REMARK SMILES IDX 1 15
REMARK H PARENT 8 12
REMARK Flexibility Score: inf
ROOT
ATOM      1  C   UNL     1       9.426  24.033  92.667  1.00  0.00     0.076 C 
ENDROOT
BRANCH   1   2
ATOM      2  C   UNL     1       9.466  23.336  91.342  1.00  0.00     0.116 A 
ATOM      3  C   UNL     1       8.854  22.686  89.392  1.00  0.00     0.290 A 
ATOM      4  O   UNL     1       8.491  23.382  90.451  1.00  0.00    -0.430 OA
ATOM      5  C   UNL     1      10.116  22.166  89.588  1.00  0.00     0.066 A 
ATOM      6  C   UNL     1      10.508  22.582  90.833  1.00  0.00     0.027 A 
ATOM      7  C   UNL     1      10.937  21.380  88.781  1.00  0.00     0.016 A 
ATOM      8  C   UNL     1      11.755  22.245  91.361  1.00  0.00     0.012 A 
ATOM      9  C   UNL     1      12.200  21.020  89.287  1.00  0.00     0.001 A 
ATOM     10  C   UNL     1      12.607  21.451  90.570  1.00  0.00     0.001 A 
BRANCH   3  11
ATOM     11  O   UNL     1       8.060  22.526  88.260  1.00  0.00    -0.480 OA
ATOM     12  H   UNL     1       7.361  21.796  88.208  1.00  0.00     0.297 HD
ENDBRANCH   3  11
ENDBRANCH   1   2
BRANCH   1  13
ATOM     13  C   UNL     1       9.771  25.518  92.502  1.00  0.00     0.008 C 
BRANCH  13  14
ATOM     14  C   UNL     1      11.277  25.791  92.631  1.00  0.00    -0.003 C 
ATOM     15  C   UNL     1      11.903  25.089  93.836  1.00  0.00     0.004 C 
ENDBRANCH  13  14
ENDBRANCH   1  13
TORSDOF 4
ENDMDL
