MODEL 1
REMARK VINA RESULT:    -7.276      0.000      0.000
REMARK INTER + INTRA:         -11.536
REMARK INTER:                 -10.891
REMARK INTRA:                  -0.644
REMARK UNBOUND:                -0.644
REMARK SMILES O=c1c(O[C@@H]2O[C@@H](CO)[C@H](O)[C@H](O)[C@H]2O)c(-c2cc(O)c(O)c(O)c2)oc2cc(O)cc(O)c12
REMARK SMILES IDX 4 1 3 2 16 3 26 4 2 5 27 6 1 7 34 8 28 9 32 10 29 11 31 12
REMARK SMILES IDX 17 13 18 14 19 15 25 16 21 17 23 18 20 19 22 21 24 23 33 25
REMARK SMILES IDX 30 27 5 29 14 30 6 31 12 32 7 33 10 34 15 35 13 37 8 39 9 40
REMARK SMILES IDX 11 42
REMARK H PARENT 20 20 22 22 24 24 33 26 30 28 15 36 13 38 9 41 11 43
REMARK Flexibility Score: inf
ROOT
ATOM      1  O   UNL     1      -5.901   6.395  13.801  1.00  0.00    -0.454 OA
ENDROOT
BRANCH   1   2
ATOM      2  C   UNL     1      -4.938   5.566  14.415  1.00  0.00     0.214 A 
ATOM      3  C   UNL     1      -3.579   5.894  14.243  1.00  0.00     0.181 A 
ATOM      4  O   UNL     1      -2.639   5.215  14.888  1.00  0.00    -0.452 OA
ATOM      5  C   UNL     1      -5.262   4.444  15.214  1.00  0.00     0.239 A 
ATOM      6  C   UNL     1      -2.901   4.191  15.690  1.00  0.00     0.146 A 
ATOM      7  O   UNL     1      -6.453   4.044  15.268  1.00  0.00    -0.285 OA
ATOM      8  C   UNL     1      -4.235   3.756  15.909  1.00  0.00     0.111 A 
ATOM      9  C   UNL     1      -1.828   3.535  16.300  1.00  0.00     0.094 A 
ATOM     10  C   UNL     1      -4.455   2.649  16.789  1.00  0.00     0.134 A 
ATOM     11  C   UNL     1      -2.053   2.425  17.115  1.00  0.00     0.123 A 
ATOM     12  C   UNL     1      -3.360   1.984  17.351  1.00  0.00     0.093 A 
BRANCH   3  13
ATOM     13  C   UNL     1      -3.154   6.998  13.354  1.00  0.00     0.029 A 
ATOM     14  C   UNL     1      -2.214   7.939  13.806  1.00  0.00     0.062 A 
ATOM     15  C   UNL     1      -1.786   8.977  12.969  1.00  0.00     0.162 A 
ATOM     16  C   UNL     1      -3.639   7.086  12.039  1.00  0.00     0.062 A 
ATOM     17  C   UNL     1      -2.282   9.074  11.660  1.00  0.00     0.200 A 
ATOM     18  C   UNL     1      -3.219   8.117  11.191  1.00  0.00     0.162 A 
BRANCH  15  19
ATOM     19  O   UNL     1      -0.863   9.920  13.432  1.00  0.00    -0.504 OA
ATOM     20  H   UNL     1      -0.974  10.910  13.252  1.00  0.00     0.293 HD
ENDBRANCH  15  19
BRANCH  17  21
ATOM     21  O   UNL     1      -1.818  10.124  10.864  1.00  0.00    -0.502 OA
ATOM     22  H   UNL     1      -0.949  10.609  11.024  1.00  0.00     0.293 HD
ENDBRANCH  17  21
BRANCH  18  23
ATOM     23  O   UNL     1      -3.753   8.149   9.901  1.00  0.00    -0.504 OA
ATOM     24  H   UNL     1      -3.446   7.549   9.150  1.00  0.00     0.293 HD
ENDBRANCH  18  23
ENDBRANCH   3  13
BRANCH  10  25
ATOM     25  O   UNL     1      -5.714   2.177  17.156  1.00  0.00    -0.507 OA
ATOM     26  H   UNL     1      -6.526   2.754  17.299  1.00  0.00     0.293 HD
ENDBRANCH  10  25
BRANCH  11  27
ATOM     27  O   UNL     1      -0.969   1.766  17.688  1.00  0.00    -0.508 OA
ATOM     28  H   UNL     1      -0.425   2.184  18.433  1.00  0.00     0.293 HD
ENDBRANCH  11  27
ENDBRANCH   1   2
BRANCH   1  29
ATOM     29  C   UNL     1      -6.300   7.705  14.225  1.00  0.00     0.339 C 
ATOM     30  C   UNL     1      -7.775   7.968  13.838  1.00  0.00     0.214 C 
ATOM     31  O   UNL     1      -6.082   7.884  15.620  1.00  0.00    -0.332 OA
ATOM     32  C   UNL     1      -8.746   7.157  14.720  1.00  0.00     0.180 C 
ATOM     33  C   UNL     1      -6.858   6.981  16.392  1.00  0.00     0.179 C 
ATOM     34  C   UNL     1      -8.363   7.277  16.212  1.00  0.00     0.177 C 
BRANCH  30  35
ATOM     35  O   UNL     1      -8.077   9.350  13.891  1.00  0.00    -0.384 OA
ATOM     36  H   UNL     1      -9.027   9.452  14.174  1.00  0.00     0.211 HD
ENDBRANCH  30  35
BRANCH  32  37
ATOM     37  O   UNL     1      -8.715   5.803  14.319  1.00  0.00    -0.387 OA
ATOM     38  H   UNL     1      -8.285   5.291  15.049  1.00  0.00     0.211 HD
ENDBRANCH  32  37
BRANCH  33  39
ATOM     39  C   UNL     1      -6.451   7.134  17.862  1.00  0.00     0.191 C 
BRANCH  39  40
ATOM     40  O   UNL     1      -6.275   5.869  18.442  1.00  0.00    -0.394 OA
ATOM     41  H   UNL     1      -5.443   5.922  18.974  1.00  0.00     0.210 HD
ENDBRANCH  39  40
ENDBRANCH  33  39
BRANCH  34  42
ATOM     42  O   UNL     1      -9.125   6.375  16.977  1.00  0.00    -0.387 OA
ATOM     43  H   UNL     1      -9.287   5.580  16.404  1.00  0.00     0.211 HD
ENDBRANCH  34  42
ENDBRANCH   1  29
TORSDOF 13
ENDMDL
MODEL 2
REMARK VINA RESULT:    -6.445      1.649      6.027
REMARK INTER + INTRA:         -10.292
REMARK INTER:                  -9.270
REMARK INTRA:                  -1.023
REMARK UNBOUND:                -0.644
REMARK SMILES O=c1c(O[C@@H]2O[C@@H](CO)[C@H](O)[C@H](O)[C@H]2O)c(-c2cc(O)c(O)c(O)c2)oc2cc(O)cc(O)c12
REMARK SMILES IDX 4 1 3 2 16 3 26 4 2 5 27 6 1 7 34 8 28 9 32 10 29 11 31 12
REMARK SMILES IDX 17 13 18 14 19 15 25 16 21 17 23 18 20 19 22 21 24 23 33 25
REMARK SMILES IDX 30 27 5 29 14 30 6 31 12 32 7 33 10 34 15 35 13 37 8 39 9 40
REMARK SMILES IDX 11 42
REMARK H PARENT 20 20 22 22 24 24 33 26 30 28 15 36 13 38 9 41 11 43
REMARK Flexibility Score: inf
ROOT
ATOM      1  O   UNL     1      -5.741   5.714  12.776  1.00  0.00    -0.454 OA
ENDROOT
BRANCH   1   2
ATOM      2  C   UNL     1      -4.608   6.528  12.986  1.00  0.00     0.214 A 
ATOM      3  C   UNL     1      -3.925   6.406  14.212  1.00  0.00     0.181 A 
ATOM      4  O   UNL     1      -2.792   7.065  14.416  1.00  0.00    -0.452 OA
ATOM      5  C   UNL     1      -4.105   7.437  12.024  1.00  0.00     0.239 A 
ATOM      6  C   UNL     1      -2.255   7.886  13.522  1.00  0.00     0.146 A 
ATOM      7  O   UNL     1      -4.772   7.672  10.985  1.00  0.00    -0.285 OA
ATOM      8  C   UNL     1      -2.879   8.107  12.265  1.00  0.00     0.111 A 
ATOM      9  C   UNL     1      -1.069   8.546  13.856  1.00  0.00     0.094 A 
ATOM     10  C   UNL     1      -2.250   8.999  11.340  1.00  0.00     0.134 A 
ATOM     11  C   UNL     1      -0.493   9.452  12.964  1.00  0.00     0.123 A 
ATOM     12  C   UNL     1      -1.087   9.680  11.716  1.00  0.00     0.093 A 
BRANCH   3  13
ATOM     13  C   UNL     1      -4.435   5.544  15.301  1.00  0.00     0.029 A 
ATOM     14  C   UNL     1      -4.211   4.157  15.259  1.00  0.00     0.062 A 
ATOM     15  C   UNL     1      -4.667   3.330  16.293  1.00  0.00     0.162 A 
ATOM     16  C   UNL     1      -5.094   6.101  16.408  1.00  0.00     0.062 A 
ATOM     17  C   UNL     1      -5.340   3.886  17.392  1.00  0.00     0.200 A 
ATOM     18  C   UNL     1      -5.555   5.288  17.449  1.00  0.00     0.162 A 
BRANCH  15  19
ATOM     19  O   UNL     1      -4.456   1.949  16.235  1.00  0.00    -0.504 OA
ATOM     20  H   UNL     1      -3.946   1.456  16.958  1.00  0.00     0.293 HD
ENDBRANCH  15  19
BRANCH  17  21
ATOM     21  O   UNL     1      -5.769   3.018  18.399  1.00  0.00    -0.502 OA
ATOM     22  H   UNL     1      -5.407   3.026  19.339  1.00  0.00     0.293 HD
ENDBRANCH  17  21
BRANCH  18  23
ATOM     23  O   UNL     1      -6.213   5.910  18.512  1.00  0.00    -0.504 OA
ATOM     24  H   UNL     1      -6.731   5.413  19.222  1.00  0.00     0.293 HD
ENDBRANCH  18  23
ENDBRANCH   3  13
BRANCH  10  25
ATOM     25  O   UNL     1      -2.708   9.238  10.045  1.00  0.00    -0.507 OA
ATOM     26  H   UNL     1      -3.062  10.119   9.713  1.00  0.00     0.293 HD
ENDBRANCH  10  25
BRANCH  11  27
ATOM     27  O   UNL     1       0.671  10.123  13.327  1.00  0.00    -0.508 OA
ATOM     28  H   UNL     1       1.415   9.661  13.834  1.00  0.00     0.293 HD
ENDBRANCH  11  27
ENDBRANCH   1   2
BRANCH   1  29
ATOM     29  C   UNL     1      -6.987   6.115  12.190  1.00  0.00     0.339 C 
ATOM     30  C   UNL     1      -8.033   4.983  12.327  1.00  0.00     0.214 C 
ATOM     31  O   UNL     1      -7.454   7.334  12.756  1.00  0.00    -0.332 OA
ATOM     32  C   UNL     1      -8.522   4.836  13.782  1.00  0.00     0.180 C 
ATOM     33  C   UNL     1      -7.711   7.203  14.146  1.00  0.00     0.179 C 
ATOM     34  C   UNL     1      -8.874   6.214  14.385  1.00  0.00     0.177 C 
BRANCH  30  35
ATOM     35  O   UNL     1      -9.121   5.185  11.444  1.00  0.00    -0.384 OA
ATOM     36  H   UNL     1      -8.818   5.788  10.709  1.00  0.00     0.211 HD
ENDBRANCH  30  35
BRANCH  32  37
ATOM     37  O   UNL     1      -7.514   4.214  14.549  1.00  0.00    -0.387 OA
ATOM     38  H   UNL     1      -7.155   4.897  15.170  1.00  0.00     0.211 HD
ENDBRANCH  32  37
BRANCH  33  39
ATOM     39  C   UNL     1      -8.059   8.588  14.702  1.00  0.00     0.191 C 
BRANCH  39  40
ATOM     40  O   UNL     1      -8.850   9.287  13.778  1.00  0.00    -0.394 OA
ATOM     41  H   UNL     1      -9.301   8.601  13.225  1.00  0.00     0.210 HD
ENDBRANCH  39  40
ENDBRANCH  33  39
BRANCH  34  42
ATOM     42  O   UNL     1      -9.120   6.087  15.764  1.00  0.00    -0.387 OA
ATOM     43  H   UNL     1      -9.600   5.226  15.890  1.00  0.00     0.211 HD
ENDBRANCH  34  42
ENDBRANCH   1  29
TORSDOF 13
ENDMDL
MODEL 3
REMARK VINA RESULT:    -6.143      1.658      4.801
REMARK INTER + INTRA:          -9.840
REMARK INTER:                  -8.574
REMARK INTRA:                  -1.266
REMARK UNBOUND:                -0.644
REMARK SMILES O=c1c(O[C@@H]2O[C@@H](CO)[C@H](O)[C@H](O)[C@H]2O)c(-c2cc(O)c(O)c(O)c2)oc2cc(O)cc(O)c12
REMARK SMILES IDX 4 1 3 2 16 3 26 4 2 5 27 6 1 7 34 8 28 9 32 10 29 11 31 12
REMARK SMILES IDX 17 13 18 14 19 15 25 16 21 17 23 18 20 19 22 21 24 23 33 25
REMARK SMILES IDX 30 27 5 29 14 30 6 31 12 32 7 33 10 34 15 35 13 37 8 39 9 40
REMARK SMILES IDX 11 42
REMARK H PARENT 20 20 22 22 24 24 33 26 30 28 15 36 13 38 9 41 11 43
REMARK Flexibility Score: inf
ROOT
ATOM      1  O   UNL     1      -3.453   6.439  13.704  1.00  0.00    -0.454 OA
ENDROOT
BRANCH   1   2
ATOM      2  C   UNL     1      -3.847   5.458  14.638  1.00  0.00     0.214 A 
ATOM      3  C   UNL     1      -5.221   5.168  14.753  1.00  0.00     0.181 A 
ATOM      4  O   UNL     1      -5.634   4.179  15.534  1.00  0.00    -0.452 OA
ATOM      5  C   UNL     1      -2.938   4.732  15.445  1.00  0.00     0.239 A 
ATOM      6  C   UNL     1      -4.813   3.436  16.266  1.00  0.00     0.146 A 
ATOM      7  O   UNL     1      -1.726   5.067  15.470  1.00  0.00    -0.285 OA
ATOM      8  C   UNL     1      -3.411   3.665  16.251  1.00  0.00     0.111 A 
ATOM      9  C   UNL     1      -5.363   2.435  17.070  1.00  0.00     0.094 A 
ATOM     10  C   UNL     1      -2.576   2.828  17.057  1.00  0.00     0.134 A 
ATOM     11  C   UNL     1      -4.542   1.660  17.890  1.00  0.00     0.123 A 
ATOM     12  C   UNL     1      -3.157   1.863  17.886  1.00  0.00     0.093 A 
BRANCH   3  13
ATOM     13  C   UNL     1      -6.240   5.941  14.010  1.00  0.00     0.029 A 
ATOM     14  C   UNL     1      -7.186   6.708  14.710  1.00  0.00     0.062 A 
ATOM     15  C   UNL     1      -8.143   7.463  14.020  1.00  0.00     0.162 A 
ATOM     16  C   UNL     1      -6.240   5.961  12.606  1.00  0.00     0.062 A 
ATOM     17  C   UNL     1      -8.153   7.471  12.617  1.00  0.00     0.200 A 
ATOM     18  C   UNL     1      -7.190   6.712  11.903  1.00  0.00     0.162 A 
BRANCH  15  19
ATOM     19  O   UNL     1      -9.092   8.210  14.725  1.00  0.00    -0.504 OA
ATOM     20  H   UNL     1      -9.203   8.124  15.728  1.00  0.00     0.293 HD
ENDBRANCH  15  19
BRANCH  17  21
ATOM     21  O   UNL     1      -9.125   8.245  11.977  1.00  0.00    -0.502 OA
ATOM     22  H   UNL     1      -9.056   8.553  11.020  1.00  0.00     0.293 HD
ENDBRANCH  17  21
BRANCH  18  23
ATOM     23  O   UNL     1      -7.138   6.675  10.508  1.00  0.00    -0.504 OA
ATOM     24  H   UNL     1      -6.523   7.251   9.952  1.00  0.00     0.293 HD
ENDBRANCH  18  23
ENDBRANCH   3  13
BRANCH  10  25
ATOM     25  O   UNL     1      -1.183   2.889  17.069  1.00  0.00    -0.507 OA
ATOM     26  H   UNL     1      -0.618   3.003  17.893  1.00  0.00     0.293 HD
ENDBRANCH  10  25
BRANCH  11  27
ATOM     27  O   UNL     1      -5.112   0.689  18.708  1.00  0.00    -0.508 OA
ATOM     28  H   UNL     1      -6.088   0.723  18.973  1.00  0.00     0.293 HD
ENDBRANCH  11  27
ENDBRANCH   1   2
BRANCH   1  29
ATOM     29  C   UNL     1      -2.748   7.656  13.986  1.00  0.00     0.339 C 
ATOM     30  C   UNL     1      -1.920   8.093  12.753  1.00  0.00     0.214 C 
ATOM     31  O   UNL     1      -3.638   8.680  14.412  1.00  0.00    -0.332 OA
ATOM     32  C   UNL     1      -2.824   8.630  11.625  1.00  0.00     0.180 C 
ATOM     33  C   UNL     1      -4.580   9.010  13.403  1.00  0.00     0.179 C 
ATOM     34  C   UNL     1      -3.864   9.627  12.182  1.00  0.00     0.177 C 
BRANCH  30  35
ATOM     35  O   UNL     1      -0.937   9.046  13.113  1.00  0.00    -0.384 OA
ATOM     36  H   UNL     1      -0.317   9.162  12.341  1.00  0.00     0.211 HD
ENDBRANCH  30  35
BRANCH  32  37
ATOM     37  O   UNL     1      -3.478   7.545  11.000  1.00  0.00    -0.387 OA
ATOM     38  H   UNL     1      -3.002   6.720  11.272  1.00  0.00     0.211 HD
ENDBRANCH  32  37
BRANCH  33  39
ATOM     39  C   UNL     1      -5.588  10.002  13.995  1.00  0.00     0.191 C 
BRANCH  39  40
ATOM     40  O   UNL     1      -5.633   9.860  15.390  1.00  0.00    -0.394 OA
ATOM     41  H   UNL     1      -6.153   9.037  15.568  1.00  0.00     0.210 HD
ENDBRANCH  39  40
ENDBRANCH  33  39
BRANCH  34  42
ATOM     42  O   UNL     1      -4.804   9.948  11.186  1.00  0.00    -0.387 OA
ATOM     43  H   UNL     1      -5.127   9.086  10.811  1.00  0.00     0.211 HD
ENDBRANCH  34  42
ENDBRANCH   1  29
TORSDOF 13
ENDMDL
MODEL 4
REMARK VINA RESULT:    -5.940      2.064      5.093
REMARK INTER + INTRA:          -9.536
REMARK INTER:                  -8.179
REMARK INTRA:                  -1.358
REMARK UNBOUND:                -0.644
REMARK SMILES O=c1c(O[C@@H]2O[C@@H](CO)[C@H](O)[C@H](O)[C@H]2O)c(-c2cc(O)c(O)c(O)c2)oc2cc(O)cc(O)c12
REMARK SMILES IDX 4 1 3 2 16 3 26 4 2 5 27 6 1 7 34 8 28 9 32 10 29 11 31 12
REMARK SMILES IDX 17 13 18 14 19 15 25 16 21 17 23 18 20 19 22 21 24 23 33 25
REMARK SMILES IDX 30 27 5 29 14 30 6 31 12 32 7 33 10 34 15 35 13 37 8 39 9 40
REMARK SMILES IDX 11 42
REMARK H PARENT 20 20 22 22 24 24 33 26 30 28 15 36 13 38 9 41 11 43
REMARK Flexibility Score: inf
ROOT
ATOM      1  O   UNL     1      -3.496   6.947  13.408  1.00  0.00    -0.454 OA
ENDROOT
BRANCH   1   2
ATOM      2  C   UNL     1      -3.388   5.898  14.346  1.00  0.00     0.214 A 
ATOM      3  C   UNL     1      -4.426   4.947  14.396  1.00  0.00     0.181 A 
ATOM      4  O   UNL     1      -4.321   3.882  15.180  1.00  0.00    -0.452 OA
ATOM      5  C   UNL     1      -2.284   5.735  15.218  1.00  0.00     0.239 A 
ATOM      6  C   UNL     1      -3.280   3.660  15.973  1.00  0.00     0.146 A 
ATOM      7  O   UNL     1      -1.417   6.641  15.296  1.00  0.00    -0.285 OA
ATOM      8  C   UNL     1      -2.192   4.573  16.025  1.00  0.00     0.111 A 
ATOM      9  C   UNL     1      -3.288   2.515  16.774  1.00  0.00     0.094 A 
ATOM     10  C   UNL     1      -1.096   4.277  16.895  1.00  0.00     0.134 A 
ATOM     11  C   UNL     1      -2.236   2.265  17.655  1.00  0.00     0.123 A 
ATOM     12  C   UNL     1      -1.150   3.147  17.717  1.00  0.00     0.093 A 
BRANCH   3  13
ATOM     13  C   UNL     1      -5.651   5.094  13.581  1.00  0.00     0.029 A 
ATOM     14  C   UNL     1      -6.565   6.121  13.869  1.00  0.00     0.062 A 
ATOM     15  C   UNL     1      -7.719   6.287  13.092  1.00  0.00     0.162 A 
ATOM     16  C   UNL     1      -5.887   4.250  12.484  1.00  0.00     0.062 A 
ATOM     17  C   UNL     1      -7.963   5.434  12.005  1.00  0.00     0.200 A 
ATOM     18  C   UNL     1      -7.035   4.404  11.698  1.00  0.00     0.162 A 
BRANCH  15  19
ATOM     19  O   UNL     1      -8.633   7.302  13.396  1.00  0.00    -0.504 OA
ATOM     20  H   UNL     1      -9.103   7.831  12.672  1.00  0.00     0.293 HD
ENDBRANCH  15  19
BRANCH  17  21
ATOM     21  O   UNL     1      -9.125   5.645  11.259  1.00  0.00    -0.502 OA
ATOM     22  H   UNL     1      -9.694   4.903  10.884  1.00  0.00     0.293 HD
ENDBRANCH  17  21
BRANCH  18  23
ATOM     23  O   UNL     1      -7.210   3.520  10.631  1.00  0.00    -0.504 OA
ATOM     24  H   UNL     1      -7.192   2.515  10.724  1.00  0.00     0.293 HD
ENDBRANCH  18  23
ENDBRANCH   3  13
BRANCH  10  25
ATOM     25  O   UNL     1       0.068   5.040  16.977  1.00  0.00    -0.507 OA
ATOM     26  H   UNL     1       0.985   4.674  17.170  1.00  0.00     0.293 HD
ENDBRANCH  10  25
BRANCH  11  27
ATOM     27  O   UNL     1      -2.277   1.135  18.467  1.00  0.00    -0.508 OA
ATOM     28  H   UNL     1      -2.002   1.170  19.441  1.00  0.00     0.293 HD
ENDBRANCH  11  27
ENDBRANCH   1   2
BRANCH   1  29
ATOM     29  C   UNL     1      -3.074   8.305  13.590  1.00  0.00     0.339 C 
ATOM     30  C   UNL     1      -2.234   8.773  12.377  1.00  0.00     0.214 C 
ATOM     31  O   UNL     1      -4.185   9.163  13.822  1.00  0.00    -0.332 OA
ATOM     32  C   UNL     1      -3.113   8.990  11.129  1.00  0.00     0.180 C 
ATOM     33  C   UNL     1      -5.072   9.184  12.714  1.00  0.00     0.179 C 
ATOM     34  C   UNL     1      -4.377   9.804  11.482  1.00  0.00     0.177 C 
BRANCH  30  35
ATOM     35  O   UNL     1      -1.497   9.940  12.688  1.00  0.00    -0.384 OA
ATOM     36  H   UNL     1      -0.783   9.694  13.340  1.00  0.00     0.211 HD
ENDBRANCH  30  35
BRANCH  32  37
ATOM     37  O   UNL     1      -3.478   7.735  10.595  1.00  0.00    -0.387 OA
ATOM     38  H   UNL     1      -4.142   7.336  11.212  1.00  0.00     0.211 HD
ENDBRANCH  32  37
BRANCH  33  39
ATOM     39  C   UNL     1      -6.308  10.003  13.105  1.00  0.00     0.191 C 
BRANCH  39  40
ATOM     40  O   UNL     1      -7.355   9.742  12.208  1.00  0.00    -0.394 OA
ATOM     41  H   UNL     1      -6.965   9.197  11.480  1.00  0.00     0.210 HD
ENDBRANCH  39  40
ENDBRANCH  33  39
BRANCH  34  42
ATOM     42  O   UNL     1      -5.261   9.818  10.388  1.00  0.00    -0.387 OA
ATOM     43  H   UNL     1      -6.105   9.393  10.697  1.00  0.00     0.211 HD
ENDBRANCH  34  42
ENDBRANCH   1  29
TORSDOF 13
ENDMDL
MODEL 5
REMARK VINA RESULT:    -5.619     10.321     15.822
REMARK INTER + INTRA:          -9.056
REMARK INTER:                  -7.927
REMARK INTRA:                  -1.129
REMARK UNBOUND:                -0.644
REMARK SMILES O=c1c(O[C@@H]2O[C@@H](CO)[C@H](O)[C@H](O)[C@H]2O)c(-c2cc(O)c(O)c(O)c2)oc2cc(O)cc(O)c12
REMARK SMILES IDX 4 1 3 2 16 3 26 4 2 5 27 6 1 7 34 8 28 9 32 10 29 11 31 12
REMARK SMILES IDX 17 13 18 14 19 15 25 16 21 17 23 18 20 19 22 21 24 23 33 25
REMARK SMILES IDX 30 27 5 29 14 30 6 31 12 32 7 33 10 34 15 35 13 37 8 39 9 40
REMARK SMILES IDX 11 42
REMARK H PARENT 20 20 22 22 24 24 33 26 30 28 15 36 13 38 9 41 11 43
REMARK Flexibility Score: inf
ROOT
ATOM      1  O   UNL     1      -5.232  -6.670  20.692  1.00  0.00    -0.454 OA
ENDROOT
BRANCH   1   2
ATOM      2  C   UNL     1      -5.999  -5.487  20.650  1.00  0.00     0.214 A 
ATOM      3  C   UNL     1      -6.376  -4.899  21.874  1.00  0.00     0.181 A 
ATOM      4  O   UNL     1      -7.001  -3.729  21.891  1.00  0.00    -0.452 OA
ATOM      5  C   UNL     1      -6.387  -4.845  19.449  1.00  0.00     0.239 A 
ATOM      6  C   UNL     1      -7.335  -3.065  20.791  1.00  0.00     0.146 A 
ATOM      7  O   UNL     1      -6.191  -5.419  18.348  1.00  0.00    -0.285 OA
ATOM      8  C   UNL     1      -7.033  -3.584  19.503  1.00  0.00     0.111 A 
ATOM      9  C   UNL     1      -8.013  -1.851  20.930  1.00  0.00     0.094 A 
ATOM     10  C   UNL     1      -7.414  -2.820  18.355  1.00  0.00     0.134 A 
ATOM     11  C   UNL     1      -8.424  -1.141  19.801  1.00  0.00     0.123 A 
ATOM     12  C   UNL     1      -8.129  -1.629  18.522  1.00  0.00     0.093 A 
BRANCH   3  13
ATOM     13  C   UNL     1      -6.085  -5.552  23.168  1.00  0.00     0.029 A 
ATOM     14  C   UNL     1      -6.957  -6.532  23.671  1.00  0.00     0.062 A 
ATOM     15  C   UNL     1      -6.684  -7.175  24.885  1.00  0.00     0.162 A 
ATOM     16  C   UNL     1      -4.914  -5.243  23.880  1.00  0.00     0.062 A 
ATOM     17  C   UNL     1      -5.521  -6.856  25.603  1.00  0.00     0.200 A 
ATOM     18  C   UNL     1      -4.626  -5.879  25.093  1.00  0.00     0.162 A 
BRANCH  15  19
ATOM     19  O   UNL     1      -7.566  -8.138  25.387  1.00  0.00    -0.504 OA
ATOM     20  H   UNL     1      -8.518  -8.216  25.051  1.00  0.00     0.293 HD
ENDBRANCH  15  19
BRANCH  17  21
ATOM     21  O   UNL     1      -5.292  -7.530  26.805  1.00  0.00    -0.502 OA
ATOM     22  H   UNL     1      -5.746  -7.300  27.674  1.00  0.00     0.293 HD
ENDBRANCH  17  21
BRANCH  18  23
ATOM     23  O   UNL     1      -3.450  -5.512  25.751  1.00  0.00    -0.504 OA
ATOM     24  H   UNL     1      -2.564  -5.977  25.620  1.00  0.00     0.293 HD
ENDBRANCH  18  23
ENDBRANCH   3  13
BRANCH  10  25
ATOM     25  O   UNL     1      -7.102  -3.170  17.042  1.00  0.00    -0.507 OA
ATOM     26  H   UNL     1      -7.183  -2.557  16.248  1.00  0.00     0.293 HD
ENDBRANCH  10  25
BRANCH  11  27
ATOM     27  O   UNL     1      -9.125   0.050  19.959  1.00  0.00    -0.508 OA
ATOM     28  H   UNL     1      -9.881   0.309  19.338  1.00  0.00     0.293 HD
ENDBRANCH  11  27
ENDBRANCH   1   2
BRANCH   1  29
ATOM     29  C   UNL     1      -5.441  -7.855  19.911  1.00  0.00     0.339 C 
ATOM     30  C   UNL     1      -4.520  -8.994  20.409  1.00  0.00     0.214 C 
ATOM     31  O   UNL     1      -6.809  -8.243  19.918  1.00  0.00    -0.332 OA
ATOM     32  C   UNL     1      -4.991  -9.552  21.767  1.00  0.00     0.180 C 
ATOM     33  C   UNL     1      -7.256  -8.566  21.226  1.00  0.00     0.179 C 
ATOM     34  C   UNL     1      -6.514  -9.814  21.753  1.00  0.00     0.177 C 
BRANCH  30  35
ATOM     35  O   UNL     1      -4.419 -10.025  19.444  1.00  0.00    -0.384 OA
ATOM     36  H   UNL     1      -3.470 -10.078  19.141  1.00  0.00     0.211 HD
ENDBRANCH  30  35
BRANCH  32  37
ATOM     37  O   UNL     1      -4.667  -8.629  22.785  1.00  0.00    -0.387 OA
ATOM     38  H   UNL     1      -3.845  -8.156  22.500  1.00  0.00     0.211 HD
ENDBRANCH  32  37
BRANCH  33  39
ATOM     39  C   UNL     1      -8.766  -8.821  21.168  1.00  0.00     0.191 C 
BRANCH  39  40
ATOM     40  O   UNL     1      -9.012 -10.102  20.652  1.00  0.00    -0.394 OA
ATOM     41  H   UNL     1      -9.496  -9.968  19.799  1.00  0.00     0.210 HD
ENDBRANCH  39  40
ENDBRANCH  33  39
BRANCH  34  42
ATOM     42  O   UNL     1      -6.960 -10.125  23.051  1.00  0.00    -0.387 OA
ATOM     43  H   UNL     1      -7.889 -10.464  22.960  1.00  0.00     0.211 HD
ENDBRANCH  34  42
ENDBRANCH   1  29
TORSDOF 13
ENDMDL
MODEL 6
REMARK VINA RESULT:    -5.456      1.835      5.372
REMARK INTER + INTRA:          -8.812
REMARK INTER:                  -6.921
REMARK INTRA:                  -1.891
REMARK UNBOUND:                -0.644
REMARK SMILES O=c1c(O[C@@H]2O[C@@H](CO)[C@H](O)[C@H](O)[C@H]2O)c(-c2cc(O)c(O)c(O)c2)oc2cc(O)cc(O)c12
REMARK SMILES IDX 4 1 3 2 16 3 26 4 2 5 27 6 1 7 34 8 28 9 32 10 29 11 31 12
REMARK SMILES IDX 17 13 18 14 19 15 25 16 21 17 23 18 20 19 22 21 24 23 33 25
REMARK SMILES IDX 30 27 5 29 14 30 6 31 12 32 7 33 10 34 15 35 13 37 8 39 9 40
REMARK SMILES IDX 11 42
REMARK H PARENT 20 20 22 22 24 24 33 26 30 28 15 36 13 38 9 41 11 43
REMARK Flexibility Score: inf
ROOT
ATOM      1  O   UNL     1      -3.494   7.104  13.655  1.00  0.00    -0.454 OA
ENDROOT
BRANCH   1   2
ATOM      2  C   UNL     1      -3.923   6.031  14.465  1.00  0.00     0.214 A 
ATOM      3  C   UNL     1      -5.290   5.691  14.441  1.00  0.00     0.181 A 
ATOM      4  O   UNL     1      -5.726   4.624  15.097  1.00  0.00    -0.452 OA
ATOM      5  C   UNL     1      -3.054   5.265  15.278  1.00  0.00     0.239 A 
ATOM      6  C   UNL     1      -4.938   3.844  15.827  1.00  0.00     0.146 A 
ATOM      7  O   UNL     1      -1.862   5.633  15.431  1.00  0.00    -0.285 OA
ATOM      8  C   UNL     1      -3.549   4.116  15.946  1.00  0.00     0.111 A 
ATOM      9  C   UNL     1      -5.512   2.758  16.494  1.00  0.00     0.094 A 
ATOM     10  C   UNL     1      -2.749   3.236  16.743  1.00  0.00     0.134 A 
ATOM     11  C   UNL     1      -4.730   1.939  17.308  1.00  0.00     0.123 A 
ATOM     12  C   UNL     1      -3.357   2.183  17.434  1.00  0.00     0.093 A 
BRANCH   3  13
ATOM     13  C   UNL     1      -6.276   6.496  13.687  1.00  0.00     0.029 A 
ATOM     14  C   UNL     1      -6.470   6.259  12.315  1.00  0.00     0.062 A 
ATOM     15  C   UNL     1      -7.416   6.997  11.592  1.00  0.00     0.162 A 
ATOM     16  C   UNL     1      -7.063   7.459  14.338  1.00  0.00     0.062 A 
ATOM     17  C   UNL     1      -8.192   7.971  12.239  1.00  0.00     0.200 A 
ATOM     18  C   UNL     1      -8.013   8.203  13.628  1.00  0.00     0.162 A 
BRANCH  15  19
ATOM     19  O   UNL     1      -7.591   6.768  10.223  1.00  0.00    -0.504 OA
ATOM     20  H   UNL     1      -6.812   6.559   9.612  1.00  0.00     0.293 HD
ENDBRANCH  15  19
BRANCH  17  21
ATOM     21  O   UNL     1      -9.125   8.675  11.474  1.00  0.00    -0.502 OA
ATOM     22  H   UNL     1     -10.116   8.674  11.657  1.00  0.00     0.293 HD
ENDBRANCH  17  21
BRANCH  18  23
ATOM     23  O   UNL     1      -8.750   9.153  14.338  1.00  0.00    -0.504 OA
ATOM     24  H   UNL     1      -8.354   9.767  15.035  1.00  0.00     0.293 HD
ENDBRANCH  18  23
ENDBRANCH   3  13
BRANCH  10  25
ATOM     25  O   UNL     1      -1.365   3.338  16.874  1.00  0.00    -0.507 OA
ATOM     26  H   UNL     1      -0.759   3.818  16.230  1.00  0.00     0.293 HD
ENDBRANCH  10  25
BRANCH  11  27
ATOM     27  O   UNL     1      -5.326   0.881  17.989  1.00  0.00    -0.508 OA
ATOM     28  H   UNL     1      -6.234   0.523  17.724  1.00  0.00     0.293 HD
ENDBRANCH  11  27
ENDBRANCH   1   2
BRANCH   1  29
ATOM     29  C   UNL     1      -3.316   8.468  14.062  1.00  0.00     0.339 C 
ATOM     30  C   UNL     1      -1.887   8.948  13.716  1.00  0.00     0.214 C 
ATOM     31  O   UNL     1      -4.308   9.310  13.488  1.00  0.00    -0.332 OA
ATOM     32  C   UNL     1      -1.710   9.157  12.199  1.00  0.00     0.180 C 
ATOM     33  C   UNL     1      -4.230   9.323  12.071  1.00  0.00     0.179 C 
ATOM     34  C   UNL     1      -2.897   9.954  11.613  1.00  0.00     0.177 C 
BRANCH  30  35
ATOM     35  O   UNL     1      -1.558  10.125  14.432  1.00  0.00    -0.384 OA
ATOM     36  H   UNL     1      -2.069  10.884  14.037  1.00  0.00     0.211 HD
ENDBRANCH  30  35
BRANCH  32  37
ATOM     37  O   UNL     1      -1.612   7.899  11.567  1.00  0.00    -0.387 OA
ATOM     38  H   UNL     1      -1.765   8.045  10.599  1.00  0.00     0.211 HD
ENDBRANCH  32  37
BRANCH  33  39
ATOM     39  C   UNL     1      -5.420  10.125  11.532  1.00  0.00     0.191 C 
BRANCH  39  40
ATOM     40  O   UNL     1      -5.703   9.729  10.216  1.00  0.00    -0.394 OA
ATOM     41  H   UNL     1      -6.483   9.123  10.272  1.00  0.00     0.210 HD
ENDBRANCH  39  40
ENDBRANCH  33  39
BRANCH  34  42
ATOM     42  O   UNL     1      -2.826   9.959  10.208  1.00  0.00    -0.387 OA
ATOM     43  H   UNL     1      -3.738  10.171   9.877  1.00  0.00     0.211 HD
ENDBRANCH  34  42
ENDBRANCH   1  29
TORSDOF 13
ENDMDL
