MODEL 1
REMARK VINA RESULT:    -3.285      0.000      0.000
REMARK INTER + INTRA:          -3.701
REMARK INTER:                  -3.669
REMARK INTRA:                  -0.032
REMARK UNBOUND:                -0.032
REMARK SMILES CCCC(=O)[O-]
REMARK SMILES IDX 3 1 4 2 5 3 6 4 2 5 1 6
REMARK H PARENT
REMARK Flexibility Score: inf
ROOT
ATOM      1  C   UNL     1       8.159   7.886  10.790  1.00  0.00     0.052 C 
ENDROOT
BRANCH   1   2
ATOM      2  C   UNL     1       6.804   7.959  10.154  1.00  0.00     0.041 C 
ATOM      3  O   UNL     1       6.041   6.959  10.173  1.00  0.00    -0.550 OA
ATOM      4  O   UNL     1       6.400   9.122   9.509  1.00  0.00    -0.550 OA
ENDBRANCH   1   2
BRANCH   1   5
ATOM      5  C   UNL     1       8.525   6.450  11.185  1.00  0.00     0.003 C 
ATOM      6  C   UNL     1       9.336   5.738  10.102  1.00  0.00     0.004 C 
ENDBRANCH   1   5
TORSDOF 2
ENDMDL
MODEL 2
REMARK VINA RESULT:    -3.187      2.119      2.508
REMARK INTER + INTRA:          -3.591
REMARK INTER:                  -3.585
REMARK INTRA:                  -0.006
REMARK UNBOUND:                -0.032
REMARK SMILES CCCC(=O)[O-]
REMARK SMILES IDX 3 1 4 2 5 3 6 4 2 5 1 6
REMARK H PARENT
REMARK Flexibility Score: inf
ROOT
ATOM      1  C   UNL     1       8.008   7.223  11.464  1.00  0.00     0.052 C 
ENDROOT
BRANCH   1   2
ATOM      2  C   UNL     1       7.046   7.049  12.600  1.00  0.00     0.041 C 
ATOM      3  O   UNL     1       5.822   6.867  12.372  1.00  0.00    -0.550 OA
ATOM      4  O   UNL     1       7.500   7.121  13.912  1.00  0.00    -0.550 OA
ENDBRANCH   1   2
BRANCH   1   5
ATOM      5  C   UNL     1       9.007   6.062  11.382  1.00  0.00     0.003 C 
ATOM      6  C   UNL     1       9.378   5.713   9.940  1.00  0.00     0.004 C 
ENDBRANCH   1   5
TORSDOF 2
ENDMDL
MODEL 3
REMARK VINA RESULT:    -2.984      2.337      2.935
REMARK INTER + INTRA:          -3.365
REMARK INTER:                  -3.336
REMARK INTRA:                  -0.029
REMARK UNBOUND:                -0.032
REMARK SMILES CCCC(=O)[O-]
REMARK SMILES IDX 3 1 4 2 5 3 6 4 2 5 1 6
REMARK H PARENT
REMARK Flexibility Score: inf
ROOT
ATOM      1  C   UNL     1       7.743   7.460  12.290  1.00  0.00     0.052 C 
ENDROOT
BRANCH   1   2
ATOM      2  C   UNL     1       7.983   6.727  11.006  1.00  0.00     0.041 C 
ATOM      3  O   UNL     1       9.085   6.156  10.798  1.00  0.00    -0.550 OA
ATOM      4  O   UNL     1       7.001   6.705  10.023  1.00  0.00    -0.550 OA
ENDBRANCH   1   2
BRANCH   1   5
ATOM      5  C   UNL     1       6.847   6.658  13.243  1.00  0.00     0.003 C 
ATOM      6  C   UNL     1       7.629   6.055  14.410  1.00  0.00     0.004 C 
ENDBRANCH   1   5
TORSDOF 2
ENDMDL
MODEL 4
REMARK VINA RESULT:    -2.930      1.081      1.618
REMARK INTER + INTRA:          -3.305
REMARK INTER:                  -3.266
REMARK INTRA:                  -0.039
REMARK UNBOUND:                -0.032
REMARK SMILES CCCC(=O)[O-]
REMARK SMILES IDX 3 1 4 2 5 3 6 4 2 5 1 6
REMARK H PARENT
REMARK Flexibility Score: inf
ROOT
ATOM      1  C   UNL     1       7.840   8.174  10.971  1.00  0.00     0.052 C 
ENDROOT
BRANCH   1   2
ATOM      2  C   UNL     1       6.673   8.147  10.032  1.00  0.00     0.041 C 
ATOM      3  O   UNL     1       6.054   7.072   9.821  1.00  0.00    -0.550 OA
ATOM      4  O   UNL     1       6.291   9.305   9.364  1.00  0.00    -0.550 OA
ENDBRANCH   1   2
BRANCH   1   5
ATOM      5  C   UNL     1       7.983   6.854  11.739  1.00  0.00     0.003 C 
ATOM      6  C   UNL     1       7.427   6.944  13.161  1.00  0.00     0.004 C 
ENDBRANCH   1   5
TORSDOF 2
ENDMDL
MODEL 5
REMARK VINA RESULT:    -2.915      4.998      5.636
REMARK INTER + INTRA:          -3.288
REMARK INTER:                  -3.281
REMARK INTRA:                  -0.007
REMARK UNBOUND:                -0.032
REMARK SMILES CCCC(=O)[O-]
REMARK SMILES IDX 3 1 4 2 5 3 6 4 2 5 1 6
REMARK H PARENT
REMARK Flexibility Score: inf
ROOT
ATOM      1  C   UNL     1       5.924   5.762  14.600  1.00  0.00     0.052 C 
ENDROOT
BRANCH   1   2
ATOM      2  C   UNL     1       7.318   6.172  14.239  1.00  0.00     0.041 C 
ATOM      3  O   UNL     1       8.294   5.440  14.547  1.00  0.00    -0.550 OA
ATOM      4  O   UNL     1       7.542   7.382  13.593  1.00  0.00    -0.550 OA
ENDBRANCH   1   2
BRANCH   1   5
ATOM      5  C   UNL     1       5.497   6.331  15.959  1.00  0.00     0.003 C 
ATOM      6  C   UNL     1       4.407   5.491  16.626  1.00  0.00     0.004 C 
ENDBRANCH   1   5
TORSDOF 2
ENDMDL
MODEL 6
REMARK VINA RESULT:    -2.898      3.261      3.656
REMARK INTER + INTRA:          -3.269
REMARK INTER:                  -3.240
REMARK INTRA:                  -0.029
REMARK UNBOUND:                -0.032
REMARK SMILES CCCC(=O)[O-]
REMARK SMILES IDX 3 1 4 2 5 3 6 4 2 5 1 6
REMARK H PARENT
REMARK Flexibility Score: inf
ROOT
ATOM      1  C   UNL     1       6.608   7.012  12.544  1.00  0.00     0.052 C 
ENDROOT
BRANCH   1   2
ATOM      2  C   UNL     1       6.693   6.967  14.039  1.00  0.00     0.041 C 
ATOM      3  O   UNL     1       7.655   6.385  14.602  1.00  0.00    -0.550 OA
ATOM      4  O   UNL     1       5.688   7.541  14.810  1.00  0.00    -0.550 OA
ENDBRANCH   1   2
BRANCH   1   5
ATOM      5  C   UNL     1       7.908   7.531  11.916  1.00  0.00     0.003 C 
ATOM      6  C   UNL     1       8.417   6.622  10.797  1.00  0.00     0.004 C 
ENDBRANCH   1   5
TORSDOF 2
ENDMDL
MODEL 7
REMARK VINA RESULT:    -2.868      2.565      3.408
REMARK INTER + INTRA:          -3.236
REMARK INTER:                  -3.197
REMARK INTRA:                  -0.039
REMARK UNBOUND:                -0.032
REMARK SMILES CCCC(=O)[O-]
REMARK SMILES IDX 3 1 4 2 5 3 6 4 2 5 1 6
REMARK H PARENT
REMARK Flexibility Score: inf
ROOT
ATOM      1  C   UNL     1       5.612   7.109   9.989  1.00  0.00     0.052 C 
ENDROOT
BRANCH   1   2
ATOM      2  C   UNL     1       6.001   8.538   9.763  1.00  0.00     0.041 C 
ATOM      3  O   UNL     1       7.149   8.941  10.084  1.00  0.00    -0.550 OA
ATOM      4  O   UNL     1       5.082   9.433   9.229  1.00  0.00    -0.550 OA
ENDBRANCH   1   2
BRANCH   1   5
ATOM      5  C   UNL     1       4.708   6.953  11.218  1.00  0.00     0.003 C 
ATOM      6  C   UNL     1       3.233   6.807  10.842  1.00  0.00     0.004 C 
ENDBRANCH   1   5
TORSDOF 2
ENDMDL
MODEL 8
REMARK VINA RESULT:    -2.845      3.460      4.399
REMARK INTER + INTRA:          -3.209
REMARK INTER:                  -3.198
REMARK INTRA:                  -0.011
REMARK UNBOUND:                -0.032
REMARK SMILES CCCC(=O)[O-]
REMARK SMILES IDX 3 1 4 2 5 3 6 4 2 5 1 6
REMARK H PARENT
REMARK Flexibility Score: inf
ROOT
ATOM      1  C   UNL     1       5.608   6.685  13.192  1.00  0.00     0.052 C 
ENDROOT
BRANCH   1   2
ATOM      2  C   UNL     1       7.008   6.938  13.664  1.00  0.00     0.041 C 
ATOM      3  O   UNL     1       7.800   7.618  12.961  1.00  0.00    -0.550 OA
ATOM      4  O   UNL     1       7.446   6.394  14.864  1.00  0.00    -0.550 OA
ENDBRANCH   1   2
BRANCH   1   5
ATOM      5  C   UNL     1       5.390   7.190  11.760  1.00  0.00     0.003 C 
ATOM      6  C   UNL     1       4.073   6.695  11.162  1.00  0.00     0.004 C 
ENDBRANCH   1   5
TORSDOF 2
ENDMDL
MODEL 9
REMARK VINA RESULT:    -2.733      3.223      3.727
REMARK INTER + INTRA:          -3.085
REMARK INTER:                  -3.048
REMARK INTRA:                  -0.037
REMARK UNBOUND:                -0.032
REMARK SMILES CCCC(=O)[O-]
REMARK SMILES IDX 3 1 4 2 5 3 6 4 2 5 1 6
REMARK H PARENT
REMARK Flexibility Score: inf
ROOT
ATOM      1  C   UNL     1       7.468   6.826  13.694  1.00  0.00     0.052 C 
ENDROOT
BRANCH   1   2
ATOM      2  C   UNL     1       7.281   7.414  12.329  1.00  0.00     0.041 C 
ATOM      3  O   UNL     1       6.265   7.121  11.646  1.00  0.00    -0.550 OA
ATOM      4  O   UNL     1       8.247   8.259  11.797  1.00  0.00    -0.550 OA
ENDBRANCH   1   2
BRANCH   1   5
ATOM      5  C   UNL     1       6.252   5.997  14.128  1.00  0.00     0.003 C 
ATOM      6  C   UNL     1       5.451   6.676  15.239  1.00  0.00     0.004 C 
ENDBRANCH   1   5
TORSDOF 2
ENDMDL
